
 OpenBabel03042612443D

231259  0  0  0  0  0  0  0  0999 V2000
  -51.2240   42.1360   -4.8280 N   0  0  0  0  0  0  0  0  0  0  0  0
  -51.7580   42.2110   -6.1940 C   0  0  0  0  0  2  0  0  0  0  0  0
  -51.6330   43.5970   -6.8230 C   0  0  0  0  0  2  0  0  0  0  0  0
  -51.9760   44.6770   -5.8840 N   0  0  0  0  0  0  0  0  0  0  0  0
  -51.6150   44.5170   -4.4570 C   0  0  0  0  0  2  0  0  0  0  0  0
  -51.9470   43.1060   -3.9830 C   0  0  0  0  0  2  0  0  0  0  0  0
  -51.4290   40.7620   -4.2950 C   0  0  0  0  0  1  0  0  0  0  0  0
  -52.4560   45.9270   -6.3590 C   0  0  0  0  0  0  0  0  0  0  0  0
  -52.2030   47.0700   -5.5970 C   0  0  0  0  0  2  0  0  0  0  0  0
  -52.6510   48.3060   -6.0360 C   0  0  0  0  0  0  0  0  0  0  0  0
  -53.3170   48.3800   -7.1790 N   0  0  0  0  0  4  0  0  0  0  0  0
  -53.5520   47.2930   -7.9260 C   0  0  0  0  0  0  0  0  0  0  0  0
  -53.1220   46.0640   -7.5300 N   0  0  0  0  0  0  0  0  0  0  0  0
  -52.4080   49.3950   -5.3280 N   0  0  0  0  0  2  0  0  0  0  0  0
  -52.7520   50.6360   -5.6910 C   0  0  0  0  0  0  0  0  0  0  0  0
  -53.4740   51.0730   -6.7330 C   0  0  0  0  0  2  0  0  0  0  0  0
  -53.4960   52.3960   -6.5730 C   0  0  0  0  0  0  0  0  0  0  0  0
  -52.8220   52.7000   -5.4710 N   0  0  0  0  0  0  0  0  0  0  0  0
  -52.3810   51.6710   -4.9480 N   0  0  0  0  0  0  0  0  0  0  0  0
  -54.1680   53.4520   -7.4550 C   0  0  0  0  0  1  0  0  0  0  0  0
  -54.4410   47.4720   -9.4250 S   0  0  0  0  0  0  0  0  0  0  0  0
  -54.8990   49.1220   -9.7610 C   0  0  0  0  0  0  0  0  0  0  0  0
  -54.0210   49.9980  -10.3630 C   0  0  0  0  0  3  0  0  0  0  0  0
  -54.3830   51.3100  -10.6610 C   0  0  0  0  0  3  0  0  0  0  0  0
  -55.6530   51.7860  -10.3680 C   0  0  0  0  0  0  0  0  0  0  0  0
  -56.5320   50.8670   -9.7920 C   0  0  0  0  0  3  0  0  0  0  0  0
  -56.1700   49.5560   -9.5000 C   0  0  0  0  0  3  0  0  0  0  0  0
  -56.0640   53.0670  -10.6490 N   0  0  0  0  0  2  0  0  0  0  0  0
  -55.2220   54.0660  -10.9320 C   0  0  0  0  0  0  0  0  0  0  0  0
  -54.0190   53.9320  -11.0030 O   0  0  0  0  0  0  0  0  0  0  0  0
  -55.8010   55.4020  -11.3480 C   0  0  0  0  0  3  0  0  0  0  0  0
  -56.8270   56.0930  -10.4400 C   0  0  0  0  0  2  0  0  0  0  0  0
  -55.3700   56.5740  -10.4880 C   0  0  0  0  0  2  0  0  0  0  0  0
  -77.2280    6.8390  -21.9480 N   0  0  0  0  0  0  0  0  0  0  0  0
  -77.6240    7.6750  -20.8380 C   0  0  0  0  0  2  0  0  0  0  0  0
  -78.7780    7.0820  -20.0660 C   0  0  0  0  0  2  0  0  0  0  0  0
  -79.8280    6.6020  -20.9390 N   0  0  0  0  0  0  0  0  0  0  0  0
  -79.5120    6.1260  -22.2860 C   0  0  0  0  0  2  0  0  0  0  0  0
  -78.3310    6.8530  -22.8790 C   0  0  0  0  0  2  0  0  0  0  0  0
  -76.0370    7.4380  -22.5850 C   0  0  0  0  0  1  0  0  0  0  0  0
  -81.1220    6.4150  -20.4190 C   0  0  0  0  0  0  0  0  0  0  0  0
  -82.0660    5.6690  -21.1180 C   0  0  0  0  0  2  0  0  0  0  0  0
  -83.3380    5.4860  -20.5990 C   0  0  0  0  0  0  0  0  0  0  0  0
  -83.6150    6.0460  -19.4300 N   0  0  0  0  0  4  0  0  0  0  0  0
  -82.6970    6.7330  -18.7530 C   0  0  0  0  0  0  0  0  0  0  0  0
  -81.4670    6.9200  -19.2390 N   0  0  0  0  0  0  0  0  0  0  0  0
  -84.2400    4.7590  -21.2670 N   0  0  0  0  0  2  0  0  0  0  0  0
  -85.4880    4.4850  -20.8460 C   0  0  0  0  0  0  0  0  0  0  0  0
  -86.1570    4.9580  -19.7920 C   0  0  0  0  0  2  0  0  0  0  0  0
  -87.3480    4.3710  -19.8760 C   0  0  0  0  0  0  0  0  0  0  0  0
  -87.3710    3.5930  -20.9430 N   0  0  0  0  0  0  0  0  0  0  0  0
  -86.2820    3.6560  -21.5170 N   0  0  0  0  0  0  0  0  0  0  0  0
  -88.5320    4.5470  -18.9320 C   0  0  0  0  0  1  0  0  0  0  0  0
  -83.0950    7.4160  -17.2110 S   0  0  0  0  0  0  0  0  0  0  0  0
  -84.7930    7.0700  -16.8870 C   0  0  0  0  0  0  0  0  0  0  0  0
  -85.1790    5.8570  -16.3290 C   0  0  0  0  0  3  0  0  0  0  0  0
  -86.5140    5.5860  -16.0340 C   0  0  0  0  0  3  0  0  0  0  0  0
  -87.5200    6.5180  -16.2780 C   0  0  0  0  0  0  0  0  0  0  0  0
  -87.1220    7.7370  -16.8120 C   0  0  0  0  0  3  0  0  0  0  0  0
  -85.7760    8.0070  -17.1100 C   0  0  0  0  0  3  0  0  0  0  0  0
  -88.8250    6.2540  -15.9690 N   0  0  0  0  0  2  0  0  0  0  0  0
  -89.1510    5.0070  -15.5990 C   0  0  0  0  0  0  0  0  0  0  0  0
  -88.3150    4.1240  -15.5570 O   0  0  0  0  0  0  0  0  0  0  0  0
  -90.5720    4.6700  -15.1420 C   0  0  0  0  0  3  0  0  0  0  0  0
  -91.7590    5.4710  -15.7090 C   0  0  0  0  0  2  0  0  0  0  0  0
  -91.4370    4.0590  -16.2210 C   0  0  0  0  0  2  0  0  0  0  0  0
 -100.0310   -7.1790   -4.4130 N   0  0  0  0  0  0  0  0  0  0  0  0
  -99.6600   -6.0950   -3.4970 C   0  0  0  0  0  2  0  0  0  0  0  0
  -98.1510   -6.1070   -3.2080 C   0  0  0  0  0  2  0  0  0  0  0  0
  -97.6470   -7.4510   -2.7610 N   0  0  0  0  0  0  0  0  0  0  0  0
  -98.3120   -8.6790   -3.3190 C   0  0  0  0  0  2  0  0  0  0  0  0
  -99.7850   -8.4810   -3.7600 C   0  0  0  0  0  2  0  0  0  0  0  0
 -101.4610   -7.0320   -4.7390 C   0  0  0  0  0  1  0  0  0  0  0  0
  -96.5020   -7.5370   -1.8770 C   0  0  0  0  0  0  0  0  0  0  0  0
  -95.8010   -8.7310   -1.6820 C   0  0  0  0  0  2  0  0  0  0  0  0
  -94.6870   -8.7740   -0.8290 C   0  0  0  0  0  0  0  0  0  0  0  0
  -94.3140   -7.6340   -0.2080 N   0  0  0  0  0  4  0  0  0  0  0  0
  -94.9850   -6.4630   -0.3950 C   0  0  0  0  0  0  0  0  0  0  0  0
  -96.0610   -6.4390   -1.2150 N   0  0  0  0  0  0  0  0  0  0  0  0
  -94.0610   -9.9670   -0.6590 N   0  0  0  0  0  2  0  0  0  0  0  0
  -92.8980  -10.2190   -0.0210 C   0  0  0  0  0  0  0  0  0  0  0  0
  -92.2920   -9.5340    0.9540 C   0  0  0  0  0  2  0  0  0  0  0  0
  -91.1780  -10.2340    1.1930 C   0  0  0  0  0  0  0  0  0  0  0  0
  -91.1530  -11.2930    0.3880 N   0  0  0  0  0  0  0  0  0  0  0  0
  -92.1640  -11.2930   -0.3220 N   0  0  0  0  0  0  0  0  0  0  0  0
  -90.0850   -9.9080    2.2240 C   0  0  0  0  0  1  0  0  0  0  0  0
  -94.4730   -4.9370    0.4440 S   0  0  0  0  0  0  0  0  0  0  0  0
  -93.2410   -5.5920    1.5770 C   0  0  0  0  0  0  0  0  0  0  0  0
  -91.8890   -5.4820    1.2480 C   0  0  0  0  0  3  0  0  0  0  0  0
  -90.9030   -5.9890    2.1030 C   0  0  0  0  0  3  0  0  0  0  0  0
  -91.2410   -6.6240    3.2970 C   0  0  0  0  0  0  0  0  0  0  0  0
  -92.5990   -6.7370    3.6250 C   0  0  0  0  0  3  0  0  0  0  0  0
  -93.5930   -6.2330    2.7820 C   0  0  0  0  0  3  0  0  0  0  0  0
  -90.3060   -7.1130    4.1380 N   0  0  0  0  0  2  0  0  0  0  0  0
  -88.9920   -7.1670    3.8770 C   0  0  0  0  0  0  0  0  0  0  0  0
  -88.4690   -6.8130    2.8200 O   0  0  0  0  0  0  0  0  0  0  0  0
  -88.1430   -7.7750    5.0230 C   0  0  0  0  0  3  0  0  0  0  0  0
  -86.7330   -8.2660    4.6450 C   0  0  0  0  0  2  0  0  0  0  0  0
  -86.9090   -6.9720    5.4490 C   0  0  0  0  0  2  0  0  0  0  0  0
 -109.4560   27.4010   -3.8340 N   0  0  0  0  0  0  0  0  0  0  0  0
 -108.4310   27.8410   -4.8080 C   0  0  0  0  0  2  0  0  0  0  0  0
 -108.9920   28.2090   -6.1960 C   0  0  0  0  0  2  0  0  0  0  0  0
 -109.9300   27.1690   -6.6820 N   0  0  0  0  0  0  0  0  0  0  0  0
 -110.9160   26.6300   -5.7090 C   0  0  0  0  0  2  0  0  0  0  0  0
 -110.2460   26.2680   -4.3700 C   0  0  0  0  0  2  0  0  0  0  0  0
 -108.7830   26.9340   -2.5940 C   0  0  0  0  0  1  0  0  0  0  0  0
 -110.0220   26.8170   -8.0490 C   0  0  0  0  0  0  0  0  0  0  0  0
 -111.0410   25.9710   -8.4920 C   0  0  0  0  0  2  0  0  0  0  0  0
 -111.1590   25.6450   -9.8440 C   0  0  0  0  0  0  0  0  0  0  0  0
 -110.2760   26.1590  -10.7050 N   0  0  0  0  0  4  0  0  0  0  0  0
 -109.3030   26.9700  -10.2640 C   0  0  0  0  0  0  0  0  0  0  0  0
 -109.1730   27.3080   -8.9620 N   0  0  0  0  0  0  0  0  0  0  0  0
 -112.1370   24.8280  -10.2480 N   0  0  0  0  0  2  0  0  0  0  0  0
 -112.4270   24.5600  -11.5410 C   0  0  0  0  0  0  0  0  0  0  0  0
 -111.8990   25.1010  -12.6470 C   0  0  0  0  0  2  0  0  0  0  0  0
 -112.5310   24.4770  -13.6420 C   0  0  0  0  0  0  0  0  0  0  0  0
 -113.4000   23.6030  -13.1400 N   0  0  0  0  0  0  0  0  0  0  0  0
 -113.3420   23.6470  -11.9050 N   0  0  0  0  0  0  0  0  0  0  0  0
 -112.3130   24.7230  -15.1420 C   0  0  0  0  0  1  0  0  0  0  0  0
 -108.1670   27.6230  -11.3890 S   0  0  0  0  0  0  0  0  0  0  0  0
 -108.6590   27.1130  -12.9910 C   0  0  0  0  0  0  0  0  0  0  0  0
 -109.4180   27.9110  -13.8430 C   0  0  0  0  0  3  0  0  0  0  0  0
 -109.7660   27.4400  -15.1220 C   0  0  0  0  0  3  0  0  0  0  0  0
 -109.3310   26.1800  -15.5610 C   0  0  0  0  0  0  0  0  0  0  0  0
 -108.5600   25.4100  -14.7010 C   0  0  0  0  0  3  0  0  0  0  0  0
 -108.2250   25.8740  -13.4350 C   0  0  0  0  0  3  0  0  0  0  0  0
 -109.5950   25.6190  -16.7560 N   0  0  0  0  0  2  0  0  0  0  0  0
 -110.2230   26.1880  -17.7930 C   0  0  0  0  0  0  0  0  0  0  0  0
 -110.6650   27.3410  -17.8510 O   0  0  0  0  0  0  0  0  0  0  0  0
 -110.3390   25.2560  -18.9930 C   0  0  0  0  0  3  0  0  0  0  0  0
 -111.7680   24.8590  -19.3520 C   0  0  0  0  0  2  0  0  0  0  0  0
 -111.0030   25.8610  -20.2260 C   0  0  0  0  0  2  0  0  0  0  0  0
  -65.1860    6.5090  -35.2430 N   0  0  0  0  0  0  0  0  0  0  0  0
  -65.8370    7.8100  -35.4950 C   0  0  0  0  0  2  0  0  0  0  0  0
  -64.8270    8.9690  -35.6010 C   0  0  0  0  0  2  0  0  0  0  0  0
  -63.7310    8.8400  -34.6070 N   0  0  0  0  0  0  0  0  0  0  0  0
  -63.3220    7.4910  -34.1100 C   0  0  0  0  0  2  0  0  0  0  0  0
  -64.5220    6.5690  -33.9420 C   0  0  0  0  0  2  0  0  0  0  0  0
  -66.1970    5.4340  -35.1720 C   0  0  0  0  0  1  0  0  0  0  0  0
  -62.9920    9.9800  -34.2040 C   0  0  0  0  0  0  0  0  0  0  0  0
  -61.6050    9.9400  -34.1830 C   0  0  0  0  0  2  0  0  0  0  0  0
  -60.8740   11.0680  -33.7870 C   0  0  0  0  0  0  0  0  0  0  0  0
  -61.5330   12.1980  -33.4300 N   0  0  0  0  0  4  0  0  0  0  0  0
  -62.8830   12.2230  -33.4900 C   0  0  0  0  0  0  0  0  0  0  0  0
  -63.5870   11.1280  -33.8600 N   0  0  0  0  0  0  0  0  0  0  0  0
  -59.5260   10.9410  -33.7970 N   0  0  0  0  0  2  0  0  0  0  0  0
  -58.6740   11.8170  -33.2590 C   0  0  0  0  0  0  0  0  0  0  0  0
  -58.6930   13.1390  -33.4490 C   0  0  0  0  0  3  0  0  0  0  0  0
  -57.6610   13.5710  -32.7130 C   0  0  0  0  0  0  0  0  0  0  0  0
  -57.0570   12.5160  -32.1260 N   0  0  0  0  0  2  0  0  0  0  0  0
  -57.6520   11.4740  -32.4550 N   0  0  0  0  0  0  0  0  0  0  0  0
  -57.2540   15.0510  -32.5820 C   0  0  0  0  0  1  0  0  0  0  0  0
  -63.8290   13.6800  -33.0730 S   0  0  0  0  0  0  0  0  0  0  0  0
  -62.5590   14.9200  -32.6540 C   0  0  0  0  0  0  0  0  0  0  0  0
  -61.8910   15.6430  -33.6500 C   0  0  0  0  0  3  0  0  0  0  0  0
  -60.9160   16.5860  -33.3370 C   0  0  0  0  0  3  0  0  0  0  0  0
  -60.5780   16.8440  -32.0030 C   0  0  0  0  0  0  0  0  0  0  0  0
  -61.2680   16.1350  -31.0030 C   0  0  0  0  0  3  0  0  0  0  0  0
  -62.2390   15.1770  -31.3210 C   0  0  0  0  0  3  0  0  0  0  0  0
  -59.6570   17.8000  -31.6450 N   0  0  0  0  0  2  0  0  0  0  0  0
  -58.7090   18.3210  -32.4690 C   0  0  0  0  0  0  0  0  0  0  0  0
  -58.4690   17.9950  -33.6410 O   0  0  0  0  0  0  0  0  0  0  0  0
  -57.9010   19.4700  -31.8620 C   0  0  0  0  0  3  0  0  0  0  0  0
  -57.0540   19.1820  -30.6140 C   0  0  0  0  0  2  0  0  0  0  0  0
  -56.3920   19.3300  -32.0130 C   0  0  0  0  0  2  0  0  0  0  0  0
  -49.6030   34.0520  -37.3510 N   0  0  0  0  0  0  0  0  0  0  0  0
  -50.5810   35.1360  -37.1760 C   0  0  0  0  0  2  0  0  0  0  0  0
  -51.5420   35.1020  -38.3720 C   0  0  0  0  0  2  0  0  0  0  0  0
  -50.8660   34.8760  -39.6920 N   0  0  0  0  0  0  0  0  0  0  0  0
  -49.4200   34.5090  -39.8050 C   0  0  0  0  0  2  0  0  0  0  0  0
  -48.6850   34.4610  -38.4420 C   0  0  0  0  0  2  0  0  0  0  0  0
  -48.9080   33.7710  -36.0760 C   0  0  0  0  0  1  0  0  0  0  0  0
  -51.6750   35.0360  -40.8360 C   0  0  0  0  0  0  0  0  0  0  0  0
  -51.2290   34.9570  -42.1510 C   0  0  0  0  0  2  0  0  0  0  0  0
  -52.1660   35.1450  -43.1840 C   0  0  0  0  0  0  0  0  0  0  0  0
  -53.4610   35.4020  -42.8880 N   0  0  0  0  0  4  0  0  0  0  0  0
  -53.8520   35.4700  -41.6080 C   0  0  0  0  0  0  0  0  0  0  0  0
  -52.9660   35.2950  -40.6250 N   0  0  0  0  0  0  0  0  0  0  0  0
  -51.7410   35.0700  -44.4560 N   0  0  0  0  0  2  0  0  0  0  0  0
  -52.5280   35.0950  -45.5570 C   0  0  0  0  0  0  0  0  0  0  0  0
  -53.7870   35.5330  -45.6890 C   0  0  0  0  0  2  0  0  0  0  0  0
  -54.0490   35.3350  -46.9880 C   0  0  0  0  0  0  0  0  0  0  0  0
  -52.9800   34.8170  -47.5850 N   0  0  0  0  0  0  0  0  0  0  0  0
  -52.0820   34.6720  -46.7500 N   0  0  0  0  0  0  0  0  0  0  0  0
  -55.3590   35.6450  -47.7370 C   0  0  0  0  0  1  0  0  0  0  0  0
  -55.4910   35.7890  -41.0800 S   0  0  0  0  0  0  0  0  0  0  0  0
  -56.4680   36.0020  -42.4890 C   0  0  0  0  0  0  0  0  0  0  0  0
  -56.3050   35.1860  -43.5910 C   0  0  0  0  0  3  0  0  0  0  0  0
  -57.1200   35.3860  -44.6970 C   0  0  0  0  0  3  0  0  0  0  0  0
  -58.1140   36.3680  -44.7100 C   0  0  0  0  0  0  0  0  0  0  0  0
  -58.2690   37.1890  -43.5890 C   0  0  0  0  0  3  0  0  0  0  0  0
  -57.4510   36.9930  -42.4780 C   0  0  0  0  0  3  0  0  0  0  0  0
  -58.8740   36.5700  -45.8020 N   0  0  0  0  0  2  0  0  0  0  0  0
  -59.2910   35.5920  -46.6260 C   0  0  0  0  0  0  0  0  0  0  0  0
  -59.0800   34.3850  -46.4730 O   0  0  0  0  0  0  0  0  0  0  0  0
  -60.0650   36.0920  -47.8570 C   0  0  0  0  0  3  0  0  0  0  0  0
  -59.1440   36.4210  -49.0520 C   0  0  0  0  0  2  0  0  0  0  0  0
  -60.0430   35.1810  -49.0980 C   0  0  0  0  0  2  0  0  0  0  0  0
  -76.4550   31.4070   -7.0690 N   0  0  0  0  0  0  0  0  0  0  0  0
  -77.5910   31.6000   -8.0040 C   0  0  0  0  0  2  0  0  0  0  0  0
  -77.4230   30.8400   -9.3490 C   0  0  0  0  0  2  0  0  0  0  0  0
  -76.0060   30.7520   -9.8380 N   0  0  0  0  0  0  0  0  0  0  0  0
  -74.8610   30.8070   -8.8830 C   0  0  0  0  0  2  0  0  0  0  0  0
  -75.1620   31.7560   -7.7100 C   0  0  0  0  0  2  0  0  0  0  0  0
  -76.6450   32.2500   -5.8700 C   0  0  0  0  0  1  0  0  0  0  0  0
  -75.7440   30.5660  -11.2230 C   0  0  0  0  0  0  0  0  0  0  0  0
  -74.4880   30.8750  -11.7520 C   0  0  0  0  0  2  0  0  0  0  0  0
  -74.2400   30.6930  -13.1140 C   0  0  0  0  0  0  0  0  0  0  0  0
  -75.2220   30.2080  -13.8940 N   0  0  0  0  0  4  0  0  0  0  0  0
  -76.4300   29.9090  -13.3800 C   0  0  0  0  0  0  0  0  0  0  0  0
  -76.6870   30.0890  -12.0610 N   0  0  0  0  0  0  0  0  0  0  0  0
  -73.0360   31.0010  -13.6100 N   0  0  0  0  0  2  0  0  0  0  0  0
  -72.7490   31.0090  -14.9210 C   0  0  0  0  0  0  0  0  0  0  0  0
  -73.2910   30.2350  -15.8590 C   0  0  0  0  0  3  0  0  0  0  0  0
  -72.6620   30.6060  -16.9660 C   0  0  0  0  0  0  0  0  0  0  0  0
  -71.7750   31.5600  -16.6810 N   0  0  0  0  0  2  0  0  0  0  0  0
  -71.8190   31.8010  -15.4710 N   0  0  0  0  0  0  0  0  0  0  0  0
  -72.9110   30.0240  -18.3590 C   0  0  0  0  0  1  0  0  0  0  0  0
  -77.7290   29.2760  -14.4150 S   0  0  0  0  0  0  0  0  0  0  0  0
  -77.1640   29.2150  -16.0870 C   0  0  0  0  0  0  0  0  0  0  0  0
  -77.5100   28.1150  -16.8680 C   0  0  0  0  0  3  0  0  0  0  0  0
  -77.0960   28.0230  -18.1970 C   0  0  0  0  0  3  0  0  0  0  0  0
  -76.3240   29.0420  -18.7730 C   0  0  0  0  0  0  0  0  0  0  0  0
  -76.0020   30.1510  -17.9850 C   0  0  0  0  0  3  0  0  0  0  0  0
  -76.4150   30.2370  -16.6550 C   0  0  0  0  0  3  0  0  0  0  0  0
  -75.9160   29.0180  -20.0620 N   0  0  0  0  0  2  0  0  0  0  0  0
  -76.2340   28.0160  -20.9130 C   0  0  0  0  0  0  0  0  0  0  0  0
  -76.8750   27.0110  -20.5870 O   0  0  0  0  0  0  0  0  0  0  0  0
  -75.7540   28.1540  -22.3940 C   0  0  0  0  0  3  0  0  0  0  0  0
  -75.6770   29.5800  -22.9730 C   0  0  0  0  0  2  0  0  0  0  0  0
  -74.3900   28.8090  -22.6500 C   0  0  0  0  0  2  0  0  0  0  0  0
  1  2  1  0  0  0  0
  1  6  1  0  0  0  0
  1  7  1  0  0  0  0
  2  3  1  0  0  0  0
  3  4  1  0  0  0  0
  4  5  1  0  0  0  0
  4  8  1  0  0  0  0
  5  6  1  0  0  0  0
  8  9  1  0  0  0  0
  8 13  2  0  0  0  0
  9 10  1  0  0  0  0
 10 11  2  0  0  0  0
 10 14  1  0  0  0  0
 11 12  2  0  0  0  0
 12 13  1  0  0  0  0
 12 21  1  0  0  0  0
 14 15  1  0  0  0  0
 15 16  1  0  0  0  0
 15 19  2  0  0  0  0
 16 17  1  0  0  0  0
 17 18  2  0  0  0  0
 17 20  1  0  0  0  0
 18 19  1  0  0  0  0
 21 22  1  0  0  0  0
 22 23  2  0  0  0  0
 22 27  1  0  0  0  0
 23 24  1  0  0  0  0
 24 25  2  0  0  0  0
 25 26  1  0  0  0  0
 25 28  1  0  0  0  0
 26 27  2  0  0  0  0
 28 29  1  0  0  0  0
 29 30  2  0  0  0  0
 29 31  1  0  0  0  0
 31 32  1  0  0  0  0
 31 33  1  0  0  0  0
 32 33  1  0  0  0  0
 34 35  1  0  0  0  0
 34 39  1  0  0  0  0
 34 40  1  0  0  0  0
 35 36  1  0  0  0  0
 36 37  1  0  0  0  0
 37 38  1  0  0  0  0
 37 41  1  0  0  0  0
 38 39  1  0  0  0  0
 41 42  1  0  0  0  0
 41 46  2  0  0  0  0
 42 43  1  0  0  0  0
 43 44  2  0  0  0  0
 43 47  1  0  0  0  0
 44 45  2  0  0  0  0
 45 46  1  0  0  0  0
 45 54  1  0  0  0  0
 47 48  1  0  0  0  0
 48 49  1  0  0  0  0
 48 52  2  0  0  0  0
 49 50  1  0  0  0  0
 50 51  2  0  0  0  0
 50 53  1  0  0  0  0
 51 52  1  0  0  0  0
 54 55  1  0  0  0  0
 55 56  2  0  0  0  0
 55 60  1  0  0  0  0
 56 57  1  0  0  0  0
 57 58  2  0  0  0  0
 58 59  1  0  0  0  0
 58 61  1  0  0  0  0
 59 60  2  0  0  0  0
 61 62  1  0  0  0  0
 62 63  2  0  0  0  0
 62 64  1  0  0  0  0
 64 65  1  0  0  0  0
 64 66  1  0  0  0  0
 65 66  1  0  0  0  0
 67 68  1  0  0  0  0
 67 72  1  0  0  0  0
 67 73  1  0  0  0  0
 68 69  1  0  0  0  0
 69 70  1  0  0  0  0
 70 71  1  0  0  0  0
 70 74  1  0  0  0  0
 71 72  1  0  0  0  0
 74 75  1  0  0  0  0
 74 79  2  0  0  0  0
 75 76  1  0  0  0  0
 76 77  2  0  0  0  0
 76 80  1  0  0  0  0
 77 78  2  0  0  0  0
 78 79  1  0  0  0  0
 78 87  1  0  0  0  0
 80 81  1  0  0  0  0
 81 82  1  0  0  0  0
 81 85  2  0  0  0  0
 82 83  1  0  0  0  0
 83 84  2  0  0  0  0
 83 86  1  0  0  0  0
 84 85  1  0  0  0  0
 87 88  1  0  0  0  0
 88 89  2  0  0  0  0
 88 93  1  0  0  0  0
 89 90  1  0  0  0  0
 90 91  2  0  0  0  0
 91 92  1  0  0  0  0
 91 94  1  0  0  0  0
 92 93  2  0  0  0  0
 94 95  1  0  0  0  0
 95 96  2  0  0  0  0
 95 97  1  0  0  0  0
 97 98  1  0  0  0  0
 97 99  1  0  0  0  0
 98 99  1  0  0  0  0
100101  1  0  0  0  0
100105  1  0  0  0  0
100106  1  0  0  0  0
101102  1  0  0  0  0
102103  1  0  0  0  0
103104  1  0  0  0  0
103107  1  0  0  0  0
104105  1  0  0  0  0
107108  1  0  0  0  0
107112  2  0  0  0  0
108109  1  0  0  0  0
109110  2  0  0  0  0
109113  1  0  0  0  0
110111  2  0  0  0  0
111112  1  0  0  0  0
111120  1  0  0  0  0
113114  1  0  0  0  0
114115  1  0  0  0  0
114118  2  0  0  0  0
115116  1  0  0  0  0
116117  2  0  0  0  0
116119  1  0  0  0  0
117118  1  0  0  0  0
120121  1  0  0  0  0
121122  2  0  0  0  0
121126  1  0  0  0  0
122123  1  0  0  0  0
123124  2  0  0  0  0
124125  1  0  0  0  0
124127  1  0  0  0  0
125126  2  0  0  0  0
127128  1  0  0  0  0
128129  2  0  0  0  0
128130  1  0  0  0  0
130131  1  0  0  0  0
130132  1  0  0  0  0
131132  1  0  0  0  0
133134  1  0  0  0  0
133138  1  0  0  0  0
133139  1  0  0  0  0
134135  1  0  0  0  0
135136  1  0  0  0  0
136137  1  0  0  0  0
136140  1  0  0  0  0
137138  1  0  0  0  0
140141  1  0  0  0  0
140145  2  0  0  0  0
141142  1  0  0  0  0
142143  2  0  0  0  0
142146  1  0  0  0  0
143144  2  0  0  0  0
144145  1  0  0  0  0
144153  1  0  0  0  0
146147  1  0  0  0  0
147148  1  0  0  0  0
147151  2  0  0  0  0
148149  2  0  0  0  0
149150  1  0  0  0  0
149152  1  0  0  0  0
150151  1  0  0  0  0
153154  1  0  0  0  0
154155  2  0  0  0  0
154159  1  0  0  0  0
155156  1  0  0  0  0
156157  2  0  0  0  0
157158  1  0  0  0  0
157160  1  0  0  0  0
158159  2  0  0  0  0
160161  1  0  0  0  0
161162  2  0  0  0  0
161163  1  0  0  0  0
163164  1  0  0  0  0
163165  1  0  0  0  0
164165  1  0  0  0  0
166167  1  0  0  0  0
166171  1  0  0  0  0
166172  1  0  0  0  0
167168  1  0  0  0  0
168169  1  0  0  0  0
169170  1  0  0  0  0
169173  1  0  0  0  0
170171  1  0  0  0  0
173174  1  0  0  0  0
173178  2  0  0  0  0
174175  1  0  0  0  0
175176  2  0  0  0  0
175179  1  0  0  0  0
176177  2  0  0  0  0
177178  1  0  0  0  0
177186  1  0  0  0  0
179180  1  0  0  0  0
180181  1  0  0  0  0
180184  2  0  0  0  0
181182  1  0  0  0  0
182183  2  0  0  0  0
182185  1  0  0  0  0
183184  1  0  0  0  0
186187  1  0  0  0  0
187188  2  0  0  0  0
187192  1  0  0  0  0
188189  1  0  0  0  0
189190  2  0  0  0  0
190191  1  0  0  0  0
190193  1  0  0  0  0
191192  2  0  0  0  0
193194  1  0  0  0  0
194195  2  0  0  0  0
194196  1  0  0  0  0
196197  1  0  0  0  0
196198  1  0  0  0  0
197198  1  0  0  0  0
199200  1  0  0  0  0
199204  1  0  0  0  0
199205  1  0  0  0  0
200201  1  0  0  0  0
201202  1  0  0  0  0
202203  1  0  0  0  0
202206  1  0  0  0  0
203204  1  0  0  0  0
206207  1  0  0  0  0
206211  2  0  0  0  0
207208  1  0  0  0  0
208209  2  0  0  0  0
208212  1  0  0  0  0
209210  2  0  0  0  0
210211  1  0  0  0  0
210219  1  0  0  0  0
212213  1  0  0  0  0
213214  1  0  0  0  0
213217  2  0  0  0  0
214215  2  0  0  0  0
215216  1  0  0  0  0
215218  1  0  0  0  0
216217  1  0  0  0  0
219220  1  0  0  0  0
220221  2  0  0  0  0
220225  1  0  0  0  0
221222  1  0  0  0  0
222223  2  0  0  0  0
223224  1  0  0  0  0
223226  1  0  0  0  0
224225  2  0  0  0  0
226227  1  0  0  0  0
227228  2  0  0  0  0
227229  1  0  0  0  0
229230  1  0  0  0  0
229231  1  0  0  0  0
230231  1  0  0  0  0
M  END
$$$$
