
     RDKit          3D

 33 37  0  0  0  0  0  0  0  0999 V2000
  -65.1860    6.5090  -35.2430 N   0  0  0  0  0  0  0  0  0  0  0  0
  -65.8370    7.8100  -35.4950 C   0  0  0  0  0  0  0  0  0  0  0  0
  -64.8270    8.9690  -35.6010 C   0  0  0  0  0  0  0  0  0  0  0  0
  -63.7310    8.8400  -34.6070 N   0  0  0  0  0  0  0  0  0  0  0  0
  -63.3220    7.4910  -34.1100 C   0  0  0  0  0  0  0  0  0  0  0  0
  -64.5220    6.5690  -33.9420 C   0  0  0  0  0  0  0  0  0  0  0  0
  -66.1970    5.4340  -35.1720 C   0  0  0  0  0  0  0  0  0  0  0  0
  -62.9920    9.9800  -34.2040 C   0  0  0  0  0  0  0  0  0  0  0  0
  -61.6050    9.9400  -34.1830 C   0  0  0  0  0  0  0  0  0  0  0  0
  -60.8740   11.0680  -33.7870 C   0  0  0  0  0  0  0  0  0  0  0  0
  -61.5330   12.1980  -33.4300 N   0  0  0  0  0  0  0  0  0  0  0  0
  -62.8830   12.2230  -33.4900 C   0  0  0  0  0  0  0  0  0  0  0  0
  -63.5870   11.1280  -33.8600 N   0  0  0  0  0  0  0  0  0  0  0  0
  -59.5260   10.9410  -33.7970 N   0  0  0  0  0  0  0  0  0  0  0  0
  -58.6740   11.8170  -33.2590 C   0  0  0  0  0  0  0  0  0  0  0  0
  -58.6930   13.1390  -33.4490 C   0  0  0  0  0  0  0  0  0  0  0  0
  -57.6610   13.5710  -32.7130 C   0  0  0  0  0  0  0  0  0  0  0  0
  -57.0570   12.5160  -32.1260 N   0  0  0  0  0  0  0  0  0  0  0  0
  -57.6520   11.4740  -32.4550 N   0  0  0  0  0  0  0  0  0  0  0  0
  -57.2540   15.0510  -32.5820 C   0  0  0  0  0  0  0  0  0  0  0  0
  -63.8290   13.6800  -33.0730 S   0  0  0  0  0  0  0  0  0  0  0  0
  -62.5590   14.9200  -32.6540 C   0  0  0  0  0  0  0  0  0  0  0  0
  -61.8910   15.6430  -33.6500 C   0  0  0  0  0  0  0  0  0  0  0  0
  -60.9160   16.5860  -33.3370 C   0  0  0  0  0  0  0  0  0  0  0  0
  -60.5780   16.8440  -32.0030 C   0  0  2  0  0  0  0  0  0  0  0  0
  -61.2680   16.1350  -31.0030 C   0  0  0  0  0  0  0  0  0  0  0  0
  -62.2390   15.1770  -31.3210 C   0  0  0  0  0  0  0  0  0  0  0  0
  -59.6570   17.8000  -31.6450 N   0  0  0  0  0  0  0  0  0  0  0  0
  -58.7090   18.3210  -32.4690 C   0  0  0  0  0  0  0  0  0  0  0  0
  -58.4690   17.9950  -33.6410 O   0  0  0  0  0  0  0  0  0  0  0  0
  -57.9010   19.4700  -31.8620 C   0  0  1  0  0  0  0  0  0  0  0  0
  -57.0540   19.1820  -30.6140 C   0  0  0  0  0  0  0  0  0  0  0  0
  -56.3920   19.3300  -32.0130 C   0  0  0  0  0  0  0  0  0  0  0  0
  2  1  1  0
  3  2  1  0
  4  3  1  0
  5  4  1  0
  6  5  1  0
  6  1  1  0
  7  1  1  0
  8  4  1  0
  9  8  1  0
 10  9  1  0
 11 10  1  0
 12 11  1  0
 13  8  1  0
 13 12  1  0
 14 10  1  0
 15 14  1  0
 16 15  1  0
 17 16  1  0
 18 17  1  0
 19 15  1  0
 19 18  1  0
 20 17  1  0
 21 12  1  0
 22 21  1  0
 23 22  1  0
 24 23  1  0
 25 24  1  0
 26 25  1  0
 27 26  1  0
 27 22  1  0
 25 28  1  1
 29 28  1  0
 30 29  1  0
 31 29  1  6
 32 31  1  0
 33 32  1  0
 33 31  1  0
M  END
$$$$
