56844261
  -OEChem-01262620403D

 46 49  0     1  0  0  0  0  0999 V2000
   -3.3698    0.5494   -1.4936 O   0  0  0  0  0  0  0  0  0  0  0  0
   -1.7032    0.5547    1.6181 N   0  0  0  0  0  0  0  0  0  0  0  0
   -3.3538    1.7003    0.5412 N   0  0  0  0  0  0  0  0  0  0  0  0
   -1.7643    2.9575    1.7844 N   0  0  0  0  0  0  0  0  0  0  0  0
    5.7260    0.6540    0.3303 N   0  0  0  0  0  0  0  0  0  0  0  0
   -1.6206    0.1341    0.1944 C   0  0  1  0  0  0  0  0  0  0  0  0
   -2.5494    1.7333    1.7295 C   0  0  2  0  0  0  0  0  0  0  0  0
   -2.8862    0.7886   -0.3949 C   0  0  0  0  0  0  0  0  0  0  0  0
   -0.3156    0.6716   -0.4300 C   0  0  0  0  0  0  0  0  0  0  0  0
   -1.7429   -1.3945    0.0267 C   0  0  0  0  0  0  0  0  0  0  0  0
   -4.5297    2.5342    0.3826 C   0  0  0  0  0  0  0  0  0  0  0  0
    0.9190    0.2142    0.0308 C   0  0  0  0  0  0  0  0  0  0  0  0
   -0.3711    1.6146   -1.4565 C   0  0  0  0  0  0  0  0  0  0  0  0
   -1.7615   -1.9568   -1.2496 C   0  0  0  0  0  0  0  0  0  0  0  0
   -1.8351   -2.2143    1.1515 C   0  0  0  0  0  0  0  0  0  0  0  0
    2.0981    0.6995   -0.5349 C   0  0  0  0  0  0  0  0  0  0  0  0
    0.8081    2.0997   -2.0224 C   0  0  0  0  0  0  0  0  0  0  0  0
    2.0425    1.6423   -1.5615 C   0  0  0  0  0  0  0  0  0  0  0  0
   -1.8720   -3.3391   -1.4013 C   0  0  0  0  0  0  0  0  0  0  0  0
   -1.9457   -3.5966    1.0000 C   0  0  0  0  0  0  0  0  0  0  0  0
   -1.9640   -4.1589   -0.2765 C   0  0  0  0  0  0  0  0  0  0  0  0
    3.3786    0.2247   -0.0577 C   0  0  0  0  0  0  0  0  0  0  0  0
    3.5208   -1.0592    0.4566 C   0  0  0  0  0  0  0  0  0  0  0  0
    4.5019    1.0351   -0.0986 C   0  0  0  0  0  0  0  0  0  0  0  0
    4.7643   -1.4877    0.9078 C   0  0  0  0  0  0  0  0  0  0  0  0
    5.8256   -0.6008    0.8236 C   0  0  0  0  0  0  0  0  0  0  0  0
   -3.1950    1.6497    2.6097 H   0  0  0  0  0  0  0  0  0  0  0  0
   -0.7926    0.6996    2.0471 H   0  0  0  0  0  0  0  0  0  0  0  0
   -5.2208    2.3302    1.2047 H   0  0  0  0  0  0  0  0  0  0  0  0
   -5.0229    2.3175   -0.5686 H   0  0  0  0  0  0  0  0  0  0  0  0
   -4.2314    3.5855    0.4010 H   0  0  0  0  0  0  0  0  0  0  0  0
    0.9371   -0.4992    0.8506 H   0  0  0  0  0  0  0  0  0  0  0  0
   -1.3033    2.0070   -1.8468 H   0  0  0  0  0  0  0  0  0  0  0  0
   -1.1845    2.9471    2.6222 H   0  0  0  0  0  0  0  0  0  0  0  0
   -2.3881    3.7571    1.8803 H   0  0  0  0  0  0  0  0  0  0  0  0
   -1.6790   -1.3406   -2.1405 H   0  0  0  0  0  0  0  0  0  0  0  0
   -1.8211   -1.8235    2.1640 H   0  0  0  0  0  0  0  0  0  0  0  0
    0.7648    2.8304   -2.8249 H   0  0  0  0  0  0  0  0  0  0  0  0
    2.9341    2.0273   -2.0490 H   0  0  0  0  0  0  0  0  0  0  0  0
   -1.8835   -3.7774   -2.3949 H   0  0  0  0  0  0  0  0  0  0  0  0
   -2.0163   -4.2356    1.8753 H   0  0  0  0  0  0  0  0  0  0  0  0
   -2.0490   -5.2351   -0.3945 H   0  0  0  0  0  0  0  0  0  0  0  0
    2.6978   -1.7672    0.4981 H   0  0  0  0  0  0  0  0  0  0  0  0
    4.4783    2.0593   -0.4571 H   0  0  0  0  0  0  0  0  0  0  0  0
    4.9006   -2.4865    1.3065 H   0  0  0  0  0  0  0  0  0  0  0  0
    6.8165   -0.8871    1.1605 H   0  0  0  0  0  0  0  0  0  0  0  0
  1  8  2  0  0  0  0
  2  6  1  0  0  0  0
  2  7  1  0  0  0  0
  2 28  1  0  0  0  0
  3  7  1  0  0  0  0
  3  8  1  0  0  0  0
  3 11  1  0  0  0  0
  4  7  1  0  0  0  0
  4 34  1  0  0  0  0
  4 35  1  0  0  0  0
  5 24  1  0  0  0  0
  5 26  2  0  0  0  0
  6  8  1  0  0  0  0
  6  9  1  0  0  0  0
  6 10  1  0  0  0  0
  7 27  1  0  0  0  0
  9 12  1  0  0  0  0
  9 13  2  0  0  0  0
 10 14  2  0  0  0  0
 10 15  1  0  0  0  0
 11 29  1  0  0  0  0
 11 30  1  0  0  0  0
 11 31  1  0  0  0  0
 12 16  2  0  0  0  0
 12 32  1  0  0  0  0
 13 17  1  0  0  0  0
 13 33  1  0  0  0  0
 14 19  1  0  0  0  0
 14 36  1  0  0  0  0
 15 20  2  0  0  0  0
 15 37  1  0  0  0  0
 16 18  1  0  0  0  0
 16 22  1  0  0  0  0
 17 18  2  0  0  0  0
 17 38  1  0  0  0  0
 18 39  1  0  0  0  0
 19 21  2  0  0  0  0
 19 40  1  0  0  0  0
 20 21  1  0  0  0  0
 20 41  1  0  0  0  0
 21 42  1  0  0  0  0
 22 23  1  0  0  0  0
 22 24  2  0  0  0  0
 23 25  2  0  0  0  0
 23 43  1  0  0  0  0
 24 44  1  0  0  0  0
 25 26  1  0  0  0  0
 25 45  1  0  0  0  0
 26 46  1  0  0  0  0
M  END
> <PUBCHEM_COMPOUND_CID>
56844261

> <PUBCHEM_CONFORMER_RMSD>
0.8

> <PUBCHEM_CONFORMER_DIVERSEORDER>
1
15
22
5
24
16
7
19
2
6
17
12
23
20
8
3
21
14
4
11
13
18
9
10

> <PUBCHEM_MMFF94_PARTIAL_CHARGES>
40
1 -0.57
10 -0.14
11 0.3
12 -0.15
13 -0.15
14 -0.15
15 -0.15
17 -0.15
18 -0.15
19 -0.15
2 -0.9
20 -0.15
21 -0.15
23 -0.15
24 0.16
25 -0.15
26 0.16
28 0.36
3 -0.66
32 0.15
33 0.15
34 0.36
35 0.36
36 0.15
37 0.15
38 0.15
39 0.15
4 -0.99
40 0.15
41 0.15
42 0.15
43 0.15
44 0.15
45 0.15
46 0.15
5 -0.62
6 0.62
7 0.84
8 0.57
9 -0.14

> <PUBCHEM_EFFECTIVE_ROTOR_COUNT>
3.8

> <PUBCHEM_PHARMACOPHORE_FEATURES>
10
1 1 acceptor
1 2 cation
1 2 donor
1 4 cation
1 4 donor
1 5 acceptor
5 2 3 6 7 8 rings
6 10 14 15 19 20 21 rings
6 5 22 23 24 25 26 rings
6 9 12 13 16 17 18 rings

> <PUBCHEM_HEAVY_ATOM_COUNT>
26

> <PUBCHEM_ATOM_DEF_STEREO_COUNT>
1

> <PUBCHEM_ATOM_UDEF_STEREO_COUNT>
1

> <PUBCHEM_BOND_DEF_STEREO_COUNT>
0

> <PUBCHEM_BOND_UDEF_STEREO_COUNT>
0

> <PUBCHEM_ISOTOPIC_ATOM_COUNT>
0

> <PUBCHEM_COMPONENT_COUNT>
1

> <PUBCHEM_CACTVS_TAUTO_COUNT>
1

> <PUBCHEM_CONFORMER_ID>
03635FE500000001

> <PUBCHEM_MMFF94_ENERGY>
81.6361

> <PUBCHEM_FEATURE_SELFOVERLAP>
50.807

> <PUBCHEM_SHAPE_FINGERPRINT>
10366900 7 17704063002326673024
11370993 70 18129101126076034546
11552529 35 18342450495906458634
11578080 2 17980754162964777553
12160290 23 18056788574600899159
12549972 3 16698968589616509710
12553582 1 17695084574631145407
12633257 1 18338792296298613314
12788726 201 18123209036742299303
13004483 165 18053947535139033231
13009979 54 18265906937244716518
13140716 1 18261960738351954924
13583140 156 16773789317021798506
13631057 29 18122624122579203958
14068700 675 18124299769235623566
14178342 30 18339935878269419398
14844126 61 18199461232990732834
15099037 8 18117843419734761550
15420108 30 18050840027752973589
15537594 2 17749678385784297658
15842332 3 17971775486202455260
15849732 13 18114181904533710301
19141452 34 18334573521447910228
20197701 30 18268147565922324289
20554085 129 17843385311874825393
20642791 105 18410293623452335673
21033648 29 18265880385494175232
21033650 10 17273439200231137352
23559900 14 18198043979750684808
23598288 3 18197512911312803231
23728640 28 18412266146706333299
25147074 1 18042980950202154228
3633792 109 18196641896361837869
4017518 198 18199188391288918294
5104073 3 18336254731078391496
5486654 36 18114466755370552978
58260988 114 17313678142941346859
5924683 9 18339917225189509938
59554788 281 18199764556734668317
6992083 37 18333740112718755892
9953998 17 18337936928218884738
9981440 41 17131836421619383366

> <PUBCHEM_SHAPE_MULTIPOLES>
509.27
9.32
4.12
1.66
15.01
3.77
0.13
-0.85
-2.74
-5.24
0.02
-0.78
-0.6
-1.88

> <PUBCHEM_SHAPE_SELFOVERLAP>
1125.708

> <PUBCHEM_SHAPE_VOLUME>
272.5

> <PUBCHEM_COORDINATE_TYPE>
2
5
10

$$$$
