21874557
  -OEChem-01262620413D

 39 42  0     0  0  0  0  0  0999 V2000
   -4.7569    0.5266    0.9189 O   0  0  0  0  0  0  0  0  0  0  0  0
    0.4362   -0.6843   -1.3592 N   0  0  0  0  0  0  0  0  0  0  0  0
   -0.0777   -1.9146   -1.1738 N   0  0  0  0  0  0  0  0  0  0  0  0
   -1.2918   -1.7702   -0.6456 N   0  0  0  0  0  0  0  0  0  0  0  0
   -0.2824    1.6096   -0.9808 N   0  0  0  0  0  0  0  0  0  0  0  0
   -2.5245    1.6553   -0.0120 N   0  0  0  0  0  0  0  0  0  0  0  0
    5.8082   -0.4287    2.0845 N   0  0  0  0  0  0  0  0  0  0  0  0
   -1.3454    3.6298   -0.4620 N   0  0  0  0  0  0  0  0  0  0  0  0
    1.7752   -0.5130   -1.9324 C   0  0  0  0  0  0  0  0  0  0  0  0
    2.8314   -0.4854   -0.8800 C   0  0  0  0  0  0  0  0  0  0  0  0
   -0.4357    0.2787   -0.9543 C   0  0  0  0  0  0  0  0  0  0  0  0
   -1.5314   -0.4325   -0.5027 C   0  0  0  0  0  0  0  0  0  0  0  0
    3.2089    0.7265   -0.3017 C   0  0  0  0  0  0  0  0  0  0  0  0
    4.1967    0.7517    0.6829 C   0  0  0  0  0  0  0  0  0  0  0  0
   -2.6059    0.3021   -0.0172 C   0  0  0  0  0  0  0  0  0  0  0  0
    3.4419   -1.6721   -0.4738 C   0  0  0  0  0  0  0  0  0  0  0  0
    4.8070   -0.4349    1.0890 C   0  0  0  0  0  0  0  0  0  0  0  0
    4.4296   -1.6469    0.5107 C   0  0  0  0  0  0  0  0  0  0  0  0
   -3.7925   -0.3225    0.4769 C   0  0  0  0  0  0  0  0  0  0  0  0
    4.5815    2.0637    1.2854 C   0  0  0  0  0  0  0  0  0  0  0  0
   -1.3848    2.2166   -0.4869 C   0  0  0  0  0  0  0  0  0  0  0  0
   -4.1993   -1.6293    0.6143 C   0  0  0  0  0  0  0  0  0  0  0  0
   -5.4971   -1.5798    1.1766 C   0  0  0  0  0  0  0  0  0  0  0  0
   -5.7909   -0.2464    1.3430 C   0  0  0  0  0  0  0  0  0  0  0  0
    1.7642    0.4144   -2.5173 H   0  0  0  0  0  0  0  0  0  0  0  0
    1.9329   -1.3330   -2.6434 H   0  0  0  0  0  0  0  0  0  0  0  0
    2.7323    1.6499   -0.6218 H   0  0  0  0  0  0  0  0  0  0  0  0
    3.1563   -2.6230   -0.9159 H   0  0  0  0  0  0  0  0  0  0  0  0
    4.8968   -2.5790    0.8182 H   0  0  0  0  0  0  0  0  0  0  0  0
    4.3908    2.0620    2.3637 H   0  0  0  0  0  0  0  0  0  0  0  0
    5.6403    2.2748    1.1022 H   0  0  0  0  0  0  0  0  0  0  0  0
    4.0074    2.8926    0.8569 H   0  0  0  0  0  0  0  0  0  0  0  0
   -3.6466   -2.5191    0.3493 H   0  0  0  0  0  0  0  0  0  0  0  0
    6.2396   -1.2997    2.3654 H   0  0  0  0  0  0  0  0  0  0  0  0
    6.1035    0.4333    2.5210 H   0  0  0  0  0  0  0  0  0  0  0  0
   -6.1383   -2.4119    1.4292 H   0  0  0  0  0  0  0  0  0  0  0  0
   -6.6465    0.2882    1.7287 H   0  0  0  0  0  0  0  0  0  0  0  0
   -2.1393    4.1424   -0.1038 H   0  0  0  0  0  0  0  0  0  0  0  0
   -0.5233    4.1095   -0.8017 H   0  0  0  0  0  0  0  0  0  0  0  0
  1 19  1  0  0  0  0
  1 24  1  0  0  0  0
  2  3  1  0  0  0  0
  2  9  1  0  0  0  0
  2 11  1  0  0  0  0
  3  4  2  0  0  0  0
  4 12  1  0  0  0  0
  5 11  2  0  0  0  0
  5 21  1  0  0  0  0
  6 15  1  0  0  0  0
  6 21  2  0  0  0  0
  7 17  1  0  0  0  0
  7 34  1  0  0  0  0
  7 35  1  0  0  0  0
  8 21  1  0  0  0  0
  8 38  1  0  0  0  0
  8 39  1  0  0  0  0
  9 10  1  0  0  0  0
  9 25  1  0  0  0  0
  9 26  1  0  0  0  0
 10 13  2  0  0  0  0
 10 16  1  0  0  0  0
 11 12  1  0  0  0  0
 12 15  2  0  0  0  0
 13 14  1  0  0  0  0
 13 27  1  0  0  0  0
 14 17  2  0  0  0  0
 14 20  1  0  0  0  0
 15 19  1  0  0  0  0
 16 18  2  0  0  0  0
 16 28  1  0  0  0  0
 17 18  1  0  0  0  0
 18 29  1  0  0  0  0
 19 22  2  0  0  0  0
 20 30  1  0  0  0  0
 20 31  1  0  0  0  0
 20 32  1  0  0  0  0
 22 23  1  0  0  0  0
 22 33  1  0  0  0  0
 23 24  2  0  0  0  0
 23 36  1  0  0  0  0
 24 37  1  0  0  0  0
M  END
> <PUBCHEM_COMPOUND_CID>
21874557

> <PUBCHEM_CONFORMER_RMSD>
0.6

> <PUBCHEM_CONFORMER_DIVERSEORDER>
2
90
29
95
71
76
63
41
34
51
96
6
61
67
75
64
30
37
81
93
5
33
80
62
39
88
72
89
38
73
19
42
94
20
74
46
86
25
26
83
44
77
40
91
24
69
78
45
92
23
84
70
43
28
18
82
48
17
87
47
79
16
15
36
35
27
85
1
52
68
22
32
31
14
49
57
11
59
50
8
21
58
7
54
56
60
13
65
12
66
55
53
3
4
9
10

> <PUBCHEM_MMFF94_PARTIAL_CHARGES>
34
1 -0.28
10 -0.14
11 0.11
12 0.23
13 -0.15
14 -0.14
15 0.36
16 -0.15
17 0.1
18 -0.15
19 0.09
2 0.31
20 0.14
21 0.72
22 -0.15
23 -0.15
24 -0.01
27 0.15
28 0.15
29 0.15
3 -0.42
33 0.15
34 0.4
35 0.4
36 0.15
37 0.15
38 0.4
39 0.4
4 -0.23
5 -0.57
6 -0.62
7 -0.9
8 -0.9
9 0.4

> <PUBCHEM_EFFECTIVE_ROTOR_COUNT>
3

> <PUBCHEM_PHARMACOPHORE_FEATURES>
9
1 1 acceptor
1 7 cation
1 7 donor
1 8 donor
4 5 6 8 21 cation
5 1 19 22 23 24 rings
5 2 3 4 11 12 rings
6 10 13 14 16 17 18 rings
6 5 6 11 12 15 21 rings

> <PUBCHEM_HEAVY_ATOM_COUNT>
24

> <PUBCHEM_ATOM_DEF_STEREO_COUNT>
0

> <PUBCHEM_ATOM_UDEF_STEREO_COUNT>
0

> <PUBCHEM_BOND_DEF_STEREO_COUNT>
0

> <PUBCHEM_BOND_UDEF_STEREO_COUNT>
0

> <PUBCHEM_ISOTOPIC_ATOM_COUNT>
0

> <PUBCHEM_COMPONENT_COUNT>
1

> <PUBCHEM_CACTVS_TAUTO_COUNT>
4

> <PUBCHEM_CONFORMER_ID>
014DC77D00000002

> <PUBCHEM_MMFF94_ENERGY>
61.4097

> <PUBCHEM_FEATURE_SELFOVERLAP>
45.801

> <PUBCHEM_SHAPE_FINGERPRINT>
10319926 262 18266457599333945546
10554248 39 12605739597583051177
10591671 39 12103839048046764889
10670039 82 11167677459613762643
11796584 16 16443634596714942715
12403259 415 17987802908439418316
12403814 3 18273206495972644469
12422481 6 18340220587525341489
12596602 18 17675920993713683984
12633257 1 17988354966345233840
12892183 10 18263636282651507646
12895836 83 11815890167381086930
12895837 130 13253929391489349050
12925494 130 17910956838052033377
13533116 47 17022910081125386180
13583140 156 18190442901433188830
14178342 30 18118413847337288149
14251764 75 17129571608566982240
14341114 176 18411979153297566138
14420673 8 17687178700145400594
14848178 5 16732984257996379531
14931854 50 8357992112422337416
15183329 4 11169902888459845979
15188451 53 17676199178191590395
15342168 16 16845574235843017588
17349148 13 17023198105996029003
17980427 23 17489027184282560293
1813 80 17458065988272735613
18222031 100 15719109167365739342
19784866 240 16008749095648788626
1979834 28 18059028236478517823
200 152 15140679172261590542
20567600 234 17417816175363991811
20645477 70 13984672455560734950
20871999 31 8286207166570310678
21033648 29 17632308843649609259
21065199 12 18339073784017651454
21304303 282 17390482136041243421
21637258 2 16515397499565664939
21792934 111 18337962186763458993
22079108 93 16630808824539632183
2215653 11 12035730946508752267
22182313 1 18198352753781739343
22393880 68 9511164279957641376
23366157 5 17610638775162868469
23559900 14 18123208821761774831
23845131 108 17403469472757353777
2838139 119 14620802573857658755
3004659 81 17531261568435065335
3187 122 18333730182702178877
3472631 163 13326563077800853906
392239 28 18335420170722956059
4072396 5 18335148583393976143
49207404 50 18201723912093111926
5104073 3 18340205181081836848
5374978 207 18408610266158911206
56616090 284 11530477835252293375
57724786 102 16415185807409647258
59682541 52 12613022951183054475
633830 44 14764339440935478540
7970288 3 15936681576495497538
960060 61 11963395158643477346
9777508 108 17907592324113368049

> <PUBCHEM_SHAPE_MULTIPOLES>
453.17
12.9
2.49
1.55
1.69
1.79
-0.1
-3.33
-9.54
0.35
0.23
-1.07
-0.22
1.06

> <PUBCHEM_SHAPE_SELFOVERLAP>
1010.621

> <PUBCHEM_SHAPE_VOLUME>
240.6

> <PUBCHEM_COORDINATE_TYPE>
2
5
10

$$$$
