
     RDKit          3D

 20 23  0  0  0  0  0  0  0  0999 V2000
    7.1020   47.1420  129.4860 C   0  0  0  0  0  0  0  0  0  0  0  0
    6.5600   48.2350  128.8130 C   0  0  0  0  0  0  0  0  0  0  0  0
    7.0140   49.4700  129.1690 C   0  0  0  0  0  0  0  0  0  0  0  0
    6.4960   50.5650  128.5160 O   0  0  0  0  0  0  0  0  0  0  0  0
    7.9670   49.7080  130.1610 C   0  0  0  0  0  0  0  0  0  0  0  0
    8.4910   48.5860  130.8260 C   0  0  1  0  0  0  0  0  0  0  0  0
    9.2580   48.8540  132.0910 C   0  0  0  0  0  0  0  0  0  0  0  0
    9.6040   47.5900  132.8650 C   0  0  0  0  0  0  0  0  0  0  0  0
    9.9070   46.4370  131.9130 C   0  0  2  0  0  0  0  0  0  0  0  0
    8.6090   46.1010  131.1520 C   0  0  1  0  0  0  0  0  0  0  0  0
    8.0610   47.3120  130.4770 C   0  0  0  0  0  0  0  0  0  0  0  0
    8.8490   44.9590  130.1640 C   0  0  0  0  0  0  0  0  0  0  0  0
    9.2400   43.6710  130.9520 C   0  0  0  0  0  0  0  0  0  0  0  0
   10.5000   44.0090  131.7360 C   0  0  1  0  0  0  0  0  0  0  0  0
   10.2590   45.2020  132.6850 C   0  0  1  0  0  0  0  0  0  0  0  0
   11.6130   45.1940  133.4060 C   0  0  0  0  0  0  0  0  0  0  0  0
   11.6390   43.7080  133.9160 C   0  0  0  0  0  0  0  0  0  0  0  0
   10.9140   42.9670  132.7780 C   0  0  2  0  0  0  0  0  0  0  0  0
   11.6950   41.8830  132.2930 O   0  0  0  0  0  0  0  0  0  0  0  0
   11.6410   44.2340  130.7550 C   0  0  0  0  0  0  0  0  0  0  0  0
  2  1  1  0
  3  2  1  0
  4  3  1  0
  5  3  1  0
  6  5  1  1
  7  6  1  0
  8  7  1  0
  9  8  1  1
 10  9  1  0
 11  1  1  0
 11 10  1  0
 11  6  1  0
 10 12  1  6
 13 12  1  0
 14 13  1  0
 15 14  1  0
 15  9  1  0
 15 16  1  6
 17 16  1  0
 18 14  1  0
 18 17  1  0
 18 19  1  6
 14 20  1  6
M  END
$$$$
