5288172
  -OEChem-07292614433D

 46 49  0     1  0  0  0  0  0999 V2000
    4.9248   -1.1563    0.5288 O   0  0  0  0  0  0  0  0  0  0  0  0
   -5.7508   -0.0860    0.5102 O   0  0  0  0  0  0  0  0  0  0  0  0
    0.5493    0.7795   -0.2324 C   0  0  2  0  0  0  0  0  0  0  0  0
   -0.2475   -0.4523    0.2964 C   0  0  1  0  0  0  0  0  0  0  0  0
    1.9853    0.6793    0.2824 C   0  0  1  0  0  0  0  0  0  0  0  0
    2.6865   -0.5920   -0.2395 C   0  0  2  0  0  0  0  0  0  0  0  0
   -1.7078   -0.4090   -0.2335 C   0  0  2  0  0  0  0  0  0  0  0  0
   -2.3841    0.9270    0.1701 C   0  0  1  0  0  0  0  0  0  0  0  0
    0.4721   -1.7901   -0.0144 C   0  0  0  0  0  0  0  0  0  0  0  0
   -0.1301    2.0839    0.1957 C   0  0  0  0  0  0  0  0  0  0  0  0
    1.9671   -1.7979    0.3545 C   0  0  0  0  0  0  0  0  0  0  0  0
    2.9792    1.7988   -0.0056 C   0  0  0  0  0  0  0  0  0  0  0  0
   -1.5713    2.1389   -0.2998 C   0  0  0  0  0  0  0  0  0  0  0  0
   -2.5592   -1.5887    0.2768 C   0  0  0  0  0  0  0  0  0  0  0  0
    4.0811   -0.3037    0.2864 C   0  0  0  0  0  0  0  0  0  0  0  0
    4.3154    1.1892    0.4439 C   0  0  0  0  0  0  0  0  0  0  0  0
   -3.8139    1.0181   -0.3693 C   0  0  0  0  0  0  0  0  0  0  0  0
    2.8113   -0.7149   -1.7694 C   0  0  0  0  0  0  0  0  0  0  0  0
   -3.9936   -1.5341   -0.2339 C   0  0  0  0  0  0  0  0  0  0  0  0
   -4.6140   -0.1898    0.0528 C   0  0  0  0  0  0  0  0  0  0  0  0
    0.5507    0.7593   -1.3294 H   0  0  0  0  0  0  0  0  0  0  0  0
   -0.2920   -0.3733    1.3934 H   0  0  0  0  0  0  0  0  0  0  0  0
    1.9218    0.6193    1.3830 H   0  0  0  0  0  0  0  0  0  0  0  0
   -1.6742   -0.4670   -1.3310 H   0  0  0  0  0  0  0  0  0  0  0  0
   -2.4361    0.9602    1.2684 H   0  0  0  0  0  0  0  0  0  0  0  0
    0.3559   -2.0280   -1.0785 H   0  0  0  0  0  0  0  0  0  0  0  0
   -0.0054   -2.6067    0.5389 H   0  0  0  0  0  0  0  0  0  0  0  0
    0.4135    2.9456   -0.2082 H   0  0  0  0  0  0  0  0  0  0  0  0
   -0.1136    2.1786    1.2886 H   0  0  0  0  0  0  0  0  0  0  0  0
    2.0686   -1.7978    1.4477 H   0  0  0  0  0  0  0  0  0  0  0  0
    2.4267   -2.7327    0.0109 H   0  0  0  0  0  0  0  0  0  0  0  0
    2.7578    2.7129    0.5539 H   0  0  0  0  0  0  0  0  0  0  0  0
    3.0017    2.0567   -1.0700 H   0  0  0  0  0  0  0  0  0  0  0  0
   -2.0389    3.0636    0.0592 H   0  0  0  0  0  0  0  0  0  0  0  0
   -1.5746    2.1880   -1.3963 H   0  0  0  0  0  0  0  0  0  0  0  0
   -2.5632   -1.5869    1.3744 H   0  0  0  0  0  0  0  0  0  0  0  0
   -2.1284   -2.5433   -0.0423 H   0  0  0  0  0  0  0  0  0  0  0  0
    4.5124    1.4065    1.4976 H   0  0  0  0  0  0  0  0  0  0  0  0
    5.1427    1.5253   -0.1848 H   0  0  0  0  0  0  0  0  0  0  0  0
   -3.8274    1.0676   -1.4640 H   0  0  0  0  0  0  0  0  0  0  0  0
   -4.3066    1.9176    0.0166 H   0  0  0  0  0  0  0  0  0  0  0  0
    3.3693    0.1174   -2.2117 H   0  0  0  0  0  0  0  0  0  0  0  0
    3.3602   -1.6276   -2.0318 H   0  0  0  0  0  0  0  0  0  0  0  0
    1.8419   -0.7638   -2.2723 H   0  0  0  0  0  0  0  0  0  0  0  0
   -4.5900   -2.3150    0.2496 H   0  0  0  0  0  0  0  0  0  0  0  0
   -4.0287   -1.7008   -1.3160 H   0  0  0  0  0  0  0  0  0  0  0  0
  1 15  2  0  0  0  0
  2 20  2  0  0  0  0
  3  4  1  0  0  0  0
  3  5  1  0  0  0  0
  3 10  1  0  0  0  0
  3 21  1  0  0  0  0
  4  7  1  0  0  0  0
  4  9  1  0  0  0  0
  4 22  1  0  0  0  0
  5  6  1  0  0  0  0
  5 12  1  0  0  0  0
  5 23  1  0  0  0  0
  6 11  1  0  0  0  0
  6 15  1  0  0  0  0
  6 18  1  0  0  0  0
  7  8  1  0  0  0  0
  7 14  1  0  0  0  0
  7 24  1  0  0  0  0
  8 13  1  0  0  0  0
  8 17  1  0  0  0  0
  8 25  1  0  0  0  0
  9 11  1  0  0  0  0
  9 26  1  0  0  0  0
  9 27  1  0  0  0  0
 10 13  1  0  0  0  0
 10 28  1  0  0  0  0
 10 29  1  0  0  0  0
 11 30  1  0  0  0  0
 11 31  1  0  0  0  0
 12 16  1  0  0  0  0
 12 32  1  0  0  0  0
 12 33  1  0  0  0  0
 13 34  1  0  0  0  0
 13 35  1  0  0  0  0
 14 19  1  0  0  0  0
 14 36  1  0  0  0  0
 14 37  1  0  0  0  0
 15 16  1  0  0  0  0
 16 38  1  0  0  0  0
 16 39  1  0  0  0  0
 17 20  1  0  0  0  0
 17 40  1  0  0  0  0
 17 41  1  0  0  0  0
 18 42  1  0  0  0  0
 18 43  1  0  0  0  0
 18 44  1  0  0  0  0
 19 20  1  0  0  0  0
 19 45  1  0  0  0  0
 19 46  1  0  0  0  0
M  END
> <PUBCHEM_COMPOUND_CID>
5288172

> <PUBCHEM_CONFORMER_RMSD>
0.6

> <PUBCHEM_CONFORMER_DIVERSEORDER>
1

> <PUBCHEM_MMFF94_PARTIAL_CHARGES>
8
1 -0.57
15 0.45
16 0.06
17 0.06
19 0.06
2 -0.57
20 0.45
6 0.06

> <PUBCHEM_EFFECTIVE_ROTOR_COUNT>
1.8

> <PUBCHEM_PHARMACOPHORE_FEATURES>
6
1 1 acceptor
1 2 acceptor
5 5 6 12 15 16 rings
6 3 4 5 6 9 11 rings
6 3 4 7 8 10 13 rings
6 7 8 14 17 19 20 rings

> <PUBCHEM_HEAVY_ATOM_COUNT>
20

> <PUBCHEM_ATOM_DEF_STEREO_COUNT>
6

> <PUBCHEM_ATOM_UDEF_STEREO_COUNT>
0

> <PUBCHEM_BOND_DEF_STEREO_COUNT>
0

> <PUBCHEM_BOND_UDEF_STEREO_COUNT>
0

> <PUBCHEM_ISOTOPIC_ATOM_COUNT>
0

> <PUBCHEM_COMPONENT_COUNT>
1

> <PUBCHEM_CACTVS_TAUTO_COUNT>
6

> <PUBCHEM_CONFORMER_ID>
0050B0EC00000001

> <PUBCHEM_MMFF94_ENERGY>
51.2779

> <PUBCHEM_FEATURE_SELFOVERLAP>
30.542

> <PUBCHEM_SHAPE_FINGERPRINT>
10498660 4 18408885122501542933
10616163 171 18411981347461592319
10646746 165 18410009918801997052
10967382 1 18410292527354616192
11132069 177 18410573998258016089
12236239 1 17530965752883884064
12403259 226 18336539409705455044
12403259 415 18410283714551742900
12596599 1 17987818387296220611
128620 24 17988923370580027759
13140716 1 18338518672078826267
13224815 77 18411704278836256805
13862211 1 18410006646216505827
14115302 16 17603592949584688306
14178342 30 18124308307909909928
14252887 29 17918000455536162422
14341114 176 18408887330452024738
14787075 74 18269834375098447496
14790565 3 17472141055938469796
15196674 1 18410291436459322777
15375358 24 18410854382307830259
15536298 74 18342740727677719221
15788980 27 17748824111765837107
16945 1 18267310824356511884
17349148 13 17676487237358213106
17492 89 18192146006032374291
17802600 8 18409726240401607392
1813 80 17385443228289355645
18186145 218 18412550885630887276
18522853 276 18412544318741988201
19141452 34 18202284736454634951
192875 21 17167868551649143676
19591789 44 18338794632138446875
200 152 18202560696413418203
20510252 161 18200876171527712593
20645477 70 18201722842445957670
21267235 1 18409737244013056163
21421861 104 18042679511953740362
21452121 103 18270952561919214824
221490 88 18263368142951983379
23402539 116 18341885324858853038
23557571 272 18272656701425104692
23559900 14 18269270167157380406
2748010 2 18410859905451026700
2871803 45 18408037398983494095
296302 2 18272933864043530077
3286 77 18261107444514583044
335352 9 18410009905721864687
34797466 226 16128101173122712689
34934 24 18411131446664364279
350125 39 18410291424297510160
351380 180 18410007745553911010
3545911 37 18410575088963340458
3680242 22 18335702689408114835
4214541 1 18409727331508150745
5104073 3 18411136960943287953
5374978 207 18409727370078246264
59755656 215 18336830784402720974
69090 78 18272085015270826542
7495541 125 16226340325499030697
8809292 202 18260269680809909819
9709674 26 18411985740907336982

> <PUBCHEM_SHAPE_MULTIPOLES>
399.85
9.77
2.16
0.85
4.22
0.34
0.27
-1.05
-0.89
-0.12
-0.04
-0.47
-0.12
0.23

> <PUBCHEM_SHAPE_SELFOVERLAP>
856.625

> <PUBCHEM_SHAPE_VOLUME>
219.4

> <PUBCHEM_COORDINATE_TYPE>
2
5
10

$$$$
