125017
  -OEChem-07292614443D

 44 45  0     1  0  0  0  0  0999 V2000
   -1.3482    0.5910   -1.4914 O   0  0  0  0  0  0  0  0  0  0  0  0
    4.4342    2.2329   -0.2134 O   0  0  0  0  0  0  0  0  0  0  0  0
    0.8230   -2.8292    0.0218 N   0  0  0  0  0  0  0  0  0  0  0  0
   -1.5751    0.1845   -0.1385 C   0  0  0  0  0  0  0  0  0  0  0  0
   -0.3801   -0.6638    0.3003 C   0  0  1  0  0  0  0  0  0  0  0  0
   -1.6798    1.4509    0.7253 C   0  0  0  0  0  0  0  0  0  0  0  0
   -2.8757   -0.6325   -0.0723 C   0  0  0  0  0  0  0  0  0  0  0  0
   -2.9153    2.2860    0.3840 C   0  0  0  0  0  0  0  0  0  0  0  0
   -4.1063    0.2091   -0.4135 C   0  0  0  0  0  0  0  0  0  0  0  0
   -4.1931    1.4566    0.4596 C   0  0  0  0  0  0  0  0  0  0  0  0
   -0.2838   -2.0058   -0.4565 C   0  0  0  0  0  0  0  0  0  0  0  0
    0.9198    0.1179    0.1615 C   0  0  0  0  0  0  0  0  0  0  0  0
    1.6551    0.3933    1.2953 C   0  0  0  0  0  0  0  0  0  0  0  0
    1.3198    0.5261   -1.0936 C   0  0  0  0  0  0  0  0  0  0  0  0
    0.9263   -4.0583   -0.7655 C   0  0  0  0  0  0  0  0  0  0  0  0
    0.6520   -3.1459    1.4402 C   0  0  0  0  0  0  0  0  0  0  0  0
    2.8451    1.1100    1.1680 C   0  0  0  0  0  0  0  0  0  0  0  0
    2.5098    1.2427   -1.2209 C   0  0  0  0  0  0  0  0  0  0  0  0
    3.2724    1.5346   -0.0901 C   0  0  0  0  0  0  0  0  0  0  0  0
   -0.5532   -0.8779    1.3630 H   0  0  0  0  0  0  0  0  0  0  0  0
   -0.8101    2.1031    0.5844 H   0  0  0  0  0  0  0  0  0  0  0  0
   -1.7196    1.1807    1.7882 H   0  0  0  0  0  0  0  0  0  0  0  0
   -3.0019   -1.0649    0.9280 H   0  0  0  0  0  0  0  0  0  0  0  0
   -2.8717   -1.4547   -0.7957 H   0  0  0  0  0  0  0  0  0  0  0  0
   -2.8112    2.7069   -0.6235 H   0  0  0  0  0  0  0  0  0  0  0  0
   -2.9867    3.1338    1.0750 H   0  0  0  0  0  0  0  0  0  0  0  0
   -5.0115   -0.3946   -0.2816 H   0  0  0  0  0  0  0  0  0  0  0  0
   -4.0735    0.5036   -1.4697 H   0  0  0  0  0  0  0  0  0  0  0  0
   -4.3748    1.1612    1.5003 H   0  0  0  0  0  0  0  0  0  0  0  0
   -5.0479    2.0668    0.1472 H   0  0  0  0  0  0  0  0  0  0  0  0
   -1.2092   -2.5807   -0.3419 H   0  0  0  0  0  0  0  0  0  0  0  0
   -0.1598   -1.8276   -1.5316 H   0  0  0  0  0  0  0  0  0  0  0  0
   -1.5254   -0.1652   -2.0758 H   0  0  0  0  0  0  0  0  0  0  0  0
    1.3300    0.0767    2.2813 H   0  0  0  0  0  0  0  0  0  0  0  0
    0.8055    0.2643   -2.0099 H   0  0  0  0  0  0  0  0  0  0  0  0
    1.0870   -3.8258   -1.8242 H   0  0  0  0  0  0  0  0  0  0  0  0
    0.0288   -4.6819   -0.6809 H   0  0  0  0  0  0  0  0  0  0  0  0
    1.7897   -4.6508   -0.4431 H   0  0  0  0  0  0  0  0  0  0  0  0
    1.4089   -3.8740    1.7574 H   0  0  0  0  0  0  0  0  0  0  0  0
   -0.3313   -3.5804    1.6554 H   0  0  0  0  0  0  0  0  0  0  0  0
    0.8091   -2.2831    2.0908 H   0  0  0  0  0  0  0  0  0  0  0  0
    3.4291    1.3325    2.0570 H   0  0  0  0  0  0  0  0  0  0  0  0
    2.8463    1.5572   -2.2052 H   0  0  0  0  0  0  0  0  0  0  0  0
    4.8304    2.3437    0.6680 H   0  0  0  0  0  0  0  0  0  0  0  0
  1  4  1  0  0  0  0
  1 33  1  0  0  0  0
  2 19  1  0  0  0  0
  2 44  1  0  0  0  0
  3 11  1  0  0  0  0
  3 15  1  0  0  0  0
  3 16  1  0  0  0  0
  4  5  1  0  0  0  0
  4  6  1  0  0  0  0
  4  7  1  0  0  0  0
  5 11  1  0  0  0  0
  5 12  1  0  0  0  0
  5 20  1  0  0  0  0
  6  8  1  0  0  0  0
  6 21  1  0  0  0  0
  6 22  1  0  0  0  0
  7  9  1  0  0  0  0
  7 23  1  0  0  0  0
  7 24  1  0  0  0  0
  8 10  1  0  0  0  0
  8 25  1  0  0  0  0
  8 26  1  0  0  0  0
  9 10  1  0  0  0  0
  9 27  1  0  0  0  0
  9 28  1  0  0  0  0
 10 29  1  0  0  0  0
 10 30  1  0  0  0  0
 11 31  1  0  0  0  0
 11 32  1  0  0  0  0
 12 13  2  0  0  0  0
 12 14  1  0  0  0  0
 13 17  1  0  0  0  0
 13 34  1  0  0  0  0
 14 18  2  0  0  0  0
 14 35  1  0  0  0  0
 15 36  1  0  0  0  0
 15 37  1  0  0  0  0
 15 38  1  0  0  0  0
 16 39  1  0  0  0  0
 16 40  1  0  0  0  0
 16 41  1  0  0  0  0
 17 19  2  0  0  0  0
 17 42  1  0  0  0  0
 18 19  1  0  0  0  0
 18 43  1  0  0  0  0
M  END
> <PUBCHEM_COMPOUND_CID>
125017

> <PUBCHEM_CONFORMER_RMSD>
0.8

> <PUBCHEM_CONFORMER_DIVERSEORDER>
1
7
10
12
5
11
3
6
8
9
2
4

> <PUBCHEM_MMFF94_PARTIAL_CHARGES>
20
1 -0.68
11 0.27
12 -0.14
13 -0.15
14 -0.15
15 0.27
16 0.27
17 -0.15
18 -0.15
19 0.08
2 -0.53
3 -0.81
33 0.4
34 0.15
35 0.15
4 0.28
42 0.15
43 0.15
44 0.45
5 0.14

> <PUBCHEM_EFFECTIVE_ROTOR_COUNT>
5.2

> <PUBCHEM_PHARMACOPHORE_FEATURES>
6
1 1 acceptor
1 1 donor
1 2 donor
1 3 cation
6 12 13 14 17 18 19 rings
6 4 6 7 8 9 10 rings

> <PUBCHEM_HEAVY_ATOM_COUNT>
19

> <PUBCHEM_ATOM_DEF_STEREO_COUNT>
0

> <PUBCHEM_ATOM_UDEF_STEREO_COUNT>
1

> <PUBCHEM_BOND_DEF_STEREO_COUNT>
0

> <PUBCHEM_BOND_UDEF_STEREO_COUNT>
0

> <PUBCHEM_ISOTOPIC_ATOM_COUNT>
0

> <PUBCHEM_COMPONENT_COUNT>
1

> <PUBCHEM_CACTVS_TAUTO_COUNT>
2

> <PUBCHEM_CONFORMER_ID>
0001E85900000001

> <PUBCHEM_MMFF94_ENERGY>
56.9376

> <PUBCHEM_FEATURE_SELFOVERLAP>
30.446

> <PUBCHEM_SHAPE_FINGERPRINT>
10465860 228 18266743480720242121
10498660 4 18343301449018673185
11578080 2 13137251222714132308
11582403 64 16197010844196013106
11725454 13 16556746876707065104
12173636 292 18340482395277130500
12500047 106 18268992175668061700
12788726 201 17540547141942767470
13132413 78 17622164560044864364
13140716 1 18335421244596739458
13681431 1 17834946482426626158
13878862 14 17976529513200850349
14787075 74 17985826171469659921
14955137 171 18127406744498957714
15309172 13 18260265282478535845
15775835 57 18041557039520690772
15906896 17 17973164220917679890
16752209 62 18048308139609818930
16945 1 18129376180013262557
1813 80 17689438182900944475
18186145 218 17916884476856424604
18785283 64 18263372408086655818
20028762 73 17482281813480605167
20097449 115 17544188281713647162
201361 129 18341055094922215329
20361792 2 9439405713694702305
20510252 161 18197786706924866337
20600515 1 16969090270987933357
20645476 183 18263081192102908236
20671657 1 18195535787663768661
20711985 344 17761766669516865034
212916 134 18271791463384299528
21501502 16 18199464356048414289
21524375 3 18408600387654944104
21731228 192 18334016128770817368
2255824 54 18192716635629562947
23366157 5 18189900799061540283
23402539 116 18199742708035690684
23419403 2 17121764959555135447
23526113 38 17632032921828053206
23557571 272 17765722708280279308
23559900 14 18053095130438817891
23566358 27 18269274573888934335
23598288 3 17684663399528647270
25 1 17846227656421725080
298252 57 18262238936178779472
305870 269 18411136896460898200
3071541 12 18195815067701473775
3091708 16 9191563689507722939
312423 11 18057324977641142561
350125 39 18051419470286288225
4175511 71 17476370400428101899
43471831 8 18410290315757993995
458136 41 18340498785104018443
474 4 18334296444296417937
474229 33 18265054815765189459
6138700 20 18195535784071220638
633830 44 18272655640404912469
6442390 28 18269571574971791011
7364860 26 18197778799805859995
81228 2 17688859157011197106
81539 233 18335697222073144863
84936 182 18272373014324114944
84936 31 18127393571454251294
9981440 41 18410572902978013889

> <PUBCHEM_SHAPE_MULTIPOLES>
374.29
6.34
3.69
1.23
2.9
4.66
0.05
-5.73
0
-2.37
0.08
-0.52
0.1
-0.45

> <PUBCHEM_SHAPE_SELFOVERLAP>
776.392

> <PUBCHEM_SHAPE_VOLUME>
213.6

> <PUBCHEM_COORDINATE_TYPE>
2
5
10

$$$$
