5994
 OpenBabel06182610193D

 53 56  0  0  1  0  0  0  0  0999 V2000
    5.5489   -0.2220   -0.6750 O   0  0  0  0  0  0  0  0  0  0  0  0
   -6.0881   -0.2397    0.9991 O   0  0  0  0  0  0  0  0  0  0  0  0
    1.4315    0.9522    0.3840 C   0  0  2  0  0  0  0  0  0  0  0  0
    2.3061   -0.2433   -0.0529 C   0  0  1  0  0  0  0  0  0  0  0  0
    0.0456    0.9466   -0.2671 C   0  0  1  0  0  0  0  0  0  0  0  0
   -0.6915   -0.3705    0.1301 C   0  0  1  0  0  0  0  0  0  0  0  0
   -2.1510   -0.4557   -0.4592 C   0  0  2  0  0  0  0  0  0  0  0  0
    3.6012    0.1046    0.7151 C   0  0  2  0  0  0  0  0  0  0  0  0
    1.6035   -1.5275    0.4060 C   0  0  0  0  0  0  0  0  0  0  0  0
    0.1743   -1.6271   -0.1540 C   0  0  0  0  0  0  0  0  0  0  0  0
    2.3421    2.1567    0.1724 C   0  0  0  0  0  0  0  0  0  0  0  0
   -0.7800    2.1640    0.1672 C   0  0  0  0  0  0  0  0  0  0  0  0
    3.7334    1.6384    0.5686 C   0  0  0  0  0  0  0  0  0  0  0  0
   -2.8988    0.8511   -0.1585 C   0  0  0  0  0  0  0  0  0  0  0  0
    2.5641   -0.3061   -1.5811 C   0  0  0  0  0  0  0  0  0  0  0  0
   -2.1682    2.1376   -0.4578 C   0  0  0  0  0  0  0  0  0  0  0  0
   -2.8815   -1.6549    0.2145 C   0  0  0  0  0  0  0  0  0  0  0  0
   -2.1467   -0.6683   -1.9897 C   0  0  0  0  0  0  0  0  0  0  0  0
    4.8398   -0.6357    0.2441 C   0  0  0  0  0  0  0  0  0  0  0  0
   -4.3916   -1.6327    0.0311 C   0  0  0  0  0  0  0  0  0  0  0  0
   -4.1534    0.8990    0.3239 C   0  0  0  0  0  0  0  0  0  0  0  0
   -4.9598   -0.3271    0.5217 C   0  0  0  0  0  0  0  0  0  0  0  0
    5.1536   -1.9381    0.9283 C   0  0  0  0  0  0  0  0  0  0  0  0
    1.1193    0.9375    1.4073 H   0  0  0  0  0  0  0  0  0  0  0  0
    0.1619    0.9979   -1.3295 H   0  0  0  0  0  0  0  0  0  0  0  0
   -0.8277   -0.3447    1.1910 H   0  0  0  0  0  0  0  0  0  0  0  0
    3.5295   -0.2110    1.7350 H   0  0  0  0  0  0  0  0  0  0  0  0
    1.5581   -1.5345    1.4750 H   0  0  0  0  0  0  0  0  0  0  0  0
    2.1635   -2.3624    0.0397 H   0  0  0  0  0  0  0  0  0  0  0  0
    0.2345   -1.7643   -1.2134 H   0  0  0  0  0  0  0  0  0  0  0  0
   -0.2987   -2.4523    0.3361 H   0  0  0  0  0  0  0  0  0  0  0  0
    2.0467    2.9725    0.7985 H   0  0  0  0  0  0  0  0  0  0  0  0
    2.3093    2.5292   -0.8301 H   0  0  0  0  0  0  0  0  0  0  0  0
   -0.2753    3.0559   -0.1404 H   0  0  0  0  0  0  0  0  0  0  0  0
   -0.8865    2.1396    1.2316 H   0  0  0  0  0  0  0  0  0  0  0  0
    4.4478    1.8775   -0.1912 H   0  0  0  0  0  0  0  0  0  0  0  0
    4.0705    2.0879    1.4793 H   0  0  0  0  0  0  0  0  0  0  0  0
    3.0541    0.5910   -1.8973 H   0  0  0  0  0  0  0  0  0  0  0  0
    1.6315   -0.4038   -2.0966 H   0  0  0  0  0  0  0  0  0  0  0  0
    3.1847   -1.1489   -1.8037 H   0  0  0  0  0  0  0  0  0  0  0  0
   -2.0716    2.2413   -1.5183 H   0  0  0  0  0  0  0  0  0  0  0  0
   -2.7341    2.9439   -0.0399 H   0  0  0  0  0  0  0  0  0  0  0  0
   -2.6683   -1.6344    1.2628 H   0  0  0  0  0  0  0  0  0  0  0  0
   -2.5222   -2.5451   -0.2580 H   0  0  0  0  0  0  0  0  0  0  0  0
   -1.6466    0.1511   -2.4623 H   0  0  0  0  0  0  0  0  0  0  0  0
   -3.1545   -0.7238   -2.3450 H   0  0  0  0  0  0  0  0  0  0  0  0
   -1.6361   -1.5796   -2.2218 H   0  0  0  0  0  0  0  0  0  0  0  0
   -4.8263   -2.4374    0.5863 H   0  0  0  0  0  0  0  0  0  0  0  0
   -4.6170   -1.7407   -1.0093 H   0  0  0  0  0  0  0  0  0  0  0  0
   -4.5650    1.8147    0.5625 H   0  0  0  0  0  0  0  0  0  0  0  0
    6.0440   -2.3564    0.5076 H   0  0  0  0  0  0  0  0  0  0  0  0
    4.3397   -2.6188    0.7898 H   0  0  0  0  0  0  0  0  0  0  0  0
    5.3001   -1.7653    1.9740 H   0  0  0  0  0  0  0  0  0  0  0  0
  1 19  2  0  0  0  0
  2 22  2  0  0  0  0
  3  4  1  0  0  0  0
  3  5  1  0  0  0  0
  3 11  1  0  0  0  0
  3 24  1  1  0  0  0
  4  8  1  0  0  0  0
  4  9  1  0  0  0  0
  4 15  1  6  0  0  0
  5  6  1  0  0  0  0
  5 12  1  0  0  0  0
  5 25  1  6  0  0  0
  6  7  1  0  0  0  0
  6 10  1  0  0  0  0
  6 26  1  1  0  0  0
  7 14  1  0  0  0  0
  7 17  1  0  0  0  0
  7 18  1  6  0  0  0
  8 13  1  0  0  0  0
  8 19  1  0  0  0  0
  8 27  1  1  0  0  0
  9 10  1  0  0  0  0
  9 28  1  0  0  0  0
  9 29  1  0  0  0  0
 10 30  1  0  0  0  0
 10 31  1  0  0  0  0
 11 13  1  0  0  0  0
 11 32  1  0  0  0  0
 11 33  1  0  0  0  0
 12 16  1  0  0  0  0
 12 34  1  0  0  0  0
 12 35  1  0  0  0  0
 13 36  1  0  0  0  0
 13 37  1  0  0  0  0
 14 16  1  0  0  0  0
 14 21  2  0  0  0  0
 15 38  1  0  0  0  0
 15 39  1  0  0  0  0
 15 40  1  0  0  0  0
 16 41  1  0  0  0  0
 16 42  1  0  0  0  0
 17 20  1  0  0  0  0
 17 43  1  0  0  0  0
 17 44  1  0  0  0  0
 18 45  1  0  0  0  0
 18 46  1  0  0  0  0
 18 47  1  0  0  0  0
 19 23  1  0  0  0  0
 20 22  1  0  0  0  0
 20 48  1  0  0  0  0
 20 49  1  0  0  0  0
 21 22  1  0  0  0  0
 21 50  1  0  0  0  0
 23 51  1  0  0  0  0
 23 52  1  0  0  0  0
 23 53  1  0  0  0  0
M  END
>  <PUBCHEM_COMPOUND_CID>
5994

>  <PUBCHEM_CONFORMER_RMSD>
0.6

>  <PUBCHEM_CONFORMER_DIVERSEORDER>
1
2

>  <PUBCHEM_MMFF94_PARTIAL_CHARGES>
12
1 -0.57
14 -0.28
16 0.14
19 0.45
2 -0.57
20 0.06
21 -0.14
22 0.49
23 0.06
50 0.15
7 0.14
8 0.06

>  <PUBCHEM_EFFECTIVE_ROTOR_COUNT>
2.8

>  <PUBCHEM_PHARMACOPHORE_FEATURES>
6
1 1 acceptor
1 2 acceptor
5 3 4 8 11 13 rings
6 3 4 5 6 9 10 rings
6 5 6 7 12 14 16 rings
6 7 14 17 20 21 22 rings

>  <PUBCHEM_HEAVY_ATOM_COUNT>
23

>  <PUBCHEM_ATOM_DEF_STEREO_COUNT>
6

>  <PUBCHEM_ATOM_UDEF_STEREO_COUNT>
0

>  <PUBCHEM_BOND_DEF_STEREO_COUNT>
0

>  <PUBCHEM_BOND_UDEF_STEREO_COUNT>
0

>  <PUBCHEM_ISOTOPIC_ATOM_COUNT>
0

>  <PUBCHEM_COMPONENT_COUNT>
1

>  <PUBCHEM_CACTVS_TAUTO_COUNT>
15

>  <PUBCHEM_CONFORMER_ID>
0000176A00000001

>  <PUBCHEM_MMFF94_ENERGY>
69.753

>  <PUBCHEM_FEATURE_SELFOVERLAP>
30.544

>  <PUBCHEM_SHAPE_FINGERPRINT>
10062212 137 18201707470937288174
11578080 2 16735504162595976071
12011746 2 18409162217391969607
12166972 35 17603872204063203628
12236239 1 17603871074418154532
12403259 226 18336255786986815404
12403259 415 18335412482958543924
12403814 3 18130782378513639869
12553582 1 18338221717702324952
12596599 1 17987820603625907019
12633257 1 17131831005655125305
12788726 201 17775019997920864744
13140716 1 18340205314157224803
13224815 77 18410851092199331773
13288520 33 18410292484731984374
13533116 47 18114178610294080538
13675066 3 18131626811601150672
13862211 1 18410849962728668267
14341114 176 18409168813849981904
15196674 1 18411416245465779153
15209289 33 18334011687722002754
15788980 27 18186517700445444623
16945 1 18339359652440080821
17349148 13 17749108868224260082
17804303 29 18411699893790893516
1813 80 17386002905461970533
18186145 218 18187634834582563988
19141452 34 17846499266159153151
19591789 44 18411133675277721730
200 152 12757146892365082219
20028762 73 18201995564227234375
20261772 1 18273210919493618463
21267235 1 18410018727500385283
221490 88 18409166649439789304
22182313 1 17844816884139647212
23402539 116 18342730827778225614
23503953 91 16917062291473987774
23522609 53 18120687736084016908
23557571 272 18271531913740757428
23559900 14 18409441509834756048
296302 2 11383832675300145157
3286 77 18333446551972859276
335352 9 18411134701938416581
350125 39 18410013221468707072
4214541 1 18410572855770549537
4340502 62 15052018978466764255
465052 167 18408609162494968322
5104073 3 18342454867555211496
59755656 215 18335139748050532439
9709674 26 18264488553843103459

>  <PUBCHEM_SHAPE_MULTIPOLES>
461.59
11.3
2.19
1.08
0.22
0.54
0.44
-3.21
-2.6
-0.31
-0.22
0.04
-0.2
-0.1

>  <PUBCHEM_SHAPE_SELFOVERLAP>
988.487

>  <PUBCHEM_SHAPE_VOLUME>
254.3

>  <PUBCHEM_COORDINATE_TYPE>
2
5
10

>  <Energy>
73.8843

$$$$
