969491
 OpenBabel06182610193D

 27 31  0  0  1  0  0  0  0  0999 V2000
    1.3765   -2.7694    0.6745 Cl  0  0  0  0  0  0  0  0  0  0  0  0
    1.3766    2.7694    0.6741 Cl  0  0  0  0  0  0  0  0  0  0  0  0
    1.4635    0.0002    2.8270 Cl  0  0  0  0  0  0  0  0  0  0  0  0
    3.4859    0.0000    0.7779 Cl  0  0  0  0  0  0  0  0  0  0  0  0
    1.4791   -1.7128   -2.4476 Cl  0  0  0  0  0  0  0  0  0  0  0  0
    1.4791    1.7124   -2.4479 Cl  0  0  0  0  0  0  0  0  0  0  0  0
   -4.0633    0.0001   -0.0287 O   0  0  0  0  0  0  0  0  0  0  0  0
   -0.5666   -0.7906    0.6508 C   0  0  1  0  0  0  0  0  0  0  0  0
   -0.5665    0.7908    0.6507 C   0  0  2  0  0  0  0  0  0  0  0  0
   -1.7891   -1.1255   -0.2541 C   0  0  1  0  0  0  0  0  0  0  0  0
   -1.7891    1.1252   -0.2542 C   0  0  2  0  0  0  0  0  0  0  0  0
   -3.0177   -0.7509    0.5916 C   0  0  1  0  0  0  0  0  0  0  0  0
   -3.0177    0.7511    0.5916 C   0  0  2  0  0  0  0  0  0  0  0  0
   -1.8057   -0.0001   -1.3088 C   0  0  0  0  0  0  0  0  0  0  0  0
    0.9137   -1.1255    0.2690 C   0  0  1  0  0  0  0  0  0  0  0  0
    0.9138    1.1255    0.2688 C   0  0  2  0  0  0  0  0  0  0  0  0
    1.6939    0.0001    1.0397 C   0  0  0  0  0  0  0  0  0  0  0  0
    1.2183   -0.6712   -1.1389 C   0  0  0  0  0  0  0  0  0  0  0  0
    1.2183    0.6710   -1.1389 C   0  0  0  0  0  0  0  0  0  0  0  0
   -0.7360   -1.3919    1.5195 H   0  0  0  0  0  0  0  0  0  0  0  0
   -0.7358    1.3923    1.5193 H   0  0  0  0  0  0  0  0  0  0  0  0
   -1.7683   -2.1267   -0.6309 H   0  0  0  0  0  0  0  0  0  0  0  0
   -1.7682    2.1264   -0.6313 H   0  0  0  0  0  0  0  0  0  0  0  0
   -3.0622   -1.5990    1.2426 H   0  0  0  0  0  0  0  0  0  0  0  0
   -3.0622    1.5992    1.2425 H   0  0  0  0  0  0  0  0  0  0  0  0
   -2.6889   -0.0001   -1.9128 H   0  0  0  0  0  0  0  0  0  0  0  0
   -1.0486   -0.0002   -2.0650 H   0  0  0  0  0  0  0  0  0  0  0  0
  3 17  1  0  0  0  0
  4 17  1  0  0  0  0
  5 18  1  0  0  0  0
  6 19  1  0  0  0  0
  7 12  1  0  0  0  0
  7 13  1  0  0  0  0
  8  9  1  0  0  0  0
  8 10  1  0  0  0  0
  8 15  1  0  0  0  0
  8 20  1  1  0  0  0
  9 11  1  0  0  0  0
  9 16  1  0  0  0  0
  9 21  1  1  0  0  0
 10 12  1  0  0  0  0
 10 14  1  0  0  0  0
 10 22  1  6  0  0  0
 11 13  1  0  0  0  0
 11 14  1  0  0  0  0
 11 23  1  6  0  0  0
 12 13  1  0  0  0  0
 12 24  1  1  0  0  0
 13 25  1  1  0  0  0
 14 26  1  0  0  0  0
 14 27  1  0  0  0  0
 15  1  1  1  0  0  0
 15 17  1  0  0  0  0
 15 18  1  0  0  0  0
 16  2  1  1  0  0  0
 16 17  1  0  0  0  0
 16 19  1  0  0  0  0
 18 19  2  0  0  0  0
M  END
>  <PUBCHEM_COMPOUND_CID>
969491

>  <PUBCHEM_CONFORMER_RMSD>
0.6

>  <PUBCHEM_CONFORMER_DIVERSEORDER>
1

>  <PUBCHEM_MMFF94_PARTIAL_CHARGES>
16
1 -0.29
10 0.09
11 0.09
12 -0.05
13 -0.05
15 0.43
16 0.43
17 0.58
2 -0.29
24 0.1
25 0.1
3 -0.29
4 -0.29
5 -0.14
6 -0.14
7 -0.3

>  <PUBCHEM_EFFECTIVE_ROTOR_COUNT>
0.6

>  <PUBCHEM_PHARMACOPHORE_FEATURES>
3
1 7 acceptor
7 8 9 15 16 17 18 19 rings
8 7 8 9 10 11 12 13 14 rings

>  <PUBCHEM_HEAVY_ATOM_COUNT>
19

>  <PUBCHEM_ATOM_DEF_STEREO_COUNT>
8

>  <PUBCHEM_ATOM_UDEF_STEREO_COUNT>
0

>  <PUBCHEM_BOND_DEF_STEREO_COUNT>
0

>  <PUBCHEM_BOND_UDEF_STEREO_COUNT>
0

>  <PUBCHEM_ISOTOPIC_ATOM_COUNT>
0

>  <PUBCHEM_COMPONENT_COUNT>
1

>  <PUBCHEM_CACTVS_TAUTO_COUNT>
1

>  <PUBCHEM_CONFORMER_ID>
000ECB1300000001

>  <PUBCHEM_MMFF94_ENERGY>
113.6785

>  <PUBCHEM_FEATURE_SELFOVERLAP>
15.228

>  <PUBCHEM_SHAPE_FINGERPRINT>
10863032 1 17897450712062119216
10948715 1 17983576591621485744
11578080 2 17902509282021216220
12326174 3 18060416885193948882
12423570 1 15376305257381720758
13132413 78 17967806111919118308
13140716 1 18266457796659432707
144361 1 18194430898489024973
14817 1 12144810101780703128
16945 1 18194654090764803570
20511035 2 18120374525703719024
20559304 39 18334577919362513729
21524375 3 17840297045178009848
22344851 12 11544173498575532920
23419403 2 15873565184754027368
23559900 14 17833820578831906634
2748010 2 17983854489016818349
430814 3 17680157557537906436
5845 1 8925637147269554304
7364860 26 18409166601714997154
9999458 23 18341038714048719848

>  <PUBCHEM_SHAPE_MULTIPOLES>
396.36
4.37
2.26
2.21
3.65
0
-0.5
0
0.69
-1.28
-0.21
-1.67
0
0

>  <PUBCHEM_SHAPE_SELFOVERLAP>
846.637

>  <PUBCHEM_SHAPE_VOLUME>
225.8

>  <PUBCHEM_COORDINATE_TYPE>
2
5
10

>  <Energy>
127.028

$$$$
