7175
 OpenBabel06182610193D

 25 25  0  0  0  0  0  0  0  0999 V2000
   -1.7001   -0.1633    0.0044 O   0  0  0  0  0  0  0  0  0  0  0  0
   -1.1177    2.0576   -0.0004 O   0  0  0  0  0  0  0  0  0  0  0  0
    4.5221   -0.9332   -0.0016 O   0  0  0  0  0  0  0  0  0  0  0  0
   -3.9329   -1.0361    0.0045 C   0  0  0  0  0  0  0  0  0  0  0  0
   -3.0797    0.2275    0.0031 C   0  0  0  0  0  0  0  0  0  0  0  0
    0.5788    0.3731    0.0007 C   0  0  0  0  0  0  0  0  0  0  0  0
   -5.4167   -0.7138   -0.0086 C   0  0  0  0  0  0  0  0  0  0  0  0
   -0.8239    0.8729    0.0015 C   0  0  0  0  0  0  0  0  0  0  0  0
    1.6228    1.3112   -0.0009 C   0  0  0  0  0  0  0  0  0  0  0  0
    0.8847   -0.9954    0.0013 C   0  0  0  0  0  0  0  0  0  0  0  0
    2.9554    0.8877   -0.0018 C   0  0  0  0  0  0  0  0  0  0  0  0
    2.2162   -1.4164    0.0005 C   0  0  0  0  0  0  0  0  0  0  0  0
    3.2387   -0.4745   -0.0012 C   0  0  0  0  0  0  0  0  0  0  0  0
    5.2364   -0.3268   -0.0027 H   0  0  0  0  0  0  0  0  0  0  0  0
   -3.7095   -1.6040    0.8833 H   0  0  0  0  0  0  0  0  0  0  0  0
   -3.7053   -1.5924   -0.8807 H   0  0  0  0  0  0  0  0  0  0  0  0
   -3.2914    0.8065   -0.8715 H   0  0  0  0  0  0  0  0  0  0  0  0
   -3.2966    0.8208    0.8668 H   0  0  0  0  0  0  0  0  0  0  0  0
   -5.6684   -0.1563    0.8694 H   0  0  0  0  0  0  0  0  0  0  0  0
   -5.9793   -1.6238   -0.0266 H   0  0  0  0  0  0  0  0  0  0  0  0
   -5.6482   -0.1341   -0.8777 H   0  0  0  0  0  0  0  0  0  0  0  0
    1.4056    2.3201   -0.0015 H   0  0  0  0  0  0  0  0  0  0  0  0
    0.1241   -1.6930    0.0024 H   0  0  0  0  0  0  0  0  0  0  0  0
    3.7216    1.5790   -0.0029 H   0  0  0  0  0  0  0  0  0  0  0  0
    2.4405   -2.4238    0.0011 H   0  0  0  0  0  0  0  0  0  0  0  0
  1  5  1  0  0  0  0
  1  8  1  0  0  0  0
  2  8  2  0  0  0  0
  3 13  1  0  0  0  0
  3 14  1  0  0  0  0
  4  5  1  0  0  0  0
  4  7  1  0  0  0  0
  4 15  1  0  0  0  0
  4 16  1  0  0  0  0
  5 17  1  0  0  0  0
  5 18  1  0  0  0  0
  6  8  1  0  0  0  0
  6  9  2  0  0  0  0
  6 10  1  0  0  0  0
  7 19  1  0  0  0  0
  7 20  1  0  0  0  0
  7 21  1  0  0  0  0
  9 11  1  0  0  0  0
  9 22  1  0  0  0  0
 10 12  2  0  0  0  0
 10 23  1  0  0  0  0
 11 13  2  0  0  0  0
 11 24  1  0  0  0  0
 12 13  1  0  0  0  0
 12 25  1  0  0  0  0
M  END
>  <PUBCHEM_COMPOUND_CID>
7175

>  <PUBCHEM_CONFORMER_RMSD>
0.6

>  <PUBCHEM_CONFORMER_DIVERSEORDER>
1
20
24
23
10
22
21
12
15
9
17
4
16
14
19
7
13
3
2
6
11
18
8
5

>  <PUBCHEM_MMFF94_PARTIAL_CHARGES>
16
1 -0.43
10 -0.15
11 -0.15
12 -0.15
13 0.08
2 -0.57
21 0.15
22 0.15
23 0.15
24 0.15
25 0.45
3 -0.53
5 0.28
6 0.09
8 0.63
9 -0.15

>  <PUBCHEM_EFFECTIVE_ROTOR_COUNT>
4

>  <PUBCHEM_PHARMACOPHORE_FEATURES>
4
1 2 acceptor
1 3 donor
1 7 hydrophobe
6 6 9 10 11 12 13 rings

>  <PUBCHEM_HEAVY_ATOM_COUNT>
13

>  <PUBCHEM_ATOM_DEF_STEREO_COUNT>
0

>  <PUBCHEM_ATOM_UDEF_STEREO_COUNT>
0

>  <PUBCHEM_BOND_DEF_STEREO_COUNT>
0

>  <PUBCHEM_BOND_UDEF_STEREO_COUNT>
0

>  <PUBCHEM_ISOTOPIC_ATOM_COUNT>
0

>  <PUBCHEM_COMPONENT_COUNT>
1

>  <PUBCHEM_CACTVS_TAUTO_COUNT>
3

>  <PUBCHEM_CONFORMER_ID>
00001C0700000001

>  <PUBCHEM_MMFF94_ENERGY>
27.0604

>  <PUBCHEM_FEATURE_SELFOVERLAP>
20.297

>  <PUBCHEM_SHAPE_FINGERPRINT>
11471102 20 18409165545163539765
11806522 49 18408604747278864550
12032990 46 18410576179900870933
13690532 89 18408040697771773362
14115302 16 17749400294471689287
14251717 144 18411138060639758443
14252887 29 17917721187956662926
15477762 27 18409731746802875526
15757776 16 18186798058878539930
18186145 218 17313379050367093285
200 152 18343017787818290313
20201158 50 18333171673918521075
20645477 70 18410854365439470463
20871998 22 18201166442312303487
21267235 1 18411145731456734311
21501925 9 18411414012072053888
221490 88 18118129297195654851
22485316 2 18412260670965473871
23402539 116 18260543394506149973
23402655 69 18410008836581001909
23557571 272 17313097523882300901
25610 137 18410575101954068741
2871803 45 18261107457046251723
4047638 21 9511464428724096236
42 15 18413673517605655227
5104073 3 18412824659705025689
581208 293 18410008879166716800
76465 3 17969212353068449258
83771 10 18410855469203471053
8809292 202 18187369869270651163

>  <PUBCHEM_SHAPE_MULTIPOLES>
249.93
8.88
1.57
0.59
8.5
0.34
0
-3.57
0.02
-0.42
0
0.01
-0.01
0

>  <PUBCHEM_SHAPE_SELFOVERLAP>
510.88

>  <PUBCHEM_SHAPE_VOLUME>
145.3

>  <PUBCHEM_COORDINATE_TYPE>
2
5
10

>  <Energy>
15.9201

$$$$
