
 OpenBabel01292611443D

 57 60  0  0  1  0  0  0  0  0999 V2000
    9.3960    3.6225   -0.1003 C   0  0  0  0  0  0  0  0  0  0  0  0
    9.7054    2.2298   -0.1993 O   0  0  0  0  0  0  0  0  0  0  0  0
    9.5326    1.5391    0.9790 C   0  0  0  0  0  0  0  0  0  0  0  0
    8.4712    1.8393    1.8502 C   0  0  0  0  0  0  0  0  0  0  0  0
    8.4065    1.1944    3.0668 C   0  0  0  0  0  0  0  0  0  0  0  0
    9.3679    0.2553    3.3919 C   0  0  0  0  0  0  0  0  0  0  0  0
   10.3723   -0.1373    2.5293 C   0  0  0  0  0  0  0  0  0  0  0  0
   10.4573    0.5062    1.2906 C   0  0  0  0  0  0  0  0  0  0  0  0
   11.4183    0.2260    0.3496 O   0  0  0  0  0  0  0  0  0  0  0  0
   12.3075   -0.8514    0.6377 C   0  0  0  0  0  0  0  0  0  0  0  0
    9.1414   -0.1657    4.7641 C   0  0  0  0  0  0  0  0  0  0  0  0
    9.9211   -0.8763    5.3804 O   0  0  0  0  0  0  0  0  0  0  0  0
    7.8531    0.4407    5.2818 C   0  0  1  0  0  0  0  0  0  0  0  0
    7.4258    1.4322    4.1704 C   0  0  0  0  0  0  0  0  0  0  0  0
    6.7744   -0.6217    5.5277 C   0  0  0  0  0  0  0  0  0  0  0  0
    7.1161   -1.6709    6.6129 C   0  0  0  0  0  0  0  0  0  0  0  0
    6.0081   -2.7242    6.7398 C   0  0  0  0  0  0  0  0  0  0  0  0
    4.7233   -2.1301    7.3141 C   0  0  0  0  0  0  0  0  0  0  0  0
    4.9447   -1.5180    8.6334 N   0  0  0  0  0  0  0  0  0  0  0  0
    6.0431   -0.5366    8.6260 C   0  0  0  0  0  0  0  0  0  0  0  0
    7.3375   -1.0739    8.0071 C   0  0  0  0  0  0  0  0  0  0  0  0
    3.7089   -0.8778    9.1347 C   0  0  0  0  0  0  0  0  0  0  0  0
    2.5462   -1.8346    9.2984 C   0  0  0  0  0  0  0  0  0  0  0  0
    2.6521   -2.9492   10.1419 C   0  0  0  0  0  0  0  0  0  0  0  0
    1.5977   -3.8573   10.2548 C   0  0  0  0  0  0  0  0  0  0  0  0
    0.4224   -3.6539    9.5340 C   0  0  0  0  0  0  0  0  0  0  0  0
    0.2948   -2.5397    8.7071 C   0  0  0  0  0  0  0  0  0  0  0  0
    1.3512   -1.6332    8.5892 C   0  0  0  0  0  0  0  0  0  0  0  0
    9.7792    4.1260   -0.9911 H   0  0  0  0  0  0  0  0  0  0  0  0
    9.8717    4.0787    0.7758 H   0  0  0  0  0  0  0  0  0  0  0  0
    8.3123    3.7834   -0.0779 H   0  0  0  0  0  0  0  0  0  0  0  0
    7.7179    2.5785    1.5999 H   0  0  0  0  0  0  0  0  0  0  0  0
   11.0659   -0.9047    2.8514 H   0  0  0  0  0  0  0  0  0  0  0  0
   12.9921   -0.9635   -0.2087 H   0  0  0  0  0  0  0  0  0  0  0  0
   11.7643   -1.7959    0.7526 H   0  0  0  0  0  0  0  0  0  0  0  0
   12.9131   -0.6352    1.5242 H   0  0  0  0  0  0  0  0  0  0  0  0
    8.0614    1.0159    6.1901 H   0  0  0  0  0  0  0  0  0  0  0  0
    7.5166    2.4644    4.5235 H   0  0  0  0  0  0  0  0  0  0  0  0
    6.3994    1.2656    3.8251 H   0  0  0  0  0  0  0  0  0  0  0  0
    5.8481   -0.0966    5.7869 H   0  0  0  0  0  0  0  0  0  0  0  0
    6.5694   -1.1537    4.5882 H   0  0  0  0  0  0  0  0  0  0  0  0
    8.0257   -2.1986    6.3100 H   0  0  0  0  0  0  0  0  0  0  0  0
    6.3547   -3.5298    7.4022 H   0  0  0  0  0  0  0  0  0  0  0  0
    5.8050   -3.1890    5.7686 H   0  0  0  0  0  0  0  0  0  0  0  0
    4.0020   -2.9524    7.3936 H   0  0  0  0  0  0  0  0  0  0  0  0
    4.2955   -1.4049    6.6116 H   0  0  0  0  0  0  0  0  0  0  0  0
    6.2661   -0.2463    9.6602 H   0  0  0  0  0  0  0  0  0  0  0  0
    5.7453    0.3775    8.0968 H   0  0  0  0  0  0  0  0  0  0  0  0
    7.7488   -1.8544    8.6624 H   0  0  0  0  0  0  0  0  0  0  0  0
    8.0937   -0.2814    7.9801 H   0  0  0  0  0  0  0  0  0  0  0  0
    3.4180   -0.0539    8.4679 H   0  0  0  0  0  0  0  0  0  0  0  0
    3.8967   -0.4271   10.1181 H   0  0  0  0  0  0  0  0  0  0  0  0
    3.5736   -3.1234   10.6949 H   0  0  0  0  0  0  0  0  0  0  0  0
    1.6992   -4.7274   10.8963 H   0  0  0  0  0  0  0  0  0  0  0  0
   -0.3947   -4.3664    9.6149 H   0  0  0  0  0  0  0  0  0  0  0  0
   -0.6211   -2.3809    8.1473 H   0  0  0  0  0  0  0  0  0  0  0  0
    1.2411   -0.7774    7.9285 H   0  0  0  0  0  0  0  0  0  0  0  0
  1  2  1  0  0  0  0
  1 29  1  0  0  0  0
  1 30  1  0  0  0  0
  1 31  1  0  0  0  0
  2  3  1  0  0  0  0
  3  4  1  0  0  0  0
  3  8  2  0  0  0  0
  4  5  2  0  0  0  0
  4 32  1  0  0  0  0
  5  6  1  0  0  0  0
  5 14  1  0  0  0  0
  6  7  2  0  0  0  0
  6 11  1  0  0  0  0
  7  8  1  0  0  0  0
  7 33  1  0  0  0  0
  8  9  1  0  0  0  0
  9 10  1  0  0  0  0
 10 34  1  0  0  0  0
 10 35  1  0  0  0  0
 10 36  1  0  0  0  0
 11 12  2  0  0  0  0
 11 13  1  0  0  0  0
 13 14  1  0  0  0  0
 13 15  1  0  0  0  0
 13 37  1  1  0  0  0
 14 38  1  0  0  0  0
 14 39  1  0  0  0  0
 15 16  1  0  0  0  0
 15 40  1  0  0  0  0
 15 41  1  0  0  0  0
 16 17  1  0  0  0  0
 16 21  1  0  0  0  0
 16 42  1  0  0  0  0
 17 18  1  0  0  0  0
 17 43  1  0  0  0  0
 17 44  1  0  0  0  0
 18 19  1  0  0  0  0
 18 45  1  0  0  0  0
 18 46  1  0  0  0  0
 19 20  1  0  0  0  0
 19 22  1  0  0  0  0
 20 21  1  0  0  0  0
 20 47  1  0  0  0  0
 20 48  1  0  0  0  0
 21 49  1  0  0  0  0
 21 50  1  0  0  0  0
 22 23  1  0  0  0  0
 22 51  1  0  0  0  0
 22 52  1  0  0  0  0
 23 24  1  0  0  0  0
 23 28  2  0  0  0  0
 24 25  2  0  0  0  0
 24 53  1  0  0  0  0
 25 26  1  0  0  0  0
 25 54  1  0  0  0  0
 26 27  2  0  0  0  0
 26 55  1  0  0  0  0
 27 28  1  0  0  0  0
 27 56  1  0  0  0  0
 28 57  1  0  0  0  0
M  END
$$$$
