
     RDKit          3D

 26 29  0  0  0  0  0  0  0  0999 V2000
   20.2820   32.4150   56.7400 O   0  0  0  0  0  0  0  0  0  0  0  0
   20.4540   33.5780   57.0310 C   0  0  0  0  0  0  0  0  0  0  0  0
   20.7090   34.7360   56.0290 C   0  0  1  0  0  0  0  0  0  0  0  0
   20.5430   35.8660   56.9330 N   0  0  0  0  0  0  0  0  0  0  0  0
   20.4260   35.5050   58.2050 C   0  0  0  0  0  0  0  0  0  0  0  0
   20.4520   34.1020   58.2990 N   0  0  0  0  0  0  0  0  0  0  0  0
   20.2770   36.3240   59.2090 N   0  0  0  0  0  0  0  0  0  0  0  0
   20.2340   33.2960   59.4990 C   0  0  0  0  0  0  0  0  0  0  0  0
   22.1370   34.6230   55.4900 C   0  0  0  0  0  0  0  0  0  0  0  0
   22.9940   35.7080   55.5150 C   0  0  0  0  0  0  0  0  0  0  0  0
   24.2900   35.6010   55.0300 C   0  0  0  0  0  0  0  0  0  0  0  0
   24.7350   34.4130   54.5010 C   0  0  0  0  0  0  0  0  0  0  0  0
   23.8890   33.3310   54.4540 C   0  0  0  0  0  0  0  0  0  0  0  0
   22.5950   33.4350   54.9450 C   0  0  0  0  0  0  0  0  0  0  0  0
   19.6310   34.7170   54.9420 C   0  0  0  0  0  0  0  0  0  0  0  0
   19.9600   34.6650   53.5980 C   0  0  0  0  0  0  0  0  0  0  0  0
   18.9650   34.6140   52.6350 C   0  0  0  0  0  0  0  0  0  0  0  0
   17.6360   34.6000   53.0080 C   0  0  0  0  0  0  0  0  0  0  0  0
   17.2690   34.7180   54.3460 C   0  0  2  0  0  0  0  0  0  0  0  0
   18.2890   34.7170   55.3090 C   0  0  0  0  0  0  0  0  0  0  0  0
   13.2360   34.6580   55.6040 C   0  0  0  0  0  0  0  0  0  0  0  0
   14.1080   35.4030   56.2910 N   0  0  0  0  0  0  0  0  0  0  0  0
   15.3750   35.4000   55.8550 C   0  0  0  0  0  0  0  0  0  0  0  0
   15.8460   34.6640   54.7700 C   0  0  1  0  0  0  0  0  0  0  0  0
   14.8930   33.9470   54.0630 C   0  0  0  0  0  0  0  0  0  0  0  0
   13.5820   33.9190   54.5000 C   0  0  0  0  0  0  0  0  0  0  0  0
  2  1  1  0
  3  2  1  0
  4  3  1  0
  5  4  1  0
  6  5  1  0
  6  2  1  0
  7  5  1  0
  8  6  1  0
  3  9  1  6
 10  9  1  0
 11 10  1  0
 12 11  1  0
 13 12  1  0
 14 13  1  0
 14  9  1  0
 15  3  1  0
 16 15  1  0
 17 16  1  0
 18 17  1  0
 19 18  1  6
 20 19  1  0
 20 15  1  0
 22 21  1  0
 23 22  1  0
 24 23  1  6
 24 19  1  0
 25 24  1  0
 26 25  1  0
 26 21  1  0
M  END
$$$$
