70685236
  -OEChem-02032612543D

 44 47  0     1  0  0  0  0  0999 V2000
    1.0321   -0.6204   -2.2121 O   0  0  0  0  0  0  0  0  0  0  0  0
    2.9354   -1.5620   -1.2602 N   0  0  0  0  0  0  0  0  0  0  0  0
    2.7830   -0.8705    0.8628 N   0  0  0  0  0  0  0  0  0  0  0  0
    4.5960   -2.2677    0.2893 N   0  0  0  0  0  0  0  0  0  0  0  0
   -5.6994   -0.6303   -0.5256 N   0  0  0  0  0  0  0  0  0  0  0  0
    1.6215   -0.2523    0.1462 C   0  0  2  0  0  0  0  0  0  0  0  0
    0.2653   -0.7276    0.6950 C   0  0  0  0  0  0  0  0  0  0  0  0
    1.7922   -0.8098   -1.2724 C   0  0  0  0  0  0  0  0  0  0  0  0
    1.7789    1.2739    0.2431 C   0  0  0  0  0  0  0  0  0  0  0  0
    3.4573   -1.5684   -0.0030 C   0  0  0  0  0  0  0  0  0  0  0  0
   -0.9200   -0.2694    0.1197 C   0  0  0  0  0  0  0  0  0  0  0  0
    0.2211   -1.6182    1.7678 C   0  0  0  0  0  0  0  0  0  0  0  0
    1.7226    1.9032    1.4866 C   0  0  0  0  0  0  0  0  0  0  0  0
    1.9780    2.0291   -0.9126 C   0  0  0  0  0  0  0  0  0  0  0  0
   -2.1494   -0.7018    0.6170 C   0  0  0  0  0  0  0  0  0  0  0  0
    3.4679   -2.2621   -2.4169 C   0  0  0  0  0  0  0  0  0  0  0  0
   -1.0084   -2.0509    2.2648 C   0  0  0  0  0  0  0  0  0  0  0  0
   -2.1937   -1.5925    1.6897 C   0  0  0  0  0  0  0  0  0  0  0  0
    1.8654    3.2881    1.5746 C   0  0  0  0  0  0  0  0  0  0  0  0
    2.1208    3.4140   -0.8247 C   0  0  0  0  0  0  0  0  0  0  0  0
   -3.3789   -0.2273    0.0202 C   0  0  0  0  0  0  0  0  0  0  0  0
    2.0648    4.0434    0.4189 C   0  0  0  0  0  0  0  0  0  0  0  0
   -3.4522    1.0318   -0.5656 C   0  0  0  0  0  0  0  0  0  0  0  0
   -4.5203   -1.0126    0.0143 C   0  0  0  0  0  0  0  0  0  0  0  0
   -4.6478    1.4606   -1.1313 C   0  0  0  0  0  0  0  0  0  0  0  0
   -5.7323    0.5996   -1.0858 C   0  0  0  0  0  0  0  0  0  0  0  0
   -0.8630    0.4090   -0.7269 H   0  0  0  0  0  0  0  0  0  0  0  0
    1.1207   -1.9950    2.2444 H   0  0  0  0  0  0  0  0  0  0  0  0
    1.5721    1.3303    2.3977 H   0  0  0  0  0  0  0  0  0  0  0  0
    2.0426    1.5909   -1.9017 H   0  0  0  0  0  0  0  0  0  0  0  0
    4.4918   -1.9208   -2.5946 H   0  0  0  0  0  0  0  0  0  0  0  0
    2.8545   -2.0764   -3.3018 H   0  0  0  0  0  0  0  0  0  0  0  0
    3.4914   -3.3337   -2.1985 H   0  0  0  0  0  0  0  0  0  0  0  0
   -1.0427   -2.7393    3.1043 H   0  0  0  0  0  0  0  0  0  0  0  0
   -3.1282   -1.9342    2.1263 H   0  0  0  0  0  0  0  0  0  0  0  0
    1.8226    3.7782    2.5428 H   0  0  0  0  0  0  0  0  0  0  0  0
    2.2787    4.0025   -1.7238 H   0  0  0  0  0  0  0  0  0  0  0  0
    4.9793   -2.2710    1.2284 H   0  0  0  0  0  0  0  0  0  0  0  0
    5.0936   -2.8034   -0.4129 H   0  0  0  0  0  0  0  0  0  0  0  0
    2.1769    5.1215    0.4874 H   0  0  0  0  0  0  0  0  0  0  0  0
   -2.6126    1.7211   -0.5780 H   0  0  0  0  0  0  0  0  0  0  0  0
   -4.5476   -2.0178    0.4232 H   0  0  0  0  0  0  0  0  0  0  0  0
   -4.7305    2.4405   -1.5876 H   0  0  0  0  0  0  0  0  0  0  0  0
   -6.6880    0.8874   -1.5115 H   0  0  0  0  0  0  0  0  0  0  0  0
  1  8  2  0  0  0  0
  2  8  1  0  0  0  0
  2 10  1  0  0  0  0
  2 16  1  0  0  0  0
  3  6  1  0  0  0  0
  3 10  2  0  0  0  0
  4 10  1  0  0  0  0
  4 38  1  0  0  0  0
  4 39  1  0  0  0  0
  5 24  1  0  0  0  0
  5 26  2  0  0  0  0
  6  7  1  0  0  0  0
  6  8  1  0  0  0  0
  6  9  1  0  0  0  0
  7 11  1  0  0  0  0
  7 12  2  0  0  0  0
  9 13  2  0  0  0  0
  9 14  1  0  0  0  0
 11 15  2  0  0  0  0
 11 27  1  0  0  0  0
 12 17  1  0  0  0  0
 12 28  1  0  0  0  0
 13 19  1  0  0  0  0
 13 29  1  0  0  0  0
 14 20  2  0  0  0  0
 14 30  1  0  0  0  0
 15 18  1  0  0  0  0
 15 21  1  0  0  0  0
 16 31  1  0  0  0  0
 16 32  1  0  0  0  0
 16 33  1  0  0  0  0
 17 18  2  0  0  0  0
 17 34  1  0  0  0  0
 18 35  1  0  0  0  0
 19 22  2  0  0  0  0
 19 36  1  0  0  0  0
 20 22  1  0  0  0  0
 20 37  1  0  0  0  0
 21 23  1  0  0  0  0
 21 24  2  0  0  0  0
 22 40  1  0  0  0  0
 23 25  2  0  0  0  0
 23 41  1  0  0  0  0
 24 42  1  0  0  0  0
 25 26  1  0  0  0  0
 25 43  1  0  0  0  0
 26 44  1  0  0  0  0
M  END
> <PUBCHEM_COMPOUND_CID>
70685236

> <PUBCHEM_CONFORMER_RMSD>
0.8

> <PUBCHEM_CONFORMER_DIVERSEORDER>
1
14
6
3
16
7
9
17
15
2
5
10
8
11
13
4
12

> <PUBCHEM_MMFF94_PARTIAL_CHARGES>
39
1 -0.57
10 0.56
11 -0.15
12 -0.15
13 -0.15
14 -0.15
16 0.3
17 -0.15
18 -0.15
19 -0.15
2 -0.42
20 -0.15
22 -0.15
23 -0.15
24 0.16
25 -0.15
26 0.16
27 0.15
28 0.15
29 0.15
3 -0.7
30 0.15
34 0.15
35 0.15
36 0.15
37 0.15
38 0.4
39 0.4
4 -0.85
40 0.15
41 0.15
42 0.15
43 0.15
44 0.15
5 -0.62
6 0.59
7 -0.14
8 0.57
9 -0.14

> <PUBCHEM_EFFECTIVE_ROTOR_COUNT>
3.4

> <PUBCHEM_PHARMACOPHORE_FEATURES>
7
1 1 acceptor
1 4 donor
1 5 acceptor
5 2 3 6 8 10 rings
6 5 21 23 24 25 26 rings
6 7 11 12 15 17 18 rings
6 9 13 14 19 20 22 rings

> <PUBCHEM_HEAVY_ATOM_COUNT>
26

> <PUBCHEM_ATOM_DEF_STEREO_COUNT>
1

> <PUBCHEM_ATOM_UDEF_STEREO_COUNT>
0

> <PUBCHEM_BOND_DEF_STEREO_COUNT>
0

> <PUBCHEM_BOND_UDEF_STEREO_COUNT>
0

> <PUBCHEM_ISOTOPIC_ATOM_COUNT>
0

> <PUBCHEM_COMPONENT_COUNT>
1

> <PUBCHEM_CACTVS_TAUTO_COUNT>
2

> <PUBCHEM_CONFORMER_ID>
0436923400000001

> <PUBCHEM_MMFF94_ENERGY>
80.401

> <PUBCHEM_FEATURE_SELFOVERLAP>
35.523

> <PUBCHEM_SHAPE_FINGERPRINT>
10165383 225 17259664801883516592
10930396 42 18195500672945620178
11221954 11 18190741040804347769
11578080 2 17896903129343563828
11763715 3 16056059964654148746
12107698 1 18341886364852868509
12160290 23 17403769660926619680
12166972 35 17203328888303339511
12549972 3 17822583809848689939
12633257 1 17170929699305851216
12778500 126 11531307872622200495
12788726 201 17974292019695770698
13134695 92 18272647939887097176
13149001 5 18334869319750435930
133893 2 18056506008428416440
13681431 1 18199488643972487112
13911987 19 18197246748564773854
13965767 371 16661464329661024909
14713325 29 11176460487551418958
14863182 85 15410897349053716086
15163728 17 17171545469109834180
15295992 7 18187376423854468553
15806764 133 18189920710740739531
17349148 13 16773803571422414975
17980427 23 17846506898263258424
17980427 26 18044067220250778614
18186145 218 18334579036386313667
20775438 99 18123169450298310063
21756936 100 17325200123269392964
21860390 5 18411693313869594748
22182313 1 17897178033521543531
23559900 14 18260826029377270627
238 59 18057898024192498545
3052486 1 17899407584946140832
3380486 77 18042131951517077610
340366 18 18202557384825367751
376196 1 18049990396837806449
44802255 64 17255708789729306756
46194498 28 18342175583523426935
484985 159 15113975058960729110
495365 180 18128251379534022272
5081480 168 18194150514629647477
5281201 14 18412825789887955245
5895379 119 17702957911394617753
5969126 39 17913225174159513534
6086070 43 18118942734495921997
621550 34 17687483655180265675
633830 44 18261944220387503183
7399639 24 17690289621765495587
7471813 234 17989202625101169505
7808743 9 17462288250558176989
81228 2 17907601133333132048
9658208 31 17749678475920712539
9709674 26 18262518220975369859
9981440 41 17835226127678743112

> <PUBCHEM_SHAPE_MULTIPOLES>
509.27
9.31
3.76
1.98
13.91
3.77
0.12
-0.94
3.95
-4.95
-0.58
-0.82
-0.87
2.36

> <PUBCHEM_SHAPE_SELFOVERLAP>
1135.237

> <PUBCHEM_SHAPE_VOLUME>
271.7

> <PUBCHEM_COORDINATE_TYPE>
2
5
10

$$$$
