
     RDKit          3D

 28 30  0  0  0  0  0  0  0  0999 V2000
   16.0920   39.8820    6.5970 C   0  0  0  0  0  0  0  0  0  0  0  0
   14.8470   39.0870    6.9380 C   0  0  1  0  0  0  0  0  0  0  0  0
   15.1990   37.6910    7.3650 C   0  0  0  0  0  0  0  0  0  0  0  0
   15.3830   36.9280    6.1820 O   0  0  0  0  0  0  0  0  0  0  0  0
   14.0720   39.7510    7.9870 N   0  0  0  0  0  0  0  0  0  0  0  0
   12.7530   39.6120    8.1040 C   0  0  0  0  0  0  0  0  0  0  0  0
   12.0820   39.0190    7.2560 O   0  0  0  0  0  0  0  0  0  0  0  0
   12.1260   40.2150    9.2850 C   0  0  1  0  0  0  0  0  0  0  0  0
   12.7850   41.5150   10.1170 S   0  0  0  0  0  0  0  0  0  0  0  0
   11.4960   41.6100   11.1790 C   0  0  1  0  0  0  0  0  0  0  0  0
   10.5760   40.6750   10.9480 N   0  0  0  0  0  0  0  0  0  0  0  0
   10.8990   39.8990    9.8280 C   0  0  2  0  0  0  0  0  0  0  0  0
    9.9860   38.7940    9.4130 C   0  0  0  0  0  0  0  0  0  0  0  0
   11.5040   42.5850   12.2690 C   0  0  0  0  0  0  0  0  0  0  0  0
   10.4300   42.7180   13.1440 C   0  0  0  0  0  0  0  0  0  0  0  0
   10.5410   43.6540   14.1570 C   0  0  0  0  0  0  0  0  0  0  0  0
   11.6270   44.4100   14.3270 N   0  0  0  0  0  0  0  0  0  0  0  0
   12.6430   44.1950   13.4490 C   0  0  0  0  0  0  0  0  0  0  0  0
   13.7660   44.9520   13.6340 N   0  0  0  0  0  0  0  0  0  0  0  0
   15.0160   44.9340   12.9680 C   0  0  0  0  0  0  0  0  0  0  0  0
   15.3150   44.1640   11.8480 C   0  0  0  0  0  0  0  0  0  0  0  0
   16.5910   44.1780   11.2810 C   0  0  0  0  0  0  0  0  0  0  0  0
   16.8900   43.3410   10.0590 C   0  0  0  0  0  0  0  0  0  0  0  0
   17.5700   44.9840   11.8530 C   0  0  0  0  0  0  0  0  0  0  0  0
   17.3050   45.7640   12.9700 C   0  0  0  0  0  0  0  0  0  0  0  0
   18.3710   46.6280   13.6080 C   0  0  0  0  0  0  0  0  0  0  0  0
   16.0260   45.7200   13.5170 C   0  0  0  0  0  0  0  0  0  0  0  0
   12.6150   43.3150   12.4270 N   0  0  0  0  0  0  0  0  0  0  0  0
  2  1  1  1
  3  2  1  0
  4  3  1  0
  5  2  1  0
  6  5  1  0
  7  6  1  0
  8  6  1  6
  9  8  1  0
 10  9  1  0
 11 10  1  0
 12 11  1  0
 12  8  1  0
 12 13  1  1
 10 14  1  1
 15 14  1  0
 16 15  1  0
 17 16  1  0
 18 17  1  0
 19 18  1  0
 20 19  1  0
 21 20  1  0
 22 21  1  0
 23 22  1  0
 24 22  1  0
 25 24  1  0
 26 25  1  0
 27 20  1  0
 27 25  1  0
 28 14  1  0
 28 18  1  0
M  END
$$$$
