25113172
  -OEChem-02032612543D

 51 53  0     1  0  0  0  0  0999 V2000
   -1.2027    0.5802   -0.0712 S   0  0  0  0  0  0  0  0  0  0  0  0
   -3.3927   -3.4223    1.8093 O   0  0  0  0  0  0  0  0  0  0  0  0
   -5.0728    0.1495   -0.2451 O   0  0  0  0  0  0  0  0  0  0  0  0
   -3.3697   -1.4237   -0.2068 N   0  0  0  0  0  0  0  0  0  0  0  0
    3.6793    1.0153    0.1136 N   0  0  0  0  0  0  0  0  0  0  0  0
   -1.8819    3.0740   -0.0283 N   0  0  0  0  0  0  0  0  0  0  0  0
    1.4250    1.6633    0.0523 N   0  0  0  0  0  0  0  0  0  0  0  0
    3.1828    3.3082    0.1594 N   0  0  0  0  0  0  0  0  0  0  0  0
   -4.2179   -2.5908   -0.2947 C   0  0  2  0  0  0  0  0  0  0  0  0
   -3.5897   -3.7709    0.4436 C   0  0  0  0  0  0  0  0  0  0  0  0
   -4.4780   -2.9334   -1.7561 C   0  0  0  0  0  0  0  0  0  0  0  0
   -2.8749    0.9574   -0.1225 C   0  0  0  0  0  0  0  0  0  0  0  0
   -3.8793   -0.1352   -0.1895 C   0  0  0  0  0  0  0  0  0  0  0  0
   -3.0416    2.3260   -0.0905 C   0  0  0  0  0  0  0  0  0  0  0  0
    3.5739   -0.3874    0.0715 C   0  0  0  0  0  0  0  0  0  0  0  0
   -0.8508    2.2586   -0.0132 C   0  0  0  0  0  0  0  0  0  0  0  0
    2.3538   -2.4098    0.5796 C   0  0  0  0  0  0  0  0  0  0  0  0
    4.4796   -2.5359   -0.5617 C   0  0  0  0  0  0  0  0  0  0  0  0
    4.5843   -1.1456   -0.5199 C   0  0  0  0  0  0  0  0  0  0  0  0
    2.4587   -1.0194    0.6212 C   0  0  0  0  0  0  0  0  0  0  0  0
    0.5307    2.6735    0.0479 C   0  0  0  0  0  0  0  0  0  0  0  0
    3.3643   -3.1680   -0.0119 C   0  0  0  0  0  0  0  0  0  0  0  0
    2.7148    2.0465    0.1087 C   0  0  0  0  0  0  0  0  0  0  0  0
   -4.3312    3.0468   -0.1172 C   0  0  0  0  0  0  0  0  0  0  0  0
    1.1623   -3.0859    1.1691 C   0  0  0  0  0  0  0  0  0  0  0  0
    5.5588   -3.3466   -1.1958 C   0  0  0  0  0  0  0  0  0  0  0  0
    0.8805    4.0075    0.0967 C   0  0  0  0  0  0  0  0  0  0  0  0
    2.2345    4.2680    0.1516 C   0  0  0  0  0  0  0  0  0  0  0  0
   -5.1718   -2.3443    0.1880 H   0  0  0  0  0  0  0  0  0  0  0  0
   -2.3625   -1.5585   -0.2096 H   0  0  0  0  0  0  0  0  0  0  0  0
   -4.2424   -4.6488    0.4015 H   0  0  0  0  0  0  0  0  0  0  0  0
   -2.6158   -4.0331    0.0156 H   0  0  0  0  0  0  0  0  0  0  0  0
   -4.9561   -2.0967   -2.2769 H   0  0  0  0  0  0  0  0  0  0  0  0
   -5.1366   -3.8039   -1.8422 H   0  0  0  0  0  0  0  0  0  0  0  0
   -3.5441   -3.1582   -2.2836 H   0  0  0  0  0  0  0  0  0  0  0  0
    5.4528   -0.6529   -0.9514 H   0  0  0  0  0  0  0  0  0  0  0  0
    1.6824   -0.4635    1.1362 H   0  0  0  0  0  0  0  0  0  0  0  0
    3.2837   -4.2520   -0.0451 H   0  0  0  0  0  0  0  0  0  0  0  0
    4.6266    1.3694    0.0194 H   0  0  0  0  0  0  0  0  0  0  0  0
   -4.9513    2.7661    0.7400 H   0  0  0  0  0  0  0  0  0  0  0  0
   -4.1771    4.1300   -0.0750 H   0  0  0  0  0  0  0  0  0  0  0  0
   -4.8812    2.8252   -1.0372 H   0  0  0  0  0  0  0  0  0  0  0  0
    1.2806   -3.1784    2.2532 H   0  0  0  0  0  0  0  0  0  0  0  0
    0.2486   -2.5193    0.9596 H   0  0  0  0  0  0  0  0  0  0  0  0
    1.0204   -4.0876    0.7494 H   0  0  0  0  0  0  0  0  0  0  0  0
    5.6468   -4.3291   -0.7196 H   0  0  0  0  0  0  0  0  0  0  0  0
    6.5326   -2.8551   -1.0969 H   0  0  0  0  0  0  0  0  0  0  0  0
    5.3448   -3.4902   -2.2595 H   0  0  0  0  0  0  0  0  0  0  0  0
    0.1580    4.8139    0.0928 H   0  0  0  0  0  0  0  0  0  0  0  0
   -2.9909   -4.1933    2.2449 H   0  0  0  0  0  0  0  0  0  0  0  0
    2.6057    5.2865    0.1923 H   0  0  0  0  0  0  0  0  0  0  0  0
  1 12  1  0  0  0  0
  1 16  1  0  0  0  0
  2 10  1  0  0  0  0
  2 50  1  0  0  0  0
  3 13  2  0  0  0  0
  4  9  1  0  0  0  0
  4 13  1  0  0  0  0
  4 30  1  0  0  0  0
  5 15  1  0  0  0  0
  5 23  1  0  0  0  0
  5 39  1  0  0  0  0
  6 14  1  0  0  0  0
  6 16  2  0  0  0  0
  7 21  2  0  0  0  0
  7 23  1  0  0  0  0
  8 23  2  0  0  0  0
  8 28  1  0  0  0  0
  9 10  1  0  0  0  0
  9 11  1  0  0  0  0
  9 29  1  0  0  0  0
 10 31  1  0  0  0  0
 10 32  1  0  0  0  0
 11 33  1  0  0  0  0
 11 34  1  0  0  0  0
 11 35  1  0  0  0  0
 12 13  1  0  0  0  0
 12 14  2  0  0  0  0
 14 24  1  0  0  0  0
 15 19  2  0  0  0  0
 15 20  1  0  0  0  0
 16 21  1  0  0  0  0
 17 20  2  0  0  0  0
 17 22  1  0  0  0  0
 17 25  1  0  0  0  0
 18 19  1  0  0  0  0
 18 22  2  0  0  0  0
 18 26  1  0  0  0  0
 19 36  1  0  0  0  0
 20 37  1  0  0  0  0
 21 27  1  0  0  0  0
 22 38  1  0  0  0  0
 24 40  1  0  0  0  0
 24 41  1  0  0  0  0
 24 42  1  0  0  0  0
 25 43  1  0  0  0  0
 25 44  1  0  0  0  0
 25 45  1  0  0  0  0
 26 46  1  0  0  0  0
 26 47  1  0  0  0  0
 26 48  1  0  0  0  0
 27 28  2  0  0  0  0
 27 49  1  0  0  0  0
 28 51  1  0  0  0  0
M  END
> <PUBCHEM_COMPOUND_CID>
25113172

> <PUBCHEM_CONFORMER_RMSD>
1

> <PUBCHEM_CONFORMER_DIVERSEORDER>
1
12
40
56
67
42
86
81
93
61
64
30
51
100
47
29
26
33
88
60
77
25
6
75
74
73
16
83
72
44
4
98
54
58
79
71
65
23
97
66
28
41
96
36
59
11
82
8
90
20
3
91
52
17
89
69
87
18
21
5
43
78
70
62
19
53
101
49
7
46
68
34
95
55
9
102
14
10
48
84
13
94
85
76
31
37
38
50
92
35
22
45
39
99
80
2
57
27
15
24
63
32

> <PUBCHEM_MMFF94_PARTIAL_CHARGES>
35
1 -0.08
10 0.28
12 -0.05
13 0.71
14 0.05
15 0.1
16 0.33
17 -0.14
18 -0.14
19 -0.15
2 -0.68
20 -0.15
21 0.36
22 -0.15
23 0.72
24 0.18
25 0.14
26 0.14
27 -0.15
28 0.16
3 -0.57
30 0.37
36 0.15
37 0.15
38 0.15
39 0.4
4 -0.73
49 0.15
5 -0.6
50 0.4
51 0.15
6 -0.57
7 -0.62
8 -0.62
9 0.3

> <PUBCHEM_EFFECTIVE_ROTOR_COUNT>
7

> <PUBCHEM_PHARMACOPHORE_FEATURES>
11
1 2 acceptor
1 2 donor
1 3 acceptor
1 4 donor
1 5 donor
1 6 acceptor
1 7 acceptor
4 5 7 8 23 cation
5 1 6 12 14 16 rings
6 15 17 18 19 20 22 rings
6 7 8 21 23 27 28 rings

> <PUBCHEM_HEAVY_ATOM_COUNT>
28

> <PUBCHEM_ATOM_DEF_STEREO_COUNT>
1

> <PUBCHEM_ATOM_UDEF_STEREO_COUNT>
0

> <PUBCHEM_BOND_DEF_STEREO_COUNT>
0

> <PUBCHEM_BOND_UDEF_STEREO_COUNT>
0

> <PUBCHEM_ISOTOPIC_ATOM_COUNT>
0

> <PUBCHEM_COMPONENT_COUNT>
1

> <PUBCHEM_CACTVS_TAUTO_COUNT>
6

> <PUBCHEM_CONFORMER_ID>
017F325400000001

> <PUBCHEM_MMFF94_ENERGY>
68.4127

> <PUBCHEM_FEATURE_SELFOVERLAP>
55.825

> <PUBCHEM_SHAPE_FINGERPRINT>
10254770 206 17830715578778859547
10622 236 17701234045130038439
1100329 8 18338517409406173673
11136131 41 18190728921149995712
11513181 2 18201157762294610366
12107183 9 18199762366718378081
12553582 1 18049711928501453336
12788726 201 17686060492271134896
12969540 37 18408881854506483220
13692114 37 17478595168171761560
138480 1 18411135818946742584
14251757 5 18192719933995608782
14866123 147 17622447134175578857
15320467 1 18050566540846377383
15968369 26 18191577756405327124
16067689 302 18049719926659935111
17492 89 18340767134634370175
17909252 39 18266750262362651050
19301676 85 18195522593894384567
19319366 153 17462579298937648787
19930381 70 18193272112144197289
20028762 73 17982725578696617108
20286276 3 18410859884219484885
20775438 99 17689661607679945237
20775530 9 18334012761479585918
221490 88 18337957886720460592
23379529 103 18055923087214925598
23559900 14 18412252935413362881
325973 47 18338799017216134351
3737641 26 18266752461544103627
3882209 13 17904998726148577931
4280585 95 18265324028652390306
463206 1 18336552594890628224
474144 1 17029650937607270763
6433294 58 18338796848225280243
9709674 26 18409166640543821593

> <PUBCHEM_SHAPE_MULTIPOLES>
543.43
11.38
7.02
0.98
0.24
1.31
0
-9.58
-2.81
-0.37
0.4
-0.28
-1.13
0.71

> <PUBCHEM_SHAPE_SELFOVERLAP>
1146.039

> <PUBCHEM_SHAPE_VOLUME>
308.2

> <PUBCHEM_COORDINATE_TYPE>
2
5
10

$$$$
