
     RDKit          3D

 24 27  0  0  0  0  0  0  0  0999 V2000
  -24.4800    8.7250   11.4480 N   0  0  0  0  0  0  0  0  0  0  0  0
  -23.2730    6.1070   17.5730 N   0  0  0  0  0  0  0  0  0  0  0  0
  -23.7180    8.5440   15.5560 C   0  0  0  0  0  0  0  0  0  0  0  0
  -24.7990    7.8810   15.0010 C   0  0  0  0  0  0  0  0  0  0  0  0
  -25.0430    7.9410   13.6420 C   0  0  0  0  0  0  0  0  0  0  0  0
  -24.2130    8.6790   12.8110 C   0  0  0  0  0  0  0  0  0  0  0  0
  -23.4660    8.4900   17.0410 C   0  0  0  0  0  0  0  0  0  0  0  0
  -19.9440    5.5790   18.7420 C   0  0  0  0  0  0  0  0  0  0  0  0
  -19.6060    4.2240   19.1280 C   0  0  0  0  0  0  0  0  0  0  0  0
  -19.4810    2.0550   19.6260 C   0  0  0  0  0  0  0  0  0  0  0  0
  -22.1830   10.1860   12.4940 C   0  0  0  0  0  0  0  0  0  0  0  0
  -19.2930    7.8100   18.5010 C   0  0  0  0  0  0  0  0  0  0  0  0
  -21.4000    7.2660   17.9350 C   0  0  0  0  0  0  0  0  0  0  0  0
  -20.3460    3.0940   19.1910 C   0  0  0  0  0  0  0  0  0  0  0  0
  -18.2410    2.6380   19.7900 C   0  0  0  0  0  0  0  0  0  0  0  0
  -23.1080    9.3760   13.3580 C   0  0  0  0  0  0  0  0  0  0  0  0
  -22.8940    9.2920   14.7300 C   0  0  0  0  0  0  0  0  0  0  0  0
  -21.2130    5.9310   18.2700 C   0  0  0  0  0  0  0  0  0  0  0  0
  -22.6890    7.3450   17.4940 N   0  0  0  0  0  0  0  0  0  0  0  0
  -22.3890    5.2550   18.0290 N   0  0  0  0  0  0  0  0  0  0  0  0
  -18.9920    6.5350   18.8580 N   0  0  0  0  0  0  0  0  0  0  0  0
  -20.4820    8.2400   18.0330 N   0  0  0  0  0  0  0  0  0  0  0  0
  -18.3140    8.7280   18.6260 N   0  0  0  0  0  0  0  0  0  0  0  0
  -18.3000    3.9680   19.4830 O   0  0  0  0  0  0  0  0  0  0  0  0
  4  3  1  0
  5  4  1  0
  6  5  1  0
  6  1  1  0
  7  3  1  0
  9  8  1  0
 14 10  1  0
 14  9  1  0
 15 10  1  0
 16 11  1  0
 16  6  1  0
 17 16  1  0
 17  3  1  0
 18 13  1  0
 18  8  1  0
 19  7  1  0
 19  2  1  0
 19 13  1  0
 20  2  1  0
 20 18  1  0
 21 12  1  0
 21  8  1  0
 22 13  1  0
 22 12  1  0
 23 12  1  0
 24 15  1  0
 24  9  1  0
M  END
$$$$
