
     RDKit          3D

 22 24  0  0  0  0  0  0  0  0999 V2000
   19.8190  -24.8100   76.8490 O   0  0  0  0  0  0  0  0  0  0  0  0
   20.3360  -23.6080   77.3900 C   0  0  1  0  0  0  0  0  0  0  0  0
   21.2330  -23.8910   78.6000 C   0  0  0  0  0  0  0  0  0  0  0  0
   20.6630  -24.8940   79.4920 N   0  0  0  0  0  0  0  0  0  0  0  0
   20.9220  -24.8700   80.9210 C   0  0  2  0  0  0  0  0  0  0  0  0
   22.4300  -24.9400   81.1560 C   0  0  0  0  0  0  0  0  0  0  0  0
   20.1690  -26.0170   81.6010 C   0  0  0  0  0  0  0  0  0  0  0  0
   21.1260  -22.8900   76.3250 C   0  0  0  0  0  0  0  0  0  0  0  0
   21.6910  -21.7170   76.8740 O   0  0  0  0  0  0  0  0  0  0  0  0
   22.4800  -20.8520   76.1820 C   0  0  0  0  0  0  0  0  0  0  0  0
   22.8720  -21.1150   74.8650 C   0  0  0  0  0  0  0  0  0  0  0  0
   23.6780  -20.2290   74.1630 C   0  0  0  0  0  0  0  0  0  0  0  0
   24.1200  -19.0550   74.7440 C   0  0  0  0  0  0  0  0  0  0  0  0
   23.7720  -18.7410   76.0250 C   0  0  0  0  0  0  0  0  0  0  0  0
   22.9270  -19.6740   76.7590 C   0  0  0  0  0  0  0  0  0  0  0  0
   24.0430  -17.6820   76.8600 N   0  0  0  0  0  0  0  0  0  0  0  0
   23.4230  -17.8780   78.0720 C   0  0  0  0  0  0  0  0  0  0  0  0
   22.7170  -19.1510   77.9950 C   0  0  0  0  0  0  0  0  0  0  0  0
   23.3500  -17.1650   79.2470 C   0  0  0  0  0  0  0  0  0  0  0  0
   22.6140  -17.6680   80.3160 C   0  0  0  0  0  0  0  0  0  0  0  0
   21.9460  -18.8850   80.2290 C   0  0  0  0  0  0  0  0  0  0  0  0
   21.9930  -19.6350   79.0690 C   0  0  0  0  0  0  0  0  0  0  0  0
  2  1  1  6
  3  2  1  0
  4  3  1  0
  5  4  1  0
  5  6  1  6
  7  5  1  0
  8  2  1  0
  9  8  1  0
 10  9  1  0
 11 10  1  0
 12 11  1  0
 13 12  1  0
 14 13  1  0
 15 14  1  0
 15 10  1  0
 16 14  1  0
 17 16  1  0
 18 17  1  0
 18 15  1  0
 19 17  1  0
 20 19  1  0
 21 20  1  0
 22 21  1  0
 22 18  1  0
M  END
$$$$
