
     RDKit          3D

 28 31  0  0  0  0  0  0  0  0999 V2000
   89.5840   93.8320   13.9910 C   0  0  0  0  0  0  0  0  0  0  0  0
   90.5220   92.8410   13.5820 C   0  0  0  0  0  0  0  0  0  0  0  0
   91.7890   92.8160   14.1420 C   0  0  0  0  0  0  0  0  0  0  0  0
   92.1240   93.7650   15.1000 C   0  0  0  0  0  0  0  0  0  0  0  0
   91.2080   94.7300   15.4820 C   0  0  0  0  0  0  0  0  0  0  0  0
   89.9280   94.7650   14.9410 C   0  0  0  0  0  0  0  0  0  0  0  0
   91.7940   95.6020   16.5130 C   0  0  0  0  0  0  0  0  0  0  0  0
   93.1870   95.0780   16.8420 C   0  0  1  0  0  0  0  0  0  0  0  0
   93.4300   93.9420   15.8240 C   0  0  0  0  0  0  0  0  0  0  0  0
   94.2440   96.1800   16.8820 C   0  0  0  0  0  0  0  0  0  0  0  0
   95.5390   95.8250   17.6140 C   0  0  1  0  0  0  0  0  0  0  0  0
   96.4110   94.8380   16.8450 C   0  0  0  0  0  0  0  0  0  0  0  0
   97.7260   94.5600   17.5530 C   0  0  0  0  0  0  0  0  0  0  0  0
   98.4670   95.7990   17.8220 N   0  0  0  0  0  0  0  0  0  0  0  0
   97.6620   96.7190   18.6420 C   0  0  0  0  0  0  0  0  0  0  0  0
   96.3630   97.0660   17.9360 C   0  0  0  0  0  0  0  0  0  0  0  0
   99.7970   95.5340   18.3990 C   0  0  0  0  0  0  0  0  0  0  0  0
   99.8420   95.2420   19.8830 C   0  0  1  0  0  0  0  0  0  0  0  0
   99.6400   93.9560   20.3610 C   0  0  0  0  0  0  0  0  0  0  0  0
   99.7050   93.6810   21.7200 C   0  0  0  0  0  0  0  0  0  0  0  0
   99.9890   94.6910   22.6160 C   0  0  0  0  0  0  0  0  0  0  0  0
  100.2030   95.9730   22.1560 C   0  0  0  0  0  0  0  0  0  0  0  0
  100.1490   96.2440   20.7950 C   0  0  0  0  0  0  0  0  0  0  0  0
   91.2540   96.5580   17.0560 O   0  0  0  0  0  0  0  0  0  0  0  0
   88.3660   93.7390   13.3790 O   0  0  0  0  0  0  0  0  0  0  0  0
   87.4010   94.7470   13.6600 C   0  0  0  0  0  0  0  0  0  0  0  0
   90.0350   91.9490   12.6540 O   0  0  0  0  0  0  0  0  0  0  0  0
   90.9500   91.0330   12.0590 C   0  0  0  0  0  0  0  0  0  0  0  0
  2  1  1  0
  3  2  1  0
  4  3  1  0
  5  4  1  0
  6  5  1  0
  6  1  1  0
  7  5  1  0
  8  7  1  0
  9  4  1  0
  9  8  1  0
  8 10  1  6
 11 10  1  6
 12 11  1  0
 13 12  1  0
 14 13  1  0
 15 14  1  0
 16 15  1  0
 16 11  1  0
 17 14  1  0
 18 17  1  6
 19 18  1  0
 20 19  1  0
 21 20  1  0
 22 21  1  0
 23 18  1  0
 23 22  1  0
 24  7  1  0
 25  1  1  0
 26 25  1  0
 27  2  1  0
 28 27  1  0
M  END
$$$$
