
     RDKit          3D

 25 27  0  0  0  0  0  0  0  0999 V2000
   -9.5700   52.7640   13.5930 N   0  0  0  0  0  0  0  0  0  0  0  0
  -10.0190   51.8650   12.6860 C   0  0  0  0  0  0  0  0  0  0  0  0
   -9.3120   50.5910   12.9160 C   0  0  0  0  0  0  0  0  0  0  0  0
   -7.7000   49.9500   14.8400 C   0  0  0  0  0  0  0  0  0  0  0  0
   -7.0590   50.4430   16.0050 C   0  0  0  0  0  0  0  0  0  0  0  0
   -7.2090   51.7970   16.3550 C   0  0  0  0  0  0  0  0  0  0  0  0
   -7.9970   52.6630   15.5720 C   0  0  0  0  0  0  0  0  0  0  0  0
   -8.6820   52.1550   14.4540 C   0  0  0  0  0  0  0  0  0  0  0  0
   -8.5150   50.8400   14.0960 C   0  0  0  0  0  0  0  0  0  0  0  0
  -10.8660   52.0250   11.8180 O   0  0  0  0  0  0  0  0  0  0  0  0
   -9.3980   49.4830   12.1580 C   0  0  0  0  0  0  0  0  0  0  0  0
  -10.2490   49.4850   10.9500 N   0  0  0  0  0  0  0  0  0  0  0  0
  -10.3340   48.4460   10.0880 C   0  0  0  0  0  0  0  0  0  0  0  0
  -11.3950   48.4690    9.1760 C   0  0  0  0  0  0  0  0  0  0  0  0
  -11.5090   47.4790    8.1940 C   0  0  0  0  0  0  0  0  0  0  0  0
  -10.5670   46.4430    8.1460 C   0  0  0  0  0  0  0  0  0  0  0  0
   -9.5480   46.3760    9.0990 C   0  0  0  0  0  0  0  0  0  0  0  0
   -9.4230   47.3750   10.0590 C   0  0  0  0  0  0  0  0  0  0  0  0
  -10.7040   45.2560    6.8260 S   0  0  2  0  0  0  0  0  0  0  0  0
  -10.2000   43.9530    7.1760 O   0  0  0  0  0  0  0  0  0  0  0  0
  -10.2260   45.9490    5.6880 O   0  0  0  0  0  0  0  0  0  0  0  0
  -12.3310   45.0510    6.7050 N   0  0  0  0  0  0  0  0  0  0  0  0
  -13.0290   44.3140    7.6640 C   0  0  0  0  0  0  0  0  0  0  0  0
  -12.4570   43.3530    8.4190 N   0  0  0  0  0  0  0  0  0  0  0  0
  -14.3340   44.5470    7.8660 N   0  0  0  0  0  0  0  0  0  0  0  0
  2  1  1  0
  3  2  1  0
  5  4  1  0
  6  5  1  0
  7  6  1  0
  8  7  1  0
  8  1  1  0
  9  8  1  0
  9  4  1  0
  9  3  1  0
 10  2  1  0
 11  3  1  0
 12 11  1  0
 13 12  1  0
 14 13  1  0
 15 14  1  0
 16 15  1  0
 17 16  1  0
 18 17  1  0
 18 13  1  0
 19 16  1  0
 19 20  1  1
 21 19  1  0
 22 19  1  0
 23 22  1  0
 24 23  1  0
 25 23  1  0
M  END
$$$$
