4477132
  -OEChem-02032612543D

 40 42  0     0  0  0  0  0  0999 V2000
    4.8307   -0.4815    0.0018 S   0  0  0  0  0  0  0  0  0  0  0  0
   -3.5166   -2.8248   -0.0038 O   0  0  0  0  0  0  0  0  0  0  0  0
    5.3582   -0.9986   -1.2571 O   0  0  0  0  0  0  0  0  0  0  0  0
    5.3217   -1.0277    1.2619 O   0  0  0  0  0  0  0  0  0  0  0  0
   -5.2538   -1.2625   -0.0026 N   0  0  0  0  0  0  0  0  0  0  0  0
   -1.0401   -1.3466   -0.0018 N   0  0  0  0  0  0  0  0  0  0  0  0
    4.9906    1.1473    0.0001 N   0  0  0  0  0  0  0  0  0  0  0  0
    6.4147    3.0834   -0.0012 N   0  0  0  0  0  0  0  0  0  0  0  0
    7.3140    0.9861    0.0014 N   0  0  0  0  0  0  0  0  0  0  0  0
   -4.1659    0.6853    0.0003 C   0  0  0  0  0  0  0  0  0  0  0  0
   -5.4349    0.1023   -0.0009 C   0  0  0  0  0  0  0  0  0  0  0  0
   -3.2186   -0.3763   -0.0009 C   0  0  0  0  0  0  0  0  0  0  0  0
   -3.9177   -1.5614   -0.0024 C   0  0  0  0  0  0  0  0  0  0  0  0
   -4.0654    2.0908    0.0026 C   0  0  0  0  0  0  0  0  0  0  0  0
   -6.6131    0.8574   -0.0002 C   0  0  0  0  0  0  0  0  0  0  0  0
   -1.7857   -0.2788   -0.0017 C   0  0  0  0  0  0  0  0  0  0  0  0
   -5.2353    2.8590    0.0033 C   0  0  0  0  0  0  0  0  0  0  0  0
   -6.4885    2.2498    0.0019 C   0  0  0  0  0  0  0  0  0  0  0  0
    3.1034   -0.7367    0.0010 C   0  0  0  0  0  0  0  0  0  0  0  0
    0.3501   -1.1406   -0.0012 C   0  0  0  0  0  0  0  0  0  0  0  0
    2.4122   -0.8374    1.2084 C   0  0  0  0  0  0  0  0  0  0  0  0
    2.4144   -0.8386   -1.2075 C   0  0  0  0  0  0  0  0  0  0  0  0
    1.0321   -1.0399    1.2073 C   0  0  0  0  0  0  0  0  0  0  0  0
    1.0343   -1.0409   -1.2087 C   0  0  0  0  0  0  0  0  0  0  0  0
    6.1592    1.7311    0.0001 C   0  0  0  0  0  0  0  0  0  0  0  0
   -5.9990   -1.9450   -0.0037 H   0  0  0  0  0  0  0  0  0  0  0  0
   -3.0969    2.5827    0.0038 H   0  0  0  0  0  0  0  0  0  0  0  0
   -7.5892    0.3839   -0.0012 H   0  0  0  0  0  0  0  0  0  0  0  0
   -1.3425    0.7337   -0.0012 H   0  0  0  0  0  0  0  0  0  0  0  0
   -5.1638    3.9434    0.0050 H   0  0  0  0  0  0  0  0  0  0  0  0
   -7.3842    2.8658    0.0024 H   0  0  0  0  0  0  0  0  0  0  0  0
    2.9255   -0.7528    2.1622 H   0  0  0  0  0  0  0  0  0  0  0  0
    2.9309   -0.7561   -2.1597 H   0  0  0  0  0  0  0  0  0  0  0  0
    0.5011   -1.1162    2.1523 H   0  0  0  0  0  0  0  0  0  0  0  0
    0.5050   -1.1183   -2.1547 H   0  0  0  0  0  0  0  0  0  0  0  0
   -2.5440   -2.8255   -0.0034 H   0  0  0  0  0  0  0  0  0  0  0  0
    7.3625    3.4439   -0.0017 H   0  0  0  0  0  0  0  0  0  0  0  0
    5.6582    3.7590   -0.0026 H   0  0  0  0  0  0  0  0  0  0  0  0
    7.3184   -0.0271    0.0028 H   0  0  0  0  0  0  0  0  0  0  0  0
    8.2219    1.4388    0.0019 H   0  0  0  0  0  0  0  0  0  0  0  0
  1  3  2  0  0  0  0
  1  4  2  0  0  0  0
  1  7  1  0  0  0  0
  1 19  1  0  0  0  0
  2 13  1  0  0  0  0
  2 36  1  0  0  0  0
  5 11  1  0  0  0  0
  5 13  1  0  0  0  0
  5 26  1  0  0  0  0
  6 16  2  0  0  0  0
  6 20  1  0  0  0  0
  7 25  2  0  0  0  0
  8 25  1  0  0  0  0
  8 37  1  0  0  0  0
  8 38  1  0  0  0  0
  9 25  1  0  0  0  0
  9 39  1  0  0  0  0
  9 40  1  0  0  0  0
 10 11  1  0  0  0  0
 10 12  1  0  0  0  0
 10 14  2  0  0  0  0
 11 15  2  0  0  0  0
 12 13  2  0  0  0  0
 12 16  1  0  0  0  0
 14 17  1  0  0  0  0
 14 27  1  0  0  0  0
 15 18  1  0  0  0  0
 15 28  1  0  0  0  0
 16 29  1  0  0  0  0
 17 18  2  0  0  0  0
 17 30  1  0  0  0  0
 18 31  1  0  0  0  0
 19 21  2  0  0  0  0
 19 22  1  0  0  0  0
 20 23  2  0  0  0  0
 20 24  1  0  0  0  0
 21 23  1  0  0  0  0
 21 32  1  0  0  0  0
 22 24  2  0  0  0  0
 22 33  1  0  0  0  0
 23 34  1  0  0  0  0
 24 35  1  0  0  0  0
M  END
> <PUBCHEM_COMPOUND_CID>
4477132

> <PUBCHEM_CONFORMER_RMSD>
0.8

> <PUBCHEM_CONFORMER_DIVERSEORDER>
1
5
9
3
4
10
11
6
7
2
12
8
13
14

> <PUBCHEM_MMFF94_PARTIAL_CHARGES>
39
1 1.5
11 -0.15
12 -0.09
13 -0.09
14 -0.15
15 -0.15
16 0.48
17 -0.15
18 -0.15
19 -0.01
2 -0.51
20 0.18
21 -0.15
22 -0.15
23 -0.15
24 -0.15
25 0.55
26 0.27
27 0.15
28 0.15
29 0.06
3 -0.65
30 0.15
31 0.15
32 0.15
33 0.15
34 0.15
35 0.15
36 0.45
37 0.4
38 0.4
39 0.4
4 -0.65
40 0.4
5 0.03
6 -0.63
7 -0.64
8 -0.85
9 -0.85

> <PUBCHEM_EFFECTIVE_ROTOR_COUNT>
4

> <PUBCHEM_PHARMACOPHORE_FEATURES>
12
1 2 donor
1 3 acceptor
1 4 acceptor
1 5 cation
1 5 donor
1 6 acceptor
1 7 donor
1 8 donor
1 9 donor
5 5 10 11 12 13 rings
6 10 11 14 15 17 18 rings
6 19 20 21 22 23 24 rings

> <PUBCHEM_HEAVY_ATOM_COUNT>
25

> <PUBCHEM_ATOM_DEF_STEREO_COUNT>
0

> <PUBCHEM_ATOM_UDEF_STEREO_COUNT>
0

> <PUBCHEM_BOND_DEF_STEREO_COUNT>
0

> <PUBCHEM_BOND_UDEF_STEREO_COUNT>
0

> <PUBCHEM_ISOTOPIC_ATOM_COUNT>
0

> <PUBCHEM_COMPONENT_COUNT>
1

> <PUBCHEM_CACTVS_TAUTO_COUNT>
10

> <PUBCHEM_CONFORMER_ID>
004450CC00000001

> <PUBCHEM_MMFF94_ENERGY>
54.2371

> <PUBCHEM_FEATURE_SELFOVERLAP>
61.18

> <PUBCHEM_SHAPE_FINGERPRINT>
10 15 18333737905654023177
10087517 78 18334573551381235037
10411042 1 17906452479160242063
10554248 39 18129370523562816814
10595046 47 18408880758873117187
10673678 19 18129666426083766692
10693767 8 12679193674304264516
10835480 77 18343302543796671844
10883706 163 18263081024895752349
11315181 36 18113336432048341279
11646440 116 15357697479096806508
11991303 11 16988556948311691286
12236239 1 17894631431305358747
12596602 18 18114179735226852235
12616971 3 15936418852966406671
12895837 130 18337676411880880589
13073987 5 18187646920357330371
13167372 99 18408601449034183664
13533116 47 17531523179810531018
13540713 4 15409182231532814686
13540713 5 15359692117955231178
13668630 136 12679453184617502717
13685833 64 8214141858886702324
13785724 45 17905883679202836258
13911987 19 16917073277821197463
14251757 52 18411697695158073776
14251764 30 9223232936107877258
14598715 104 18059280072324035512
14739800 52 18335691737452785904
14849402 71 17749961084505259652
14933364 13 18411703188204649030
15183329 4 17060623291308718024
15419008 145 18187914042571663760
15961568 22 18410857650578177860
16989713 51 17344620672406553639
17980427 23 18260830423260878879
20058555 10 18411701027779031760
20281389 69 18260266309160251445
20511986 3 17749661905725516973
20567600 247 10303820878054141196
21033648 29 17988347235077242058
21130935 74 17822009795991708851
21424621 283 18259705609927975178
21585482 111 18260827107810831716
21641784 216 16702035157706406040
21792961 116 17775574121811229610
23559900 14 18127979594483839295
23569914 2 17693324063479639088
23569943 247 11526856018634777380
24771293 8 18042123314548972236
2838139 119 18342172332397155516
2916195 48 18409167727144082634
29717793 49 12535621674293105706
300161 21 18040149596365832807
3472631 163 18410856542502190117
34797466 226 18060147543578685270
3663271 9 18040994046612127530
4073 2 18186525431798690730
44249763 50 17631715184231524226
465052 167 11674876689476574722
5104073 3 17821446850385618978
543368 44 18407758132369222157
5718773 13 8141787375683494041
5758199 1 17603588530369224658
6327066 14 18337667496135604669
6328613 192 18411418410203376865
636775 72 18411135870170190064
7808743 9 18410852157820635259

> <PUBCHEM_SHAPE_MULTIPOLES>
475.82
20.32
2.69
0.94
8.99
1.64
0
13.79
-0.01
-1.03
0
0.97
-0.31
-0.01

> <PUBCHEM_SHAPE_SELFOVERLAP>
1030.891

> <PUBCHEM_SHAPE_VOLUME>
261

> <PUBCHEM_COORDINATE_TYPE>
2
5
10

$$$$
