
     RDKit          3D

 99111  0  0  0  0  0  0  0  0999 V2000
  -65.1860    6.5090  -35.2430 N   0  0  0  0  0  0  0  0  0  0  0  0
  -65.8370    7.8100  -35.4950 C   0  0  0  0  0  0  0  0  0  0  0  0
  -64.8270    8.9690  -35.6010 C   0  0  0  0  0  0  0  0  0  0  0  0
  -63.7310    8.8400  -34.6070 N   0  0  0  0  0  0  0  0  0  0  0  0
  -63.3220    7.4910  -34.1100 C   0  0  0  0  0  0  0  0  0  0  0  0
  -64.5220    6.5690  -33.9420 C   0  0  0  0  0  0  0  0  0  0  0  0
  -66.1970    5.4340  -35.1720 C   0  0  0  0  0  0  0  0  0  0  0  0
  -62.9920    9.9800  -34.2040 C   0  0  0  0  0  0  0  0  0  0  0  0
  -61.6050    9.9400  -34.1830 C   0  0  0  0  0  0  0  0  0  0  0  0
  -60.8740   11.0680  -33.7870 C   0  0  0  0  0  0  0  0  0  0  0  0
  -61.5330   12.1980  -33.4300 N   0  0  0  0  0  0  0  0  0  0  0  0
  -62.8830   12.2230  -33.4900 C   0  0  0  0  0  0  0  0  0  0  0  0
  -63.5870   11.1280  -33.8600 N   0  0  0  0  0  0  0  0  0  0  0  0
  -59.5260   10.9410  -33.7970 N   0  0  0  0  0  0  0  0  0  0  0  0
  -58.6740   11.8170  -33.2590 C   0  0  0  0  0  0  0  0  0  0  0  0
  -58.6930   13.1390  -33.4490 C   0  0  0  0  0  0  0  0  0  0  0  0
  -57.6610   13.5710  -32.7130 C   0  0  0  0  0  0  0  0  0  0  0  0
  -57.0570   12.5160  -32.1260 N   0  0  0  0  0  0  0  0  0  0  0  0
  -57.6520   11.4740  -32.4550 N   0  0  0  0  0  0  0  0  0  0  0  0
  -57.2540   15.0510  -32.5820 C   0  0  0  0  0  0  0  0  0  0  0  0
  -63.8290   13.6800  -33.0730 S   0  0  0  0  0  0  0  0  0  0  0  0
  -62.5590   14.9200  -32.6540 C   0  0  0  0  0  0  0  0  0  0  0  0
  -61.8910   15.6430  -33.6500 C   0  0  0  0  0  0  0  0  0  0  0  0
  -60.9160   16.5860  -33.3370 C   0  0  0  0  0  0  0  0  0  0  0  0
  -60.5780   16.8440  -32.0030 C   0  0  2  0  0  0  0  0  0  0  0  0
  -61.2680   16.1350  -31.0030 C   0  0  0  0  0  0  0  0  0  0  0  0
  -62.2390   15.1770  -31.3210 C   0  0  0  0  0  0  0  0  0  0  0  0
  -59.6570   17.8000  -31.6450 N   0  0  0  0  0  0  0  0  0  0  0  0
  -58.7090   18.3210  -32.4690 C   0  0  0  0  0  0  0  0  0  0  0  0
  -58.4690   17.9950  -33.6410 O   0  0  0  0  0  0  0  0  0  0  0  0
  -57.9010   19.4700  -31.8620 C   0  0  1  0  0  0  0  0  0  0  0  0
  -57.0540   19.1820  -30.6140 C   0  0  0  0  0  0  0  0  0  0  0  0
  -56.3920   19.3300  -32.0130 C   0  0  0  0  0  0  0  0  0  0  0  0
  -49.6030   34.0520  -37.3510 N   0  0  0  0  0  0  0  0  0  0  0  0
  -50.5810   35.1360  -37.1760 C   0  0  0  0  0  0  0  0  0  0  0  0
  -51.5420   35.1020  -38.3720 C   0  0  0  0  0  0  0  0  0  0  0  0
  -50.8660   34.8760  -39.6920 N   0  0  0  0  0  0  0  0  0  0  0  0
  -49.4200   34.5090  -39.8050 C   0  0  0  0  0  0  0  0  0  0  0  0
  -48.6850   34.4610  -38.4420 C   0  0  0  0  0  0  0  0  0  0  0  0
  -48.9080   33.7710  -36.0760 C   0  0  0  0  0  0  0  0  0  0  0  0
  -51.6750   35.0360  -40.8360 C   0  0  0  0  0  0  0  0  0  0  0  0
  -51.2290   34.9570  -42.1510 C   0  0  0  0  0  0  0  0  0  0  0  0
  -52.1660   35.1450  -43.1840 C   0  0  0  0  0  0  0  0  0  0  0  0
  -53.4610   35.4020  -42.8880 N   0  0  0  0  0  0  0  0  0  0  0  0
  -53.8520   35.4700  -41.6080 C   0  0  0  0  0  0  0  0  0  0  0  0
  -52.9660   35.2950  -40.6250 N   0  0  0  0  0  0  0  0  0  0  0  0
  -51.7410   35.0700  -44.4560 N   0  0  0  0  0  0  0  0  0  0  0  0
  -52.5280   35.0950  -45.5570 C   0  0  0  0  0  0  0  0  0  0  0  0
  -53.7870   35.5330  -45.6890 C   0  0  0  0  0  0  0  0  0  0  0  0
  -54.0490   35.3350  -46.9880 C   0  0  0  0  0  0  0  0  0  0  0  0
  -52.9800   34.8170  -47.5850 N   0  0  0  0  0  0  0  0  0  0  0  0
  -52.0820   34.6720  -46.7500 N   0  0  0  0  0  0  0  0  0  0  0  0
  -55.3590   35.6450  -47.7370 C   0  0  0  0  0  0  0  0  0  0  0  0
  -55.4910   35.7890  -41.0800 S   0  0  0  0  0  0  0  0  0  0  0  0
  -56.4680   36.0020  -42.4890 C   0  0  0  0  0  0  0  0  0  0  0  0
  -56.3050   35.1860  -43.5910 C   0  0  0  0  0  0  0  0  0  0  0  0
  -57.1200   35.3860  -44.6970 C   0  0  0  0  0  0  0  0  0  0  0  0
  -58.1140   36.3680  -44.7100 C   0  0  1  0  0  0  0  0  0  0  0  0
  -58.2690   37.1890  -43.5890 C   0  0  0  0  0  0  0  0  0  0  0  0
  -57.4510   36.9930  -42.4780 C   0  0  0  0  0  0  0  0  0  0  0  0
  -58.8740   36.5700  -45.8020 N   0  0  0  0  0  0  0  0  0  0  0  0
  -59.2910   35.5920  -46.6260 C   0  0  0  0  0  0  0  0  0  0  0  0
  -59.0800   34.3850  -46.4730 O   0  0  0  0  0  0  0  0  0  0  0  0
  -60.0650   36.0920  -47.8570 C   0  0  1  0  0  0  0  0  0  0  0  0
  -59.1440   36.4210  -49.0520 C   0  0  0  0  0  0  0  0  0  0  0  0
  -60.0430   35.1810  -49.0980 C   0  0  0  0  0  0  0  0  0  0  0  0
  -76.4550   31.4070   -7.0690 N   0  0  0  0  0  0  0  0  0  0  0  0
  -77.5910   31.6000   -8.0040 C   0  0  0  0  0  0  0  0  0  0  0  0
  -77.4230   30.8400   -9.3490 C   0  0  0  0  0  0  0  0  0  0  0  0
  -76.0060   30.7520   -9.8380 N   0  0  0  0  0  0  0  0  0  0  0  0
  -74.8610   30.8070   -8.8830 C   0  0  0  0  0  0  0  0  0  0  0  0
  -75.1620   31.7560   -7.7100 C   0  0  0  0  0  0  0  0  0  0  0  0
  -76.6450   32.2500   -5.8700 C   0  0  0  0  0  0  0  0  0  0  0  0
  -75.7440   30.5660  -11.2230 C   0  0  0  0  0  0  0  0  0  0  0  0
  -74.4880   30.8750  -11.7520 C   0  0  0  0  0  0  0  0  0  0  0  0
  -74.2400   30.6930  -13.1140 C   0  0  0  0  0  0  0  0  0  0  0  0
  -75.2220   30.2080  -13.8940 N   0  0  0  0  0  0  0  0  0  0  0  0
  -76.4300   29.9090  -13.3800 C   0  0  0  0  0  0  0  0  0  0  0  0
  -76.6870   30.0890  -12.0610 N   0  0  0  0  0  0  0  0  0  0  0  0
  -73.0360   31.0010  -13.6100 N   0  0  0  0  0  0  0  0  0  0  0  0
  -72.7490   31.0090  -14.9210 C   0  0  0  0  0  0  0  0  0  0  0  0
  -73.2910   30.2350  -15.8590 C   0  0  0  0  0  0  0  0  0  0  0  0
  -72.6620   30.6060  -16.9660 C   0  0  0  0  0  0  0  0  0  0  0  0
  -71.7750   31.5600  -16.6810 N   0  0  0  0  0  0  0  0  0  0  0  0
  -71.8190   31.8010  -15.4710 N   0  0  0  0  0  0  0  0  0  0  0  0
  -72.9110   30.0240  -18.3590 C   0  0  0  0  0  0  0  0  0  0  0  0
  -77.7290   29.2760  -14.4150 S   0  0  0  0  0  0  0  0  0  0  0  0
  -77.1640   29.2150  -16.0870 C   0  0  0  0  0  0  0  0  0  0  0  0
  -77.5100   28.1150  -16.8680 C   0  0  0  0  0  0  0  0  0  0  0  0
  -77.0960   28.0230  -18.1970 C   0  0  0  0  0  0  0  0  0  0  0  0
  -76.3240   29.0420  -18.7730 C   0  0  0  0  0  0  0  0  0  0  0  0
  -76.0020   30.1510  -17.9850 C   0  0  0  0  0  0  0  0  0  0  0  0
  -76.4150   30.2370  -16.6550 C   0  0  0  0  0  0  0  0  0  0  0  0
  -75.9160   29.0180  -20.0620 N   0  0  0  0  0  0  0  0  0  0  0  0
  -76.2340   28.0160  -20.9130 C   0  0  0  0  0  0  0  0  0  0  0  0
  -76.8750   27.0110  -20.5870 O   0  0  0  0  0  0  0  0  0  0  0  0
  -75.7540   28.1540  -22.3940 C   0  0  1  0  0  0  0  0  0  0  0  0
  -75.6770   29.5800  -22.9730 C   0  0  0  0  0  0  0  0  0  0  0  0
  -74.3900   28.8090  -22.6500 C   0  0  0  0  0  0  0  0  0  0  0  0
  2  1  1  0
  3  2  1  0
  4  3  1  0
  5  4  1  0
  6  5  1  0
  6  1  1  0
  7  1  1  0
  8  4  1  0
  9  8  1  0
 10  9  1  0
 11 10  1  0
 12 11  1  0
 13  8  1  0
 13 12  1  0
 14 10  1  0
 15 14  1  0
 16 15  1  0
 17 16  1  0
 18 17  1  0
 19 15  1  0
 19 18  1  0
 20 17  1  0
 21 12  1  0
 22 21  1  0
 23 22  1  0
 24 23  1  0
 25 24  1  0
 26 25  1  0
 27 26  1  0
 27 22  1  0
 25 28  1  1
 29 28  1  0
 30 29  1  0
 31 29  1  6
 32 31  1  0
 33 32  1  0
 33 31  1  0
 35 34  1  0
 36 35  1  0
 37 36  1  0
 38 37  1  0
 39 38  1  0
 39 34  1  0
 40 34  1  0
 41 37  1  0
 42 41  1  0
 43 42  1  0
 44 43  1  0
 45 44  1  0
 46 45  1  0
 46 41  1  0
 47 43  1  0
 48 47  1  0
 49 48  1  0
 50 49  1  0
 51 50  1  0
 52 51  1  0
 52 48  1  0
 53 50  1  0
 54 45  1  0
 55 54  1  0
 56 55  1  0
 57 56  1  0
 58 57  1  0
 59 58  1  0
 60 59  1  0
 60 55  1  0
 58 61  1  6
 62 61  1  0
 63 62  1  0
 64 62  1  1
 65 64  1  0
 66 64  1  0
 66 65  1  0
 68 67  1  0
 69 68  1  0
 70 69  1  0
 71 70  1  0
 72 67  1  0
 72 71  1  0
 73 67  1  0
 74 70  1  0
 75 74  1  0
 76 75  1  0
 77 76  1  0
 78 77  1  0
 79 78  1  0
 79 74  1  0
 80 76  1  0
 81 80  1  0
 82 81  1  0
 83 82  1  0
 84 83  1  0
 85 84  1  0
 85 81  1  0
 86 83  1  0
 87 78  1  0
 88 87  1  0
 89 88  1  0
 90 89  1  0
 91 90  1  0
 92 91  1  0
 93 88  1  0
 93 92  1  0
 94 91  1  0
 95 94  1  0
 96 95  1  0
 97 95  1  1
 98 97  1  0
 99 98  1  0
 99 97  1  0
M  END
$$$$
