444732


 24 24  0  0  0  0  0  0  0  0999 V2000
    0.2565    7.4192    4.9965 C   0  0  0  0  0  0  0  0  0  0  0  0
    1.2984    6.6453    4.1874 C   0  0  0  0  0  0  0  0  0  0  0  0
   -0.4945    6.4814    5.9086 C   0  0  0  0  0  0  0  0  0  0  0  0
   -0.1624    6.0875    7.1568 C   0  0  0  0  0  0  0  0  0  0  0  0
    1.1008    6.5076    7.8622 C   0  0  0  0  0  0  0  0  0  0  0  0
   -1.0707    5.1863    7.8723 C   0  0  0  0  0  0  0  0  0  0  0  0
   -1.0063    4.8616    9.1729 C   0  0  0  0  0  0  0  0  0  0  0  0
   -2.7198    3.2003    9.0785 O   0  0  0  0  0  0  0  0  0  0  0  0
   -2.9460    3.1656   11.7759 O   0  0  0  0  0  0  0  0  0  0  0  0
   -2.0270    4.0050   11.1313 N   0  0  0  0  0  0  0  0  0  0  0  0
   -2.0088    3.9298    9.7618 C   0  0  0  0  0  0  0  0  0  0  0  0
   -1.5142    4.6568   11.7143 H   0  0  0  0  0  0  0  0  0  0  0  0
   -2.3671    2.4177   12.0011 H   0  0  0  0  0  0  0  0  0  0  0  0
   -1.2843    7.4263    3.1378 O   0  0  0  0  0  0  0  0  0  0  0  0
   -0.7663    8.0614    4.0563 C   0  0  0  0  0  0  0  0  0  0  0  0
   -1.1690    9.4841    4.2559 C   0  0  0  0  0  0  0  0  0  0  0  0
   -1.9127   12.1078    4.6253 C   0  0  0  0  0  0  0  0  0  0  0  0
   -0.4560   10.2524    5.1478 C   0  0  0  0  0  0  0  0  0  0  0  0
   -2.2387    9.9734    3.5413 C   0  0  0  0  0  0  0  0  0  0  0  0
   -0.8329   11.5822    5.3351 C   0  0  0  0  0  0  0  0  0  0  0  0
   -2.6155   11.3033    3.7284 C   0  0  0  0  0  0  0  0  0  0  0  0
   -2.2937   13.4524    4.8148 N   0  0  0  0  0  0  0  0  0  0  0  0
   -3.4150   14.0076    4.0833 C   0  0  0  0  0  0  0  0  0  0  0  0
   -1.5778   14.2927    5.7542 C   0  0  0  0  0  0  0  0  0  0  0  0
 14 15  2  0
  8 11  2  0
  9 10  1  0
  9 13  1  0
 22 17  1  0
 22 23  1  0
 22 24  1  0
 10 11  1  0
 10 12  1  0
  1 15  1  0
  1  3  1  0
  1  2  1  0
 15 16  1  0
 16 18  2  0
 16 19  1  0
  3  4  2  0
 17 20  2  0
 17 21  1  0
 18 20  1  0
 19 21  2  0
  4  5  1  0
  4  6  1  0
  6  7  2  0
  7 11  1  0
M  END
> <PUBCHEM_COMPOUND_CID>
444732

> <PUBCHEM_CONFORMER_RMSD>
0.8

> <PUBCHEM_CONFORMER_DIVERSEORDER>
2
40
76
12
44
10
59
54
7
73
38
27
93
70
18
22
43
90
77
26
35
80
60
14
3
96
31
83
49
4
58
69
6
5
21
78
30
55
41
63
39
11
20
89
45
75
84
37
65
48
28
15
57
32
91
72
17
42
8
9
16
13
52
53
33
85
92
29
56
86
81
1
71
87
23
97
79
47
94
68
19
50
46
24
36
62
67
34
74
88
51
66
95
25
61
82
98
64

> <PUBCHEM_MMFF94_PARTIAL_CHARGES>
30
1 -0.57
11 0.1
12 -0.15
13 -0.15
14 -0.15
15 -0.15
16 -0.14
17 0.14
18 0.37
19 0.37
2 -0.57
20 -0.15
21 -0.14
22 0.62
24 0.15
28 0.15
29 0.15
3 -0.44
30 0.15
31 0.15
4 -0.84
41 0.15
42 0.15
43 0.37
44 0.4
5 -0.39
6 0.2
7 0.42
8 0.09
9 -0.29

> <PUBCHEM_EFFECTIVE_ROTOR_COUNT>
7

> <PUBCHEM_PHARMACOPHORE_FEATURES>
7
1 1 acceptor
1 10 hydrophobe
1 17 hydrophobe
1 2 acceptor
1 4 cation
1 5 donor
6 8 11 12 13 14 15 rings

> <PUBCHEM_HEAVY_ATOM_COUNT>
22

> <PUBCHEM_ATOM_DEF_STEREO_COUNT>
1

> <PUBCHEM_ATOM_UDEF_STEREO_COUNT>
0

> <PUBCHEM_BOND_DEF_STEREO_COUNT>
2

> <PUBCHEM_BOND_UDEF_STEREO_COUNT>
0

> <PUBCHEM_ISOTOPIC_ATOM_COUNT>
0

> <PUBCHEM_COMPONENT_COUNT>
1

> <PUBCHEM_CACTVS_TAUTO_COUNT>
9

> <PUBCHEM_CONFORMER_ID>
0006C93C00000002

> <PUBCHEM_MMFF94_ENERGY>
68.5736

> <PUBCHEM_FEATURE_SELFOVERLAP>
35.52

> <PUBCHEM_SHAPE_FINGERPRINT>
10319926 262 15697732496763557303
10692045 39 11815635055283359444
12293681 160 12973598932778199301
12403259 118 12319444550194199881
12592606 108 18410855504254728187
12596602 18 17131834304279926931
12633257 1 14907895015762341657
12760667 363 18409168800717199234
12895836 83 12757141399334142939
12895837 130 11025807491535449987
13103583 49 16773795926253527159
13533116 47 18124311864596212585
13540713 4 18268967891206584945
13673619 4 18130787854560239896
13690498 29 18187078447376276677
13757389 114 17752197293529989333
14123256 34 18334017211271614963
14251764 30 18413387648445131050
14420673 8 18410295830955217299
14765038 42 14764051377869384406
14931854 50 17458337533417374899
15061688 2 9151177566536318361
15188451 53 16845284008419407207
15238133 3 12967125056148805194
17492 54 14706922956090611105
17780758 139 17561361751364416001
1813 80 18341623632459686820
193927 3 18334573581498500097
19784866 240 18335702788862333573
20871999 31 16443056201953700861
21033648 29 13973701524307103169
21054139 6 18041841706575929146
21298829 104 8142096376683825887
21307412 95 17895472635511529595
21401589 2 10591765411262862869
21403212 168 15554450656981572695
21637258 2 18272649064820128705
22765269 38 9871756779986210251
22950370 63 18342741823174253368
23522609 53 18123222110744769216
23559900 14 16661202702150013749
2748736 6 8574717888096135782
2767999 5 8070029952208260022
2838139 119 11530478956365527086
312425 83 14347452915209619779
3472631 163 11169907286595898211
351380 3 18412823590448124066
3737641 26 17987805090320306142
393628 179 7853571254228018870
393628 194 9007055794471491195
4107672 100 17604143715159178813
465052 167 18342180015428633199
474 4 10303825306196850713
474113 269 17773867770798226359
484985 159 18340482249728134233
5104073 3 14404600174171725018
54039377 194 18413111641758503542
543368 44 10809331245035261055
6327066 14 9007056859474492474
636775 8 18270689671814971022
77188 2 18341611563786720841
7970288 3 18413103974361184510
8217 86 17967816075936971442
999808 66 18335990830338241987

> <PUBCHEM_SHAPE_MULTIPOLES>
425.18
16.88
2.68
1.47
16.09
1.23
0
-19.37
-0.29
-0.05
0.04
-0.97
0.03
0.23

> <PUBCHEM_SHAPE_SELFOVERLAP>
868.487

> <PUBCHEM_SHAPE_VOLUME>
246.3

> <PUBCHEM_COORDINATE_TYPE>
2
5
10

> <minimizedAffinity>
-7.85278

> <CNNscore>
0.9481545687

> <CNNaffinity>
6.9965605736

> <CNN_VS>
6.6338210106

> <CNNaffinity_variance>
0.2073457986

$$$$
444732


 24 24  0  0  0  0  0  0  0  0999 V2000
   -0.0947    6.9332    5.6289 C   0  0  0  0  0  0  0  0  0  0  0  0
    1.0963    7.5316    6.3790 C   0  0  0  0  0  0  0  0  0  0  0  0
   -0.7360    5.8461    6.4549 C   0  0  0  0  0  0  0  0  0  0  0  0
   -0.4387    5.4730    7.7182 C   0  0  0  0  0  0  0  0  0  0  0  0
    0.6696    6.0838    8.5358 C   0  0  0  0  0  0  0  0  0  0  0  0
   -1.2252    4.4012    8.3359 C   0  0  0  0  0  0  0  0  0  0  0  0
   -1.5591    4.3068    9.6324 C   0  0  0  0  0  0  0  0  0  0  0  0
   -2.7113    2.2295    9.3826 O   0  0  0  0  0  0  0  0  0  0  0  0
   -3.4469    2.2325   11.9879 O   0  0  0  0  0  0  0  0  0  0  0  0
   -2.6780    3.2714   11.4454 N   0  0  0  0  0  0  0  0  0  0  0  0
   -2.3709    3.1538   10.1137 C   0  0  0  0  0  0  0  0  0  0  0  0
   -2.4840    4.0619   12.0497 H   0  0  0  0  0  0  0  0  0  0  0  0
   -2.7449    1.6857   12.3795 H   0  0  0  0  0  0  0  0  0  0  0  0
   -0.2732    5.4113    3.7631 O   0  0  0  0  0  0  0  0  0  0  0  0
    0.3768    6.2964    4.3194 C   0  0  0  0  0  0  0  0  0  0  0  0
    1.6423    6.7611    3.6800 C   0  0  0  0  0  0  0  0  0  0  0  0
    3.9770    7.6172    2.5012 C   0  0  0  0  0  0  0  0  0  0  0  0
    1.9536    6.2992    2.4215 C   0  0  0  0  0  0  0  0  0  0  0  0
    2.4501    7.6333    4.3735 C   0  0  0  0  0  0  0  0  0  0  0  0
    3.1370    6.7329    1.8240 C   0  0  0  0  0  0  0  0  0  0  0  0
    3.6334    8.0673    3.7760 C   0  0  0  0  0  0  0  0  0  0  0  0
    5.1735    8.0558    1.8970 N   0  0  0  0  0  0  0  0  0  0  0  0
    5.8684    7.2107    0.9465 C   0  0  0  0  0  0  0  0  0  0  0  0
    5.7164    9.3633    2.2081 C   0  0  0  0  0  0  0  0  0  0  0  0
 14 15  2  0
  8 11  2  0
  9 10  1  0
  9 13  1  0
 22 17  1  0
 22 23  1  0
 22 24  1  0
 10 11  1  0
 10 12  1  0
  1 15  1  0
  1  3  1  0
  1  2  1  0
 15 16  1  0
 16 18  2  0
 16 19  1  0
  3  4  2  0
 17 20  2  0
 17 21  1  0
 18 20  1  0
 19 21  2  0
  4  5  1  0
  4  6  1  0
  6  7  2  0
  7 11  1  0
M  END
> <PUBCHEM_COMPOUND_CID>
444732

> <PUBCHEM_CONFORMER_RMSD>
0.8

> <PUBCHEM_CONFORMER_DIVERSEORDER>
2
40
76
12
44
10
59
54
7
73
38
27
93
70
18
22
43
90
77
26
35
80
60
14
3
96
31
83
49
4
58
69
6
5
21
78
30
55
41
63
39
11
20
89
45
75
84
37
65
48
28
15
57
32
91
72
17
42
8
9
16
13
52
53
33
85
92
29
56
86
81
1
71
87
23
97
79
47
94
68
19
50
46
24
36
62
67
34
74
88
51
66
95
25
61
82
98
64

> <PUBCHEM_MMFF94_PARTIAL_CHARGES>
30
1 -0.57
11 0.1
12 -0.15
13 -0.15
14 -0.15
15 -0.15
16 -0.14
17 0.14
18 0.37
19 0.37
2 -0.57
20 -0.15
21 -0.14
22 0.62
24 0.15
28 0.15
29 0.15
3 -0.44
30 0.15
31 0.15
4 -0.84
41 0.15
42 0.15
43 0.37
44 0.4
5 -0.39
6 0.2
7 0.42
8 0.09
9 -0.29

> <PUBCHEM_EFFECTIVE_ROTOR_COUNT>
7

> <PUBCHEM_PHARMACOPHORE_FEATURES>
7
1 1 acceptor
1 10 hydrophobe
1 17 hydrophobe
1 2 acceptor
1 4 cation
1 5 donor
6 8 11 12 13 14 15 rings

> <PUBCHEM_HEAVY_ATOM_COUNT>
22

> <PUBCHEM_ATOM_DEF_STEREO_COUNT>
1

> <PUBCHEM_ATOM_UDEF_STEREO_COUNT>
0

> <PUBCHEM_BOND_DEF_STEREO_COUNT>
2

> <PUBCHEM_BOND_UDEF_STEREO_COUNT>
0

> <PUBCHEM_ISOTOPIC_ATOM_COUNT>
0

> <PUBCHEM_COMPONENT_COUNT>
1

> <PUBCHEM_CACTVS_TAUTO_COUNT>
9

> <PUBCHEM_CONFORMER_ID>
0006C93C00000002

> <PUBCHEM_MMFF94_ENERGY>
68.5736

> <PUBCHEM_FEATURE_SELFOVERLAP>
35.52

> <PUBCHEM_SHAPE_FINGERPRINT>
10319926 262 15697732496763557303
10692045 39 11815635055283359444
12293681 160 12973598932778199301
12403259 118 12319444550194199881
12592606 108 18410855504254728187
12596602 18 17131834304279926931
12633257 1 14907895015762341657
12760667 363 18409168800717199234
12895836 83 12757141399334142939
12895837 130 11025807491535449987
13103583 49 16773795926253527159
13533116 47 18124311864596212585
13540713 4 18268967891206584945
13673619 4 18130787854560239896
13690498 29 18187078447376276677
13757389 114 17752197293529989333
14123256 34 18334017211271614963
14251764 30 18413387648445131050
14420673 8 18410295830955217299
14765038 42 14764051377869384406
14931854 50 17458337533417374899
15061688 2 9151177566536318361
15188451 53 16845284008419407207
15238133 3 12967125056148805194
17492 54 14706922956090611105
17780758 139 17561361751364416001
1813 80 18341623632459686820
193927 3 18334573581498500097
19784866 240 18335702788862333573
20871999 31 16443056201953700861
21033648 29 13973701524307103169
21054139 6 18041841706575929146
21298829 104 8142096376683825887
21307412 95 17895472635511529595
21401589 2 10591765411262862869
21403212 168 15554450656981572695
21637258 2 18272649064820128705
22765269 38 9871756779986210251
22950370 63 18342741823174253368
23522609 53 18123222110744769216
23559900 14 16661202702150013749
2748736 6 8574717888096135782
2767999 5 8070029952208260022
2838139 119 11530478956365527086
312425 83 14347452915209619779
3472631 163 11169907286595898211
351380 3 18412823590448124066
3737641 26 17987805090320306142
393628 179 7853571254228018870
393628 194 9007055794471491195
4107672 100 17604143715159178813
465052 167 18342180015428633199
474 4 10303825306196850713
474113 269 17773867770798226359
484985 159 18340482249728134233
5104073 3 14404600174171725018
54039377 194 18413111641758503542
543368 44 10809331245035261055
6327066 14 9007056859474492474
636775 8 18270689671814971022
77188 2 18341611563786720841
7970288 3 18413103974361184510
8217 86 17967816075936971442
999808 66 18335990830338241987

> <PUBCHEM_SHAPE_MULTIPOLES>
425.18
16.88
2.68
1.47
16.09
1.23
0
-19.37
-0.29
-0.05
0.04
-0.97
0.03
0.23

> <PUBCHEM_SHAPE_SELFOVERLAP>
868.487

> <PUBCHEM_SHAPE_VOLUME>
246.3

> <PUBCHEM_COORDINATE_TYPE>
2
5
10

> <minimizedAffinity>
-8.59381

> <CNNscore>
0.9441508651

> <CNNaffinity>
7.0537743568

> <CNN_VS>
6.6598272324

> <CNNaffinity_variance>
0.1979726106

$$$$
444732


 24 24  0  0  0  0  0  0  0  0999 V2000
   -0.4047    7.0758    5.6526 C   0  0  0  0  0  0  0  0  0  0  0  0
    1.1074    7.1324    5.8749 C   0  0  0  0  0  0  0  0  0  0  0  0
   -1.0094    5.9649    6.4747 C   0  0  0  0  0  0  0  0  0  0  0  0
   -0.6196    5.5174    7.6877 C   0  0  0  0  0  0  0  0  0  0  0  0
    0.5724    6.0530    8.4374 C   0  0  0  0  0  0  0  0  0  0  0  0
   -1.3859    4.4369    8.3155 C   0  0  0  0  0  0  0  0  0  0  0  0
   -1.5705    4.2551    9.6324 C   0  0  0  0  0  0  0  0  0  0  0  0
   -2.7133    2.1706    9.4008 O   0  0  0  0  0  0  0  0  0  0  0  0
   -3.4707    2.2058   11.9996 O   0  0  0  0  0  0  0  0  0  0  0  0
   -2.7009    3.2400   11.4496 N   0  0  0  0  0  0  0  0  0  0  0  0
   -2.3822    3.1057   10.1223 C   0  0  0  0  0  0  0  0  0  0  0  0
   -2.5147    4.0393   12.0449 H   0  0  0  0  0  0  0  0  0  0  0  0
   -2.7701    1.6668   12.4044 H   0  0  0  0  0  0  0  0  0  0  0  0
   -0.5490    5.6506    3.7092 O   0  0  0  0  0  0  0  0  0  0  0  0
   -0.7077    6.7757    4.1827 C   0  0  0  0  0  0  0  0  0  0  0  0
   -1.2255    7.8570    3.2946 C   0  0  0  0  0  0  0  0  0  0  0  0
   -2.1820    9.8512    1.6570 C   0  0  0  0  0  0  0  0  0  0  0  0
   -1.4161    9.1122    3.8260 C   0  0  0  0  0  0  0  0  0  0  0  0
   -1.4936    7.5577    1.9782 C   0  0  0  0  0  0  0  0  0  0  0  0
   -1.9010   10.1229    2.9961 C   0  0  0  0  0  0  0  0  0  0  0  0
   -1.9784    8.5685    1.1482 C   0  0  0  0  0  0  0  0  0  0  0  0
   -2.6723   10.8732    0.8179 N   0  0  0  0  0  0  0  0  0  0  0  0
   -2.8646   12.2150    1.3309 C   0  0  0  0  0  0  0  0  0  0  0  0
   -2.9769   10.5984   -0.5724 C   0  0  0  0  0  0  0  0  0  0  0  0
 14 15  2  0
  8 11  2  0
  9 10  1  0
  9 13  1  0
 22 17  1  0
 22 23  1  0
 22 24  1  0
 10 11  1  0
 10 12  1  0
  1 15  1  0
  1  3  1  0
  1  2  1  0
 15 16  1  0
 16 18  2  0
 16 19  1  0
  3  4  2  0
 17 20  2  0
 17 21  1  0
 18 20  1  0
 19 21  2  0
  4  5  1  0
  4  6  1  0
  6  7  2  0
  7 11  1  0
M  END
> <PUBCHEM_COMPOUND_CID>
444732

> <PUBCHEM_CONFORMER_RMSD>
0.8

> <PUBCHEM_CONFORMER_DIVERSEORDER>
2
40
76
12
44
10
59
54
7
73
38
27
93
70
18
22
43
90
77
26
35
80
60
14
3
96
31
83
49
4
58
69
6
5
21
78
30
55
41
63
39
11
20
89
45
75
84
37
65
48
28
15
57
32
91
72
17
42
8
9
16
13
52
53
33
85
92
29
56
86
81
1
71
87
23
97
79
47
94
68
19
50
46
24
36
62
67
34
74
88
51
66
95
25
61
82
98
64

> <PUBCHEM_MMFF94_PARTIAL_CHARGES>
30
1 -0.57
11 0.1
12 -0.15
13 -0.15
14 -0.15
15 -0.15
16 -0.14
17 0.14
18 0.37
19 0.37
2 -0.57
20 -0.15
21 -0.14
22 0.62
24 0.15
28 0.15
29 0.15
3 -0.44
30 0.15
31 0.15
4 -0.84
41 0.15
42 0.15
43 0.37
44 0.4
5 -0.39
6 0.2
7 0.42
8 0.09
9 -0.29

> <PUBCHEM_EFFECTIVE_ROTOR_COUNT>
7

> <PUBCHEM_PHARMACOPHORE_FEATURES>
7
1 1 acceptor
1 10 hydrophobe
1 17 hydrophobe
1 2 acceptor
1 4 cation
1 5 donor
6 8 11 12 13 14 15 rings

> <PUBCHEM_HEAVY_ATOM_COUNT>
22

> <PUBCHEM_ATOM_DEF_STEREO_COUNT>
1

> <PUBCHEM_ATOM_UDEF_STEREO_COUNT>
0

> <PUBCHEM_BOND_DEF_STEREO_COUNT>
2

> <PUBCHEM_BOND_UDEF_STEREO_COUNT>
0

> <PUBCHEM_ISOTOPIC_ATOM_COUNT>
0

> <PUBCHEM_COMPONENT_COUNT>
1

> <PUBCHEM_CACTVS_TAUTO_COUNT>
9

> <PUBCHEM_CONFORMER_ID>
0006C93C00000002

> <PUBCHEM_MMFF94_ENERGY>
68.5736

> <PUBCHEM_FEATURE_SELFOVERLAP>
35.52

> <PUBCHEM_SHAPE_FINGERPRINT>
10319926 262 15697732496763557303
10692045 39 11815635055283359444
12293681 160 12973598932778199301
12403259 118 12319444550194199881
12592606 108 18410855504254728187
12596602 18 17131834304279926931
12633257 1 14907895015762341657
12760667 363 18409168800717199234
12895836 83 12757141399334142939
12895837 130 11025807491535449987
13103583 49 16773795926253527159
13533116 47 18124311864596212585
13540713 4 18268967891206584945
13673619 4 18130787854560239896
13690498 29 18187078447376276677
13757389 114 17752197293529989333
14123256 34 18334017211271614963
14251764 30 18413387648445131050
14420673 8 18410295830955217299
14765038 42 14764051377869384406
14931854 50 17458337533417374899
15061688 2 9151177566536318361
15188451 53 16845284008419407207
15238133 3 12967125056148805194
17492 54 14706922956090611105
17780758 139 17561361751364416001
1813 80 18341623632459686820
193927 3 18334573581498500097
19784866 240 18335702788862333573
20871999 31 16443056201953700861
21033648 29 13973701524307103169
21054139 6 18041841706575929146
21298829 104 8142096376683825887
21307412 95 17895472635511529595
21401589 2 10591765411262862869
21403212 168 15554450656981572695
21637258 2 18272649064820128705
22765269 38 9871756779986210251
22950370 63 18342741823174253368
23522609 53 18123222110744769216
23559900 14 16661202702150013749
2748736 6 8574717888096135782
2767999 5 8070029952208260022
2838139 119 11530478956365527086
312425 83 14347452915209619779
3472631 163 11169907286595898211
351380 3 18412823590448124066
3737641 26 17987805090320306142
393628 179 7853571254228018870
393628 194 9007055794471491195
4107672 100 17604143715159178813
465052 167 18342180015428633199
474 4 10303825306196850713
474113 269 17773867770798226359
484985 159 18340482249728134233
5104073 3 14404600174171725018
54039377 194 18413111641758503542
543368 44 10809331245035261055
6327066 14 9007056859474492474
636775 8 18270689671814971022
77188 2 18341611563786720841
7970288 3 18413103974361184510
8217 86 17967816075936971442
999808 66 18335990830338241987

> <PUBCHEM_SHAPE_MULTIPOLES>
425.18
16.88
2.68
1.47
16.09
1.23
0
-19.37
-0.29
-0.05
0.04
-0.97
0.03
0.23

> <PUBCHEM_SHAPE_SELFOVERLAP>
868.487

> <PUBCHEM_SHAPE_VOLUME>
246.3

> <PUBCHEM_COORDINATE_TYPE>
2
5
10

> <minimizedAffinity>
-8.05036

> <CNNscore>
0.9369787574

> <CNNaffinity>
7.1200013161

> <CNN_VS>
6.6712899208

> <CNNaffinity_variance>
0.3358415067

$$$$
444732


 24 24  0  0  0  0  0  0  0  0999 V2000
    0.2708    6.4995    5.3560 C   0  0  0  0  0  0  0  0  0  0  0  0
    0.2264    6.0222    3.9037 C   0  0  0  0  0  0  0  0  0  0  0  0
   -0.3954    5.4886    6.2558 C   0  0  0  0  0  0  0  0  0  0  0  0
   -0.2545    5.3387    7.5904 C   0  0  0  0  0  0  0  0  0  0  0  0
    0.6735    6.1716    8.4360 C   0  0  0  0  0  0  0  0  0  0  0  0
   -1.0352    4.2974    8.2651 C   0  0  0  0  0  0  0  0  0  0  0  0
   -1.5699    4.3758    9.4936 C   0  0  0  0  0  0  0  0  0  0  0  0
   -2.6844    2.2671    9.3660 O   0  0  0  0  0  0  0  0  0  0  0  0
   -3.3568    2.3736   11.9861 O   0  0  0  0  0  0  0  0  0  0  0  0
   -2.6230    3.4017   11.3785 N   0  0  0  0  0  0  0  0  0  0  0  0
   -2.3456    3.2300   10.0462 C   0  0  0  0  0  0  0  0  0  0  0  0
   -2.4308    4.2224   11.9418 H   0  0  0  0  0  0  0  0  0  0  0  0
   -2.6343    1.8590   12.3841 H   0  0  0  0  0  0  0  0  0  0  0  0
   -1.6834    7.8381    5.8229 O   0  0  0  0  0  0  0  0  0  0  0  0
   -0.4961    7.8163    5.4988 C   0  0  0  0  0  0  0  0  0  0  0  0
    0.2024    9.1131    5.2609 C   0  0  0  0  0  0  0  0  0  0  0  0
    1.4901   11.5055    4.8231 C   0  0  0  0  0  0  0  0  0  0  0  0
    1.2614    9.4503    6.0727 C   0  0  0  0  0  0  0  0  0  0  0  0
   -0.2394    9.9228    4.2394 C   0  0  0  0  0  0  0  0  0  0  0  0
    1.9140   10.6629    5.8509 C   0  0  0  0  0  0  0  0  0  0  0  0
    0.4132   11.1353    4.0174 C   0  0  0  0  0  0  0  0  0  0  0  0
    2.1500   12.7316    4.5989 N   0  0  0  0  0  0  0  0  0  0  0  0
    1.4300   13.8629    4.0490 C   0  0  0  0  0  0  0  0  0  0  0  0
    3.5536   12.8807    4.9288 C   0  0  0  0  0  0  0  0  0  0  0  0
 14 15  2  0
  8 11  2  0
  9 10  1  0
  9 13  1  0
 22 17  1  0
 22 23  1  0
 22 24  1  0
 10 11  1  0
 10 12  1  0
  1 15  1  0
  1  3  1  0
  1  2  1  0
 15 16  1  0
 16 18  2  0
 16 19  1  0
  3  4  2  0
 17 20  2  0
 17 21  1  0
 18 20  1  0
 19 21  2  0
  4  5  1  0
  4  6  1  0
  6  7  2  0
  7 11  1  0
M  END
> <PUBCHEM_COMPOUND_CID>
444732

> <PUBCHEM_CONFORMER_RMSD>
0.8

> <PUBCHEM_CONFORMER_DIVERSEORDER>
2
40
76
12
44
10
59
54
7
73
38
27
93
70
18
22
43
90
77
26
35
80
60
14
3
96
31
83
49
4
58
69
6
5
21
78
30
55
41
63
39
11
20
89
45
75
84
37
65
48
28
15
57
32
91
72
17
42
8
9
16
13
52
53
33
85
92
29
56
86
81
1
71
87
23
97
79
47
94
68
19
50
46
24
36
62
67
34
74
88
51
66
95
25
61
82
98
64

> <PUBCHEM_MMFF94_PARTIAL_CHARGES>
30
1 -0.57
11 0.1
12 -0.15
13 -0.15
14 -0.15
15 -0.15
16 -0.14
17 0.14
18 0.37
19 0.37
2 -0.57
20 -0.15
21 -0.14
22 0.62
24 0.15
28 0.15
29 0.15
3 -0.44
30 0.15
31 0.15
4 -0.84
41 0.15
42 0.15
43 0.37
44 0.4
5 -0.39
6 0.2
7 0.42
8 0.09
9 -0.29

> <PUBCHEM_EFFECTIVE_ROTOR_COUNT>
7

> <PUBCHEM_PHARMACOPHORE_FEATURES>
7
1 1 acceptor
1 10 hydrophobe
1 17 hydrophobe
1 2 acceptor
1 4 cation
1 5 donor
6 8 11 12 13 14 15 rings

> <PUBCHEM_HEAVY_ATOM_COUNT>
22

> <PUBCHEM_ATOM_DEF_STEREO_COUNT>
1

> <PUBCHEM_ATOM_UDEF_STEREO_COUNT>
0

> <PUBCHEM_BOND_DEF_STEREO_COUNT>
2

> <PUBCHEM_BOND_UDEF_STEREO_COUNT>
0

> <PUBCHEM_ISOTOPIC_ATOM_COUNT>
0

> <PUBCHEM_COMPONENT_COUNT>
1

> <PUBCHEM_CACTVS_TAUTO_COUNT>
9

> <PUBCHEM_CONFORMER_ID>
0006C93C00000002

> <PUBCHEM_MMFF94_ENERGY>
68.5736

> <PUBCHEM_FEATURE_SELFOVERLAP>
35.52

> <PUBCHEM_SHAPE_FINGERPRINT>
10319926 262 15697732496763557303
10692045 39 11815635055283359444
12293681 160 12973598932778199301
12403259 118 12319444550194199881
12592606 108 18410855504254728187
12596602 18 17131834304279926931
12633257 1 14907895015762341657
12760667 363 18409168800717199234
12895836 83 12757141399334142939
12895837 130 11025807491535449987
13103583 49 16773795926253527159
13533116 47 18124311864596212585
13540713 4 18268967891206584945
13673619 4 18130787854560239896
13690498 29 18187078447376276677
13757389 114 17752197293529989333
14123256 34 18334017211271614963
14251764 30 18413387648445131050
14420673 8 18410295830955217299
14765038 42 14764051377869384406
14931854 50 17458337533417374899
15061688 2 9151177566536318361
15188451 53 16845284008419407207
15238133 3 12967125056148805194
17492 54 14706922956090611105
17780758 139 17561361751364416001
1813 80 18341623632459686820
193927 3 18334573581498500097
19784866 240 18335702788862333573
20871999 31 16443056201953700861
21033648 29 13973701524307103169
21054139 6 18041841706575929146
21298829 104 8142096376683825887
21307412 95 17895472635511529595
21401589 2 10591765411262862869
21403212 168 15554450656981572695
21637258 2 18272649064820128705
22765269 38 9871756779986210251
22950370 63 18342741823174253368
23522609 53 18123222110744769216
23559900 14 16661202702150013749
2748736 6 8574717888096135782
2767999 5 8070029952208260022
2838139 119 11530478956365527086
312425 83 14347452915209619779
3472631 163 11169907286595898211
351380 3 18412823590448124066
3737641 26 17987805090320306142
393628 179 7853571254228018870
393628 194 9007055794471491195
4107672 100 17604143715159178813
465052 167 18342180015428633199
474 4 10303825306196850713
474113 269 17773867770798226359
484985 159 18340482249728134233
5104073 3 14404600174171725018
54039377 194 18413111641758503542
543368 44 10809331245035261055
6327066 14 9007056859474492474
636775 8 18270689671814971022
77188 2 18341611563786720841
7970288 3 18413103974361184510
8217 86 17967816075936971442
999808 66 18335990830338241987

> <PUBCHEM_SHAPE_MULTIPOLES>
425.18
16.88
2.68
1.47
16.09
1.23
0
-19.37
-0.29
-0.05
0.04
-0.97
0.03
0.23

> <PUBCHEM_SHAPE_SELFOVERLAP>
868.487

> <PUBCHEM_SHAPE_VOLUME>
246.3

> <PUBCHEM_COORDINATE_TYPE>
2
5
10

> <minimizedAffinity>
-7.52504

> <CNNscore>
0.9300794005

> <CNNaffinity>
7.0206379890

> <CNN_VS>
6.5297508240

> <CNNaffinity_variance>
0.3577524722

$$$$
444732


 24 24  0  0  0  0  0  0  0  0999 V2000
    0.9451    6.6026    4.6646 C   0  0  0  0  0  0  0  0  0  0  0  0
    0.4959    6.2572    3.2441 C   0  0  0  0  0  0  0  0  0  0  0  0
    0.0063    5.9851    5.6710 C   0  0  0  0  0  0  0  0  0  0  0  0
    0.1065    5.9894    7.0177 C   0  0  0  0  0  0  0  0  0  0  0  0
    1.2556    6.6056    7.7726 C   0  0  0  0  0  0  0  0  0  0  0  0
   -0.9527    5.3469    7.8014 C   0  0  0  0  0  0  0  0  0  0  0  0
   -0.7822    4.5818    8.8907 C   0  0  0  0  0  0  0  0  0  0  0  0
   -2.8315    3.3598    9.0004 O   0  0  0  0  0  0  0  0  0  0  0  0
   -3.0221    3.7631   11.6706 O   0  0  0  0  0  0  0  0  0  0  0  0
   -1.9444    4.2695   10.9310 N   0  0  0  0  0  0  0  0  0  0  0  0
   -1.9630    3.9975    9.5866 C   0  0  0  0  0  0  0  0  0  0  0  0
   -1.2880    4.8634   11.4252 H   0  0  0  0  0  0  0  0  0  0  0  0
   -2.6265    2.9428   12.0108 H   0  0  0  0  0  0  0  0  0  0  0  0
    1.8033    8.7081    5.4766 O   0  0  0  0  0  0  0  0  0  0  0  0
    0.9075    8.1185    4.8723 C   0  0  0  0  0  0  0  0  0  0  0  0
   -0.2254    8.9168    4.3196 C   0  0  0  0  0  0  0  0  0  0  0  0
   -2.3143   10.3902    3.3003 C   0  0  0  0  0  0  0  0  0  0  0  0
   -0.2026    9.2588    2.9867 C   0  0  0  0  0  0  0  0  0  0  0  0
   -1.2495    9.2812    5.1639 C   0  0  0  0  0  0  0  0  0  0  0  0
   -1.2612   10.0058    2.4700 C   0  0  0  0  0  0  0  0  0  0  0  0
   -2.3082   10.0280    4.6473 C   0  0  0  0  0  0  0  0  0  0  0  0
   -3.3846   11.1455    2.7778 N   0  0  0  0  0  0  0  0  0  0  0  0
   -4.4448   11.6151    3.6473 C   0  0  0  0  0  0  0  0  0  0  0  0
   -3.4310   11.4741    1.3667 C   0  0  0  0  0  0  0  0  0  0  0  0
 14 15  2  0
  8 11  2  0
  9 10  1  0
  9 13  1  0
 22 17  1  0
 22 23  1  0
 22 24  1  0
 10 11  1  0
 10 12  1  0
  1 15  1  0
  1  3  1  0
  1  2  1  0
 15 16  1  0
 16 18  2  0
 16 19  1  0
  3  4  2  0
 17 20  2  0
 17 21  1  0
 18 20  1  0
 19 21  2  0
  4  5  1  0
  4  6  1  0
  6  7  2  0
  7 11  1  0
M  END
> <PUBCHEM_COMPOUND_CID>
444732

> <PUBCHEM_CONFORMER_RMSD>
0.8

> <PUBCHEM_CONFORMER_DIVERSEORDER>
2
40
76
12
44
10
59
54
7
73
38
27
93
70
18
22
43
90
77
26
35
80
60
14
3
96
31
83
49
4
58
69
6
5
21
78
30
55
41
63
39
11
20
89
45
75
84
37
65
48
28
15
57
32
91
72
17
42
8
9
16
13
52
53
33
85
92
29
56
86
81
1
71
87
23
97
79
47
94
68
19
50
46
24
36
62
67
34
74
88
51
66
95
25
61
82
98
64

> <PUBCHEM_MMFF94_PARTIAL_CHARGES>
30
1 -0.57
11 0.1
12 -0.15
13 -0.15
14 -0.15
15 -0.15
16 -0.14
17 0.14
18 0.37
19 0.37
2 -0.57
20 -0.15
21 -0.14
22 0.62
24 0.15
28 0.15
29 0.15
3 -0.44
30 0.15
31 0.15
4 -0.84
41 0.15
42 0.15
43 0.37
44 0.4
5 -0.39
6 0.2
7 0.42
8 0.09
9 -0.29

> <PUBCHEM_EFFECTIVE_ROTOR_COUNT>
7

> <PUBCHEM_PHARMACOPHORE_FEATURES>
7
1 1 acceptor
1 10 hydrophobe
1 17 hydrophobe
1 2 acceptor
1 4 cation
1 5 donor
6 8 11 12 13 14 15 rings

> <PUBCHEM_HEAVY_ATOM_COUNT>
22

> <PUBCHEM_ATOM_DEF_STEREO_COUNT>
1

> <PUBCHEM_ATOM_UDEF_STEREO_COUNT>
0

> <PUBCHEM_BOND_DEF_STEREO_COUNT>
2

> <PUBCHEM_BOND_UDEF_STEREO_COUNT>
0

> <PUBCHEM_ISOTOPIC_ATOM_COUNT>
0

> <PUBCHEM_COMPONENT_COUNT>
1

> <PUBCHEM_CACTVS_TAUTO_COUNT>
9

> <PUBCHEM_CONFORMER_ID>
0006C93C00000002

> <PUBCHEM_MMFF94_ENERGY>
68.5736

> <PUBCHEM_FEATURE_SELFOVERLAP>
35.52

> <PUBCHEM_SHAPE_FINGERPRINT>
10319926 262 15697732496763557303
10692045 39 11815635055283359444
12293681 160 12973598932778199301
12403259 118 12319444550194199881
12592606 108 18410855504254728187
12596602 18 17131834304279926931
12633257 1 14907895015762341657
12760667 363 18409168800717199234
12895836 83 12757141399334142939
12895837 130 11025807491535449987
13103583 49 16773795926253527159
13533116 47 18124311864596212585
13540713 4 18268967891206584945
13673619 4 18130787854560239896
13690498 29 18187078447376276677
13757389 114 17752197293529989333
14123256 34 18334017211271614963
14251764 30 18413387648445131050
14420673 8 18410295830955217299
14765038 42 14764051377869384406
14931854 50 17458337533417374899
15061688 2 9151177566536318361
15188451 53 16845284008419407207
15238133 3 12967125056148805194
17492 54 14706922956090611105
17780758 139 17561361751364416001
1813 80 18341623632459686820
193927 3 18334573581498500097
19784866 240 18335702788862333573
20871999 31 16443056201953700861
21033648 29 13973701524307103169
21054139 6 18041841706575929146
21298829 104 8142096376683825887
21307412 95 17895472635511529595
21401589 2 10591765411262862869
21403212 168 15554450656981572695
21637258 2 18272649064820128705
22765269 38 9871756779986210251
22950370 63 18342741823174253368
23522609 53 18123222110744769216
23559900 14 16661202702150013749
2748736 6 8574717888096135782
2767999 5 8070029952208260022
2838139 119 11530478956365527086
312425 83 14347452915209619779
3472631 163 11169907286595898211
351380 3 18412823590448124066
3737641 26 17987805090320306142
393628 179 7853571254228018870
393628 194 9007055794471491195
4107672 100 17604143715159178813
465052 167 18342180015428633199
474 4 10303825306196850713
474113 269 17773867770798226359
484985 159 18340482249728134233
5104073 3 14404600174171725018
54039377 194 18413111641758503542
543368 44 10809331245035261055
6327066 14 9007056859474492474
636775 8 18270689671814971022
77188 2 18341611563786720841
7970288 3 18413103974361184510
8217 86 17967816075936971442
999808 66 18335990830338241987

> <PUBCHEM_SHAPE_MULTIPOLES>
425.18
16.88
2.68
1.47
16.09
1.23
0
-19.37
-0.29
-0.05
0.04
-0.97
0.03
0.23

> <PUBCHEM_SHAPE_SELFOVERLAP>
868.487

> <PUBCHEM_SHAPE_VOLUME>
246.3

> <PUBCHEM_COORDINATE_TYPE>
2
5
10

> <minimizedAffinity>
-8.06405

> <CNNscore>
0.8551007509

> <CNNaffinity>
6.8255481720

> <CNN_VS>
5.8365311623

> <CNNaffinity_variance>
0.1274592429

$$$$
444732


 24 24  0  0  0  0  0  0  0  0999 V2000
    0.4292    6.0878    4.9134 C   0  0  0  0  0  0  0  0  0  0  0  0
   -0.6639    6.1220    3.8442 C   0  0  0  0  0  0  0  0  0  0  0  0
   -0.1441    5.6192    6.2276 C   0  0  0  0  0  0  0  0  0  0  0  0
    0.2895    5.9014    7.4750 C   0  0  0  0  0  0  0  0  0  0  0  0
    1.5068    6.7379    7.7720 C   0  0  0  0  0  0  0  0  0  0  0  0
   -0.4523    5.3549    8.6152 C   0  0  0  0  0  0  0  0  0  0  0  0
   -1.2451    4.2722    8.6019 C   0  0  0  0  0  0  0  0  0  0  0  0
   -2.1273    4.5841   10.7995 O   0  0  0  0  0  0  0  0  0  0  0  0
   -2.9557    2.0096   10.9192 O   0  0  0  0  0  0  0  0  0  0  0  0
   -2.3037    2.5146    9.7858 N   0  0  0  0  0  0  0  0  0  0  0  0
   -1.9338    3.8341    9.8485 C   0  0  0  0  0  0  0  0  0  0  0  0
   -2.0817    1.8520    9.0513 H   0  0  0  0  0  0  0  0  0  0  0  0
   -3.8822    2.0996   10.6387 H   0  0  0  0  0  0  0  0  0  0  0  0
    2.1541    7.6736    5.4955 O   0  0  0  0  0  0  0  0  0  0  0  0
    0.9913    7.4942    5.1337 C   0  0  0  0  0  0  0  0  0  0  0  0
    0.1277    8.6865    4.8906 C   0  0  0  0  0  0  0  0  0  0  0  0
   -1.4655   10.8849    4.4412 C   0  0  0  0  0  0  0  0  0  0  0  0
   -1.1865    8.6428    5.2970 C   0  0  0  0  0  0  0  0  0  0  0  0
    0.6782    9.7840    4.2687 C   0  0  0  0  0  0  0  0  0  0  0  0
   -1.9941    9.7569    5.0691 C   0  0  0  0  0  0  0  0  0  0  0  0
   -0.1293   10.8982    4.0409 C   0  0  0  0  0  0  0  0  0  0  0  0
   -2.2821   12.0114    4.2108 N   0  0  0  0  0  0  0  0  0  0  0  0
   -1.8420   13.3320    4.6145 C   0  0  0  0  0  0  0  0  0  0  0  0
   -3.5662   11.8651    3.5543 C   0  0  0  0  0  0  0  0  0  0  0  0
 14 15  2  0
  8 11  2  0
  9 10  1  0
  9 13  1  0
 22 17  1  0
 22 23  1  0
 22 24  1  0
 10 11  1  0
 10 12  1  0
  1 15  1  0
  1  3  1  0
  1  2  1  0
 15 16  1  0
 16 18  2  0
 16 19  1  0
  3  4  2  0
 17 20  2  0
 17 21  1  0
 18 20  1  0
 19 21  2  0
  4  5  1  0
  4  6  1  0
  6  7  2  0
  7 11  1  0
M  END
> <PUBCHEM_COMPOUND_CID>
444732

> <PUBCHEM_CONFORMER_RMSD>
0.8

> <PUBCHEM_CONFORMER_DIVERSEORDER>
2
40
76
12
44
10
59
54
7
73
38
27
93
70
18
22
43
90
77
26
35
80
60
14
3
96
31
83
49
4
58
69
6
5
21
78
30
55
41
63
39
11
20
89
45
75
84
37
65
48
28
15
57
32
91
72
17
42
8
9
16
13
52
53
33
85
92
29
56
86
81
1
71
87
23
97
79
47
94
68
19
50
46
24
36
62
67
34
74
88
51
66
95
25
61
82
98
64

> <PUBCHEM_MMFF94_PARTIAL_CHARGES>
30
1 -0.57
11 0.1
12 -0.15
13 -0.15
14 -0.15
15 -0.15
16 -0.14
17 0.14
18 0.37
19 0.37
2 -0.57
20 -0.15
21 -0.14
22 0.62
24 0.15
28 0.15
29 0.15
3 -0.44
30 0.15
31 0.15
4 -0.84
41 0.15
42 0.15
43 0.37
44 0.4
5 -0.39
6 0.2
7 0.42
8 0.09
9 -0.29

> <PUBCHEM_EFFECTIVE_ROTOR_COUNT>
7

> <PUBCHEM_PHARMACOPHORE_FEATURES>
7
1 1 acceptor
1 10 hydrophobe
1 17 hydrophobe
1 2 acceptor
1 4 cation
1 5 donor
6 8 11 12 13 14 15 rings

> <PUBCHEM_HEAVY_ATOM_COUNT>
22

> <PUBCHEM_ATOM_DEF_STEREO_COUNT>
1

> <PUBCHEM_ATOM_UDEF_STEREO_COUNT>
0

> <PUBCHEM_BOND_DEF_STEREO_COUNT>
2

> <PUBCHEM_BOND_UDEF_STEREO_COUNT>
0

> <PUBCHEM_ISOTOPIC_ATOM_COUNT>
0

> <PUBCHEM_COMPONENT_COUNT>
1

> <PUBCHEM_CACTVS_TAUTO_COUNT>
9

> <PUBCHEM_CONFORMER_ID>
0006C93C00000002

> <PUBCHEM_MMFF94_ENERGY>
68.5736

> <PUBCHEM_FEATURE_SELFOVERLAP>
35.52

> <PUBCHEM_SHAPE_FINGERPRINT>
10319926 262 15697732496763557303
10692045 39 11815635055283359444
12293681 160 12973598932778199301
12403259 118 12319444550194199881
12592606 108 18410855504254728187
12596602 18 17131834304279926931
12633257 1 14907895015762341657
12760667 363 18409168800717199234
12895836 83 12757141399334142939
12895837 130 11025807491535449987
13103583 49 16773795926253527159
13533116 47 18124311864596212585
13540713 4 18268967891206584945
13673619 4 18130787854560239896
13690498 29 18187078447376276677
13757389 114 17752197293529989333
14123256 34 18334017211271614963
14251764 30 18413387648445131050
14420673 8 18410295830955217299
14765038 42 14764051377869384406
14931854 50 17458337533417374899
15061688 2 9151177566536318361
15188451 53 16845284008419407207
15238133 3 12967125056148805194
17492 54 14706922956090611105
17780758 139 17561361751364416001
1813 80 18341623632459686820
193927 3 18334573581498500097
19784866 240 18335702788862333573
20871999 31 16443056201953700861
21033648 29 13973701524307103169
21054139 6 18041841706575929146
21298829 104 8142096376683825887
21307412 95 17895472635511529595
21401589 2 10591765411262862869
21403212 168 15554450656981572695
21637258 2 18272649064820128705
22765269 38 9871756779986210251
22950370 63 18342741823174253368
23522609 53 18123222110744769216
23559900 14 16661202702150013749
2748736 6 8574717888096135782
2767999 5 8070029952208260022
2838139 119 11530478956365527086
312425 83 14347452915209619779
3472631 163 11169907286595898211
351380 3 18412823590448124066
3737641 26 17987805090320306142
393628 179 7853571254228018870
393628 194 9007055794471491195
4107672 100 17604143715159178813
465052 167 18342180015428633199
474 4 10303825306196850713
474113 269 17773867770798226359
484985 159 18340482249728134233
5104073 3 14404600174171725018
54039377 194 18413111641758503542
543368 44 10809331245035261055
6327066 14 9007056859474492474
636775 8 18270689671814971022
77188 2 18341611563786720841
7970288 3 18413103974361184510
8217 86 17967816075936971442
999808 66 18335990830338241987

> <PUBCHEM_SHAPE_MULTIPOLES>
425.18
16.88
2.68
1.47
16.09
1.23
0
-19.37
-0.29
-0.05
0.04
-0.97
0.03
0.23

> <PUBCHEM_SHAPE_SELFOVERLAP>
868.487

> <PUBCHEM_SHAPE_VOLUME>
246.3

> <PUBCHEM_COORDINATE_TYPE>
2
5
10

> <minimizedAffinity>
-8.04104

> <CNNscore>
0.8489268422

> <CNNaffinity>
6.7359633446

> <CNN_VS>
5.7183399200

> <CNNaffinity_variance>
0.1388586015

$$$$
444732


 24 24  0  0  0  0  0  0  0  0999 V2000
    0.3809    7.0371    4.7580 C   0  0  0  0  0  0  0  0  0  0  0  0
    0.5117    6.2923    3.4286 C   0  0  0  0  0  0  0  0  0  0  0  0
   -0.4253    6.2182    5.7352 C   0  0  0  0  0  0  0  0  0  0  0  0
   -0.1817    6.0061    7.0464 C   0  0  0  0  0  0  0  0  0  0  0  0
    1.0220    6.5447    7.7750 C   0  0  0  0  0  0  0  0  0  0  0  0
   -1.1307    5.1934    7.8131 C   0  0  0  0  0  0  0  0  0  0  0  0
   -0.9404    4.7031    9.0478 C   0  0  0  0  0  0  0  0  0  0  0  0
   -2.7760    3.1751    9.0739 O   0  0  0  0  0  0  0  0  0  0  0  0
   -2.9785    3.3396   11.7684 O   0  0  0  0  0  0  0  0  0  0  0  0
   -2.0045    4.0608   11.0643 N   0  0  0  0  0  0  0  0  0  0  0  0
   -2.0052    3.8924    9.7029 C   0  0  0  0  0  0  0  0  0  0  0  0
   -1.4381    4.7094   11.5995 H   0  0  0  0  0  0  0  0  0  0  0  0
   -2.4559    2.5665   12.0413 H   0  0  0  0  0  0  0  0  0  0  0  0
   -1.3405    8.4378    3.8073 O   0  0  0  0  0  0  0  0  0  0  0  0
   -0.3599    8.3597    4.5473 C   0  0  0  0  0  0  0  0  0  0  0  0
    0.0935    9.5880    5.2628 C   0  0  0  0  0  0  0  0  0  0  0  0
    0.9297   11.8528    6.5836 C   0  0  0  0  0  0  0  0  0  0  0  0
    1.4037    9.6639    5.6773 C   0  0  0  0  0  0  0  0  0  0  0  0
   -0.8159   10.5976    5.4816 C   0  0  0  0  0  0  0  0  0  0  0  0
    1.8275   10.8118    6.3469 C   0  0  0  0  0  0  0  0  0  0  0  0
   -0.3921   11.7455    6.1510 C   0  0  0  0  0  0  0  0  0  0  0  0
    1.3583   13.0134    7.2607 N   0  0  0  0  0  0  0  0  0  0  0  0
    1.0496   14.3274    6.7327 C   0  0  0  0  0  0  0  0  0  0  0  0
    2.1009   12.9074    8.5011 C   0  0  0  0  0  0  0  0  0  0  0  0
 14 15  2  0
  8 11  2  0
  9 10  1  0
  9 13  1  0
 22 17  1  0
 22 23  1  0
 22 24  1  0
 10 11  1  0
 10 12  1  0
  1 15  1  0
  1  3  1  0
  1  2  1  0
 15 16  1  0
 16 18  2  0
 16 19  1  0
  3  4  2  0
 17 20  2  0
 17 21  1  0
 18 20  1  0
 19 21  2  0
  4  5  1  0
  4  6  1  0
  6  7  2  0
  7 11  1  0
M  END
> <PUBCHEM_COMPOUND_CID>
444732

> <PUBCHEM_CONFORMER_RMSD>
0.8

> <PUBCHEM_CONFORMER_DIVERSEORDER>
2
40
76
12
44
10
59
54
7
73
38
27
93
70
18
22
43
90
77
26
35
80
60
14
3
96
31
83
49
4
58
69
6
5
21
78
30
55
41
63
39
11
20
89
45
75
84
37
65
48
28
15
57
32
91
72
17
42
8
9
16
13
52
53
33
85
92
29
56
86
81
1
71
87
23
97
79
47
94
68
19
50
46
24
36
62
67
34
74
88
51
66
95
25
61
82
98
64

> <PUBCHEM_MMFF94_PARTIAL_CHARGES>
30
1 -0.57
11 0.1
12 -0.15
13 -0.15
14 -0.15
15 -0.15
16 -0.14
17 0.14
18 0.37
19 0.37
2 -0.57
20 -0.15
21 -0.14
22 0.62
24 0.15
28 0.15
29 0.15
3 -0.44
30 0.15
31 0.15
4 -0.84
41 0.15
42 0.15
43 0.37
44 0.4
5 -0.39
6 0.2
7 0.42
8 0.09
9 -0.29

> <PUBCHEM_EFFECTIVE_ROTOR_COUNT>
7

> <PUBCHEM_PHARMACOPHORE_FEATURES>
7
1 1 acceptor
1 10 hydrophobe
1 17 hydrophobe
1 2 acceptor
1 4 cation
1 5 donor
6 8 11 12 13 14 15 rings

> <PUBCHEM_HEAVY_ATOM_COUNT>
22

> <PUBCHEM_ATOM_DEF_STEREO_COUNT>
1

> <PUBCHEM_ATOM_UDEF_STEREO_COUNT>
0

> <PUBCHEM_BOND_DEF_STEREO_COUNT>
2

> <PUBCHEM_BOND_UDEF_STEREO_COUNT>
0

> <PUBCHEM_ISOTOPIC_ATOM_COUNT>
0

> <PUBCHEM_COMPONENT_COUNT>
1

> <PUBCHEM_CACTVS_TAUTO_COUNT>
9

> <PUBCHEM_CONFORMER_ID>
0006C93C00000002

> <PUBCHEM_MMFF94_ENERGY>
68.5736

> <PUBCHEM_FEATURE_SELFOVERLAP>
35.52

> <PUBCHEM_SHAPE_FINGERPRINT>
10319926 262 15697732496763557303
10692045 39 11815635055283359444
12293681 160 12973598932778199301
12403259 118 12319444550194199881
12592606 108 18410855504254728187
12596602 18 17131834304279926931
12633257 1 14907895015762341657
12760667 363 18409168800717199234
12895836 83 12757141399334142939
12895837 130 11025807491535449987
13103583 49 16773795926253527159
13533116 47 18124311864596212585
13540713 4 18268967891206584945
13673619 4 18130787854560239896
13690498 29 18187078447376276677
13757389 114 17752197293529989333
14123256 34 18334017211271614963
14251764 30 18413387648445131050
14420673 8 18410295830955217299
14765038 42 14764051377869384406
14931854 50 17458337533417374899
15061688 2 9151177566536318361
15188451 53 16845284008419407207
15238133 3 12967125056148805194
17492 54 14706922956090611105
17780758 139 17561361751364416001
1813 80 18341623632459686820
193927 3 18334573581498500097
19784866 240 18335702788862333573
20871999 31 16443056201953700861
21033648 29 13973701524307103169
21054139 6 18041841706575929146
21298829 104 8142096376683825887
21307412 95 17895472635511529595
21401589 2 10591765411262862869
21403212 168 15554450656981572695
21637258 2 18272649064820128705
22765269 38 9871756779986210251
22950370 63 18342741823174253368
23522609 53 18123222110744769216
23559900 14 16661202702150013749
2748736 6 8574717888096135782
2767999 5 8070029952208260022
2838139 119 11530478956365527086
312425 83 14347452915209619779
3472631 163 11169907286595898211
351380 3 18412823590448124066
3737641 26 17987805090320306142
393628 179 7853571254228018870
393628 194 9007055794471491195
4107672 100 17604143715159178813
465052 167 18342180015428633199
474 4 10303825306196850713
474113 269 17773867770798226359
484985 159 18340482249728134233
5104073 3 14404600174171725018
54039377 194 18413111641758503542
543368 44 10809331245035261055
6327066 14 9007056859474492474
636775 8 18270689671814971022
77188 2 18341611563786720841
7970288 3 18413103974361184510
8217 86 17967816075936971442
999808 66 18335990830338241987

> <PUBCHEM_SHAPE_MULTIPOLES>
425.18
16.88
2.68
1.47
16.09
1.23
0
-19.37
-0.29
-0.05
0.04
-0.97
0.03
0.23

> <PUBCHEM_SHAPE_SELFOVERLAP>
868.487

> <PUBCHEM_SHAPE_VOLUME>
246.3

> <PUBCHEM_COORDINATE_TYPE>
2
5
10

> <minimizedAffinity>
-8.47613

> <CNNscore>
0.7985114455

> <CNNaffinity>
6.6845736504

> <CNN_VS>
5.3377084732

> <CNNaffinity_variance>
0.3580522835

$$$$
444732


 24 24  0  0  0  0  0  0  0  0999 V2000
    0.3982    5.8765    5.7737 C   0  0  0  0  0  0  0  0  0  0  0  0
   -0.6903    5.7904    4.7027 C   0  0  0  0  0  0  0  0  0  0  0  0
   -0.1556    5.4563    7.1123 C   0  0  0  0  0  0  0  0  0  0  0  0
   -1.4440    5.4483    7.5170 C   0  0  0  0  0  0  0  0  0  0  0  0
   -2.5940    5.9246    6.6682 C   0  0  0  0  0  0  0  0  0  0  0  0
   -1.7521    4.9628    8.8654 C   0  0  0  0  0  0  0  0  0  0  0  0
   -2.0683    3.7030    9.2032 C   0  0  0  0  0  0  0  0  0  0  0  0
   -1.9155    4.0103   11.5669 O   0  0  0  0  0  0  0  0  0  0  0  0
   -3.4642    1.8388   12.0300 O   0  0  0  0  0  0  0  0  0  0  0  0
   -3.1460    2.2437   10.7264 N   0  0  0  0  0  0  0  0  0  0  0  0
   -2.3538    3.3589   10.6245 C   0  0  0  0  0  0  0  0  0  0  0  0
   -3.4501    1.6392    9.9715 H   0  0  0  0  0  0  0  0  0  0  0  0
   -4.3385    2.2523   12.1297 H   0  0  0  0  0  0  0  0  0  0  0  0
    1.8589    7.6087    6.6072 O   0  0  0  0  0  0  0  0  0  0  0  0
    0.8849    7.3210    5.9117 C   0  0  0  0  0  0  0  0  0  0  0  0
    0.1841    8.4149    5.1778 C   0  0  0  0  0  0  0  0  0  0  0  0
   -1.1089   10.4316    3.8234 C   0  0  0  0  0  0  0  0  0  0  0  0
   -1.1141    8.7143    5.5229 C   0  0  0  0  0  0  0  0  0  0  0  0
    0.8625    9.0821    4.1834 C   0  0  0  0  0  0  0  0  0  0  0  0
   -1.7696    9.7363    4.8363 C   0  0  0  0  0  0  0  0  0  0  0  0
    0.2072   10.1043    3.4969 C   0  0  0  0  0  0  0  0  0  0  0  0
   -1.7717   11.4649    3.1292 N   0  0  0  0  0  0  0  0  0  0  0  0
   -3.2184   11.4820    3.0447 C   0  0  0  0  0  0  0  0  0  0  0  0
   -1.0152   12.5313    2.5033 C   0  0  0  0  0  0  0  0  0  0  0  0
 14 15  2  0
  8 11  2  0
  9 10  1  0
  9 13  1  0
 22 17  1  0
 22 23  1  0
 22 24  1  0
 10 11  1  0
 10 12  1  0
  1 15  1  0
  1  3  1  0
  1  2  1  0
 15 16  1  0
 16 18  2  0
 16 19  1  0
  3  4  2  0
 17 20  2  0
 17 21  1  0
 18 20  1  0
 19 21  2  0
  4  5  1  0
  4  6  1  0
  6  7  2  0
  7 11  1  0
M  END
> <PUBCHEM_COMPOUND_CID>
444732

> <PUBCHEM_CONFORMER_RMSD>
0.8

> <PUBCHEM_CONFORMER_DIVERSEORDER>
2
40
76
12
44
10
59
54
7
73
38
27
93
70
18
22
43
90
77
26
35
80
60
14
3
96
31
83
49
4
58
69
6
5
21
78
30
55
41
63
39
11
20
89
45
75
84
37
65
48
28
15
57
32
91
72
17
42
8
9
16
13
52
53
33
85
92
29
56
86
81
1
71
87
23
97
79
47
94
68
19
50
46
24
36
62
67
34
74
88
51
66
95
25
61
82
98
64

> <PUBCHEM_MMFF94_PARTIAL_CHARGES>
30
1 -0.57
11 0.1
12 -0.15
13 -0.15
14 -0.15
15 -0.15
16 -0.14
17 0.14
18 0.37
19 0.37
2 -0.57
20 -0.15
21 -0.14
22 0.62
24 0.15
28 0.15
29 0.15
3 -0.44
30 0.15
31 0.15
4 -0.84
41 0.15
42 0.15
43 0.37
44 0.4
5 -0.39
6 0.2
7 0.42
8 0.09
9 -0.29

> <PUBCHEM_EFFECTIVE_ROTOR_COUNT>
7

> <PUBCHEM_PHARMACOPHORE_FEATURES>
7
1 1 acceptor
1 10 hydrophobe
1 17 hydrophobe
1 2 acceptor
1 4 cation
1 5 donor
6 8 11 12 13 14 15 rings

> <PUBCHEM_HEAVY_ATOM_COUNT>
22

> <PUBCHEM_ATOM_DEF_STEREO_COUNT>
1

> <PUBCHEM_ATOM_UDEF_STEREO_COUNT>
0

> <PUBCHEM_BOND_DEF_STEREO_COUNT>
2

> <PUBCHEM_BOND_UDEF_STEREO_COUNT>
0

> <PUBCHEM_ISOTOPIC_ATOM_COUNT>
0

> <PUBCHEM_COMPONENT_COUNT>
1

> <PUBCHEM_CACTVS_TAUTO_COUNT>
9

> <PUBCHEM_CONFORMER_ID>
0006C93C00000002

> <PUBCHEM_MMFF94_ENERGY>
68.5736

> <PUBCHEM_FEATURE_SELFOVERLAP>
35.52

> <PUBCHEM_SHAPE_FINGERPRINT>
10319926 262 15697732496763557303
10692045 39 11815635055283359444
12293681 160 12973598932778199301
12403259 118 12319444550194199881
12592606 108 18410855504254728187
12596602 18 17131834304279926931
12633257 1 14907895015762341657
12760667 363 18409168800717199234
12895836 83 12757141399334142939
12895837 130 11025807491535449987
13103583 49 16773795926253527159
13533116 47 18124311864596212585
13540713 4 18268967891206584945
13673619 4 18130787854560239896
13690498 29 18187078447376276677
13757389 114 17752197293529989333
14123256 34 18334017211271614963
14251764 30 18413387648445131050
14420673 8 18410295830955217299
14765038 42 14764051377869384406
14931854 50 17458337533417374899
15061688 2 9151177566536318361
15188451 53 16845284008419407207
15238133 3 12967125056148805194
17492 54 14706922956090611105
17780758 139 17561361751364416001
1813 80 18341623632459686820
193927 3 18334573581498500097
19784866 240 18335702788862333573
20871999 31 16443056201953700861
21033648 29 13973701524307103169
21054139 6 18041841706575929146
21298829 104 8142096376683825887
21307412 95 17895472635511529595
21401589 2 10591765411262862869
21403212 168 15554450656981572695
21637258 2 18272649064820128705
22765269 38 9871756779986210251
22950370 63 18342741823174253368
23522609 53 18123222110744769216
23559900 14 16661202702150013749
2748736 6 8574717888096135782
2767999 5 8070029952208260022
2838139 119 11530478956365527086
312425 83 14347452915209619779
3472631 163 11169907286595898211
351380 3 18412823590448124066
3737641 26 17987805090320306142
393628 179 7853571254228018870
393628 194 9007055794471491195
4107672 100 17604143715159178813
465052 167 18342180015428633199
474 4 10303825306196850713
474113 269 17773867770798226359
484985 159 18340482249728134233
5104073 3 14404600174171725018
54039377 194 18413111641758503542
543368 44 10809331245035261055
6327066 14 9007056859474492474
636775 8 18270689671814971022
77188 2 18341611563786720841
7970288 3 18413103974361184510
8217 86 17967816075936971442
999808 66 18335990830338241987

> <PUBCHEM_SHAPE_MULTIPOLES>
425.18
16.88
2.68
1.47
16.09
1.23
0
-19.37
-0.29
-0.05
0.04
-0.97
0.03
0.23

> <PUBCHEM_SHAPE_SELFOVERLAP>
868.487

> <PUBCHEM_SHAPE_VOLUME>
246.3

> <PUBCHEM_COORDINATE_TYPE>
2
5
10

> <minimizedAffinity>
-6.50397

> <CNNscore>
0.7933944464

> <CNNaffinity>
6.7390112877

> <CNN_VS>
5.3466939926

> <CNNaffinity_variance>
0.3138345778

$$$$
444732


 24 24  0  0  0  0  0  0  0  0999 V2000
    1.4290    8.1820    5.6607 C   0  0  0  0  0  0  0  0  0  0  0  0
    2.4031    7.3058    4.8717 C   0  0  0  0  0  0  0  0  0  0  0  0
    0.4728    7.3189    6.4456 C   0  0  0  0  0  0  0  0  0  0  0  0
   -0.1819    6.2119    6.0342 C   0  0  0  0  0  0  0  0  0  0  0  0
   -0.0938    5.6542    4.6373 C   0  0  0  0  0  0  0  0  0  0  0  0
   -1.0435    5.5109    6.9909 C   0  0  0  0  0  0  0  0  0  0  0  0
   -0.7468    5.2292    8.2691 C   0  0  0  0  0  0  0  0  0  0  0  0
   -2.7012    3.9146    8.6654 O   0  0  0  0  0  0  0  0  0  0  0  0
   -2.2904    3.9654   11.3407 O   0  0  0  0  0  0  0  0  0  0  0  0
   -1.4145    4.6087   10.4554 N   0  0  0  0  0  0  0  0  0  0  0  0
   -1.7319    4.5097    9.1246 C   0  0  0  0  0  0  0  0  0  0  0  0
   -0.6720    5.1629   10.8669 H   0  0  0  0  0  0  0  0  0  0  0  0
   -1.8168    3.1265   11.4716 H   0  0  0  0  0  0  0  0  0  0  0  0
    0.1690    8.5791    3.6399 O   0  0  0  0  0  0  0  0  0  0  0  0
    0.5953    9.0344    4.7011 C   0  0  0  0  0  0  0  0  0  0  0  0
    0.2676   10.4465    5.0544 C   0  0  0  0  0  0  0  0  0  0  0  0
   -0.3374   13.0512    5.7049 C   0  0  0  0  0  0  0  0  0  0  0  0
   -1.0158   10.7462    5.4512 C   0  0  0  0  0  0  0  0  0  0  0  0
    1.2609   11.3954    4.9693 C   0  0  0  0  0  0  0  0  0  0  0  0
   -1.3225   12.0664    5.7807 C   0  0  0  0  0  0  0  0  0  0  0  0
    0.9542   12.7156    5.2990 C   0  0  0  0  0  0  0  0  0  0  0  0
   -0.6476   14.3860    6.0381 N   0  0  0  0  0  0  0  0  0  0  0  0
    0.3686   15.2600    6.5895 C   0  0  0  0  0  0  0  0  0  0  0  0
   -1.9832   14.9055    5.8201 C   0  0  0  0  0  0  0  0  0  0  0  0
 14 15  2  0
  8 11  2  0
  9 10  1  0
  9 13  1  0
 22 17  1  0
 22 23  1  0
 22 24  1  0
 10 11  1  0
 10 12  1  0
  1 15  1  0
  1  3  1  0
  1  2  1  0
 15 16  1  0
 16 18  2  0
 16 19  1  0
  3  4  2  0
 17 20  2  0
 17 21  1  0
 18 20  1  0
 19 21  2  0
  4  5  1  0
  4  6  1  0
  6  7  2  0
  7 11  1  0
M  END
> <PUBCHEM_COMPOUND_CID>
444732

> <PUBCHEM_CONFORMER_RMSD>
0.8

> <PUBCHEM_CONFORMER_DIVERSEORDER>
2
40
76
12
44
10
59
54
7
73
38
27
93
70
18
22
43
90
77
26
35
80
60
14
3
96
31
83
49
4
58
69
6
5
21
78
30
55
41
63
39
11
20
89
45
75
84
37
65
48
28
15
57
32
91
72
17
42
8
9
16
13
52
53
33
85
92
29
56
86
81
1
71
87
23
97
79
47
94
68
19
50
46
24
36
62
67
34
74
88
51
66
95
25
61
82
98
64

> <PUBCHEM_MMFF94_PARTIAL_CHARGES>
30
1 -0.57
11 0.1
12 -0.15
13 -0.15
14 -0.15
15 -0.15
16 -0.14
17 0.14
18 0.37
19 0.37
2 -0.57
20 -0.15
21 -0.14
22 0.62
24 0.15
28 0.15
29 0.15
3 -0.44
30 0.15
31 0.15
4 -0.84
41 0.15
42 0.15
43 0.37
44 0.4
5 -0.39
6 0.2
7 0.42
8 0.09
9 -0.29

> <PUBCHEM_EFFECTIVE_ROTOR_COUNT>
7

> <PUBCHEM_PHARMACOPHORE_FEATURES>
7
1 1 acceptor
1 10 hydrophobe
1 17 hydrophobe
1 2 acceptor
1 4 cation
1 5 donor
6 8 11 12 13 14 15 rings

> <PUBCHEM_HEAVY_ATOM_COUNT>
22

> <PUBCHEM_ATOM_DEF_STEREO_COUNT>
1

> <PUBCHEM_ATOM_UDEF_STEREO_COUNT>
0

> <PUBCHEM_BOND_DEF_STEREO_COUNT>
2

> <PUBCHEM_BOND_UDEF_STEREO_COUNT>
0

> <PUBCHEM_ISOTOPIC_ATOM_COUNT>
0

> <PUBCHEM_COMPONENT_COUNT>
1

> <PUBCHEM_CACTVS_TAUTO_COUNT>
9

> <PUBCHEM_CONFORMER_ID>
0006C93C00000002

> <PUBCHEM_MMFF94_ENERGY>
68.5736

> <PUBCHEM_FEATURE_SELFOVERLAP>
35.52

> <PUBCHEM_SHAPE_FINGERPRINT>
10319926 262 15697732496763557303
10692045 39 11815635055283359444
12293681 160 12973598932778199301
12403259 118 12319444550194199881
12592606 108 18410855504254728187
12596602 18 17131834304279926931
12633257 1 14907895015762341657
12760667 363 18409168800717199234
12895836 83 12757141399334142939
12895837 130 11025807491535449987
13103583 49 16773795926253527159
13533116 47 18124311864596212585
13540713 4 18268967891206584945
13673619 4 18130787854560239896
13690498 29 18187078447376276677
13757389 114 17752197293529989333
14123256 34 18334017211271614963
14251764 30 18413387648445131050
14420673 8 18410295830955217299
14765038 42 14764051377869384406
14931854 50 17458337533417374899
15061688 2 9151177566536318361
15188451 53 16845284008419407207
15238133 3 12967125056148805194
17492 54 14706922956090611105
17780758 139 17561361751364416001
1813 80 18341623632459686820
193927 3 18334573581498500097
19784866 240 18335702788862333573
20871999 31 16443056201953700861
21033648 29 13973701524307103169
21054139 6 18041841706575929146
21298829 104 8142096376683825887
21307412 95 17895472635511529595
21401589 2 10591765411262862869
21403212 168 15554450656981572695
21637258 2 18272649064820128705
22765269 38 9871756779986210251
22950370 63 18342741823174253368
23522609 53 18123222110744769216
23559900 14 16661202702150013749
2748736 6 8574717888096135782
2767999 5 8070029952208260022
2838139 119 11530478956365527086
312425 83 14347452915209619779
3472631 163 11169907286595898211
351380 3 18412823590448124066
3737641 26 17987805090320306142
393628 179 7853571254228018870
393628 194 9007055794471491195
4107672 100 17604143715159178813
465052 167 18342180015428633199
474 4 10303825306196850713
474113 269 17773867770798226359
484985 159 18340482249728134233
5104073 3 14404600174171725018
54039377 194 18413111641758503542
543368 44 10809331245035261055
6327066 14 9007056859474492474
636775 8 18270689671814971022
77188 2 18341611563786720841
7970288 3 18413103974361184510
8217 86 17967816075936971442
999808 66 18335990830338241987

> <PUBCHEM_SHAPE_MULTIPOLES>
425.18
16.88
2.68
1.47
16.09
1.23
0
-19.37
-0.29
-0.05
0.04
-0.97
0.03
0.23

> <PUBCHEM_SHAPE_SELFOVERLAP>
868.487

> <PUBCHEM_SHAPE_VOLUME>
246.3

> <PUBCHEM_COORDINATE_TYPE>
2
5
10

> <minimizedAffinity>
-6.99016

> <CNNscore>
0.7204279304

> <CNNaffinity>
6.4648890495

> <CNN_VS>
4.6574864388

> <CNNaffinity_variance>
0.2480424047

$$$$
