
     RDKit          3D

 14 14  0  0  0  0  0  0  0  0999 V2000
   -7.5780   -5.2640   24.0420 C   0  0  0  0  0  0  0  0  0  0  0  0
   -6.7740   -4.2740   23.1940 C   0  0  0  0  0  0  0  0  0  0  0  0
   -6.5280   -3.0140   24.0250 C   0  0  0  0  0  0  0  0  0  0  0  0
   -5.7450   -1.9350   23.2600 C   0  0  0  0  0  0  0  0  0  0  0  0
   -4.4060   -2.2860   22.8320 O   0  0  0  0  0  0  0  0  0  0  0  0
   -4.2460   -2.9380   21.6410 C   0  0  0  0  0  0  0  0  0  0  0  0
   -5.1520   -3.4460   20.9790 O   0  0  0  0  0  0  0  0  0  0  0  0
   -2.9120   -2.9920   21.2390 C   0  0  1  0  0  0  0  0  0  0  0  0
   -2.5040   -3.5280   20.0170 C   0  0  0  0  0  0  0  0  0  0  0  0
   -1.1520   -3.5100   19.6730 C   0  0  0  0  0  0  0  0  0  0  0  0
   -0.2390   -2.9380   20.5580 C   0  0  0  0  0  0  0  0  0  0  0  0
    1.0840   -2.8850   20.2760 O   0  0  0  0  0  0  0  0  0  0  0  0
   -0.6470   -2.3960   21.7640 C   0  0  0  0  0  0  0  0  0  0  0  0
   -1.9840   -2.4120   22.0910 C   0  0  0  0  0  0  0  0  0  0  0  0
  2  1  1  0
  3  2  1  0
  4  3  1  0
  5  4  1  0
  6  5  1  0
  7  6  1  0
  8  6  1  6
  9  8  1  0
 10  9  1  0
 11 10  1  0
 12 11  1  0
 13 11  1  0
 14 13  1  0
 14  8  1  0
M  END
$$$$
