
     RDKit          3D

 18 19  0  0  0  0  0  0  0  0999 V2000
   -2.0230   -4.9330   22.2060 O   0  0  0  0  0  0  0  0  0  0  0  0
   -2.5600   -5.1590   20.9780 C   0  0  1  0  0  0  0  0  0  0  0  0
   -1.7400   -5.4750   19.9020 C   0  0  0  0  0  0  0  0  0  0  0  0
   -2.3030   -5.7260   18.6610 C   0  0  0  0  0  0  0  0  0  0  0  0
   -1.4970   -6.0140   17.6060 O   0  0  0  0  0  0  0  0  0  0  0  0
   -3.6860   -5.6810   18.5150 C   0  0  0  0  0  0  0  0  0  0  0  0
   -4.4920   -5.3800   19.6120 C   0  0  0  0  0  0  0  0  0  0  0  0
   -3.9490   -5.1750   20.8790 C   0  0  2  0  0  0  0  0  0  0  0  0
   -4.7320   -4.8090   21.9890 C   0  0  0  0  0  0  0  0  0  0  0  0
   -4.1910   -4.3810   23.0060 O   0  0  0  0  0  0  0  0  0  0  0  0
   -6.1260   -4.9640   21.9520 C   0  0  1  0  0  0  0  0  0  0  0  0
   -6.7520   -5.7820   21.0150 C   0  0  0  0  0  0  0  0  0  0  0  0
   -8.1290   -5.9770   21.0380 C   0  0  0  0  0  0  0  0  0  0  0  0
   -8.9020   -5.4000   22.0400 C   0  0  0  0  0  0  0  0  0  0  0  0
  -10.2480   -5.5930   22.0700 O   0  0  0  0  0  0  0  0  0  0  0  0
   -8.2910   -4.6250   23.0100 C   0  0  0  0  0  0  0  0  0  0  0  0
   -6.9160   -4.4610   22.9850 C   0  0  2  0  0  0  0  0  0  0  0  0
   -6.3030   -3.6850   23.9150 O   0  0  0  0  0  0  0  0  0  0  0  0
  2  1  1  1
  3  2  1  0
  4  3  1  0
  5  4  1  0
  6  4  1  0
  7  6  1  0
  8  7  1  0
  8  2  1  0
  8  9  1  6
 10  9  1  0
 11  9  1  1
 12 11  1  0
 13 12  1  0
 14 13  1  0
 15 14  1  0
 16 14  1  0
 17 16  1  0
 17 11  1  0
 17 18  1  6
M  END
$$$$
