
     RDKit          3D

 17 18  0  0  0  0  0  0  0  0999 V2000
    0.0640   -2.3740   20.3200 O   0  0  0  0  0  0  0  0  0  0  0  0
   -1.1520   -2.9590   20.4900 C   0  0  0  0  0  0  0  0  0  0  0  0
   -1.7500   -3.6040   19.4170 C   0  0  0  0  0  0  0  0  0  0  0  0
   -2.9920   -4.2040   19.5730 C   0  0  0  0  0  0  0  0  0  0  0  0
   -1.7970   -2.9100   21.7240 C   0  0  0  0  0  0  0  0  0  0  0  0
   -3.0420   -3.5150   21.8780 C   0  0  0  0  0  0  0  0  0  0  0  0
   -3.6440   -4.1600   20.7990 C   0  0  0  0  0  0  0  0  0  0  0  0
   -5.0090   -4.8480   20.9320 C   0  0  2  0  0  0  0  0  0  0  0  0
   -4.8150   -6.2140   21.5910 C   0  0  0  0  0  0  0  0  0  0  0  0
   -5.6260   -5.0230   19.5460 C   0  0  0  0  0  0  0  0  0  0  0  0
   -5.9940   -4.0260   21.7650 C   0  0  0  0  0  0  0  0  0  0  0  0
   -6.1290   -2.6590   21.5510 C   0  0  0  0  0  0  0  0  0  0  0  0
   -7.0380   -1.9270   22.3080 C   0  0  0  0  0  0  0  0  0  0  0  0
   -6.7750   -4.6610   22.7250 C   0  0  0  0  0  0  0  0  0  0  0  0
   -7.6860   -3.9310   23.4810 C   0  0  0  0  0  0  0  0  0  0  0  0
   -7.8160   -2.5610   23.2730 C   0  0  0  0  0  0  0  0  0  0  0  0
   -8.7060   -1.8410   24.0100 O   0  0  0  0  0  0  0  0  0  0  0  0
  2  1  1  0
  3  2  1  0
  4  3  1  0
  5  2  1  0
  6  5  1  0
  7  4  1  0
  7  6  1  0
  8  7  1  0
  8  9  1  1
 10  8  1  0
 11  8  1  0
 12 11  1  0
 13 12  1  0
 14 11  1  0
 15 14  1  0
 16 15  1  0
 16 13  1  0
 17 16  1  0
M  END
$$$$
