
 OpenBabel07022610293D

 26 27  0  0  0  0  0  0  0  0999 V2000
    0.9617   -0.5004   -1.9488 C   0  0  0  0  0  0  0  0  0  0  0  0
   -0.0906   -1.4136   -2.0130 C   0  0  0  0  0  0  0  0  0  0  0  0
    0.7800    0.7312   -1.3218 C   0  0  0  0  0  0  0  0  0  0  0  0
   -1.3311   -1.0848   -1.4649 C   0  0  0  0  0  0  0  0  0  0  0  0
   -0.4589    1.0622   -0.7668 C   0  0  0  0  0  0  0  0  0  0  0  0
   -3.6400    4.0398   -1.4194 C   0  0  0  0  0  0  0  0  0  0  0  0
   -3.1453    2.7332   -1.4082 C   0  0  0  0  0  0  0  0  0  0  0  0
   -4.6528    3.6679    0.7486 C   0  0  0  0  0  0  0  0  0  0  0  0
   -1.5290    0.1632   -0.8596 C   0  0  0  0  0  0  0  0  0  0  0  0
   -4.3915    4.4930   -0.3408 C   0  0  0  0  0  0  0  0  0  0  0  0
   -3.3805    1.8920   -0.3077 C   0  0  0  0  0  0  0  0  0  0  0  0
   -4.1441    2.3678    0.7656 C   0  0  0  0  0  0  0  0  0  0  0  0
   -2.8912    0.4868   -0.3465 C   0  0  0  0  0  0  0  0  0  0  0  0
   -4.8985    5.7583   -0.3124 O   0  0  0  0  0  0  0  0  0  0  0  0
   -4.3728    1.5824    1.8596 O   0  0  0  0  0  0  0  0  0  0  0  0
   -3.6462   -0.4321   -0.0407 O   0  0  0  0  0  0  0  0  0  0  0  0
    1.9258   -0.7552   -2.3838 H   0  0  0  0  0  0  0  0  0  0  0  0
    0.0527   -2.3803   -2.4887 H   0  0  0  0  0  0  0  0  0  0  0  0
    1.6084    1.4341   -1.2613 H   0  0  0  0  0  0  0  0  0  0  0  0
   -2.1491   -1.8014   -1.5191 H   0  0  0  0  0  0  0  0  0  0  0  0
   -0.5705    2.0190   -0.2639 H   0  0  0  0  0  0  0  0  0  0  0  0
   -3.4395    4.6768   -2.2756 H   0  0  0  0  0  0  0  0  0  0  0  0
   -2.5906    2.3749   -2.2725 H   0  0  0  0  0  0  0  0  0  0  0  0
   -5.2398    4.0539    1.5761 H   0  0  0  0  0  0  0  0  0  0  0  0
   -4.6454    6.2185   -1.1299 H   0  0  0  0  0  0  0  0  0  0  0  0
   -5.1502    1.9180    2.3352 H   0  0  0  0  0  0  0  0  0  0  0  0
  1  2  2  0  0  0  0
  1  3  1  0  0  0  0
  1 17  1  0  0  0  0
  2  4  1  0  0  0  0
  2 18  1  0  0  0  0
  3  5  2  0  0  0  0
  3 19  1  0  0  0  0
  4  9  2  0  0  0  0
  4 20  1  0  0  0  0
  5  9  1  0  0  0  0
  5 21  1  0  0  0  0
  6  7  2  0  0  0  0
  6 10  1  0  0  0  0
  6 22  1  0  0  0  0
  7 11  1  0  0  0  0
  7 23  1  0  0  0  0
  8 10  2  0  0  0  0
  8 12  1  0  0  0  0
  8 24  1  0  0  0  0
  9 13  1  0  0  0  0
 10 14  1  0  0  0  0
 11 12  2  0  0  0  0
 11 13  1  0  0  0  0
 12 15  1  0  0  0  0
 13 16  2  0  0  0  0
 14 25  1  0  0  0  0
 15 26  1  0  0  0  0
M  END
>  <Energy>
64.7653

$$$$
