
 OpenBabel06152611253D

 39 42  0  0  0  0  0  0  0  0999 V2000
    1.9490    1.1406    0.1706 C   0  0  0  0  0  0  0  0  0  0  0  0
    2.1997   -0.2322    0.0256 C   0  0  0  0  0  0  0  0  0  0  0  0
    0.6375    1.6302    0.2316 C   0  0  0  0  0  0  0  0  0  0  0  0
    1.1420   -1.1327   -0.0574 C   0  0  0  0  0  0  0  0  0  0  0  0
   -1.5622    2.7113   -1.9251 C   0  0  0  0  0  0  0  0  0  0  0  0
   -3.5109    1.3081   -1.9854 C   0  0  0  0  0  0  0  0  0  0  0  0
   -2.5489    1.0494    2.5257 C   0  0  0  0  0  0  0  0  0  0  0  0
   -2.6073    3.1696    1.3843 C   0  0  0  0  0  0  0  0  0  0  0  0
   -1.8343    3.1574   -3.2221 C   0  0  0  0  0  0  0  0  0  0  0  0
   -3.7903    1.7587   -3.2807 C   0  0  0  0  0  0  0  0  0  0  0  0
   -2.9121    1.6680    3.7244 C   0  0  0  0  0  0  0  0  0  0  0  0
   -2.9666    3.7911    2.5866 C   0  0  0  0  0  0  0  0  0  0  0  0
   -2.3513    1.7242   -1.2979 C   0  0  0  0  0  0  0  0  0  0  0  0
   -2.3928    1.7824    1.3244 C   0  0  0  0  0  0  0  0  0  0  0  0
   -2.9266    2.6455   -3.9035 C   0  0  0  0  0  0  0  0  0  0  0  0
   -3.1129    3.0389    3.7448 C   0  0  0  0  0  0  0  0  0  0  0  0
   -0.4311    0.7467    0.0925 C   0  0  0  0  0  0  0  0  0  0  0  0
   -0.1378   -0.6068   -0.0306 C   0  0  0  0  0  0  0  0  0  0  0  0
   -1.9376    1.0608    0.0432 C   0  0  0  0  0  0  0  0  0  0  0  0
   -3.1708    2.9829   -5.2002 O   0  0  0  0  0  0  0  0  0  0  0  0
   -3.4518    3.6892    4.8933 O   0  0  0  0  0  0  0  0  0  0  0  0
   -1.7628   -2.0828   -1.3887 O   0  0  0  0  0  0  0  0  0  0  0  0
   -1.7020   -2.2771    1.1453 O   0  0  0  0  0  0  0  0  0  0  0  0
   -2.6151   -0.2258    0.0598 O   0  0  0  0  0  0  0  0  0  0  0  0
   -1.6188   -1.5057   -0.0748 S   0  0  0  0  0  0  0  0  0  0  0  0
    2.7856    1.8338    0.2377 H   0  0  0  0  0  0  0  0  0  0  0  0
    3.2254   -0.5926   -0.0105 H   0  0  0  0  0  0  0  0  0  0  0  0
    0.4769    2.6959    0.3723 H   0  0  0  0  0  0  0  0  0  0  0  0
    1.3133   -2.2012   -0.1411 H   0  0  0  0  0  0  0  0  0  0  0  0
   -0.6967    3.1415   -1.4341 H   0  0  0  0  0  0  0  0  0  0  0  0
   -4.1963    0.5871   -1.5421 H   0  0  0  0  0  0  0  0  0  0  0  0
   -2.3900   -0.0280    2.5471 H   0  0  0  0  0  0  0  0  0  0  0  0
   -2.5015    3.7968    0.5031 H   0  0  0  0  0  0  0  0  0  0  0  0
   -1.1757    3.8873   -3.6829 H   0  0  0  0  0  0  0  0  0  0  0  0
   -4.6604    1.3847   -3.8134 H   0  0  0  0  0  0  0  0  0  0  0  0
   -3.0297    1.0630    4.6183 H   0  0  0  0  0  0  0  0  0  0  0  0
   -3.1303    4.8648    2.6188 H   0  0  0  0  0  0  0  0  0  0  0  0
   -2.3578    3.3630   -5.5733 H   0  0  0  0  0  0  0  0  0  0  0  0
   -3.4864    3.0411    5.6168 H   0  0  0  0  0  0  0  0  0  0  0  0
  1  2  2  0  0  0  0
  1  3  1  0  0  0  0
  1 26  1  0  0  0  0
  2  4  1  0  0  0  0
  2 27  1  0  0  0  0
  3 17  2  0  0  0  0
  3 28  1  0  0  0  0
  4 18  2  0  0  0  0
  4 29  1  0  0  0  0
  5  9  1  0  0  0  0
  5 13  2  0  0  0  0
  5 30  1  0  0  0  0
  6 10  2  0  0  0  0
  6 13  1  0  0  0  0
  6 31  1  0  0  0  0
  7 11  1  0  0  0  0
  7 14  2  0  0  0  0
  7 32  1  0  0  0  0
  8 12  2  0  0  0  0
  8 14  1  0  0  0  0
  8 33  1  0  0  0  0
  9 15  2  0  0  0  0
  9 34  1  0  0  0  0
 10 15  1  0  0  0  0
 10 35  1  0  0  0  0
 11 16  2  0  0  0  0
 11 36  1  0  0  0  0
 12 16  1  0  0  0  0
 12 37  1  0  0  0  0
 13 19  1  0  0  0  0
 14 19  1  0  0  0  0
 15 20  1  0  0  0  0
 16 21  1  0  0  0  0
 17 18  1  0  0  0  0
 17 19  1  0  0  0  0
 18 25  1  0  0  0  0
 19 24  1  0  0  0  0
 20 38  1  0  0  0  0
 21 39  1  0  0  0  0
 22 25  2  0  0  0  0
 23 25  2  0  0  0  0
 24 25  1  0  0  0  0
M  END
>  <Energy>
48.0334

$$$$
