
 OpenBabel06152611253D

 30 33  0  0  0  0  0  0  0  0999 V2000
    4.6873   -0.0191    0.1191 C   0  0  0  0  0  0  0  0  0  0  0  0
   -4.6838    0.0206    0.1251 C   0  0  0  0  0  0  0  0  0  0  0  0
    4.1812    1.2701    0.1564 C   0  0  0  0  0  0  0  0  0  0  0  0
   -4.1777   -1.2683    0.1609 C   0  0  0  0  0  0  0  0  0  0  0  0
    3.8093   -1.0947    0.0356 C   0  0  0  0  0  0  0  0  0  0  0  0
   -3.8061    1.0967    0.0414 C   0  0  0  0  0  0  0  0  0  0  0  0
    2.7992    1.4778    0.1028 C   0  0  0  0  0  0  0  0  0  0  0  0
   -2.7953   -1.4759    0.1062 C   0  0  0  0  0  0  0  0  0  0  0  0
    1.5726   -1.9971   -0.0588 C   0  0  0  0  0  0  0  0  0  0  0  0
   -1.5692    2.0000   -0.0552 C   0  0  0  0  0  0  0  0  0  0  0  0
    0.1880   -1.8359   -0.0535 C   0  0  0  0  0  0  0  0  0  0  0  0
   -0.1848    1.8379   -0.0523 C   0  0  0  0  0  0  0  0  0  0  0  0
    2.4184   -0.8950   -0.0029 C   0  0  0  0  0  0  0  0  0  0  0  0
   -2.4148    0.8970    0.0008 C   0  0  0  0  0  0  0  0  0  0  0  0
    1.8677    0.4085    0.0217 C   0  0  0  0  0  0  0  0  0  0  0  0
   -1.8640   -0.4061    0.0248 C   0  0  0  0  0  0  0  0  0  0  0  0
    0.4309    0.5695   -0.0165 C   0  0  0  0  0  0  0  0  0  0  0  0
   -0.4282   -0.5668   -0.0167 C   0  0  0  0  0  0  0  0  0  0  0  0
    5.7593   -0.1893    0.1610 H   0  0  0  0  0  0  0  0  0  0  0  0
   -5.7558    0.1910    0.1681 H   0  0  0  0  0  0  0  0  0  0  0  0
    4.8550    2.1194    0.2320 H   0  0  0  0  0  0  0  0  0  0  0  0
   -4.8512   -2.1179    0.2364 H   0  0  0  0  0  0  0  0  0  0  0  0
    4.2219   -2.1016    0.0128 H   0  0  0  0  0  0  0  0  0  0  0  0
   -4.2186    2.1034    0.0186 H   0  0  0  0  0  0  0  0  0  0  0  0
    2.4612    2.5095    0.1462 H   0  0  0  0  0  0  0  0  0  0  0  0
   -2.4576   -2.5072    0.1476 H   0  0  0  0  0  0  0  0  0  0  0  0
    1.9779   -3.0065   -0.0905 H   0  0  0  0  0  0  0  0  0  0  0  0
   -1.9746    3.0091   -0.0867 H   0  0  0  0  0  0  0  0  0  0  0  0
   -0.4036   -2.7459   -0.0878 H   0  0  0  0  0  0  0  0  0  0  0  0
    0.4072    2.7479   -0.0872 H   0  0  0  0  0  0  0  0  0  0  0  0
  1  3  2  0  0  0  0
  1  5  1  0  0  0  0
  1 19  1  0  0  0  0
  2  4  2  0  0  0  0
  2  6  1  0  0  0  0
  2 20  1  0  0  0  0
  3  7  1  0  0  0  0
  3 21  1  0  0  0  0
  4  8  1  0  0  0  0
  4 22  1  0  0  0  0
  5 13  2  0  0  0  0
  5 23  1  0  0  0  0
  6 14  2  0  0  0  0
  6 24  1  0  0  0  0
  7 15  2  0  0  0  0
  7 25  1  0  0  0  0
  8 16  2  0  0  0  0
  8 26  1  0  0  0  0
  9 11  2  0  0  0  0
  9 13  1  0  0  0  0
  9 27  1  0  0  0  0
 10 12  2  0  0  0  0
 10 14  1  0  0  0  0
 10 28  1  0  0  0  0
 11 18  1  0  0  0  0
 11 29  1  0  0  0  0
 12 17  1  0  0  0  0
 12 30  1  0  0  0  0
 13 15  1  0  0  0  0
 14 16  1  0  0  0  0
 15 17  1  0  0  0  0
 16 18  1  0  0  0  0
 17 18  2  0  0  0  0
M  END
>  <Energy>
75.2219

$$$$
