
 OpenBabel06152611253D

 49 52  0  0  1  0  0  0  0  0999 V2000
    1.9369   -0.2105    1.7432 C   0  0  0  0  0  0  0  0  0  0  0  0
   -2.4638    1.0902    1.5412 C   0  0  0  0  0  0  0  0  0  0  0  0
    1.4989    2.2793   -1.0201 C   0  0  0  0  0  0  0  0  0  0  0  0
    0.3027    1.5991   -1.6860 C   0  0  0  0  0  0  0  0  0  0  0  0
   -2.8114    1.2203   -1.4706 C   0  0  0  0  0  0  0  0  0  0  0  0
   -4.1597    0.6532   -0.9792 C   0  0  0  0  0  0  0  0  0  0  0  0
    4.4607   -0.6702    0.1631 C   0  0  0  0  0  0  0  0  0  0  0  0
   -0.2649   -1.6325    0.3566 C   0  0  0  0  0  0  0  0  0  0  0  0
    3.0607   -0.9936   -0.3837 C   0  0  0  0  0  0  0  0  0  0  0  0
   -1.5299   -1.2195    1.1593 C   0  0  0  0  0  0  0  0  0  0  0  0
    3.6631    1.7598   -0.0224 C   0  0  0  0  0  0  0  0  0  0  0  0
    2.4012    1.3428   -0.2389 C   0  0  0  0  0  0  0  0  0  0  0  0
    4.6850    0.8033    0.4511 C   0  0  0  0  0  0  0  0  0  0  0  0
   -0.3512    0.7495   -0.6155 C   0  0  1  0  0  0  0  0  0  0  0  0
   -1.7797    0.2950   -0.8477 C   0  0  1  0  0  0  0  0  0  0  0  0
    0.5339   -0.4965   -0.3748 C   0  0  1  0  0  0  0  0  0  0  0  0
   -3.8323   -0.4061    0.1014 C   0  0  2  0  0  0  0  0  0  0  0  0
    1.9456   -0.0760    0.1983 C   0  0  2  0  0  0  0  0  0  0  0  0
   -2.3820   -0.0903    0.5208 C   0  0  2  0  0  0  0  0  0  0  0  0
    5.7003    1.2190    0.9953 O   0  0  0  0  0  0  0  0  0  0  0  0
   -3.9621   -1.7148   -0.4361 O   0  0  0  0  0  0  0  0  0  0  0  0
    1.9702   -1.2641    2.0437 H   0  0  0  0  0  0  0  0  0  0  0  0
    1.0379    0.2397    2.1806 H   0  0  0  0  0  0  0  0  0  0  0  0
    2.7939    0.2649    2.2279 H   0  0  0  0  0  0  0  0  0  0  0  0
   -1.4905    1.3394    1.9749 H   0  0  0  0  0  0  0  0  0  0  0  0
   -3.1161    0.8279    2.3787 H   0  0  0  0  0  0  0  0  0  0  0  0
   -2.8625    2.0093    1.0957 H   0  0  0  0  0  0  0  0  0  0  0  0
    2.0737    2.7868   -1.8032 H   0  0  0  0  0  0  0  0  0  0  0  0
    1.1292    3.0561   -0.3408 H   0  0  0  0  0  0  0  0  0  0  0  0
    0.6235    0.9941   -2.5427 H   0  0  0  0  0  0  0  0  0  0  0  0
   -0.3767    2.3666   -2.0699 H   0  0  0  0  0  0  0  0  0  0  0  0
   -2.7557    1.2123   -2.5643 H   0  0  0  0  0  0  0  0  0  0  0  0
   -2.6845    2.2590   -1.1454 H   0  0  0  0  0  0  0  0  0  0  0  0
   -4.7300    0.2247   -1.8101 H   0  0  0  0  0  0  0  0  0  0  0  0
   -4.7495    1.4707   -0.5528 H   0  0  0  0  0  0  0  0  0  0  0  0
    4.6304   -1.2224    1.0925 H   0  0  0  0  0  0  0  0  0  0  0  0
    5.2179   -0.9802   -0.5681 H   0  0  0  0  0  0  0  0  0  0  0  0
   -0.6192   -2.3245   -0.4218 H   0  0  0  0  0  0  0  0  0  0  0  0
    0.3842   -2.2524    0.9832 H   0  0  0  0  0  0  0  0  0  0  0  0
    2.8386   -2.0526   -0.2096 H   0  0  0  0  0  0  0  0  0  0  0  0
    3.0882   -0.8692   -1.4785 H   0  0  0  0  0  0  0  0  0  0  0  0
   -1.1920   -0.9131    2.1575 H   0  0  0  0  0  0  0  0  0  0  0  0
   -2.1458   -2.1084    1.3341 H   0  0  0  0  0  0  0  0  0  0  0  0
    4.0103    2.7622   -0.2439 H   0  0  0  0  0  0  0  0  0  0  0  0
   -0.3399    1.3575    0.2924 H   0  0  0  0  0  0  0  0  0  0  0  0
   -1.7474   -0.5846   -1.5143 H   0  0  0  0  0  0  0  0  0  0  0  0
    0.7389   -0.9309   -1.3667 H   0  0  0  0  0  0  0  0  0  0  0  0
   -4.5361   -0.3369    0.9373 H   0  0  0  0  0  0  0  0  0  0  0  0
   -3.5083   -1.7506   -1.2962 H   0  0  0  0  0  0  0  0  0  0  0  0
  1 22  1  0  0  0  0
  1 23  1  0  0  0  0
  1 24  1  0  0  0  0
  2 25  1  0  0  0  0
  2 26  1  0  0  0  0
  2 27  1  0  0  0  0
  3  4  1  0  0  0  0
  3 12  1  0  0  0  0
  3 28  1  0  0  0  0
  3 29  1  0  0  0  0
  4 14  1  0  0  0  0
  4 30  1  0  0  0  0
  4 31  1  0  0  0  0
  5  6  1  0  0  0  0
  5 15  1  0  0  0  0
  5 32  1  0  0  0  0
  5 33  1  0  0  0  0
  6 17  1  0  0  0  0
  6 34  1  0  0  0  0
  6 35  1  0  0  0  0
  7  9  1  0  0  0  0
  7 13  1  0  0  0  0
  7 36  1  0  0  0  0
  7 37  1  0  0  0  0
  8 10  1  0  0  0  0
  8 16  1  0  0  0  0
  8 38  1  0  0  0  0
  8 39  1  0  0  0  0
  9 18  1  0  0  0  0
  9 40  1  0  0  0  0
  9 41  1  0  0  0  0
 10 19  1  0  0  0  0
 10 42  1  0  0  0  0
 10 43  1  0  0  0  0
 11 12  2  0  0  0  0
 11 13  1  0  0  0  0
 11 44  1  0  0  0  0
 12 18  1  0  0  0  0
 13 20  2  0  0  0  0
 14 15  1  0  0  0  0
 14 16  1  0  0  0  0
 14 45  1  1  0  0  0
 15 19  1  0  0  0  0
 15 46  1  6  0  0  0
 16 18  1  0  0  0  0
 16 47  1  6  0  0  0
 17 19  1  0  0  0  0
 17 21  1  0  0  0  0
 17 48  1  1  0  0  0
 18  1  1  1  0  0  0
 19  2  1  1  0  0  0
 21 49  1  0  0  0  0
M  END
>  <Energy>
104.648

$$$$
