
 OpenBabel07022610293D

 49 52  0  0  1  0  0  0  0  0999 V2000
    1.4514    1.3483    1.5009 C   0  0  0  0  0  0  0  0  0  0  0  0
   -2.1395    1.3217    1.3454 C   0  0  0  0  0  0  0  0  0  0  0  0
    1.6205    0.8120   -2.3489 C   0  0  0  0  0  0  0  0  0  0  0  0
    0.1167    0.5893   -2.2874 C   0  0  0  0  0  0  0  0  0  0  0  0
   -2.8279    0.3658   -1.4946 C   0  0  0  0  0  0  0  0  0  0  0  0
   -4.0429   -0.2815   -0.8357 C   0  0  0  0  0  0  0  0  0  0  0  0
    4.3287    1.2896    0.9059 C   0  0  0  0  0  0  0  0  0  0  0  0
    0.1383   -1.4100    1.0004 C   0  0  0  0  0  0  0  0  0  0  0  0
    3.3783    0.0551    0.6443 C   0  0  0  0  0  0  0  0  0  0  0  0
   -1.2234   -1.0001    1.6493 C   0  0  0  0  0  0  0  0  0  0  0  0
    3.1864    2.2518   -1.1892 C   0  0  0  0  0  0  0  0  0  0  0  0
    2.2342    1.3290   -1.0543 C   0  0  0  0  0  0  0  0  0  0  0  0
    4.2286    2.3901   -0.1405 C   0  0  0  0  0  0  0  0  0  0  0  0
   -0.3070    0.3300   -0.8522 C   0  0  1  0  0  0  0  0  0  0  0  0
   -1.6935   -0.2559   -0.6970 C   0  0  1  0  0  0  0  0  0  0  0  0
    0.7898   -0.4968   -0.0887 C   0  0  1  0  0  0  0  0  0  0  0  0
   -3.6707   -0.4798    0.6516 C   0  0  2  0  0  0  0  0  0  0  0  0
    1.9557    0.5389    0.2699 C   0  0  2  0  0  0  0  0  0  0  0  0
   -2.1574   -0.1281    0.7707 C   0  0  2  0  0  0  0  0  0  0  0  0
    4.9904    3.3437   -0.1710 O   0  0  0  0  0  0  0  0  0  0  0  0
   -3.9678   -1.8081    1.0413 O   0  0  0  0  0  0  0  0  0  0  0  0
    0.7839    0.7421    2.1220 H   0  0  0  0  0  0  0  0  0  0  0  0
    2.2230    1.6107    2.2257 H   0  0  0  0  0  0  0  0  0  0  0  0
    0.9443    2.2666    1.2197 H   0  0  0  0  0  0  0  0  0  0  0  0
   -1.1362    1.7069    1.5084 H   0  0  0  0  0  0  0  0  0  0  0  0
   -2.6296    1.3470    2.3270 H   0  0  0  0  0  0  0  0  0  0  0  0
   -2.6614    2.0398    0.7060 H   0  0  0  0  0  0  0  0  0  0  0  0
    1.8545    1.4455   -3.2097 H   0  0  0  0  0  0  0  0  0  0  0  0
    2.0994   -0.1551   -2.5679 H   0  0  0  0  0  0  0  0  0  0  0  0
   -0.1612   -0.2477   -2.9438 H   0  0  0  0  0  0  0  0  0  0  0  0
   -0.4011    1.4755   -2.6707 H   0  0  0  0  0  0  0  0  0  0  0  0
   -2.8561    1.4553   -1.3966 H   0  0  0  0  0  0  0  0  0  0  0  0
   -2.7725    0.1303   -2.5620 H   0  0  0  0  0  0  0  0  0  0  0  0
   -4.9339    0.3416   -0.9574 H   0  0  0  0  0  0  0  0  0  0  0  0
   -4.2505   -1.2479   -1.3121 H   0  0  0  0  0  0  0  0  0  0  0  0
    5.3728    0.9578    0.9450 H   0  0  0  0  0  0  0  0  0  0  0  0
    4.1166    1.7715    1.8600 H   0  0  0  0  0  0  0  0  0  0  0  0
    0.8648   -1.6811    1.7744 H   0  0  0  0  0  0  0  0  0  0  0  0
   -0.0818   -2.3625    0.4899 H   0  0  0  0  0  0  0  0  0  0  0  0
    3.3876   -0.5831    1.5296 H   0  0  0  0  0  0  0  0  0  0  0  0
    3.8198   -0.5316   -0.1779 H   0  0  0  0  0  0  0  0  0  0  0  0
   -1.0109   -0.4882    2.5957 H   0  0  0  0  0  0  0  0  0  0  0  0
   -1.7338   -1.9226    1.9497 H   0  0  0  0  0  0  0  0  0  0  0  0
    3.3947    2.7675   -2.1111 H   0  0  0  0  0  0  0  0  0  0  0  0
   -0.3478    1.3324   -0.4137 H   0  0  0  0  0  0  0  0  0  0  0  0
   -1.6559   -1.3185   -0.9838 H   0  0  0  0  0  0  0  0  0  0  0  0
    1.2343   -1.2254   -0.7864 H   0  0  0  0  0  0  0  0  0  0  0  0
   -4.2877    0.1849    1.2690 H   0  0  0  0  0  0  0  0  0  0  0  0
   -4.9380   -1.8894    1.0357 H   0  0  0  0  0  0  0  0  0  0  0  0
  1 22  1  0  0  0  0
  1 23  1  0  0  0  0
  1 24  1  0  0  0  0
  2 25  1  0  0  0  0
  2 26  1  0  0  0  0
  2 27  1  0  0  0  0
  3  4  1  0  0  0  0
  3 12  1  0  0  0  0
  3 28  1  0  0  0  0
  3 29  1  0  0  0  0
  4 14  1  0  0  0  0
  4 30  1  0  0  0  0
  4 31  1  0  0  0  0
  5  6  1  0  0  0  0
  5 15  1  0  0  0  0
  5 32  1  0  0  0  0
  5 33  1  0  0  0  0
  6 17  1  0  0  0  0
  6 34  1  0  0  0  0
  6 35  1  0  0  0  0
  7  9  1  0  0  0  0
  7 13  1  0  0  0  0
  7 36  1  0  0  0  0
  7 37  1  0  0  0  0
  8 10  1  0  0  0  0
  8 16  1  0  0  0  0
  8 38  1  0  0  0  0
  8 39  1  0  0  0  0
  9 18  1  0  0  0  0
  9 40  1  0  0  0  0
  9 41  1  0  0  0  0
 10 19  1  0  0  0  0
 10 42  1  0  0  0  0
 10 43  1  0  0  0  0
 11 12  2  0  0  0  0
 11 13  1  0  0  0  0
 11 44  1  0  0  0  0
 12 18  1  0  0  0  0
 13 20  2  0  0  0  0
 14 15  1  0  0  0  0
 14 16  1  0  0  0  0
 14 45  1  1  0  0  0
 15 19  1  0  0  0  0
 15 46  1  6  0  0  0
 16 18  1  0  0  0  0
 16 47  1  6  0  0  0
 17 19  1  0  0  0  0
 17 21  1  0  0  0  0
 17 48  1  1  0  0  0
 18  1  1  1  0  0  0
 19  2  1  1  0  0  0
 21 49  1  0  0  0  0
M  END
>  <Energy>
120.811

$$$$
