
 OpenBabel07022610293D

 51 54  0  0  1  0  0  0  0  0999 V2000
    2.3740   -2.3064   -0.1300 C   0  0  0  0  0  0  0  0  0  0  0  0
   -2.8130   -2.3797    0.0507 C   0  0  0  0  0  0  0  0  0  0  0  0
    1.5735    1.0470    1.5811 C   0  0  0  0  0  0  0  0  0  0  0  0
    0.0723    0.7874    1.6694 C   0  0  0  0  0  0  0  0  0  0  0  0
   -2.9764    0.3978    1.1963 C   0  0  0  0  0  0  0  0  0  0  0  0
   -4.2357    0.3471    0.3055 C   0  0  0  0  0  0  0  0  0  0  0  0
    4.2713    0.0166   -1.0610 C   0  0  0  0  0  0  0  0  0  0  0  0
   -0.1471   -1.6571   -1.4154 C   0  0  0  0  0  0  0  0  0  0  0  0
    2.7748   -0.0872   -1.2787 C   0  0  0  0  0  0  0  0  0  0  0  0
   -1.5758   -1.3154   -1.8652 C   0  0  0  0  0  0  0  0  0  0  0  0
    3.8732    0.0186    1.4621 C   0  0  0  0  0  0  0  0  0  0  0  0
    2.3639   -0.2231    1.2659 C   0  0  2  0  0  0  0  0  0  0  0  0
    4.5163    0.6797    0.2681 C   0  0  0  0  0  0  0  0  0  0  0  0
   -0.4548   -0.3419    0.7651 C   0  0  1  0  0  0  0  0  0  0  0  0
   -1.8517    0.0263    0.2336 C   0  0  1  0  0  0  0  0  0  0  0  0
    0.4567   -0.5864   -0.4689 C   0  0  1  0  0  0  0  0  0  0  0  0
   -3.7947   -0.2969   -1.0253 C   0  0  1  0  0  0  0  0  0  0  0  0
    1.9862   -0.8081   -0.1367 C   0  0  2  0  0  0  0  0  0  0  0  0
   -2.4953   -1.0455   -0.6672 C   0  0  2  0  0  0  0  0  0  0  0  0
    5.2710    1.6395    0.3852 O   0  0  0  0  0  0  0  0  0  0  0  0
   -4.7922   -1.1359   -1.5700 O   0  0  0  0  0  0  0  0  0  0  0  0
    2.2787   -2.7591   -1.1224 H   0  0  0  0  0  0  0  0  0  0  0  0
    1.7425   -2.8707    0.5651 H   0  0  0  0  0  0  0  0  0  0  0  0
    3.4121   -2.4606    0.1812 H   0  0  0  0  0  0  0  0  0  0  0  0
   -1.9246   -2.8344    0.4971 H   0  0  0  0  0  0  0  0  0  0  0  0
   -3.5492   -2.2613    0.8524 H   0  0  0  0  0  0  0  0  0  0  0  0
   -3.2323   -3.1069   -0.6546 H   0  0  0  0  0  0  0  0  0  0  0  0
    1.9015    1.4757    2.5365 H   0  0  0  0  0  0  0  0  0  0  0  0
    1.7685    1.8120    0.8200 H   0  0  0  0  0  0  0  0  0  0  0  0
   -0.4362    1.7361    1.4593 H   0  0  0  0  0  0  0  0  0  0  0  0
   -0.1904    0.5395    2.7068 H   0  0  0  0  0  0  0  0  0  0  0  0
   -3.0557   -0.3190    2.0203 H   0  0  0  0  0  0  0  0  0  0  0  0
   -2.8419    1.3923    1.6327 H   0  0  0  0  0  0  0  0  0  0  0  0
   -5.0412   -0.2157    0.7931 H   0  0  0  0  0  0  0  0  0  0  0  0
   -4.6172    1.3567    0.1200 H   0  0  0  0  0  0  0  0  0  0  0  0
    4.7602   -0.9615   -1.0692 H   0  0  0  0  0  0  0  0  0  0  0  0
    4.7192    0.6246   -1.8530 H   0  0  0  0  0  0  0  0  0  0  0  0
    0.4757   -1.7593   -2.3114 H   0  0  0  0  0  0  0  0  0  0  0  0
   -0.1542   -2.6356   -0.9219 H   0  0  0  0  0  0  0  0  0  0  0  0
    2.3940    0.9377   -1.3908 H   0  0  0  0  0  0  0  0  0  0  0  0
    2.5885   -0.5860   -2.2374 H   0  0  0  0  0  0  0  0  0  0  0  0
   -1.9727   -2.1303   -2.4827 H   0  0  0  0  0  0  0  0  0  0  0  0
   -1.5310   -0.4315   -2.5138 H   0  0  0  0  0  0  0  0  0  0  0  0
    4.3971   -0.9320    1.6231 H   0  0  0  0  0  0  0  0  0  0  0  0
    4.0579    0.6350    2.3470 H   0  0  0  0  0  0  0  0  0  0  0  0
    2.0749   -0.9566    2.0338 H   0  0  0  0  0  0  0  0  0  0  0  0
   -0.5033   -1.2624    1.3593 H   0  0  0  0  0  0  0  0  0  0  0  0
   -1.6972    0.9279   -0.3853 H   0  0  0  0  0  0  0  0  0  0  0  0
    0.3995    0.3548   -1.0377 H   0  0  0  0  0  0  0  0  0  0  0  0
   -3.5854    0.4941   -1.7584 H   0  0  0  0  0  0  0  0  0  0  0  0
   -5.5304   -0.5640   -1.8427 H   0  0  0  0  0  0  0  0  0  0  0  0
  1 22  1  0  0  0  0
  1 23  1  0  0  0  0
  1 24  1  0  0  0  0
  2 25  1  0  0  0  0
  2 26  1  0  0  0  0
  2 27  1  0  0  0  0
  3  4  1  0  0  0  0
  3 12  1  0  0  0  0
  3 28  1  0  0  0  0
  3 29  1  0  0  0  0
  4 14  1  0  0  0  0
  4 30  1  0  0  0  0
  4 31  1  0  0  0  0
  5  6  1  0  0  0  0
  5 15  1  0  0  0  0
  5 32  1  0  0  0  0
  5 33  1  0  0  0  0
  6 17  1  0  0  0  0
  6 34  1  0  0  0  0
  6 35  1  0  0  0  0
  7  9  1  0  0  0  0
  7 13  1  0  0  0  0
  7 36  1  0  0  0  0
  7 37  1  0  0  0  0
  8 10  1  0  0  0  0
  8 16  1  0  0  0  0
  8 38  1  0  0  0  0
  8 39  1  0  0  0  0
  9 18  1  0  0  0  0
  9 40  1  0  0  0  0
  9 41  1  0  0  0  0
 10 19  1  0  0  0  0
 10 42  1  0  0  0  0
 10 43  1  0  0  0  0
 11 12  1  0  0  0  0
 11 13  1  0  0  0  0
 11 44  1  0  0  0  0
 11 45  1  0  0  0  0
 12 18  1  0  0  0  0
 12 46  1  1  0  0  0
 13 20  2  0  0  0  0
 14 15  1  0  0  0  0
 14 16  1  0  0  0  0
 14 47  1  1  0  0  0
 15 19  1  0  0  0  0
 15 48  1  6  0  0  0
 16 18  1  0  0  0  0
 16 49  1  6  0  0  0
 17 19  1  0  0  0  0
 17 21  1  0  0  0  0
 17 50  1  6  0  0  0
 18  1  1  6  0  0  0
 19  2  1  1  0  0  0
 21 51  1  0  0  0  0
M  END
>  <Energy>
82.2167

$$$$
