
 OpenBabel06152611253D

 51 54  0  0  1  0  0  0  0  0999 V2000
    1.2170   -1.2134   -1.6692 C   0  0  0  0  0  0  0  0  0  0  0  0
   -3.2562    1.3913   -0.9760 C   0  0  0  0  0  0  0  0  0  0  0  0
    1.6630   -0.3127    1.7231 C   0  0  0  0  0  0  0  0  0  0  0  0
    0.1379   -0.3166    1.6787 C   0  0  0  0  0  0  0  0  0  0  0  0
   -2.5633    1.3580    1.9122 C   0  0  0  0  0  0  0  0  0  0  0  0
   -3.3110    2.7108    1.8246 C   0  0  0  0  0  0  0  0  0  0  0  0
    3.3245    2.0032   -1.0681 C   0  0  0  0  0  0  0  0  0  0  0  0
   -0.2406    1.5560   -1.7432 C   0  0  0  0  0  0  0  0  0  0  0  0
    2.7245    0.7939   -1.7851 C   0  0  0  0  0  0  0  0  0  0  0  0
   -1.1604    2.7095   -1.3235 C   0  0  0  0  0  0  0  0  0  0  0  0
    3.8676    0.0960    0.5851 C   0  0  0  0  0  0  0  0  0  0  0  0
    2.4407   -0.4789    0.4055 C   0  0  2  0  0  0  0  0  0  0  0  0
    3.9584    1.5612    0.2245 C   0  0  0  0  0  0  0  0  0  0  0  0
   -0.5276    0.3596    0.4708 C   0  0  1  0  0  0  0  0  0  0  0  0
   -1.4383    1.5341    0.8951 C   0  0  1  0  0  0  0  0  0  0  0  0
    0.5064    0.9616   -0.5209 C   0  0  1  0  0  0  0  0  0  0  0  0
   -2.8060    3.3965    0.5327 C   0  0  1  0  0  0  0  0  0  0  0  0
    1.7036    0.0259   -0.8838 C   0  0  2  0  0  0  0  0  0  0  0  0
   -2.1693    2.2466   -0.2724 C   0  0  2  0  0  0  0  0  0  0  0  0
    4.5917    2.3592    0.9339 O   0  0  0  0  0  0  0  0  0  0  0  0
   -3.8069    4.1132   -0.1579 O   0  0  0  0  0  0  0  0  0  0  0  0
    0.6472   -1.8942   -1.0275 H   0  0  0  0  0  0  0  0  0  0  0  0
    2.0676   -1.7789   -2.0674 H   0  0  0  0  0  0  0  0  0  0  0  0
    0.5855   -0.9465   -2.5214 H   0  0  0  0  0  0  0  0  0  0  0  0
   -2.8697    0.4265   -1.3216 H   0  0  0  0  0  0  0  0  0  0  0  0
   -3.6522    1.9169   -1.8530 H   0  0  0  0  0  0  0  0  0  0  0  0
   -4.1151    1.1829   -0.3320 H   0  0  0  0  0  0  0  0  0  0  0  0
    1.9820    0.6105    2.2239 H   0  0  0  0  0  0  0  0  0  0  0  0
    1.9741   -1.1239    2.3979 H   0  0  0  0  0  0  0  0  0  0  0  0
   -0.2000    0.1492    2.6121 H   0  0  0  0  0  0  0  0  0  0  0  0
   -0.2215   -1.3525    1.7384 H   0  0  0  0  0  0  0  0  0  0  0  0
   -3.2275    0.5283    1.6453 H   0  0  0  0  0  0  0  0  0  0  0  0
   -2.1995    1.1760    2.9268 H   0  0  0  0  0  0  0  0  0  0  0  0
   -4.3970    2.5705    1.8375 H   0  0  0  0  0  0  0  0  0  0  0  0
   -3.0536    3.3354    2.6870 H   0  0  0  0  0  0  0  0  0  0  0  0
    4.0886    2.4690   -1.6992 H   0  0  0  0  0  0  0  0  0  0  0  0
    2.5765    2.7651   -0.8492 H   0  0  0  0  0  0  0  0  0  0  0  0
    0.4524    1.9621   -2.4817 H   0  0  0  0  0  0  0  0  0  0  0  0
   -0.8203    0.7774   -2.2569 H   0  0  0  0  0  0  0  0  0  0  0  0
    2.2762    1.1128   -2.7309 H   0  0  0  0  0  0  0  0  0  0  0  0
    3.5385    0.1170   -2.0795 H   0  0  0  0  0  0  0  0  0  0  0  0
   -0.5380    3.5212   -0.9275 H   0  0  0  0  0  0  0  0  0  0  0  0
   -1.6670    3.1164   -2.2075 H   0  0  0  0  0  0  0  0  0  0  0  0
    4.5753   -0.4388   -0.0596 H   0  0  0  0  0  0  0  0  0  0  0  0
    4.2175   -0.0378    1.6149 H   0  0  0  0  0  0  0  0  0  0  0  0
    2.5979   -1.5619    0.2950 H   0  0  0  0  0  0  0  0  0  0  0  0
   -1.1300   -0.4004   -0.0439 H   0  0  0  0  0  0  0  0  0  0  0  0
   -0.7524    2.2650    1.3551 H   0  0  0  0  0  0  0  0  0  0  0  0
    0.9457    1.8123    0.0146 H   0  0  0  0  0  0  0  0  0  0  0  0
   -2.0381    4.1298    0.8077 H   0  0  0  0  0  0  0  0  0  0  0  0
   -4.5851    3.5443   -0.2427 H   0  0  0  0  0  0  0  0  0  0  0  0
  1 22  1  0  0  0  0
  1 23  1  0  0  0  0
  1 24  1  0  0  0  0
  2 25  1  0  0  0  0
  2 26  1  0  0  0  0
  2 27  1  0  0  0  0
  3  4  1  0  0  0  0
  3 12  1  0  0  0  0
  3 28  1  0  0  0  0
  3 29  1  0  0  0  0
  4 14  1  0  0  0  0
  4 30  1  0  0  0  0
  4 31  1  0  0  0  0
  5  6  1  0  0  0  0
  5 15  1  0  0  0  0
  5 32  1  0  0  0  0
  5 33  1  0  0  0  0
  6 17  1  0  0  0  0
  6 34  1  0  0  0  0
  6 35  1  0  0  0  0
  7  9  1  0  0  0  0
  7 13  1  0  0  0  0
  7 36  1  0  0  0  0
  7 37  1  0  0  0  0
  8 10  1  0  0  0  0
  8 16  1  0  0  0  0
  8 38  1  0  0  0  0
  8 39  1  0  0  0  0
  9 18  1  0  0  0  0
  9 40  1  0  0  0  0
  9 41  1  0  0  0  0
 10 19  1  0  0  0  0
 10 42  1  0  0  0  0
 10 43  1  0  0  0  0
 11 12  1  0  0  0  0
 11 13  1  0  0  0  0
 11 44  1  0  0  0  0
 11 45  1  0  0  0  0
 12 18  1  0  0  0  0
 12 46  1  6  0  0  0
 13 20  2  0  0  0  0
 14 15  1  0  0  0  0
 14 16  1  0  0  0  0
 14 47  1  6  0  0  0
 15 19  1  0  0  0  0
 15 48  1  1  0  0  0
 16 18  1  0  0  0  0
 16 49  1  1  0  0  0
 17 19  1  0  0  0  0
 17 21  1  0  0  0  0
 17 50  1  1  0  0  0
 18  1  1  6  0  0  0
 19  2  1  6  0  0  0
 21 51  1  0  0  0  0
M  END
>  <Energy>
92.24

$$$$
