
 OpenBabel07022610293D

 42 42  0  0  0  0  0  0  0  0999 V2000
    1.1241    4.1106   -4.2985 C   0  0  0  0  0  0  0  0  0  0  0  0
    3.8829    0.0624   -7.8552 C   0  0  0  0  0  0  0  0  0  0  0  0
    1.9100    3.9824   -3.0054 C   0  0  0  0  0  0  0  0  0  0  0  0
    5.0973   -0.4071   -7.0745 C   0  0  0  0  0  0  0  0  0  0  0  0
    3.1404    3.0815   -3.1418 C   0  0  0  0  0  0  0  0  0  0  0  0
    5.1975    0.2455   -5.6953 C   0  0  0  0  0  0  0  0  0  0  0  0
    8.8113    1.2173    0.4815 C   0  0  0  0  0  0  0  0  0  0  0  0
    8.6922   -0.1578    0.2877 C   0  0  0  0  0  0  0  0  0  0  0  0
    8.0243    2.0972   -0.2650 C   0  0  0  0  0  0  0  0  0  0  0  0
    7.8273   -0.6514   -0.6902 C   0  0  0  0  0  0  0  0  0  0  0  0
    3.8663    2.9970   -1.8032 C   0  0  0  0  0  0  0  0  0  0  0  0
    6.4407   -0.2572   -4.9724 C   0  0  0  0  0  0  0  0  0  0  0  0
    7.1213    1.6068   -1.2233 C   0  0  0  0  0  0  0  0  0  0  0  0
    7.0623    0.2325   -1.4716 C   0  0  0  0  0  0  0  0  0  0  0  0
    6.1988    2.5890   -1.8395 C   0  0  0  0  0  0  0  0  0  0  0  0
    6.3246   -0.3528   -2.6092 C   0  0  0  0  0  0  0  0  0  0  0  0
    6.5019    3.7476   -2.0703 O   0  0  0  0  0  0  0  0  0  0  0  0
    5.7703   -1.4404   -2.5759 O   0  0  0  0  0  0  0  0  0  0  0  0
    4.9510    2.0587   -1.8370 O   0  0  0  0  0  0  0  0  0  0  0  0
    6.6038    0.3927   -3.7057 O   0  0  0  0  0  0  0  0  0  0  0  0
    0.2604    4.7671   -4.1462 H   0  0  0  0  0  0  0  0  0  0  0  0
    0.7527    3.1373   -4.6324 H   0  0  0  0  0  0  0  0  0  0  0  0
    1.7398    4.5415   -5.0937 H   0  0  0  0  0  0  0  0  0  0  0  0
    3.8505   -0.4359   -8.8299 H   0  0  0  0  0  0  0  0  0  0  0  0
    3.9198    1.1422   -8.0286 H   0  0  0  0  0  0  0  0  0  0  0  0
    2.9568   -0.1737   -7.3228 H   0  0  0  0  0  0  0  0  0  0  0  0
    1.2466    3.5826   -2.2288 H   0  0  0  0  0  0  0  0  0  0  0  0
    2.2200    4.9818   -2.6767 H   0  0  0  0  0  0  0  0  0  0  0  0
    6.0005   -0.1828   -7.6545 H   0  0  0  0  0  0  0  0  0  0  0  0
    5.0507   -1.4971   -6.9632 H   0  0  0  0  0  0  0  0  0  0  0  0
    3.8198    3.4686   -3.9101 H   0  0  0  0  0  0  0  0  0  0  0  0
    2.8465    2.0771   -3.4702 H   0  0  0  0  0  0  0  0  0  0  0  0
    4.3046    0.0262   -5.0972 H   0  0  0  0  0  0  0  0  0  0  0  0
    5.2410    1.3377   -5.7887 H   0  0  0  0  0  0  0  0  0  0  0  0
    9.5045    1.6040    1.2248 H   0  0  0  0  0  0  0  0  0  0  0  0
    9.2876   -0.8461    0.8851 H   0  0  0  0  0  0  0  0  0  0  0  0
    8.1013    3.1684   -0.0830 H   0  0  0  0  0  0  0  0  0  0  0  0
    7.7666   -1.7253   -0.8603 H   0  0  0  0  0  0  0  0  0  0  0  0
    3.1758    2.6285   -1.0364 H   0  0  0  0  0  0  0  0  0  0  0  0
    4.1969    3.9895   -1.4750 H   0  0  0  0  0  0  0  0  0  0  0  0
    7.3327   -0.0089   -5.5591 H   0  0  0  0  0  0  0  0  0  0  0  0
    6.4249   -1.3493   -4.8725 H   0  0  0  0  0  0  0  0  0  0  0  0
  1  3  1  0  0  0  0
  1 21  1  0  0  0  0
  1 22  1  0  0  0  0
  1 23  1  0  0  0  0
  2  4  1  0  0  0  0
  2 24  1  0  0  0  0
  2 25  1  0  0  0  0
  2 26  1  0  0  0  0
  3  5  1  0  0  0  0
  3 27  1  0  0  0  0
  3 28  1  0  0  0  0
  4  6  1  0  0  0  0
  4 29  1  0  0  0  0
  4 30  1  0  0  0  0
  5 11  1  0  0  0  0
  5 31  1  0  0  0  0
  5 32  1  0  0  0  0
  6 12  1  0  0  0  0
  6 33  1  0  0  0  0
  6 34  1  0  0  0  0
  7  8  2  0  0  0  0
  7  9  1  0  0  0  0
  7 35  1  0  0  0  0
  8 10  1  0  0  0  0
  8 36  1  0  0  0  0
  9 13  2  0  0  0  0
  9 37  1  0  0  0  0
 10 14  2  0  0  0  0
 10 38  1  0  0  0  0
 11 19  1  0  0  0  0
 11 39  1  0  0  0  0
 11 40  1  0  0  0  0
 12 20  1  0  0  0  0
 12 41  1  0  0  0  0
 12 42  1  0  0  0  0
 13 14  1  0  0  0  0
 13 15  1  0  0  0  0
 14 16  1  0  0  0  0
 15 17  2  0  0  0  0
 15 19  1  0  0  0  0
 16 18  2  0  0  0  0
 16 20  1  0  0  0  0
M  END
>  <Energy>
22.4125

$$$$
