
 OpenBabel06152611253D

 42 42  0  0  0  0  0  0  0  0999 V2000
    1.1564   -2.3658    5.3366 C   0  0  0  0  0  0  0  0  0  0  0  0
    3.6346    2.7149    7.1175 C   0  0  0  0  0  0  0  0  0  0  0  0
    1.9776   -2.7267    4.1109 C   0  0  0  0  0  0  0  0  0  0  0  0
    4.9249    2.8341    6.3269 C   0  0  0  0  0  0  0  0  0  0  0  0
    3.2061   -1.8304    3.9277 C   0  0  0  0  0  0  0  0  0  0  0  0
    5.0730    1.7372    5.2719 C   0  0  0  0  0  0  0  0  0  0  0  0
    9.0836   -1.4149    0.1402 C   0  0  0  0  0  0  0  0  0  0  0  0
    9.0028   -0.0593   -0.1694 C   0  0  0  0  0  0  0  0  0  0  0  0
    8.2185   -1.9670    1.0892 C   0  0  0  0  0  0  0  0  0  0  0  0
    8.0892    0.7539    0.5041 C   0  0  0  0  0  0  0  0  0  0  0  0
    3.9683   -2.2503    2.6737 C   0  0  0  0  0  0  0  0  0  0  0  0
    6.3919    1.9121    4.5296 C   0  0  0  0  0  0  0  0  0  0  0  0
    7.2728   -1.1630    1.7493 C   0  0  0  0  0  0  0  0  0  0  0  0
    7.2422    0.2112    1.4872 C   0  0  0  0  0  0  0  0  0  0  0  0
    6.3044   -1.8576    2.6295 C   0  0  0  0  0  0  0  0  0  0  0  0
    6.4488    1.1740    2.2809 C   0  0  0  0  0  0  0  0  0  0  0  0
    6.5802   -2.8506    3.2837 O   0  0  0  0  0  0  0  0  0  0  0  0
    5.9551    2.1891    1.8255 O   0  0  0  0  0  0  0  0  0  0  0  0
    5.0620   -1.3686    2.3820 O   0  0  0  0  0  0  0  0  0  0  0  0
    6.6081    0.8531    3.5886 O   0  0  0  0  0  0  0  0  0  0  0  0
    0.2958   -3.0387    5.4200 H   0  0  0  0  0  0  0  0  0  0  0  0
    0.7771   -1.3415    5.2703 H   0  0  0  0  0  0  0  0  0  0  0  0
    1.7487   -2.4608    6.2514 H   0  0  0  0  0  0  0  0  0  0  0  0
    3.5734    3.5224    7.8549 H   0  0  0  0  0  0  0  0  0  0  0  0
    3.5882    1.7625    7.6543 H   0  0  0  0  0  0  0  0  0  0  0  0
    2.7623    2.7885    6.4612 H   0  0  0  0  0  0  0  0  0  0  0  0
    1.3356   -2.6551    3.2244 H   0  0  0  0  0  0  0  0  0  0  0  0
    2.2941   -3.7735    4.1915 H   0  0  0  0  0  0  0  0  0  0  0  0
    5.7719    2.7923    7.0225 H   0  0  0  0  0  0  0  0  0  0  0  0
    4.9571    3.8173    5.8425 H   0  0  0  0  0  0  0  0  0  0  0  0
    3.8638   -1.8943    4.8028 H   0  0  0  0  0  0  0  0  0  0  0  0
    2.9052   -0.7789    3.8464 H   0  0  0  0  0  0  0  0  0  0  0  0
    4.2379    1.7672    4.5617 H   0  0  0  0  0  0  0  0  0  0  0  0
    5.0400    0.7455    5.7401 H   0  0  0  0  0  0  0  0  0  0  0  0
    9.8117   -2.0463   -0.3647 H   0  0  0  0  0  0  0  0  0  0  0  0
    9.6647    0.3693   -0.9193 H   0  0  0  0  0  0  0  0  0  0  0  0
    8.2742   -3.0336    1.3036 H   0  0  0  0  0  0  0  0  0  0  0  0
    8.0579    1.8197    0.2807 H   0  0  0  0  0  0  0  0  0  0  0  0
    3.3005   -2.1967    1.8069 H   0  0  0  0  0  0  0  0  0  0  0  0
    4.2972   -3.2932    2.7501 H   0  0  0  0  0  0  0  0  0  0  0  0
    7.2232    1.8582    5.2407 H   0  0  0  0  0  0  0  0  0  0  0  0
    6.4485    2.8980    4.0539 H   0  0  0  0  0  0  0  0  0  0  0  0
  1  3  1  0  0  0  0
  1 21  1  0  0  0  0
  1 22  1  0  0  0  0
  1 23  1  0  0  0  0
  2  4  1  0  0  0  0
  2 24  1  0  0  0  0
  2 25  1  0  0  0  0
  2 26  1  0  0  0  0
  3  5  1  0  0  0  0
  3 27  1  0  0  0  0
  3 28  1  0  0  0  0
  4  6  1  0  0  0  0
  4 29  1  0  0  0  0
  4 30  1  0  0  0  0
  5 11  1  0  0  0  0
  5 31  1  0  0  0  0
  5 32  1  0  0  0  0
  6 12  1  0  0  0  0
  6 33  1  0  0  0  0
  6 34  1  0  0  0  0
  7  8  2  0  0  0  0
  7  9  1  0  0  0  0
  7 35  1  0  0  0  0
  8 10  1  0  0  0  0
  8 36  1  0  0  0  0
  9 13  2  0  0  0  0
  9 37  1  0  0  0  0
 10 14  2  0  0  0  0
 10 38  1  0  0  0  0
 11 19  1  0  0  0  0
 11 39  1  0  0  0  0
 11 40  1  0  0  0  0
 12 20  1  0  0  0  0
 12 41  1  0  0  0  0
 12 42  1  0  0  0  0
 13 14  1  0  0  0  0
 13 15  1  0  0  0  0
 14 16  1  0  0  0  0
 15 17  2  0  0  0  0
 15 19  1  0  0  0  0
 16 18  2  0  0  0  0
 16 20  1  0  0  0  0
M  END
>  <Energy>
22.046

$$$$
