
     RDKit          3D

 23 24  0  0  0  0  0  0  0  0999 V2000
   -7.6530   -5.1250   24.3950 C   0  0  0  0  0  0  0  0  0  0  0  0
   -6.4560   -4.2240   24.4950 C   0  0  0  0  0  0  0  0  0  0  0  0
   -6.6530   -2.9680   23.7350 C   0  0  0  0  0  0  0  0  0  0  0  0
   -5.3430   -2.2170   23.5800 C   0  0  2  0  0  0  0  0  0  0  0  0
   -5.6220   -0.7530   23.2250 C   0  0  0  0  0  0  0  0  0  0  0  0
   -4.5180   -2.8640   22.6240 O   0  0  0  0  0  0  0  0  0  0  0  0
   -3.2220   -2.7530   22.7800 C   0  0  2  0  0  0  0  0  0  0  0  0
   -2.7470   -2.2070   23.7550 O   0  0  0  0  0  0  0  0  0  0  0  0
   -2.3850   -3.2060   21.7030 C   0  0  2  0  0  0  0  0  0  0  0  0
   -1.0260   -3.0230   21.7980 C   0  0  0  0  0  0  0  0  0  0  0  0
   -0.5410   -2.4810   22.9190 O   0  0  0  0  0  0  0  0  0  0  0  0
   -0.1420   -3.3920   20.8250 C   0  0  0  0  0  0  0  0  0  0  0  0
   -0.6040   -3.9410   19.6840 C   0  0  0  0  0  0  0  0  0  0  0  0
    0.2740   -4.2990   18.7470 O   0  0  0  0  0  0  0  0  0  0  0  0
   -1.9420   -4.1200   19.5320 C   0  0  0  0  0  0  0  0  0  0  0  0
   -2.8540   -3.7880   20.4960 C   0  0  0  0  0  0  0  0  0  0  0  0
   -4.1700   -4.0250   20.1890 C   0  0  0  0  0  0  0  0  0  0  0  0
   -4.5920   -5.3680   20.6670 C   0  0  0  0  0  0  0  0  0  0  0  0
   -6.0310   -5.6040   20.5150 C   0  0  0  0  0  0  0  0  0  0  0  0
   -6.4970   -6.8980   21.1750 C   0  0  0  0  0  0  0  0  0  0  0  0
   -6.7970   -6.7690   22.7040 C   0  0  0  0  0  0  0  0  0  0  0  0
   -7.8610   -5.7620   23.0240 C   0  0  1  0  0  0  0  0  0  0  0  0
   -9.0680   -6.4300   22.9870 O   0  0  0  0  0  0  0  0  0  0  0  0
  2  1  1  0
  3  2  1  0
  4  3  1  0
  4  5  1  6
  6  4  1  0
  7  6  1  0
  7  8  1  6
  9  7  1  0
  9 10  1  6
 11 10  1  0
 12 10  1  0
 13 12  1  0
 14 13  1  0
 15 13  1  0
 16 15  1  0
 16  9  1  0
 17 16  1  0
 18 17  1  0
 19 18  1  0
 20 19  1  0
 21 20  1  0
 22 21  1  0
 22  1  1  0
 22 23  1  1
M  END
$$$$
