
     RDKit          3D

 20 23  0  0  0  0  0  0  0  0999 V2000
   -7.5870   -4.2900   15.6070 C   0  0  0  0  0  0  0  0  0  0  0  0
   -6.7720   -4.0810   16.7240 C   0  0  0  0  0  0  0  0  0  0  0  0
   -5.4180   -4.2170   16.6430 C   0  0  0  0  0  0  0  0  0  0  0  0
   -4.5770   -4.0100   17.7520 O   0  0  0  0  0  0  0  0  0  0  0  0
   -4.7940   -4.5800   15.4310 C   0  0  0  0  0  0  0  0  0  0  0  0
   -5.6090   -4.7840   14.3130 C   0  0  2  0  0  0  0  0  0  0  0  0
   -4.8610   -5.0870   13.0210 C   0  0  0  0  0  0  0  0  0  0  0  0
   -5.7660   -5.5340   11.8910 C   0  0  0  0  0  0  0  0  0  0  0  0
   -7.0270   -4.6690   11.8650 C   0  0  2  0  0  0  0  0  0  0  0  0
   -7.8390   -4.8850   13.1400 C   0  0  1  0  0  0  0  0  0  0  0  0
   -7.0010   -4.6540   14.3540 C   0  0  0  0  0  0  0  0  0  0  0  0
   -9.1420   -4.0740   13.0440 C   0  0  0  0  0  0  0  0  0  0  0  0
   -9.9600   -4.6070   11.8400 C   0  0  0  0  0  0  0  0  0  0  0  0
   -9.1520   -4.3830   10.5580 C   0  0  1  0  0  0  0  0  0  0  0  0
   -7.8140   -5.1540   10.6880 C   0  0  1  0  0  0  0  0  0  0  0  0
   -7.2160   -4.9030    9.3000 C   0  0  0  0  0  0  0  0  0  0  0  0
   -8.4190   -5.2950    8.3820 C   0  0  0  0  0  0  0  0  0  0  0  0
   -9.6670   -5.0840    9.2930 C   0  0  2  0  0  0  0  0  0  0  0  0
  -10.7490   -4.4360    8.6390 O   0  0  0  0  0  0  0  0  0  0  0  0
   -8.9850   -2.9330   10.1670 C   0  0  0  0  0  0  0  0  0  0  0  0
  2  1  1  0
  3  2  1  0
  4  3  1  0
  5  3  1  0
  6  5  1  6
  7  6  1  0
  8  7  1  0
  9  8  1  1
 10  9  1  0
 11 10  1  0
 11  6  1  0
 11  1  1  0
 10 12  1  6
 13 12  1  0
 14 13  1  0
 15 14  1  0
 15  9  1  0
 15 16  1  6
 17 16  1  0
 18 17  1  0
 18 14  1  0
 18 19  1  6
 14 20  1  6
M  END
$$$$
