242862
  -OEChem-06012615433D

 48 51  0     1  0  0  0  0  0999 V2000
   -5.0574    1.5264   -0.1261 O   0  0  0  0  0  0  0  0  0  0  0  0
   -5.2441   -1.0711   -0.9254 O   0  0  0  0  0  0  0  0  0  0  0  0
    5.7818   -0.2670   -0.4309 O   0  0  0  0  0  0  0  0  0  0  0  0
   -2.6868    0.7706   -0.0897 C   0  0  1  0  0  0  0  0  0  0  0  0
   -2.0902   -0.5334    0.4794 C   0  0  2  0  0  0  0  0  0  0  0  0
   -0.6360   -0.7350    0.0540 C   0  0  1  0  0  0  0  0  0  0  0  0
    0.2147    0.4438    0.6173 C   0  0  2  0  0  0  0  0  0  0  0  0
   -4.1255    0.6377    0.4550 C   0  0  2  0  0  0  0  0  0  0  0  0
   -1.8897    1.9479    0.4885 C   0  0  0  0  0  0  0  0  0  0  0  0
   -3.1309   -1.5925    0.1201 C   0  0  0  0  0  0  0  0  0  0  0  0
   -4.4802   -0.8538    0.2517 C   0  0  2  0  0  0  0  0  0  0  0  0
   -0.3806    1.8167    0.2035 C   0  0  0  0  0  0  0  0  0  0  0  0
   -0.0527   -2.0556    0.5601 C   0  0  0  0  0  0  0  0  0  0  0  0
   -2.6814    0.8672   -1.6354 C   0  0  0  0  0  0  0  0  0  0  0  0
    1.6961    0.2586    0.2995 C   0  0  0  0  0  0  0  0  0  0  0  0
    1.3461   -2.2578   -0.0149 C   0  0  0  0  0  0  0  0  0  0  0  0
    2.2196   -1.0285    0.0471 C   0  0  0  0  0  0  0  0  0  0  0  0
    2.5899    1.3436    0.3376 C   0  0  0  0  0  0  0  0  0  0  0  0
    3.5930   -1.1884   -0.2085 C   0  0  0  0  0  0  0  0  0  0  0  0
    3.9533    1.1694    0.0905 C   0  0  0  0  0  0  0  0  0  0  0  0
    4.4546   -0.0956   -0.1870 C   0  0  0  0  0  0  0  0  0  0  0  0
    6.6067    0.8967   -0.3864 C   0  0  0  0  0  0  0  0  0  0  0  0
   -2.0924   -0.4697    1.5808 H   0  0  0  0  0  0  0  0  0  0  0  0
   -0.5727   -0.7446   -1.0419 H   0  0  0  0  0  0  0  0  0  0  0  0
    0.1536    0.4013    1.7160 H   0  0  0  0  0  0  0  0  0  0  0  0
   -4.1137    0.8423    1.5342 H   0  0  0  0  0  0  0  0  0  0  0  0
   -2.0308    1.9972    1.5762 H   0  0  0  0  0  0  0  0  0  0  0  0
   -2.2589    2.8996    0.0877 H   0  0  0  0  0  0  0  0  0  0  0  0
   -2.9756   -1.9865   -0.8907 H   0  0  0  0  0  0  0  0  0  0  0  0
   -3.0848   -2.4388    0.8140 H   0  0  0  0  0  0  0  0  0  0  0  0
   -5.0620   -1.2231    1.1031 H   0  0  0  0  0  0  0  0  0  0  0  0
   -0.1821    2.0022   -0.8589 H   0  0  0  0  0  0  0  0  0  0  0  0
    0.1186    2.6250    0.7504 H   0  0  0  0  0  0  0  0  0  0  0  0
   -0.6803   -2.9051    0.2688 H   0  0  0  0  0  0  0  0  0  0  0  0
   -0.0091   -2.0520    1.6569 H   0  0  0  0  0  0  0  0  0  0  0  0
   -1.6726    0.8710   -2.0566 H   0  0  0  0  0  0  0  0  0  0  0  0
   -3.2155    0.0400   -2.1108 H   0  0  0  0  0  0  0  0  0  0  0  0
   -3.1653    1.7946   -1.9632 H   0  0  0  0  0  0  0  0  0  0  0  0
    1.2596   -2.5554   -1.0678 H   0  0  0  0  0  0  0  0  0  0  0  0
    1.8286   -3.0838    0.5216 H   0  0  0  0  0  0  0  0  0  0  0  0
   -5.9370    1.2895    0.2139 H   0  0  0  0  0  0  0  0  0  0  0  0
   -5.3971   -2.0284   -1.0015 H   0  0  0  0  0  0  0  0  0  0  0  0
    2.2448    2.3470    0.5686 H   0  0  0  0  0  0  0  0  0  0  0  0
    3.9913   -2.1778   -0.4244 H   0  0  0  0  0  0  0  0  0  0  0  0
    4.5643    2.0646    0.1356 H   0  0  0  0  0  0  0  0  0  0  0  0
    7.6304    0.5760   -0.6053 H   0  0  0  0  0  0  0  0  0  0  0  0
    6.6181    1.3434    0.6136 H   0  0  0  0  0  0  0  0  0  0  0  0
    6.3252    1.6191   -1.1601 H   0  0  0  0  0  0  0  0  0  0  0  0
  1  8  1  0  0  0  0
  1 41  1  0  0  0  0
  2 11  1  0  0  0  0
  2 42  1  0  0  0  0
  3 21  1  0  0  0  0
  3 22  1  0  0  0  0
  4  5  1  0  0  0  0
  4  8  1  0  0  0  0
  4  9  1  0  0  0  0
  4 14  1  0  0  0  0
  5  6  1  0  0  0  0
  5 10  1  0  0  0  0
  5 23  1  0  0  0  0
  6  7  1  0  0  0  0
  6 13  1  0  0  0  0
  6 24  1  0  0  0  0
  7 12  1  0  0  0  0
  7 15  1  0  0  0  0
  7 25  1  0  0  0  0
  8 11  1  0  0  0  0
  8 26  1  0  0  0  0
  9 12  1  0  0  0  0
  9 27  1  0  0  0  0
  9 28  1  0  0  0  0
 10 11  1  0  0  0  0
 10 29  1  0  0  0  0
 10 30  1  0  0  0  0
 11 31  1  0  0  0  0
 12 32  1  0  0  0  0
 12 33  1  0  0  0  0
 13 16  1  0  0  0  0
 13 34  1  0  0  0  0
 13 35  1  0  0  0  0
 14 36  1  0  0  0  0
 14 37  1  0  0  0  0
 14 38  1  0  0  0  0
 15 17  2  0  0  0  0
 15 18  1  0  0  0  0
 16 17  1  0  0  0  0
 16 39  1  0  0  0  0
 16 40  1  0  0  0  0
 17 19  1  0  0  0  0
 18 20  2  0  0  0  0
 18 43  1  0  0  0  0
 19 21  2  0  0  0  0
 19 44  1  0  0  0  0
 20 21  1  0  0  0  0
 20 45  1  0  0  0  0
 22 46  1  0  0  0  0
 22 47  1  0  0  0  0
 22 48  1  0  0  0  0
M  END
> <PUBCHEM_COMPOUND_CID>
242862

> <PUBCHEM_CONFORMER_RMSD>
0.6

> <PUBCHEM_CONFORMER_DIVERSEORDER>
1

> <PUBCHEM_MMFF94_PARTIAL_CHARGES>
19
1 -0.68
11 0.28
15 -0.14
16 0.14
17 -0.14
18 -0.15
19 -0.15
2 -0.68
20 -0.15
21 0.08
22 0.28
3 -0.36
41 0.4
42 0.4
43 0.15
44 0.15
45 0.15
7 0.14
8 0.28

> <PUBCHEM_EFFECTIVE_ROTOR_COUNT>
2.4

> <PUBCHEM_PHARMACOPHORE_FEATURES>
9
1 1 acceptor
1 1 donor
1 2 acceptor
1 2 donor
1 3 acceptor
5 4 5 8 10 11 rings
6 15 17 18 19 20 21 rings
6 4 5 6 7 9 12 rings
6 6 7 13 15 16 17 rings

> <PUBCHEM_HEAVY_ATOM_COUNT>
22

> <PUBCHEM_ATOM_DEF_STEREO_COUNT>
6

> <PUBCHEM_ATOM_UDEF_STEREO_COUNT>
0

> <PUBCHEM_BOND_DEF_STEREO_COUNT>
0

> <PUBCHEM_BOND_UDEF_STEREO_COUNT>
0

> <PUBCHEM_ISOTOPIC_ATOM_COUNT>
0

> <PUBCHEM_COMPONENT_COUNT>
1

> <PUBCHEM_CACTVS_TAUTO_COUNT>
1

> <PUBCHEM_CONFORMER_ID>
0003B4AE00000001

> <PUBCHEM_MMFF94_ENERGY>
89.9395

> <PUBCHEM_FEATURE_SELFOVERLAP>
45.78

> <PUBCHEM_SHAPE_FINGERPRINT>
10411042 1 17761216913461020675
10498660 4 18335135362804182861
10616163 171 18413672405014271551
11578080 2 17242723187367255639
12011746 2 18408884061591691311
12236239 1 17561085800037323096
12403259 415 18412257372193584240
12403814 3 17675923179925676269
12670546 56 16298657309770552520
12788726 201 17488181479072795049
128620 24 18260831483743039454
13224815 77 18411131424698826547
13288520 33 18343866645428958845
13402501 40 18411139164578105528
13862211 1 18411978070507118546
14787075 74 18410009970178249643
14790565 3 18411145744231126384
15099037 51 18411421730740142914
15183329 4 18338808823696823630
15196674 1 18411138013168174066
15788980 27 14764349327517657546
16945 1 18194114118939267347
17349148 13 18407755928697383304
18186145 218 18408879629380581544
18681886 176 18340483461088266584
19489759 90 15864068771491674884
19591789 44 18267866262306806523
200 152 17917711300941655176
20645477 70 18271530793498442638
21267235 1 18340211885874042435
21279426 13 18339365137366512622
21709351 56 18408881853968133901
221357 26 18272369771802972304
23402539 116 18413105069782917308
23402655 69 18342738481457192218
23557571 272 18342464754606953359
23559900 14 18342734156768621080
2871803 45 18409725162354318563
3004659 81 18334018251587422390
335352 9 18411139129886005932
34934 24 18338233761397297491
350125 39 18410577288504048000
351380 180 18411702088856597042
3545911 37 18409732850171659664
4214541 1 18411983550605728897
4325135 7 18412262856787453167
4340502 62 16443350862474476418
474 4 17749396987615539326
474229 33 18410294731079339242
4990 188 18060425707198991934
5104073 3 18410293579653454611
542803 24 17603870005029352484
59755656 215 18410295804705313774
59755656 520 17385441042314941602
9709674 26 18411990130406280299

> <PUBCHEM_SHAPE_MULTIPOLES>
435.14
11.95
2.09
0.86
8.32
0.32
0.2
-1.69
2.24
-0.5
-0.14
-0.48
-0.1
0.06

> <PUBCHEM_SHAPE_SELFOVERLAP>
942.479

> <PUBCHEM_SHAPE_VOLUME>
237.2

> <PUBCHEM_COORDINATE_TYPE>
2
5
10

$$$$
