183679
  -OEChem-06012615433D

 33 34  0     1  0  0  0  0  0999 V2000
   -0.6429   -2.4096   -1.8858 Cl  0  0  0  0  0  0  0  0  0  0  0  0
   -2.0443   -3.2039    0.5102 Cl  0  0  0  0  0  0  0  0  0  0  0  0
    0.8273   -3.4910    0.3886 Cl  0  0  0  0  0  0  0  0  0  0  0  0
    4.6347    1.5373    0.1246 O   0  0  0  0  0  0  0  0  0  0  0  0
   -4.6843    2.5611   -0.5054 O   0  0  0  0  0  0  0  0  0  0  0  0
   -0.4056   -0.9622    0.5480 C   0  0  1  0  0  0  0  0  0  0  0  0
    0.9791   -0.2758    0.4317 C   0  0  0  0  0  0  0  0  0  0  0  0
   -1.5362   -0.0308    0.2695 C   0  0  0  0  0  0  0  0  0  0  0  0
   -0.5311   -2.4063   -0.0963 C   0  0  0  0  0  0  0  0  0  0  0  0
    1.4497    0.4015    1.5210 C   0  0  0  0  0  0  0  0  0  0  0  0
    1.6497   -0.3873   -0.7538 C   0  0  0  0  0  0  0  0  0  0  0  0
   -2.3835    0.3663    1.3038 C   0  0  0  0  0  0  0  0  0  0  0  0
   -1.7466    0.4431   -1.0255 C   0  0  0  0  0  0  0  0  0  0  0  0
    2.6958    1.0195    1.4162 C   0  0  0  0  0  0  0  0  0  0  0  0
    2.8959    0.2306   -0.8587 C   0  0  0  0  0  0  0  0  0  0  0  0
    3.4191    0.9340    0.2265 C   0  0  0  0  0  0  0  0  0  0  0  0
   -3.4414    1.2373    1.0433 C   0  0  0  0  0  0  0  0  0  0  0  0
   -2.8044    1.3143   -1.2861 C   0  0  0  0  0  0  0  0  0  0  0  0
   -3.6518    1.7115   -0.2517 C   0  0  0  0  0  0  0  0  0  0  0  0
    5.3205    1.4104   -1.1201 C   0  0  0  0  0  0  0  0  0  0  0  0
   -0.4646   -1.1950    1.6256 H   0  0  0  0  0  0  0  0  0  0  0  0
    0.8920    0.4744    2.4487 H   0  0  0  0  0  0  0  0  0  0  0  0
    1.2886   -0.8854   -1.6356 H   0  0  0  0  0  0  0  0  0  0  0  0
   -2.2359    0.0082    2.3192 H   0  0  0  0  0  0  0  0  0  0  0  0
   -1.0806    0.2064   -1.8469 H   0  0  0  0  0  0  0  0  0  0  0  0
    3.0978    1.5667    2.2646 H   0  0  0  0  0  0  0  0  0  0  0  0
    3.4015    0.1314   -1.8134 H   0  0  0  0  0  0  0  0  0  0  0  0
   -4.0945    1.5390    1.8578 H   0  0  0  0  0  0  0  0  0  0  0  0
   -2.9562    1.6901   -2.2943 H   0  0  0  0  0  0  0  0  0  0  0  0
   -5.1656    2.7284    0.3230 H   0  0  0  0  0  0  0  0  0  0  0  0
    5.5665    0.3659   -1.3394 H   0  0  0  0  0  0  0  0  0  0  0  0
    6.2692    1.9485   -1.0227 H   0  0  0  0  0  0  0  0  0  0  0  0
    4.7654    1.8863   -1.9356 H   0  0  0  0  0  0  0  0  0  0  0  0
  1  9  1  0  0  0  0
  2  9  1  0  0  0  0
  3  9  1  0  0  0  0
  4 16  1  0  0  0  0
  4 20  1  0  0  0  0
  5 19  1  0  0  0  0
  5 30  1  0  0  0  0
  6  7  1  0  0  0  0
  6  8  1  0  0  0  0
  6  9  1  0  0  0  0
  6 21  1  0  0  0  0
  7 10  2  0  0  0  0
  7 11  1  0  0  0  0
  8 12  2  0  0  0  0
  8 13  1  0  0  0  0
 10 14  1  0  0  0  0
 10 22  1  0  0  0  0
 11 15  2  0  0  0  0
 11 23  1  0  0  0  0
 12 17  1  0  0  0  0
 12 24  1  0  0  0  0
 13 18  2  0  0  0  0
 13 25  1  0  0  0  0
 14 16  2  0  0  0  0
 14 26  1  0  0  0  0
 15 16  1  0  0  0  0
 15 27  1  0  0  0  0
 17 19  2  0  0  0  0
 17 28  1  0  0  0  0
 18 19  1  0  0  0  0
 18 29  1  0  0  0  0
 20 31  1  0  0  0  0
 20 32  1  0  0  0  0
 20 33  1  0  0  0  0
M  END
> <PUBCHEM_COMPOUND_CID>
183679

> <PUBCHEM_CONFORMER_RMSD>
0.6

> <PUBCHEM_CONFORMER_DIVERSEORDER>
1
6
8
3
7
2
4
5

> <PUBCHEM_MMFF94_PARTIAL_CHARGES>
29
1 -0.29
10 -0.15
11 -0.15
12 -0.15
13 -0.15
14 -0.15
15 -0.15
16 0.08
17 -0.15
18 -0.15
19 0.08
2 -0.29
20 0.28
22 0.15
23 0.15
24 0.15
25 0.15
26 0.15
27 0.15
28 0.15
29 0.15
3 -0.29
30 0.45
4 -0.36
5 -0.53
6 0.29
7 -0.14
8 -0.14
9 0.87

> <PUBCHEM_EFFECTIVE_ROTOR_COUNT>
4

> <PUBCHEM_PHARMACOPHORE_FEATURES>
4
1 4 acceptor
1 5 donor
6 7 10 11 14 15 16 rings
6 8 12 13 17 18 19 rings

> <PUBCHEM_HEAVY_ATOM_COUNT>
20

> <PUBCHEM_ATOM_DEF_STEREO_COUNT>
0

> <PUBCHEM_ATOM_UDEF_STEREO_COUNT>
1

> <PUBCHEM_BOND_DEF_STEREO_COUNT>
0

> <PUBCHEM_BOND_UDEF_STEREO_COUNT>
0

> <PUBCHEM_ISOTOPIC_ATOM_COUNT>
0

> <PUBCHEM_COMPONENT_COUNT>
1

> <PUBCHEM_CACTVS_TAUTO_COUNT>
2

> <PUBCHEM_CONFORMER_ID>
0002CD7F00000001

> <PUBCHEM_MMFF94_ENERGY>
73.9136

> <PUBCHEM_FEATURE_SELFOVERLAP>
20.297

> <PUBCHEM_SHAPE_FINGERPRINT>
10165383 225 18339942457932437785
10498660 4 18412258415760133401
105312 117 18411142441643583364
107951 10 18337685190931742558
12173636 292 18264764535815163814
12500047 106 18341050813345950386
12633257 1 14851895763120412476
12707595 3 10231741301993673545
12730499 353 18267029367118878913
12788726 201 18120360206220178395
12892183 10 15140956197694913021
13134695 92 17543338367915732535
13294875 104 18058428951275904354
13681431 1 17478048255093395511
14142880 1 18262790882415360959
14341114 328 15936989490710827700
15163728 17 18265906760919650485
15342168 16 18262796264257783165
15534591 1 18113899411617900650
16752209 62 18195789980892800850
16945 1 18335982081800881883
17357779 13 17769641328935066255
1741750 31 18411415128963933032
17980427 23 17022911159726615661
18186145 218 18131075900367349808
18785283 64 18117276947771338882
19765921 60 18201143361574610643
200 152 12319739167734140180
204376 136 18408604747110163409
20600515 1 17547026576560418843
20645477 56 18340218499975803400
20671657 53 10879981476103515499
20871999 31 18268712886565830812
21120745 212 17395600722970564790
21524375 3 18270954661651761331
21756936 100 17096098016731349540
2255824 54 17908979916461607695
22907989 373 18055634177011223293
23419403 2 17553535419235429247
23493267 7 18342180020388238770
23557571 272 18197791092455890004
23559900 14 16953395486137635911
238 59 18057604274636923895
25 1 17988932132371379456
283562 15 18193268830689794299
3729539 64 17977973206169285278
3759504 43 18409731785130592066
458136 41 18339084770269785667
474 4 18268706117549744249
495365 180 18047461228557897065
559249 180 18413109481548111254
59755656 520 18059310810966778235
6049 1 17629482166505088248
633830 44 17844544209857101513
6442390 28 18411147935107351227
7364860 26 17980190899109088859
7808743 9 18334015029512988236
7970288 3 9727626211311785957
81228 2 17980473787072245187
84936 182 18055065467738935481

> <PUBCHEM_SHAPE_MULTIPOLES>
405.46
7.86
3.38
1.51
5.66
3.4
0.15
-8.37
1.33
-2.31
0.23
0
0
0.24

> <PUBCHEM_SHAPE_SELFOVERLAP>
834.618

> <PUBCHEM_SHAPE_VOLUME>
232.2

> <PUBCHEM_COORDINATE_TYPE>
2
5
10

$$$$
