251869
  -OEChem-06012615433D

 42 45  0     1  0  0  0  0  0999 V2000
   -5.4492   -1.0976    0.0882 O   0  0  0  0  0  0  0  0  0  0  0  0
    5.8761   -0.2250   -0.3899 O   0  0  0  0  0  0  0  0  0  0  0  0
   -2.0197   -0.3795    0.3365 C   0  0  2  0  0  0  0  0  0  0  0  0
   -2.5774    0.9513   -0.2157 C   0  0  2  0  0  0  0  0  0  0  0  0
   -0.5579   -0.5940   -0.0591 C   0  0  1  0  0  0  0  0  0  0  0  0
    0.2994    0.5551    0.5527 C   0  0  2  0  0  0  0  0  0  0  0  0
   -1.7746    2.0961    0.4132 C   0  0  0  0  0  0  0  0  0  0  0  0
   -0.2629    1.9465    0.1574 C   0  0  0  0  0  0  0  0  0  0  0  0
   -3.0551   -1.4229   -0.0721 C   0  0  0  0  0  0  0  0  0  0  0  0
   -4.0469    0.8747    0.2360 C   0  0  0  0  0  0  0  0  0  0  0  0
   -0.0082   -1.9366    0.4271 C   0  0  0  0  0  0  0  0  0  0  0  0
   -2.5447    1.0783   -1.7592 C   0  0  0  0  0  0  0  0  0  0  0  0
   -4.3257   -0.6110    0.0829 C   0  0  0  0  0  0  0  0  0  0  0  0
    1.7844    0.3522    0.2642 C   0  0  0  0  0  0  0  0  0  0  0  0
    1.3997   -2.1489   -0.1215 C   0  0  0  0  0  0  0  0  0  0  0  0
    2.2919   -0.9368   -0.0099 C   0  0  0  0  0  0  0  0  0  0  0  0
    2.6952    1.4202    0.3507 C   0  0  0  0  0  0  0  0  0  0  0  0
    3.6678   -1.1139   -0.2398 C   0  0  0  0  0  0  0  0  0  0  0  0
    4.0607    1.2290    0.1289 C   0  0  0  0  0  0  0  0  0  0  0  0
    4.5470   -0.0370   -0.1707 C   0  0  0  0  0  0  0  0  0  0  0  0
   -2.0508   -0.3344    1.4386 H   0  0  0  0  0  0  0  0  0  0  0  0
   -0.4685   -0.5782   -1.1530 H   0  0  0  0  0  0  0  0  0  0  0  0
    0.2118    0.4874    1.6483 H   0  0  0  0  0  0  0  0  0  0  0  0
   -1.9418    2.1174    1.4980 H   0  0  0  0  0  0  0  0  0  0  0  0
   -2.1177    3.0647    0.0301 H   0  0  0  0  0  0  0  0  0  0  0  0
   -0.0400    2.1505   -0.8967 H   0  0  0  0  0  0  0  0  0  0  0  0
    0.2380    2.7343    0.7320 H   0  0  0  0  0  0  0  0  0  0  0  0
   -3.0624   -2.2787    0.6072 H   0  0  0  0  0  0  0  0  0  0  0  0
   -2.9443   -1.7500   -1.1087 H   0  0  0  0  0  0  0  0  0  0  0  0
   -4.7203    1.4644   -0.3911 H   0  0  0  0  0  0  0  0  0  0  0  0
   -4.1721    1.1448    1.2892 H   0  0  0  0  0  0  0  0  0  0  0  0
   -0.6428   -2.7681    0.1009 H   0  0  0  0  0  0  0  0  0  0  0  0
    0.0104   -1.9606    1.5243 H   0  0  0  0  0  0  0  0  0  0  0  0
   -1.5311    1.0503   -2.1672 H   0  0  0  0  0  0  0  0  0  0  0  0
   -3.1127    0.2846   -2.2552 H   0  0  0  0  0  0  0  0  0  0  0  0
   -2.9891    2.0312   -2.0704 H   0  0  0  0  0  0  0  0  0  0  0  0
    1.3321   -2.4194   -1.1831 H   0  0  0  0  0  0  0  0  0  0  0  0
    1.8560   -2.9959    0.4050 H   0  0  0  0  0  0  0  0  0  0  0  0
    2.3632    2.4234    0.6001 H   0  0  0  0  0  0  0  0  0  0  0  0
    4.0473   -2.1071   -0.4722 H   0  0  0  0  0  0  0  0  0  0  0  0
    4.7384    2.0757    0.1968 H   0  0  0  0  0  0  0  0  0  0  0  0
    6.0346   -1.1651   -0.5828 H   0  0  0  0  0  0  0  0  0  0  0  0
  1 13  2  0  0  0  0
  2 20  1  0  0  0  0
  2 42  1  0  0  0  0
  3  4  1  0  0  0  0
  3  5  1  0  0  0  0
  3  9  1  0  0  0  0
  3 21  1  0  0  0  0
  4  7  1  0  0  0  0
  4 10  1  0  0  0  0
  4 12  1  0  0  0  0
  5  6  1  0  0  0  0
  5 11  1  0  0  0  0
  5 22  1  0  0  0  0
  6  8  1  0  0  0  0
  6 14  1  0  0  0  0
  6 23  1  0  0  0  0
  7  8  1  0  0  0  0
  7 24  1  0  0  0  0
  7 25  1  0  0  0  0
  8 26  1  0  0  0  0
  8 27  1  0  0  0  0
  9 13  1  0  0  0  0
  9 28  1  0  0  0  0
  9 29  1  0  0  0  0
 10 13  1  0  0  0  0
 10 30  1  0  0  0  0
 10 31  1  0  0  0  0
 11 15  1  0  0  0  0
 11 32  1  0  0  0  0
 11 33  1  0  0  0  0
 12 34  1  0  0  0  0
 12 35  1  0  0  0  0
 12 36  1  0  0  0  0
 14 16  2  0  0  0  0
 14 17  1  0  0  0  0
 15 16  1  0  0  0  0
 15 37  1  0  0  0  0
 15 38  1  0  0  0  0
 16 18  1  0  0  0  0
 17 19  2  0  0  0  0
 17 39  1  0  0  0  0
 18 20  2  0  0  0  0
 18 40  1  0  0  0  0
 19 20  1  0  0  0  0
 19 41  1  0  0  0  0
M  END
> <PUBCHEM_COMPOUND_CID>
251869

> <PUBCHEM_CONFORMER_RMSD>
0.6

> <PUBCHEM_CONFORMER_DIVERSEORDER>
1

> <PUBCHEM_MMFF94_PARTIAL_CHARGES>
17
1 -0.57
10 0.06
13 0.45
14 -0.14
15 0.14
16 -0.14
17 -0.15
18 -0.15
19 -0.15
2 -0.53
20 0.08
39 0.15
40 0.15
41 0.15
42 0.45
6 0.14
9 0.06

> <PUBCHEM_EFFECTIVE_ROTOR_COUNT>
1.2

> <PUBCHEM_PHARMACOPHORE_FEATURES>
6
1 1 acceptor
1 2 donor
5 3 4 9 10 13 rings
6 14 16 17 18 19 20 rings
6 3 4 5 6 7 8 rings
6 5 6 11 14 15 16 rings

> <PUBCHEM_HEAVY_ATOM_COUNT>
20

> <PUBCHEM_ATOM_DEF_STEREO_COUNT>
4

> <PUBCHEM_ATOM_UDEF_STEREO_COUNT>
0

> <PUBCHEM_BOND_DEF_STEREO_COUNT>
0

> <PUBCHEM_BOND_UDEF_STEREO_COUNT>
0

> <PUBCHEM_ISOTOPIC_ATOM_COUNT>
0

> <PUBCHEM_COMPONENT_COUNT>
1

> <PUBCHEM_CACTVS_TAUTO_COUNT>
27

> <PUBCHEM_CONFORMER_ID>
0003D7DD00000001

> <PUBCHEM_MMFF94_ENERGY>
60.5224

> <PUBCHEM_FEATURE_SELFOVERLAP>
30.549

> <PUBCHEM_SHAPE_FINGERPRINT>
10366900 7 18040156227241177555
10498660 4 18261106335885870340
10616163 171 18341614793643344247
10967382 1 18411418440167472834
11578080 2 17170103734213326999
12011746 2 18409724084887207231
12236239 1 17676487237906754792
12403259 226 18264482902294097092
12403259 415 18409721881189572232
12403814 3 17821446846617885957
12553582 1 18271792541214985177
12670546 56 16226036774342893920
128620 24 18407760330611593701
13140716 1 18051122893687197864
13224815 77 18409444765255987784
13288520 33 18413392046797291869
13583140 156 16660649570048907728
13862211 1 18411414033515599122
14787075 74 18336264638776833699
15196674 1 18411419479533721152
15536298 74 18343582940910638416
16945 1 18194394485751021057
17349148 13 18333728009833043208
17492 89 18266176128104264642
18186145 218 18410006620346312876
19141452 34 18059576949000617543
19591789 44 18268146633403081987
200 152 17988924465754509824
20645477 70 18271248223194256198
21267235 1 18412554227173706099
221357 26 18272089383463478564
221490 88 18339930290438014674
23402539 116 18412821391503736654
23557571 272 18412269423512665933
23559900 14 18343016735952742872
25 1 18410290268645060050
2748010 2 18339634667537909088
2871803 45 18409162208153337735
3004659 81 18261680277847531662
3323516 105 18413105073814127513
335352 9 18411983550478927172
34934 24 18338231558152875625
350125 39 18410858745831274144
3545911 37 18409450275704342238
4028521 119 18334571317649737029
4214541 1 18412265008355195017
474 4 17096095830476977612
474229 33 18410012156369513202
4990 188 18060145327576046398
5104073 3 18339360768820114930
59755656 215 18410014320874969926
69090 78 18342737446507561718
9709674 26 18411989031000115078

> <PUBCHEM_SHAPE_MULTIPOLES>
399.85
9.84
2.11
0.84
3.08
0.05
0.26
0.86
0.82
-0.26
-0.11
-0.37
-0.18
0.38

> <PUBCHEM_SHAPE_SELFOVERLAP>
875.579

> <PUBCHEM_SHAPE_VOLUME>
216.6

> <PUBCHEM_COORDINATE_TYPE>
2
5
10

$$$$
