69150
  -OEChem-06012615433D

 26 27  0     0  0  0  0  0  0999 V2000
    0.0254   -2.5302   -0.0005 O   0  0  0  0  0  0  0  0  0  0  0  0
    4.8855    1.5120   -0.0009 O   0  0  0  0  0  0  0  0  0  0  0  0
   -4.9356    1.3074   -0.0001 O   0  0  0  0  0  0  0  0  0  0  0  0
    1.2907   -0.5630    0.0003 C   0  0  0  0  0  0  0  0  0  0  0  0
   -1.2931   -0.5982   -0.0002 C   0  0  0  0  0  0  0  0  0  0  0  0
    0.0312   -1.2902    0.0000 C   0  0  0  0  0  0  0  0  0  0  0  0
    1.2908    0.8317    0.0004 C   0  0  0  0  0  0  0  0  0  0  0  0
   -1.8758   -0.2935   -1.2080 C   0  0  0  0  0  0  0  0  0  0  0  0
    2.4986   -1.2607    0.0002 C   0  0  0  0  0  0  0  0  0  0  0  0
   -1.8759   -0.2936    1.2079 C   0  0  0  0  0  0  0  0  0  0  0  0
    2.4988    1.5291    0.0003 C   0  0  0  0  0  0  0  0  0  0  0  0
   -3.1119    0.3528   -1.2080 C   0  0  0  0  0  0  0  0  0  0  0  0
    3.7068   -0.5634    0.0002 C   0  0  0  0  0  0  0  0  0  0  0  0
   -3.1121    0.3526    1.2081 C   0  0  0  0  0  0  0  0  0  0  0  0
    3.7069    0.8315    0.0004 C   0  0  0  0  0  0  0  0  0  0  0  0
   -3.7302    0.6758    0.0000 C   0  0  0  0  0  0  0  0  0  0  0  0
    0.3746    1.4141    0.0004 H   0  0  0  0  0  0  0  0  0  0  0  0
   -1.3981   -0.5434   -2.1503 H   0  0  0  0  0  0  0  0  0  0  0  0
    2.5261   -2.3471   -0.0001 H   0  0  0  0  0  0  0  0  0  0  0  0
   -1.3980   -0.5437    2.1501 H   0  0  0  0  0  0  0  0  0  0  0  0
    2.4858    2.6158    0.0001 H   0  0  0  0  0  0  0  0  0  0  0  0
   -3.5882    0.6023   -2.1523 H   0  0  0  0  0  0  0  0  0  0  0  0
    4.6447   -1.1121   -0.0002 H   0  0  0  0  0  0  0  0  0  0  0  0
   -3.5830    0.5989    2.1560 H   0  0  0  0  0  0  0  0  0  0  0  0
    4.6983    2.4665   -0.0009 H   0  0  0  0  0  0  0  0  0  0  0  0
   -5.2149    1.4534    0.9202 H   0  0  0  0  0  0  0  0  0  0  0  0
  1  6  2  0  0  0  0
  2 15  1  0  0  0  0
  2 25  1  0  0  0  0
  3 16  1  0  0  0  0
  3 26  1  0  0  0  0
  4  6  1  0  0  0  0
  4  7  2  0  0  0  0
  4  9  1  0  0  0  0
  5  6  1  0  0  0  0
  5  8  2  0  0  0  0
  5 10  1  0  0  0  0
  7 11  1  0  0  0  0
  7 17  1  0  0  0  0
  8 12  1  0  0  0  0
  8 18  1  0  0  0  0
  9 13  2  0  0  0  0
  9 19  1  0  0  0  0
 10 14  2  0  0  0  0
 10 20  1  0  0  0  0
 11 15  2  0  0  0  0
 11 21  1  0  0  0  0
 12 16  2  0  0  0  0
 12 22  1  0  0  0  0
 13 15  1  0  0  0  0
 13 23  1  0  0  0  0
 14 16  1  0  0  0  0
 14 24  1  0  0  0  0
M  END
> <PUBCHEM_COMPOUND_CID>
69150

> <PUBCHEM_CONFORMER_RMSD>
0.6

> <PUBCHEM_CONFORMER_DIVERSEORDER>
1
2

> <PUBCHEM_MMFF94_PARTIAL_CHARGES>
26
1 -0.57
10 -0.15
11 -0.15
12 -0.15
13 -0.15
14 -0.15
15 0.08
16 0.08
17 0.15
18 0.15
19 0.15
2 -0.53
20 0.15
21 0.15
22 0.15
23 0.15
24 0.15
25 0.45
26 0.45
3 -0.53
4 0.09
5 0.09
6 0.4
7 -0.15
8 -0.15
9 -0.15

> <PUBCHEM_EFFECTIVE_ROTOR_COUNT>
2

> <PUBCHEM_PHARMACOPHORE_FEATURES>
5
1 1 acceptor
1 2 donor
1 3 donor
6 4 7 9 11 13 15 rings
6 5 8 10 12 14 16 rings

> <PUBCHEM_HEAVY_ATOM_COUNT>
16

> <PUBCHEM_ATOM_DEF_STEREO_COUNT>
0

> <PUBCHEM_ATOM_UDEF_STEREO_COUNT>
0

> <PUBCHEM_BOND_DEF_STEREO_COUNT>
0

> <PUBCHEM_BOND_UDEF_STEREO_COUNT>
0

> <PUBCHEM_ISOTOPIC_ATOM_COUNT>
0

> <PUBCHEM_COMPONENT_COUNT>
1

> <PUBCHEM_CACTVS_TAUTO_COUNT>
9

> <PUBCHEM_CONFORMER_ID>
00010E1E00000001

> <PUBCHEM_MMFF94_ENERGY>
51.5878

> <PUBCHEM_FEATURE_SELFOVERLAP>
25.371

> <PUBCHEM_SHAPE_FINGERPRINT>
11046707 91 10665217159963705140
11132069 177 17312825970274840119
11471102 20 18411419488556185366
11543360 7 15625940993045271304
12119455 92 18259979366706029683
12236239 1 17775002362858252525
12251169 10 15213020457500433223
12633257 1 16370731447732828373
13214271 11 18260551143175726095
13581323 91 14851608760794617667
13583140 156 15937232508660704540
13705890 14 12391514187478557834
14252887 29 11674876667527121000
14897335 6 18342174505349692866
14943859 89 18273778250545764235
15219456 202 18041000622196332259
15309172 13 18335421270187142899
15342168 16 18334583481123999461
15653759 3 17022905648518709121
15775835 57 18273213101495325413
1813 80 17482841065145119494
18186145 218 18413393124676009638
18219364 16 18334297590888934873
19049666 15 17315344830743676807
19862831 5 17489585658188968689
200 152 18272083929356231143
20112054 13 18261112980173565476
20361792 2 8286200530824557403
204376 136 18409169926030467459
20645476 183 17560792230733478799
20645477 70 18339360769247914718
20871999 31 16630232702163841205
21499 59 18342174466426072391
21524375 3 18413107285817509711
22854114 59 18186804673280929029
22926399 37 18273495659099271801
231179 274 18259982665314655636
23402539 116 18131626803132749708
23402655 69 18131632274747011404
23559900 14 16371569163887302842
25 1 18411416202637360478
27216 239 18041845133184072257
2838139 119 18047739413701182973
350125 39 18049449441416597466
474 4 18413672404665774233
4921388 177 15554169276251530437
5104073 3 18334850667213716338
633830 44 18272376321454064687
74978 22 18270679899914376858
76465 3 10591777450024863228
77492 1 17703785877872440035
8272917 22 18198064681751377855
83771 10 9007059067140455807
90316 7 14418128479203268863

> <PUBCHEM_SHAPE_MULTIPOLES>
311.66
8.51
1.67
0.98
0.43
0.45
0
-4.5
0
0.93
0
-0.96
-0.01
0

> <PUBCHEM_SHAPE_SELFOVERLAP>
681.543

> <PUBCHEM_SHAPE_VOLUME>
169.5

> <PUBCHEM_COORDINATE_TYPE>
2
5
10

$$$$
