3001664
 OpenBabel07292612043D

 63 65  0  0  1  0  0  0  0  0999 V2000
    0.1197   -4.3716   -1.4643 O   0  0  0  0  0  0  0  0  0  0  0  0
    0.8490    2.1485    1.3162 O   0  0  0  0  0  0  0  0  0  0  0  0
   -0.7926    2.2763   -1.2272 O   0  0  0  0  0  0  0  0  0  0  0  0
    4.9118    0.0561   -0.2337 O   0  0  0  0  0  0  0  0  0  0  0  0
   -4.9672    0.5302    0.2217 O   0  0  0  0  0  0  0  0  0  0  0  0
    3.6585    2.1857    1.0346 O   0  0  0  0  0  0  0  0  0  0  0  0
   -3.5270    2.3945   -1.1193 O   0  0  0  0  0  0  0  0  0  0  0  0
    0.3934   -3.3320   -0.4910 C   0  0  2  0  0  0  0  0  0  0  0  0
   -0.8776   -3.2141    0.4081 C   0  0  2  0  0  0  0  0  0  0  0  0
    0.6613   -2.0565   -1.3461 C   0  0  0  0  0  0  0  0  0  0  0  0
   -0.8702   -1.9955    1.3576 C   0  0  0  0  0  0  0  0  0  0  0  0
    1.3933   -0.9010   -0.6847 C   0  0  0  0  0  0  0  0  0  0  0  0
   -1.5058   -0.7774    0.7145 C   0  0  0  0  0  0  0  0  0  0  0  0
    1.6418   -3.7895    0.2794 C   0  0  0  0  0  0  0  0  0  0  0  0
   -1.1518   -4.4876    1.2328 C   0  0  0  0  0  0  0  0  0  0  0  0
    0.7239    0.1564   -0.0146 C   0  0  0  0  0  0  0  0  0  0  0  0
   -0.7584    0.2145    0.0434 C   0  0  0  0  0  0  0  0  0  0  0  0
    2.8010   -0.8888   -0.7609 C   0  0  0  0  0  0  0  0  0  0  0  0
   -2.9132   -0.6830    0.7719 C   0  0  0  0  0  0  0  0  0  0  0  0
    1.5055    1.1853    0.5784 C   0  0  0  0  0  0  0  0  0  0  0  0
   -1.4738    1.2667   -0.5817 C   0  0  0  0  0  0  0  0  0  0  0  0
    3.5443    0.1410   -0.1895 C   0  0  0  0  0  0  0  0  0  0  0  0
   -3.6048    0.3799    0.1875 C   0  0  0  0  0  0  0  0  0  0  0  0
    2.9070    1.1661    0.5052 C   0  0  0  0  0  0  0  0  0  0  0  0
   -2.8716    1.3638   -0.4780 C   0  0  0  0  0  0  0  0  0  0  0  0
    1.0675    3.4681    0.8142 C   0  0  0  0  0  0  0  0  0  0  0  0
   -0.6352    1.9838   -2.6121 C   0  0  0  0  0  0  0  0  0  0  0  0
    5.4137    0.7687   -1.3632 C   0  0  0  0  0  0  0  0  0  0  0  0
   -5.7102   -0.4870    0.8831 C   0  0  0  0  0  0  0  0  0  0  0  0
    3.9574    1.9222    2.4035 C   0  0  0  0  0  0  0  0  0  0  0  0
   -3.6595    3.5143   -0.2447 C   0  0  0  0  0  0  0  0  0  0  0  0
   -0.6648   -4.1315   -1.9819 H   0  0  0  0  0  0  0  0  0  0  0  0
   -1.6682   -3.0750   -0.2993 H   0  0  0  0  0  0  0  0  0  0  0  0
   -0.2878   -1.6871   -1.6742 H   0  0  0  0  0  0  0  0  0  0  0  0
    1.3217   -2.3854   -2.1211 H   0  0  0  0  0  0  0  0  0  0  0  0
    0.1420   -1.7630    1.6150 H   0  0  0  0  0  0  0  0  0  0  0  0
   -1.4396   -2.2479    2.2277 H   0  0  0  0  0  0  0  0  0  0  0  0
    1.4086   -4.6647    0.8490 H   0  0  0  0  0  0  0  0  0  0  0  0
    1.9600   -3.0091    0.9386 H   0  0  0  0  0  0  0  0  0  0  0  0
    2.4262   -4.0132   -0.4132 H   0  0  0  0  0  0  0  0  0  0  0  0
   -0.3631   -4.6301    1.9417 H   0  0  0  0  0  0  0  0  0  0  0  0
   -1.2003   -5.3327    0.5783 H   0  0  0  0  0  0  0  0  0  0  0  0
   -2.0824   -4.3837    1.7506 H   0  0  0  0  0  0  0  0  0  0  0  0
    3.2891   -1.6564   -1.2484 H   0  0  0  0  0  0  0  0  0  0  0  0
   -3.4458   -1.4203    1.2595 H   0  0  0  0  0  0  0  0  0  0  0  0
    0.5379    4.1727    1.4207 H   0  0  0  0  0  0  0  0  0  0  0  0
    0.7145    3.5291   -0.1941 H   0  0  0  0  0  0  0  0  0  0  0  0
    2.1137    3.6908    0.8398 H   0  0  0  0  0  0  0  0  0  0  0  0
   -0.1045    2.7822   -3.0872 H   0  0  0  0  0  0  0  0  0  0  0  0
   -1.5984    1.8762   -3.0656 H   0  0  0  0  0  0  0  0  0  0  0  0
   -0.0846    1.0732   -2.7240 H   0  0  0  0  0  0  0  0  0  0  0  0
    6.4809    0.6948   -1.3862 H   0  0  0  0  0  0  0  0  0  0  0  0
    5.1288    1.7976   -1.2912 H   0  0  0  0  0  0  0  0  0  0  0  0
    5.0076    0.3481   -2.2594 H   0  0  0  0  0  0  0  0  0  0  0  0
   -6.7533   -0.2525    0.8394 H   0  0  0  0  0  0  0  0  0  0  0  0
   -5.4007   -0.5471    1.9056 H   0  0  0  0  0  0  0  0  0  0  0  0
   -5.5354   -1.4266    0.4018 H   0  0  0  0  0  0  0  0  0  0  0  0
    4.5427    2.7245    2.8016 H   0  0  0  0  0  0  0  0  0  0  0  0
    4.5078    1.0077    2.4787 H   0  0  0  0  0  0  0  0  0  0  0  0
    3.0460    1.8365    2.9575 H   0  0  0  0  0  0  0  0  0  0  0  0
   -4.1689    4.3059   -0.7534 H   0  0  0  0  0  0  0  0  0  0  0  0
   -2.6886    3.8496    0.0551 H   0  0  0  0  0  0  0  0  0  0  0  0
   -4.2204    3.2271    0.6201 H   0  0  0  0  0  0  0  0  0  0  0  0
  1 32  1  0  0  0  0
  2 20  1  0  0  0  0
  2 26  1  0  0  0  0
  3 21  1  0  0  0  0
  3 27  1  0  0  0  0
  4 22  1  0  0  0  0
  4 28  1  0  0  0  0
  5 23  1  0  0  0  0
  5 29  1  0  0  0  0
  6 24  1  0  0  0  0
  6 30  1  0  0  0  0
  7 25  1  0  0  0  0
  7 31  1  0  0  0  0
  8  1  1  6  0  0  0
  8  9  1  0  0  0  0
  8 10  1  0  0  0  0
  8 14  1  0  0  0  0
  9 11  1  0  0  0  0
  9 15  1  0  0  0  0
  9 33  1  6  0  0  0
 10 12  1  0  0  0  0
 10 34  1  0  0  0  0
 10 35  1  0  0  0  0
 11 13  1  0  0  0  0
 11 36  1  0  0  0  0
 11 37  1  0  0  0  0
 12 16  1  0  0  0  0
 12 18  2  0  0  0  0
 13 17  1  0  0  0  0
 13 19  2  0  0  0  0
 14 38  1  0  0  0  0
 14 39  1  0  0  0  0
 14 40  1  0  0  0  0
 15 41  1  0  0  0  0
 15 42  1  0  0  0  0
 15 43  1  0  0  0  0
 16 17  1  0  0  0  0
 16 20  2  0  0  0  0
 17 21  2  0  0  0  0
 18 22  1  0  0  0  0
 18 44  1  0  0  0  0
 19 23  1  0  0  0  0
 19 45  1  0  0  0  0
 20 24  1  0  0  0  0
 21 25  1  0  0  0  0
 22 24  2  0  0  0  0
 23 25  2  0  0  0  0
 26 46  1  0  0  0  0
 26 47  1  0  0  0  0
 26 48  1  0  0  0  0
 27 49  1  0  0  0  0
 27 50  1  0  0  0  0
 27 51  1  0  0  0  0
 28 52  1  0  0  0  0
 28 53  1  0  0  0  0
 28 54  1  0  0  0  0
 29 55  1  0  0  0  0
 29 56  1  0  0  0  0
 29 57  1  0  0  0  0
 30 58  1  0  0  0  0
 30 59  1  0  0  0  0
 30 60  1  0  0  0  0
 31 61  1  0  0  0  0
 31 62  1  0  0  0  0
 31 63  1  0  0  0  0
M  END
>  <PUBCHEM_COMPOUND_CID>
3001664

>  <PUBCHEM_CONFORMER_RMSD>
0.8

>  <PUBCHEM_CONFORMER_DIVERSEORDER>
2
7
6
9
1
8
12
4
3
10
11
5

>  <PUBCHEM_MMFF94_PARTIAL_CHARGES>
29
1 -0.68
10 0.14
11 0.14
12 -0.14
13 -0.14
18 -0.15
19 -0.15
2 -0.36
20 0.08
21 0.08
22 0.08
23 0.08
24 0.08
25 0.08
26 0.28
27 0.28
28 0.28
29 0.28
3 -0.36
30 0.28
31 0.28
4 -0.36
43 0.4
44 0.15
45 0.15
5 -0.36
6 -0.36
7 -0.36
8 0.28

>  <PUBCHEM_EFFECTIVE_ROTOR_COUNT>
6.8

>  <PUBCHEM_PHARMACOPHORE_FEATURES>
10
1 1 acceptor
1 1 donor
1 2 acceptor
1 3 acceptor
1 4 acceptor
1 5 acceptor
1 6 acceptor
1 7 acceptor
6 12 16 18 20 22 24 rings
6 13 17 19 21 23 25 rings

>  <PUBCHEM_HEAVY_ATOM_COUNT>
31

>  <PUBCHEM_ATOM_DEF_STEREO_COUNT>
2

>  <PUBCHEM_ATOM_UDEF_STEREO_COUNT>
0

>  <PUBCHEM_BOND_DEF_STEREO_COUNT>
0

>  <PUBCHEM_BOND_UDEF_STEREO_COUNT>
0

>  <PUBCHEM_ISOTOPIC_ATOM_COUNT>
0

>  <PUBCHEM_COMPONENT_COUNT>
1

>  <PUBCHEM_CACTVS_TAUTO_COUNT>
1

>  <PUBCHEM_CONFORMER_ID>
002DCD4000000002

>  <PUBCHEM_MMFF94_ENERGY>
172.1253

>  <PUBCHEM_FEATURE_SELFOVERLAP>
50.774

>  <PUBCHEM_SHAPE_FINGERPRINT>
10165383 225 18339656589283193796
10675989 125 17978511927821889808
10906281 52 17969812755136567997
11421498 54 16343714188128304259
11578080 2 17901395498006560821
12035758 1 18339926016681376536
12236239 1 15864070983247026817
12403259 415 18342737424874755728
12422481 6 17835546056052023683
12553582 1 17040920339397638826
12633257 1 18265319797714205576
13140716 1 17975975680633719115
13402501 40 18411429413809108882
14790565 3 18338248114915036228
16728300 4 17680401400528602618
19591789 44 18412262826696418494
20028762 73 18270119158076000911
20642791 13 17695333064443495918
20905425 154 18045501911263484559
21033648 29 18411694396111968465
21421861 104 17690288109783851192
23419403 2 15669220738636994004
23559900 14 18120090576957799286
238 59 18049129255994574639
3298306 158 18339641140396775374
3383291 50 18270961220874762350
508706 21 18197210558816564498
5265222 85 18262535792325148094
59755656 215 18409449164109704925
7399639 24 18411695491961118089
81228 2 17903336445092669734

>  <PUBCHEM_SHAPE_MULTIPOLES>
596.88
8.13
5.3
1.65
0.17
4.56
-0.15
-5.03
0.96
1.27
0.13
-0.92
-0.57
2.12

>  <PUBCHEM_SHAPE_SELFOVERLAP>
1272.586

>  <PUBCHEM_SHAPE_VOLUME>
333.5

>  <PUBCHEM_COORDINATE_TYPE>
2
5
10

>  <Energy>
175.824

$$$$
