5336
 OpenBabel07292612043D

 28 29  0  0  0  0  0  0  0  0999 V2000
    0.1428    2.1290   -0.1145 S   0  0  0  0  0  0  0  0  0  0  0  0
   -0.4170    3.2196    0.6605 O   0  0  0  0  0  0  0  0  0  0  0  0
    0.5831    2.3422   -1.4755 O   0  0  0  0  0  0  0  0  0  0  0  0
    1.3760    1.4978    0.8380 N   0  0  0  0  0  0  0  0  0  0  0  0
    2.5308    0.1414   -0.6662 N   0  0  0  0  0  0  0  0  0  0  0  0
   -3.7641   -2.3797    0.0005 N   0  0  0  0  0  0  0  0  0  0  0  0
   -1.0730    0.8295   -0.1253 C   0  0  0  0  0  0  0  0  0  0  0  0
   -2.0586    0.7910    0.8644 C   0  0  0  0  0  0  0  0  0  0  0  0
   -1.0399   -0.1402   -1.1284 C   0  0  0  0  0  0  0  0  0  0  0  0
    1.8912    0.2309    0.5086 C   0  0  0  0  0  0  0  0  0  0  0  0
   -2.9673   -1.2363   -0.1273 C   0  0  0  0  0  0  0  0  0  0  0  0
   -2.9866   -0.2534    0.8692 C   0  0  0  0  0  0  0  0  0  0  0  0
   -1.9714   -1.1825   -1.1085 C   0  0  0  0  0  0  0  0  0  0  0  0
    1.7084   -0.8402    1.3700 C   0  0  0  0  0  0  0  0  0  0  0  0
    2.2233   -2.0783    0.9985 C   0  0  0  0  0  0  0  0  0  0  0  0
    2.9063   -2.1977   -0.2062 C   0  0  0  0  0  0  0  0  0  0  0  0
    3.0351   -1.0661   -0.9978 C   0  0  0  0  0  0  0  0  0  0  0  0
    1.7286    2.0019    1.6066 H   0  0  0  0  0  0  0  0  0  0  0  0
   -4.4646   -2.4168    0.6913 H   0  0  0  0  0  0  0  0  0  0  0  0
   -3.6241   -3.1469   -0.6003 H   0  0  0  0  0  0  0  0  0  0  0  0
   -2.1008    1.5278    1.5858 H   0  0  0  0  0  0  0  0  0  0  0  0
   -0.3335   -0.0883   -1.8789 H   0  0  0  0  0  0  0  0  0  0  0  0
   -3.6958   -0.3009    1.6174 H   0  0  0  0  0  0  0  0  0  0  0  0
   -1.9239   -1.9217   -1.8270 H   0  0  0  0  0  0  0  0  0  0  0  0
    1.2040   -0.7222    2.2625 H   0  0  0  0  0  0  0  0  0  0  0  0
    2.0994   -2.8995    1.6112 H   0  0  0  0  0  0  0  0  0  0  0  0
    3.3058   -3.1018   -0.5030 H   0  0  0  0  0  0  0  0  0  0  0  0
    3.5453   -1.1521   -1.8907 H   0  0  0  0  0  0  0  0  0  0  0  0
  1  2  2  0  0  0  0
  1  3  2  0  0  0  0
  1  4  1  0  0  0  0
  1  7  1  0  0  0  0
  4 10  1  0  0  0  0
  4 18  1  0  0  0  0
  5 10  1  0  0  0  0
  5 17  2  0  0  0  0
  6 11  1  0  0  0  0
  6 19  1  0  0  0  0
  6 20  1  0  0  0  0
  7  8  2  0  0  0  0
  7  9  1  0  0  0  0
  8 12  1  0  0  0  0
  8 21  1  0  0  0  0
  9 13  2  0  0  0  0
  9 22  1  0  0  0  0
 10 14  2  0  0  0  0
 11 12  2  0  0  0  0
 11 13  1  0  0  0  0
 12 23  1  0  0  0  0
 13 24  1  0  0  0  0
 14 15  1  0  0  0  0
 14 25  1  0  0  0  0
 15 16  2  0  0  0  0
 15 26  1  0  0  0  0
 16 17  1  0  0  0  0
 16 27  1  0  0  0  0
 17 28  1  0  0  0  0
M  END
>  <PUBCHEM_COMPOUND_CID>
5336

>  <PUBCHEM_CONFORMER_RMSD>
0.6

>  <PUBCHEM_CONFORMER_DIVERSEORDER>
1
16
2
19
7
20
22
8
3
9
4
17
21
11
14
18
5
15
13
12
10
6

>  <PUBCHEM_MMFF94_PARTIAL_CHARGES>
28
1 1.45
10 0.51
11 0.1
12 -0.15
13 -0.15
14 -0.15
15 -0.15
16 -0.15
17 0.16
18 0.42
19 0.15
2 -0.65
20 0.15
21 0.15
22 0.15
23 0.15
24 0.15
25 0.4
26 0.4
27 0.15
28 0.15
3 -0.65
4 -0.76
5 -0.62
6 -0.9
7 -0.01
8 -0.15
9 -0.15

>  <PUBCHEM_EFFECTIVE_ROTOR_COUNT>
3

>  <PUBCHEM_PHARMACOPHORE_FEATURES>
8
1 2 acceptor
1 3 acceptor
1 4 donor
1 5 acceptor
1 6 cation
1 6 donor
6 5 10 14 15 16 17 rings
6 7 8 9 11 12 13 rings

>  <PUBCHEM_HEAVY_ATOM_COUNT>
17

>  <PUBCHEM_ATOM_DEF_STEREO_COUNT>
0

>  <PUBCHEM_ATOM_UDEF_STEREO_COUNT>
0

>  <PUBCHEM_BOND_DEF_STEREO_COUNT>
0

>  <PUBCHEM_BOND_UDEF_STEREO_COUNT>
0

>  <PUBCHEM_ISOTOPIC_ATOM_COUNT>
0

>  <PUBCHEM_COMPONENT_COUNT>
1

>  <PUBCHEM_CACTVS_TAUTO_COUNT>
2

>  <PUBCHEM_CONFORMER_ID>
000014D800000001

>  <PUBCHEM_MMFF94_ENERGY>
47.1164

>  <PUBCHEM_FEATURE_SELFOVERLAP>
40.614

>  <PUBCHEM_SHAPE_FINGERPRINT>
10618630 7 18409727322738777194
12553582 1 18410294683523599179
13533116 47 18121792892195424347
14817 1 12166977269740455868
15276787 5 15554168064807281186
15375462 189 18334869311107675875
16752209 62 17904751190187731577
16945 1 18126844893687418145
17492 54 17461455886264763332
18186145 218 10881675767808779635
18522851 12 18337686212616747234
18981168 100 9222372138667272672
20291156 8 18411423903487517331
20361792 2 18336257981398079519
20442098 301 17988637540617684071
20559304 39 18055918933696336553
20645476 183 17324648782379385780
20645477 70 18048307040815629143
21731516 1 18336825299407119818
22445834 79 18200031892668166155
2255824 54 18047755094056463837
23402539 116 18260550000893955342
23557571 272 18266720421103906338
23728640 28 17327720817530159163
2748010 2 18268408218312164509
49207404 50 10447087354885606143
5845 1 10989897265488579316
598444 67 17337322874187311743
7364860 26 18054227901760746529
81228 2 18122323710480060897
90525 40 17687187491393919746
94968 8 18335140946319930219

>  <PUBCHEM_SHAPE_MULTIPOLES>
327.02
5.35
2.98
1.28
0.55
1.4
0.06
-4.55
-0.08
0.39
0.03
-0.24
0.02
-0.43

>  <PUBCHEM_SHAPE_SELFOVERLAP>
685.739

>  <PUBCHEM_SHAPE_VOLUME>
184.6

>  <PUBCHEM_COORDINATE_TYPE>
2
5
10

>  <Energy>
-59.6465

$$$$
