25429
 OpenBabel07292612043D

 24 25  0  0  0  0  0  0  0  0999 V2000
    3.9963   -0.5351    0.0010 O   0  0  0  0  0  0  0  0  0  0  0  0
    2.6200    1.2957   -0.0007 O   0  0  0  0  0  0  0  0  0  0  0  0
   -0.0428    0.6979    0.0012 N   0  0  0  0  0  0  0  0  0  0  0  0
   -0.4846   -1.4747    0.0008 N   0  3  0  0  0  0  0  0  0  0  0  0
    1.8064   -0.8646    0.0008 N   0  0  0  0  0  0  0  0  0  0  0  0
   -1.4105    0.6086    0.0011 C   0  0  0  0  0  0  0  0  0  0  0  0
   -1.6600   -0.7601    0.0007 C   0  0  0  0  0  0  0  0  0  0  0  0
    0.4707   -0.5741    0.0007 C   0  0  0  0  0  0  0  0  0  0  0  0
   -2.4195    1.5736    0.0010 C   0  0  0  0  0  0  0  0  0  0  0  0
   -2.9880   -1.2126    0.0002 C   0  0  0  0  0  0  0  0  0  0  0  0
   -3.7379    1.1028    0.0004 C   0  0  0  0  0  0  0  0  0  0  0  0
   -4.0210   -0.2656   -0.0000 C   0  0  0  0  0  0  0  0  0  0  0  0
    2.7863    0.0815    0.0003 C   0  0  0  0  0  0  0  0  0  0  0  0
    5.1183    0.3494   -0.0005 C   0  0  0  0  0  0  0  0  0  0  0  0
    0.4809    1.5315    0.0015 H   0  0  0  0  0  0  0  0  0  0  0  0
   -0.3816   -2.4538    0.0008 H   0  0  0  0  0  0  0  0  0  0  0  0
    2.0755   -1.8116    0.0014 H   0  0  0  0  0  0  0  0  0  0  0  0
   -2.2043    2.5829    0.0014 H   0  0  0  0  0  0  0  0  0  0  0  0
   -3.1999   -2.2226   -0.0000 H   0  0  0  0  0  0  0  0  0  0  0  0
   -4.5165    1.7801    0.0002 H   0  0  0  0  0  0  0  0  0  0  0  0
   -5.0031   -0.5828   -0.0005 H   0  0  0  0  0  0  0  0  0  0  0  0
    6.0230   -0.2221    0.0002 H   0  0  0  0  0  0  0  0  0  0  0  0
    5.0863    0.9676    0.8722 H   0  0  0  0  0  0  0  0  0  0  0  0
    5.0860    0.9650   -0.8751 H   0  0  0  0  0  0  0  0  0  0  0  0
  1 13  1  0  0  0  0
  1 14  1  0  0  0  0
  2 13  2  0  0  0  0
  3  6  1  0  0  0  0
  3  8  1  0  0  0  0
  3 15  1  0  0  0  0
  4  7  1  0  0  0  0
  4  8  2  0  0  0  0
  4 16  1  0  0  0  0
  5  8  1  0  0  0  0
  5 13  1  0  0  0  0
  5 17  1  0  0  0  0
  6  7  1  0  0  0  0
  6  9  2  0  0  0  0
  7 10  2  0  0  0  0
  9 11  1  0  0  0  0
  9 18  1  0  0  0  0
 10 12  1  0  0  0  0
 10 19  1  0  0  0  0
 11 12  2  0  0  0  0
 11 20  1  0  0  0  0
 12 21  1  0  0  0  0
 14 22  1  0  0  0  0
 14 23  1  0  0  0  0
 14 24  1  0  0  0  0
M  CHG  1   4   1
M  END
>  <PUBCHEM_COMPOUND_CID>
25429

>  <PUBCHEM_CONFORMER_RMSD>
0.6

>  <PUBCHEM_CONFORMER_DIVERSEORDER>
1
2

>  <PUBCHEM_MMFF94_PARTIAL_CHARGES>
20
1 -0.43
10 -0.15
11 -0.15
12 -0.15
13 0.78
14 0.28
15 0.27
16 0.15
17 0.15
18 0.15
19 0.15
2 -0.57
20 0.37
3 0.03
4 -0.57
5 -0.49
6 -0.15
7 0.23
8 0.25
9 -0.15

>  <PUBCHEM_EFFECTIVE_ROTOR_COUNT>
3

>  <PUBCHEM_PHARMACOPHORE_FEATURES>
5
1 2 acceptor
1 3 donor
1 5 donor
5 3 4 6 7 8 rings
6 6 7 9 10 11 12 rings

>  <PUBCHEM_HEAVY_ATOM_COUNT>
14

>  <PUBCHEM_ATOM_DEF_STEREO_COUNT>
0

>  <PUBCHEM_ATOM_UDEF_STEREO_COUNT>
0

>  <PUBCHEM_BOND_DEF_STEREO_COUNT>
0

>  <PUBCHEM_BOND_UDEF_STEREO_COUNT>
0

>  <PUBCHEM_ISOTOPIC_ATOM_COUNT>
0

>  <PUBCHEM_COMPONENT_COUNT>
1

>  <PUBCHEM_CACTVS_TAUTO_COUNT>
3

>  <PUBCHEM_CONFORMER_ID>
0000635500000001

>  <PUBCHEM_MMFF94_ENERGY>
26.0848

>  <PUBCHEM_FEATURE_SELFOVERLAP>
25.515

>  <PUBCHEM_SHAPE_FINGERPRINT>
10608611 8 18412822495041663512
11132069 177 18411133636680914889
13214271 11 18412543219467756911
13380535 76 18411139117022586111
14325111 11 18410855443001072609
15196674 1 18410575115039391656
15219456 202 18130796598644253679
15536298 74 18341332176390247998
17802600 8 18410288125198137396
18186145 218 18272095941683308813
18522853 276 18413670218823099040
200 152 17560797732127570487
20300324 65 18202560692176479693
20645477 56 18341895190372104580
20645477 70 17346326938780734342
21267235 1 18409458006709031883
23402539 116 18343012302781089271
23402655 69 18272366430181357085
23559900 14 18272089358263516990
366044 4 18410292505990926323
474 4 17024317533862170532
5104073 3 18410292493401216570
6333449 129 18412543206651296663
69090 78 18201434796100731679
7364860 26 18195526987112995830
77779 3 18410294713893870470
9709674 26 18412270540400056198

>  <PUBCHEM_SHAPE_MULTIPOLES>
261.43
8.77
1.43
0.58
8.59
0.1
0
1.26
0
-0.83
0
-0.06
0
0

>  <PUBCHEM_SHAPE_SELFOVERLAP>
563.883

>  <PUBCHEM_SHAPE_VOLUME>
145.1

>  <PUBCHEM_COORDINATE_TYPE>
2
5
10

>  <Energy>
-66.0639

$$$$
