
 OpenBabel09162610133D

 50 54  0  0  1  0  0  0  0  0999 V2000
    1.1190    0.0159   -0.2701 O   0  0  0  0  0  0  0  0  0  0  0  0
    2.3449    0.0215   -0.1159 C   0  0  0  0  0  0  0  0  0  0  0  0
    3.1013    1.0155   -0.7115 N   0  0  0  0  0  0  0  0  0  0  0  0
    2.4141    2.1813   -1.3035 C   0  0  0  0  0  0  0  0  0  0  0  0
    2.7338    2.3748   -2.8025 C   0  0  0  0  0  0  0  0  0  0  0  0
    4.1764    2.2635   -3.0234 N   0  0  0  0  0  0  0  0  0  0  0  0
    4.8519    3.1052   -3.8640 C   0  0  0  0  0  0  0  0  0  0  0  0
    4.2065    4.1515   -4.4034 N   0  0  0  0  0  0  0  0  0  0  0  0
    4.9145    4.9891   -5.1865 C   0  0  0  0  0  0  0  0  0  0  0  0
    6.2473    4.8289   -5.4595 C   0  0  0  0  0  0  0  0  0  0  0  0
    6.8280    3.7392   -4.8725 C   0  0  0  0  0  0  0  0  0  0  0  0
    6.1593    2.8796   -4.0825 N   0  0  0  0  0  0  0  0  0  0  0  0
    4.8269    1.0778   -2.4762 C   0  0  0  0  0  0  0  0  0  0  0  0
    4.5481    1.0249   -0.9640 C   0  0  0  0  0  0  0  0  0  0  0  0
    3.0015   -1.0476    0.8018 C   0  0  1  0  0  0  0  0  0  0  0  0
    1.8552   -1.8530    1.5041 C   0  0  0  0  0  0  0  0  0  0  0  0
    2.4130   -2.8843    2.4994 C   0  0  1  0  0  0  0  0  0  0  0  0
    3.3155   -3.8757    1.7516 C   0  0  0  0  0  0  0  0  0  0  0  0
    4.4564   -3.1164    1.0609 C   0  0  1  0  0  0  0  0  0  0  0  0
    3.8577   -2.1051    0.0612 C   0  0  0  0  0  0  0  0  0  0  0  0
    5.2829   -2.3730    2.1262 C   0  0  0  0  0  0  0  0  0  0  0  0
    4.3916   -1.3916    2.9047 C   0  0  1  0  0  0  0  0  0  0  0  0
    3.8165   -0.3585    1.9264 C   0  0  0  0  0  0  0  0  0  0  0  0
    3.2365   -2.1534    3.5686 C   0  0  0  0  0  0  0  0  0  0  0  0
    2.7712    3.0563   -0.7448 H   0  0  0  0  0  0  0  0  0  0  0  0
    1.3307    2.1344   -1.1570 H   0  0  0  0  0  0  0  0  0  0  0  0
    2.3238    3.3423   -3.1127 H   0  0  0  0  0  0  0  0  0  0  0  0
    2.2245    1.5999   -3.3882 H   0  0  0  0  0  0  0  0  0  0  0  0
    4.3522    5.8223   -5.5965 H   0  0  0  0  0  0  0  0  0  0  0  0
    6.7997    5.5134   -6.0889 H   0  0  0  0  0  0  0  0  0  0  0  0
    7.8795    3.5108   -5.0144 H   0  0  0  0  0  0  0  0  0  0  0  0
    5.9108    1.0546   -2.6271 H   0  0  0  0  0  0  0  0  0  0  0  0
    4.4131    0.1862   -2.9656 H   0  0  0  0  0  0  0  0  0  0  0  0
    4.9546    1.9191   -0.4762 H   0  0  0  0  0  0  0  0  0  0  0  0
    5.0608    0.1737   -0.5357 H   0  0  0  0  0  0  0  0  0  0  0  0
    1.2433   -2.3705    0.7522 H   0  0  0  0  0  0  0  0  0  0  0  0
    1.1789   -1.1685    2.0330 H   0  0  0  0  0  0  0  0  0  0  0  0
    1.5867   -3.4246    2.9744 H   0  0  0  0  0  0  0  0  0  0  0  0
    2.7311   -4.4310    1.0080 H   0  0  0  0  0  0  0  0  0  0  0  0
    3.7248   -4.6146    2.4515 H   0  0  0  0  0  0  0  0  0  0  0  0
    5.0991   -3.8253    0.5266 H   0  0  0  0  0  0  0  0  0  0  0  0
    3.2399   -2.6321   -0.6784 H   0  0  0  0  0  0  0  0  0  0  0  0
    4.6776   -1.6768   -0.5133 H   0  0  0  0  0  0  0  0  0  0  0  0
    6.1101   -1.8322    1.6500 H   0  0  0  0  0  0  0  0  0  0  0  0
    5.7323   -3.0939    2.8204 H   0  0  0  0  0  0  0  0  0  0  0  0
    4.9838   -0.8801    3.6719 H   0  0  0  0  0  0  0  0  0  0  0  0
    4.6454    0.2328    1.5287 H   0  0  0  0  0  0  0  0  0  0  0  0
    3.1789    0.3546    2.4662 H   0  0  0  0  0  0  0  0  0  0  0  0
    2.5957   -1.4552    4.1216 H   0  0  0  0  0  0  0  0  0  0  0  0
    3.6298   -2.8711    4.2984 H   0  0  0  0  0  0  0  0  0  0  0  0
  1  2  2  0  0  0  0
  2  3  1  0  0  0  0
  3  4  1  0  0  0  0
  3 14  1  0  0  0  0
  4  5  1  0  0  0  0
  4 25  1  0  0  0  0
  4 26  1  0  0  0  0
  5  6  1  0  0  0  0
  5 27  1  0  0  0  0
  5 28  1  0  0  0  0
  6  7  1  0  0  0  0
  6 13  1  0  0  0  0
  7  8  2  0  0  0  0
  7 12  1  0  0  0  0
  8  9  1  0  0  0  0
  9 10  2  0  0  0  0
  9 29  1  0  0  0  0
 10 11  1  0  0  0  0
 10 30  1  0  0  0  0
 11 12  2  0  0  0  0
 11 31  1  0  0  0  0
 13 14  1  0  0  0  0
 13 32  1  0  0  0  0
 13 33  1  0  0  0  0
 14 34  1  0  0  0  0
 14 35  1  0  0  0  0
 15  2  1  6  0  0  0
 15 16  1  0  0  0  0
 15 20  1  0  0  0  0
 15 23  1  0  0  0  0
 16 17  1  0  0  0  0
 16 36  1  0  0  0  0
 16 37  1  0  0  0  0
 17 18  1  0  0  0  0
 17 24  1  0  0  0  0
 17 38  1  1  0  0  0
 18 19  1  0  0  0  0
 18 39  1  0  0  0  0
 18 40  1  0  0  0  0
 19 20  1  0  0  0  0
 19 21  1  0  0  0  0
 19 41  1  6  0  0  0
 20 42  1  0  0  0  0
 20 43  1  0  0  0  0
 21 22  1  0  0  0  0
 21 44  1  0  0  0  0
 21 45  1  0  0  0  0
 22 23  1  0  0  0  0
 22 24  1  0  0  0  0
 22 46  1  1  0  0  0
 23 47  1  0  0  0  0
 23 48  1  0  0  0  0
 24 49  1  0  0  0  0
 24 50  1  0  0  0  0
M  END
$$$$
