
 OpenBabel09162610133D

 36 38  0  0  0  0  0  0  0  0999 V2000
    0.8476   -0.0827    0.0735 C   0  0  0  0  0  0  0  0  0  0  0  0
    2.3641    0.0004    0.1464 C   0  0  0  0  0  0  0  0  0  0  0  0
    3.0687   -0.3708    1.1826 N   0  0  0  0  0  0  0  0  0  0  0  0
    2.3859   -0.9000    2.2357 N   0  0  0  0  0  0  0  0  0  0  0  0
    3.1160   -1.3205    3.3892 C   0  0  0  0  0  0  0  0  0  0  0  0
    4.3154   -0.6976    3.7610 C   0  0  0  0  0  0  0  0  0  0  0  0
    4.9683   -1.0695    4.9341 C   0  0  0  0  0  0  0  0  0  0  0  0
    4.4194   -2.0569    5.7474 C   0  0  0  0  0  0  0  0  0  0  0  0
    3.2101   -2.6806    5.3954 C   0  0  0  0  0  0  0  0  0  0  0  0
    2.6393   -3.6761    6.1970 C   0  0  0  0  0  0  0  0  0  0  0  0
    1.4448   -4.2744    5.8197 C   0  0  0  0  0  0  0  0  0  0  0  0
    0.8527   -3.8512    4.6453 C   0  0  0  0  0  0  0  0  0  0  0  0
    1.3697   -2.8952    3.8430 N   0  0  0  0  0  0  0  0  0  0  0  0
    2.5373   -2.3095    4.2079 C   0  0  0  0  0  0  0  0  0  0  0  0
    3.0873    0.5173   -1.0687 C   0  0  0  0  0  0  0  0  0  0  0  0
    4.3867    0.0452   -1.3096 C   0  0  0  0  0  0  0  0  0  0  0  0
    5.0923    0.4410   -2.4521 C   0  0  0  0  0  0  0  0  0  0  0  0
    4.5111    1.3212   -3.3609 C   0  0  0  0  0  0  0  0  0  0  0  0
    3.2301    1.8160   -3.1254 C   0  0  0  0  0  0  0  0  0  0  0  0
    2.5229    1.4187   -1.9856 C   0  0  0  0  0  0  0  0  0  0  0  0
    1.2790    1.9477   -1.7856 O   0  0  0  0  0  0  0  0  0  0  0  0
    0.4042   -0.6844    0.8668 H   0  0  0  0  0  0  0  0  0  0  0  0
    0.5536   -0.5396   -0.8764 H   0  0  0  0  0  0  0  0  0  0  0  0
    0.4157    0.9168    0.1620 H   0  0  0  0  0  0  0  0  0  0  0  0
    1.6848   -1.6259    2.0469 H   0  0  0  0  0  0  0  0  0  0  0  0
    4.7312    0.0851    3.1326 H   0  0  0  0  0  0  0  0  0  0  0  0
    5.8989   -0.5836    5.2137 H   0  0  0  0  0  0  0  0  0  0  0  0
    4.9365   -2.3368    6.6621 H   0  0  0  0  0  0  0  0  0  0  0  0
    3.1247   -3.9924    7.1188 H   0  0  0  0  0  0  0  0  0  0  0  0
    0.9879   -5.0507    6.4223 H   0  0  0  0  0  0  0  0  0  0  0  0
   -0.0837   -4.2831    4.3035 H   0  0  0  0  0  0  0  0  0  0  0  0
    4.8558   -0.6498   -0.6149 H   0  0  0  0  0  0  0  0  0  0  0  0
    6.0943    0.0558   -2.6320 H   0  0  0  0  0  0  0  0  0  0  0  0
    5.0566    1.6245   -4.2515 H   0  0  0  0  0  0  0  0  0  0  0  0
    2.7973    2.5097   -3.8411 H   0  0  0  0  0  0  0  0  0  0  0  0
    1.0778    2.5871   -2.4884 H   0  0  0  0  0  0  0  0  0  0  0  0
  1  2  1  0  0  0  0
  1 22  1  0  0  0  0
  1 23  1  0  0  0  0
  1 24  1  0  0  0  0
  2  3  2  0  0  0  0
  2 15  1  0  0  0  0
  3  4  1  0  0  0  0
  4  5  1  0  0  0  0
  4 25  1  0  0  0  0
  5  6  2  0  0  0  0
  5 14  1  0  0  0  0
  6  7  1  0  0  0  0
  6 26  1  0  0  0  0
  7  8  2  0  0  0  0
  7 27  1  0  0  0  0
  8  9  1  0  0  0  0
  8 28  1  0  0  0  0
  9 10  1  0  0  0  0
  9 14  2  0  0  0  0
 10 11  2  0  0  0  0
 10 29  1  0  0  0  0
 11 12  1  0  0  0  0
 11 30  1  0  0  0  0
 12 13  2  0  0  0  0
 12 31  1  0  0  0  0
 13 14  1  0  0  0  0
 15 16  2  0  0  0  0
 15 20  1  0  0  0  0
 16 17  1  0  0  0  0
 16 32  1  0  0  0  0
 17 18  2  0  0  0  0
 17 33  1  0  0  0  0
 18 19  1  0  0  0  0
 18 34  1  0  0  0  0
 19 20  2  0  0  0  0
 19 35  1  0  0  0  0
 20 21  1  0  0  0  0
 21 36  1  0  0  0  0
M  END
$$$$
