
 OpenBabel09162610133D

 38 40  0  0  0  0  0  0  0  0999 V2000
   -3.0245    0.2171   -0.2338 N   0  0  0  0  0  0  0  0  0  0  0  0
   -1.8698    0.1032   -0.1817 C   0  0  0  0  0  0  0  0  0  0  0  0
   -0.4447    0.0069   -0.1040 C   0  0  0  0  0  0  0  0  0  0  0  0
    0.2507    1.0709    0.4823 C   0  0  0  0  0  0  0  0  0  0  0  0
    1.6451    1.0435    0.5900 C   0  0  0  0  0  0  0  0  0  0  0  0
    2.3942   -0.0360    0.1148 C   0  0  0  0  0  0  0  0  0  0  0  0
    3.7621   -0.0875    0.2326 N   0  0  0  0  0  0  0  0  0  0  0  0
    4.6227   -0.6753   -0.8148 C   0  0  0  0  0  0  0  0  0  0  0  0
    5.6270   -1.6593   -0.1814 C   0  0  0  0  0  0  0  0  0  0  0  0
    6.3742   -0.9657    0.8735 N   0  0  0  0  0  0  0  0  0  0  0  0
    7.7368   -1.0474    1.0144 C   0  0  0  0  0  0  0  0  0  0  0  0
    8.5989   -1.1736   -0.0836 C   0  0  0  0  0  0  0  0  0  0  0  0
    9.9544   -1.2231   -0.0077 N   0  0  0  0  0  0  0  0  0  0  0  0
   10.4478   -1.1378    1.2404 C   0  0  0  0  0  0  0  0  0  0  0  0
    9.6269   -1.0034    2.3435 C   0  0  0  0  0  0  0  0  0  0  0  0
    8.2758   -0.9453    2.2507 N   0  0  0  0  0  0  0  0  0  0  0  0
    5.5389   -0.4153    1.9504 C   0  0  0  0  0  0  0  0  0  0  0  0
    4.4972    0.5637    1.3403 C   0  0  0  0  0  0  0  0  0  0  0  0
    1.6779   -1.0926   -0.4655 C   0  0  0  0  0  0  0  0  0  0  0  0
    0.2698   -1.1000   -0.5780 C   0  0  0  0  0  0  0  0  0  0  0  0
   -0.3657   -2.3170   -1.2019 C   0  0  0  0  0  0  0  0  0  0  0  0
   -1.7211   -2.3127   -1.2400 F   0  0  0  0  0  0  0  0  0  0  0  0
    0.0418   -2.4964   -2.4900 F   0  0  0  0  0  0  0  0  0  0  0  0
   -0.0199   -3.4612   -0.5464 F   0  0  0  0  0  0  0  0  0  0  0  0
   -0.2873    1.9402    0.8588 H   0  0  0  0  0  0  0  0  0  0  0  0
    2.1403    1.9053    1.0313 H   0  0  0  0  0  0  0  0  0  0  0  0
    5.1748    0.1376   -1.3049 H   0  0  0  0  0  0  0  0  0  0  0  0
    4.0604   -1.1841   -1.6037 H   0  0  0  0  0  0  0  0  0  0  0  0
    6.2654   -2.0810   -0.9632 H   0  0  0  0  0  0  0  0  0  0  0  0
    5.0816   -2.5023    0.2639 H   0  0  0  0  0  0  0  0  0  0  0  0
    8.2175   -1.1946   -1.0975 H   0  0  0  0  0  0  0  0  0  0  0  0
   11.5264   -1.1764    1.3311 H   0  0  0  0  0  0  0  0  0  0  0  0
   10.0349   -0.9361    3.3451 H   0  0  0  0  0  0  0  0  0  0  0  0
    6.1158    0.1289    2.7064 H   0  0  0  0  0  0  0  0  0  0  0  0
    5.0154   -1.2353    2.4591 H   0  0  0  0  0  0  0  0  0  0  0  0
    5.0125    1.4499    0.9487 H   0  0  0  0  0  0  0  0  0  0  0  0
    3.8306    0.8918    2.1451 H   0  0  0  0  0  0  0  0  0  0  0  0
    2.2161   -1.9755   -0.8101 H   0  0  0  0  0  0  0  0  0  0  0  0
  1  2  3  0  0  0  0
  2  3  1  0  0  0  0
  3  4  2  0  0  0  0
  3 20  1  0  0  0  0
  4  5  1  0  0  0  0
  4 25  1  0  0  0  0
  5  6  2  0  0  0  0
  5 26  1  0  0  0  0
  6  7  1  0  0  0  0
  6 19  1  0  0  0  0
  7  8  1  0  0  0  0
  7 18  1  0  0  0  0
  8  9  1  0  0  0  0
  8 27  1  0  0  0  0
  8 28  1  0  0  0  0
  9 10  1  0  0  0  0
  9 29  1  0  0  0  0
  9 30  1  0  0  0  0
 10 11  1  0  0  0  0
 10 17  1  0  0  0  0
 11 12  2  0  0  0  0
 11 16  1  0  0  0  0
 12 13  1  0  0  0  0
 12 31  1  0  0  0  0
 13 14  2  0  0  0  0
 14 15  1  0  0  0  0
 14 32  1  0  0  0  0
 15 16  2  0  0  0  0
 15 33  1  0  0  0  0
 17 18  1  0  0  0  0
 17 34  1  0  0  0  0
 17 35  1  0  0  0  0
 18 36  1  0  0  0  0
 18 37  1  0  0  0  0
 19 20  2  0  0  0  0
 19 38  1  0  0  0  0
 20 21  1  0  0  0  0
 21 22  1  0  0  0  0
 21 23  1  0  0  0  0
 21 24  1  0  0  0  0
M  END
$$$$
