
 OpenBabel09162610133D

 44 48  0  0  0  0  0  0  0  0999 V2000
    1.3548   -0.2854   -0.0668 C   0  0  0  0  0  0  0  0  0  0  0  0
    2.8297   -0.1171   -0.1357 C   0  0  0  0  0  0  0  0  0  0  0  0
    3.3158    1.1200   -0.2061 N   0  0  0  0  0  0  0  0  0  0  0  0
    4.6579    1.0009   -0.0961 N   0  0  0  0  0  0  0  0  0  0  0  0
    5.0380   -0.3568   -0.1048 C   0  0  0  0  0  0  0  0  0  0  0  0
    6.3575   -0.7294   -0.0835 N   0  0  0  0  0  0  0  0  0  0  0  0
    7.2156    0.2391   -0.0835 C   0  0  0  0  0  0  0  0  0  0  0  0
    6.9083    1.6926   -0.1082 C   0  0  0  0  0  0  0  0  0  0  0  0
    5.6055    2.0530   -0.0582 C   0  0  0  0  0  0  0  0  0  0  0  0
    5.1816    3.4008   -0.0097 N   0  0  0  0  0  0  0  0  0  0  0  0
    5.7893    4.4673   -0.6629 C   0  0  0  0  0  0  0  0  0  0  0  0
    5.0729    5.5949   -0.3661 C   0  0  0  0  0  0  0  0  0  0  0  0
    4.0547    5.2986    0.4794 N   0  0  0  0  0  0  0  0  0  0  0  0
    4.1251    3.9976    0.6998 C   0  0  0  0  0  0  0  0  0  0  0  0
    3.2654    3.3140    1.7067 C   0  0  0  0  0  0  0  0  0  0  0  0
    8.1952    2.4418   -0.0691 C   0  0  0  0  0  0  0  0  0  0  0  0
    9.3053    1.3902    0.0196 C   0  0  0  0  0  0  0  0  0  0  0  0
    8.6883   -0.0053   -0.0243 C   0  0  0  0  0  0  0  0  0  0  0  0
    3.8590   -1.0953   -0.1243 C   0  0  0  0  0  0  0  0  0  0  0  0
    3.7681   -2.5547   -0.1299 C   0  0  0  0  0  0  0  0  0  0  0  0
    4.6796   -3.3549    0.5719 C   0  0  0  0  0  0  0  0  0  0  0  0
    4.5655   -4.7502    0.5616 C   0  0  0  0  0  0  0  0  0  0  0  0
    3.5319   -5.3649   -0.1407 C   0  0  0  0  0  0  0  0  0  0  0  0
    2.6174   -4.5862   -0.8418 C   0  0  0  0  0  0  0  0  0  0  0  0
    2.7415   -3.1941   -0.8427 C   0  0  0  0  0  0  0  0  0  0  0  0
    0.8548    0.6785    0.0838 H   0  0  0  0  0  0  0  0  0  0  0  0
    1.0810   -0.9316    0.7728 H   0  0  0  0  0  0  0  0  0  0  0  0
    0.9624   -0.7127   -0.9929 H   0  0  0  0  0  0  0  0  0  0  0  0
    6.6243    4.3290   -1.3303 H   0  0  0  0  0  0  0  0  0  0  0  0
    5.2379    6.6030   -0.7218 H   0  0  0  0  0  0  0  0  0  0  0  0
    2.8525    4.0541    2.4010 H   0  0  0  0  0  0  0  0  0  0  0  0
    3.8313    2.5912    2.3010 H   0  0  0  0  0  0  0  0  0  0  0  0
    2.4069    2.8281    1.2392 H   0  0  0  0  0  0  0  0  0  0  0  0
    8.2370    3.1133    0.7943 H   0  0  0  0  0  0  0  0  0  0  0  0
    8.3416    3.0301   -0.9794 H   0  0  0  0  0  0  0  0  0  0  0  0
    9.8865    1.5245    0.9398 H   0  0  0  0  0  0  0  0  0  0  0  0
   10.0148    1.5164   -0.8071 H   0  0  0  0  0  0  0  0  0  0  0  0
    8.9363   -0.5775    0.8747 H   0  0  0  0  0  0  0  0  0  0  0  0
    9.0128   -0.5646   -0.9079 H   0  0  0  0  0  0  0  0  0  0  0  0
    5.4934   -2.9042    1.1347 H   0  0  0  0  0  0  0  0  0  0  0  0
    5.2881   -5.3560    1.1025 H   0  0  0  0  0  0  0  0  0  0  0  0
    3.4438   -6.4481   -0.1489 H   0  0  0  0  0  0  0  0  0  0  0  0
    1.8111   -5.0584   -1.3974 H   0  0  0  0  0  0  0  0  0  0  0  0
    2.0286   -2.6225   -1.4289 H   0  0  0  0  0  0  0  0  0  0  0  0
  1  2  1  0  0  0  0
  1 26  1  0  0  0  0
  1 27  1  0  0  0  0
  1 28  1  0  0  0  0
  2  3  2  0  0  0  0
  2 19  1  0  0  0  0
  3  4  1  0  0  0  0
  4  5  1  0  0  0  0
  4  9  1  0  0  0  0
  5  6  1  0  0  0  0
  5 19  2  0  0  0  0
  6  7  2  0  0  0  0
  7  8  1  0  0  0  0
  7 18  1  0  0  0  0
  8  9  2  0  0  0  0
  8 16  1  0  0  0  0
  9 10  1  0  0  0  0
 10 11  1  0  0  0  0
 10 14  1  0  0  0  0
 11 12  2  0  0  0  0
 11 29  1  0  0  0  0
 12 13  1  0  0  0  0
 12 30  1  0  0  0  0
 13 14  2  0  0  0  0
 14 15  1  0  0  0  0
 15 31  1  0  0  0  0
 15 32  1  0  0  0  0
 15 33  1  0  0  0  0
 16 17  1  0  0  0  0
 16 34  1  0  0  0  0
 16 35  1  0  0  0  0
 17 18  1  0  0  0  0
 17 36  1  0  0  0  0
 17 37  1  0  0  0  0
 18 38  1  0  0  0  0
 18 39  1  0  0  0  0
 19 20  1  0  0  0  0
 20 21  2  0  0  0  0
 20 25  1  0  0  0  0
 21 22  1  0  0  0  0
 21 40  1  0  0  0  0
 22 23  2  0  0  0  0
 22 41  1  0  0  0  0
 23 24  1  0  0  0  0
 23 42  1  0  0  0  0
 24 25  2  0  0  0  0
 24 43  1  0  0  0  0
 25 44  1  0  0  0  0
M  END
$$$$
