
 OpenBabel09162610133D

 29 31  0  0  0  0  0  0  0  0999 V2000
   -3.0726    0.0040   -0.0480 N   0  0  0  0  0  0  0  0  0  0  0  0
   -1.9147   -0.0032   -0.0263 C   0  0  0  0  0  0  0  0  0  0  0  0
   -0.4783   -0.0096    0.0116 C   0  0  0  0  0  0  0  0  0  0  0  0
    0.2043   -1.0292    0.6830 C   0  0  0  0  0  0  0  0  0  0  0  0
    1.6046   -1.0331    0.7247 C   0  0  0  0  0  0  0  0  0  0  0  0
    2.3362   -0.0245    0.0856 C   0  0  0  0  0  0  0  0  0  0  0  0
    3.8030   -0.0565    0.0896 C   0  0  0  0  0  0  0  0  0  0  0  0
    4.5427   -0.6765   -0.8400 C   0  0  0  0  0  0  0  0  0  0  0  0
    4.0706   -1.4127   -2.0419 C   0  0  0  0  0  0  0  0  0  0  0  0
    2.9414   -1.5704   -2.4533 O   0  0  0  0  0  0  0  0  0  0  0  0
    5.2818   -1.9328   -2.6798 C   0  0  0  0  0  0  0  0  0  0  0  0
    5.3533   -2.7039   -3.8254 C   0  0  0  0  0  0  0  0  0  0  0  0
    6.6194   -3.1021   -4.2565 C   0  0  0  0  0  0  0  0  0  0  0  0
    7.7734   -2.7256   -3.5411 C   0  0  0  0  0  0  0  0  0  0  0  0
    7.6814   -1.9421   -2.3829 C   0  0  0  0  0  0  0  0  0  0  0  0
    6.4180   -1.5538   -1.9693 C   0  0  0  0  0  0  0  0  0  0  0  0
    6.0334   -0.7449   -0.8004 C   0  0  0  0  0  0  0  0  0  0  0  0
    6.7829   -0.2532    0.0163 O   0  0  0  0  0  0  0  0  0  0  0  0
    1.6507    0.9947   -0.5852 C   0  0  0  0  0  0  0  0  0  0  0  0
    0.2498    1.0044   -0.6208 C   0  0  0  0  0  0  0  0  0  0  0  0
   -0.3465   -1.8324    1.1695 H   0  0  0  0  0  0  0  0  0  0  0  0
    2.1141   -1.8384    1.2492 H   0  0  0  0  0  0  0  0  0  0  0  0
    4.2813    0.4536    0.9230 H   0  0  0  0  0  0  0  0  0  0  0  0
    4.4532   -2.9874   -4.3624 H   0  0  0  0  0  0  0  0  0  0  0  0
    6.7135   -3.7112   -5.1543 H   0  0  0  0  0  0  0  0  0  0  0  0
    8.7488   -3.0528   -3.8984 H   0  0  0  0  0  0  0  0  0  0  0  0
    8.5709   -1.6540   -1.8297 H   0  0  0  0  0  0  0  0  0  0  0  0
    2.1994    1.7818   -1.0982 H   0  0  0  0  0  0  0  0  0  0  0  0
   -0.2633    1.8001   -1.1558 H   0  0  0  0  0  0  0  0  0  0  0  0
  1  2  3  0  0  0  0
  2  3  1  0  0  0  0
  3  4  2  0  0  0  0
  3 20  1  0  0  0  0
  4  5  1  0  0  0  0
  4 21  1  0  0  0  0
  5  6  2  0  0  0  0
  5 22  1  0  0  0  0
  6  7  1  0  0  0  0
  6 19  1  0  0  0  0
  7  8  2  0  0  0  0
  7 23  1  0  0  0  0
  8  9  1  0  0  0  0
  8 17  1  0  0  0  0
  9 10  2  0  0  0  0
  9 11  1  0  0  0  0
 11 12  1  0  0  0  0
 11 16  2  0  0  0  0
 12 13  2  0  0  0  0
 12 24  1  0  0  0  0
 13 14  1  0  0  0  0
 13 25  1  0  0  0  0
 14 15  2  0  0  0  0
 14 26  1  0  0  0  0
 15 16  1  0  0  0  0
 15 27  1  0  0  0  0
 16 17  1  0  0  0  0
 17 18  2  0  0  0  0
 19 20  2  0  0  0  0
 19 28  1  0  0  0  0
 20 29  1  0  0  0  0
M  END
$$$$
