
 OpenBabel09162610133D

 23 25  0  0  0  0  0  0  0  0999 V2000
    4.8210    2.0952    0.8613 O   0  0  0  0  0  0  0  0  0  0  0  0
    4.1887    1.0661    0.6591 C   0  0  0  0  0  0  0  0  0  0  0  0
    2.9231    0.7713    1.1142 N   0  0  0  0  0  0  0  0  0  0  0  0
    2.1786    1.7036    1.7745 C   0  0  0  0  0  0  0  0  0  0  0  0
    2.4222    2.9809    1.9020 N   0  0  0  0  0  0  0  0  0  0  0  0
    1.4268    3.5737    2.6481 C   0  0  0  0  0  0  0  0  0  0  0  0
    1.3546    4.9416    2.9758 C   0  0  0  0  0  0  0  0  0  0  0  0
    0.3027    5.4096    3.7679 C   0  0  0  0  0  0  0  0  0  0  0  0
   -0.6658    4.5259    4.2338 C   0  0  0  0  0  0  0  0  0  0  0  0
   -1.9408    5.1224    5.2267 Cl  0  0  0  0  0  0  0  0  0  0  0  0
   -0.6291    3.1646    3.9130 C   0  0  0  0  0  0  0  0  0  0  0  0
    0.4266    2.7102    3.1047 C   0  0  0  0  0  0  0  0  0  0  0  0
    0.7515    1.1228    2.5000 S   0  0  0  0  0  0  0  0  0  0  0  0
    4.7911   -0.0277   -0.1014 C   0  0  0  0  0  0  0  0  0  0  0  0
    6.1216   -0.0485   -0.4959 C   0  0  0  0  0  0  0  0  0  0  0  0
    6.3715   -1.4870   -1.3881 S   0  0  0  0  0  0  0  0  0  0  0  0
    4.7867   -1.9917   -1.1991 N   0  0  0  0  0  0  0  0  0  0  0  0
    4.0550   -1.1448   -0.4939 N   0  0  0  0  0  0  0  0  0  0  0  0
    2.5462   -0.1596    0.9959 H   0  0  0  0  0  0  0  0  0  0  0  0
    2.1220    5.6178    2.6104 H   0  0  0  0  0  0  0  0  0  0  0  0
    0.2550    6.4667    4.0176 H   0  0  0  0  0  0  0  0  0  0  0  0
   -1.3898    2.4812    4.2762 H   0  0  0  0  0  0  0  0  0  0  0  0
    6.8969    0.6818   -0.3094 H   0  0  0  0  0  0  0  0  0  0  0  0
  1  2  2  0  0  0  0
  2  3  1  0  0  0  0
  2 14  1  0  0  0  0
  3  4  1  0  0  0  0
  3 19  1  0  0  0  0
  4  5  2  0  0  0  0
  4 13  1  0  0  0  0
  5  6  1  0  0  0  0
  6  7  2  0  0  0  0
  6 12  1  0  0  0  0
  7  8  1  0  0  0  0
  7 20  1  0  0  0  0
  8  9  2  0  0  0  0
  8 21  1  0  0  0  0
  9 10  1  0  0  0  0
  9 11  1  0  0  0  0
 11 12  2  0  0  0  0
 11 22  1  0  0  0  0
 12 13  1  0  0  0  0
 14 15  2  0  0  0  0
 14 18  1  0  0  0  0
 15 16  1  0  0  0  0
 15 23  1  0  0  0  0
 16 17  1  0  0  0  0
 17 18  2  0  0  0  0
M  END
$$$$
