
 OpenBabel09162610133D

 41 44  0  0  0  0  0  0  0  0999 V2000
    3.1113    1.2638   -0.3124 C   0  0  0  0  0  0  0  0  0  0  0  0
    4.2891    0.7599   -1.0190 N   0  0  0  0  0  0  0  0  0  0  0  0
    4.5847    1.3928   -2.3036 C   0  0  0  0  0  0  0  0  0  0  0  0
    4.8924   -0.4427   -0.6786 C   0  0  0  0  0  0  0  0  0  0  0  0
    4.5387   -1.3001    0.2883 C   0  0  0  0  0  0  0  0  0  0  0  0
    5.2978   -2.5272    0.5804 C   0  0  0  0  0  0  0  0  0  0  0  0
    4.9603   -3.7663    0.0041 C   0  0  0  0  0  0  0  0  0  0  0  0
    5.7361   -4.8584    0.3506 C   0  0  0  0  0  0  0  0  0  0  0  0
    6.7891   -4.8027    1.2067 N   0  0  0  0  0  0  0  0  0  0  0  0
    7.1164   -3.6255    1.7484 C   0  0  0  0  0  0  0  0  0  0  0  0
    8.2040   -3.5831    2.6127 C   0  0  0  0  0  0  0  0  0  0  0  0
    8.6229   -2.3966    3.2153 C   0  0  0  0  0  0  0  0  0  0  0  0
    7.9382   -1.2199    2.9578 C   0  0  0  0  0  0  0  0  0  0  0  0
    6.8394   -1.2412    2.0999 C   0  0  0  0  0  0  0  0  0  0  0  0
    6.4078   -2.4402    1.4750 C   0  0  0  0  0  0  0  0  0  0  0  0
    5.4691   -6.2063   -0.2180 C   0  0  0  0  0  0  0  0  0  0  0  0
    6.0543   -7.2082    0.1787 O   0  0  0  0  0  0  0  0  0  0  0  0
    4.4875   -6.3309   -1.3086 C   0  0  0  0  0  0  0  0  0  0  0  0
    4.3419   -7.5503   -1.9842 C   0  0  0  0  0  0  0  0  0  0  0  0
    3.4277   -7.6636   -3.0326 C   0  0  0  0  0  0  0  0  0  0  0  0
    2.6555   -6.5644   -3.4049 C   0  0  0  0  0  0  0  0  0  0  0  0
    2.7901   -5.3541   -2.7223 C   0  0  0  0  0  0  0  0  0  0  0  0
    3.7087   -5.2379   -1.6701 C   0  0  0  0  0  0  0  0  0  0  0  0
    3.8286   -3.9629   -0.9367 C   0  0  0  0  0  0  0  0  0  0  0  0
    2.9704   -3.1088   -1.1162 O   0  0  0  0  0  0  0  0  0  0  0  0
    2.7947    2.2444   -0.6820 H   0  0  0  0  0  0  0  0  0  0  0  0
    3.3366    1.3837    0.7538 H   0  0  0  0  0  0  0  0  0  0  0  0
    2.2691    0.5728   -0.4203 H   0  0  0  0  0  0  0  0  0  0  0  0
    4.0885    2.3629   -2.4117 H   0  0  0  0  0  0  0  0  0  0  0  0
    4.2543    0.7499   -3.1267 H   0  0  0  0  0  0  0  0  0  0  0  0
    5.6616    1.5646   -2.4037 H   0  0  0  0  0  0  0  0  0  0  0  0
    5.7548   -0.6643   -1.3071 H   0  0  0  0  0  0  0  0  0  0  0  0
    3.6695   -1.1263    0.9144 H   0  0  0  0  0  0  0  0  0  0  0  0
    8.7445   -4.5049    2.8210 H   0  0  0  0  0  0  0  0  0  0  0  0
    9.4821   -2.3977    3.8817 H   0  0  0  0  0  0  0  0  0  0  0  0
    8.2529   -0.2868    3.4184 H   0  0  0  0  0  0  0  0  0  0  0  0
    6.3213   -0.3014    1.9156 H   0  0  0  0  0  0  0  0  0  0  0  0
    4.9418   -8.4131   -1.6981 H   0  0  0  0  0  0  0  0  0  0  0  0
    3.3190   -8.6099   -3.5585 H   0  0  0  0  0  0  0  0  0  0  0  0
    1.9445   -6.6501   -4.2238 H   0  0  0  0  0  0  0  0  0  0  0  0
    2.1773   -4.5025   -3.0143 H   0  0  0  0  0  0  0  0  0  0  0  0
  1  2  1  0  0  0  0
  1 26  1  0  0  0  0
  1 27  1  0  0  0  0
  1 28  1  0  0  0  0
  2  3  1  0  0  0  0
  2  4  1  0  0  0  0
  3 29  1  0  0  0  0
  3 30  1  0  0  0  0
  3 31  1  0  0  0  0
  4  5  2  0  0  0  0
  4 32  1  0  0  0  0
  5  6  1  0  0  0  0
  5 33  1  0  0  0  0
  6  7  2  0  0  0  0
  6 15  1  0  0  0  0
  7  8  1  0  0  0  0
  7 24  1  0  0  0  0
  8  9  2  0  0  0  0
  8 16  1  0  0  0  0
  9 10  1  0  0  0  0
 10 11  1  0  0  0  0
 10 15  2  0  0  0  0
 11 12  2  0  0  0  0
 11 34  1  0  0  0  0
 12 13  1  0  0  0  0
 12 35  1  0  0  0  0
 13 14  2  0  0  0  0
 13 36  1  0  0  0  0
 14 15  1  0  0  0  0
 14 37  1  0  0  0  0
 16 17  2  0  0  0  0
 16 18  1  0  0  0  0
 18 19  2  0  0  0  0
 18 23  1  0  0  0  0
 19 20  1  0  0  0  0
 19 38  1  0  0  0  0
 20 21  2  0  0  0  0
 20 39  1  0  0  0  0
 21 22  1  0  0  0  0
 21 40  1  0  0  0  0
 22 23  2  0  0  0  0
 22 41  1  0  0  0  0
 23 24  1  0  0  0  0
 24 25  2  0  0  0  0
M  END
$$$$
