
 OpenBabel09162610133D

 40 43  0  0  0  0  0  0  0  0999 V2000
   -1.3737    2.7026    1.2480 C   0  0  0  0  0  0  0  0  0  0  0  0
   -1.9866    3.2374    0.1226 C   0  0  0  0  0  0  0  0  0  0  0  0
   -3.1521    2.6499   -0.3810 C   0  0  0  0  0  0  0  0  0  0  0  0
   -3.7658    1.5443    0.2466 C   0  0  0  0  0  0  0  0  0  0  0  0
   -4.9447    0.8802   -0.3971 C   0  0  0  0  0  0  0  0  0  0  0  0
   -5.9972    1.6613   -0.9428 C   0  0  0  0  0  0  0  0  0  0  0  0
   -6.7990    1.0639   -1.9136 C   0  0  0  0  0  0  0  0  0  0  0  0
   -6.9196   -0.2738   -2.0276 N   0  0  0  0  0  0  0  0  0  0  0  0
   -6.1063   -1.0498   -1.3140 C   0  0  0  0  0  0  0  0  0  0  0  0
   -6.3503   -2.4168   -1.3748 C   0  0  0  0  0  0  0  0  0  0  0  0
   -5.4924   -3.3407   -0.7849 C   0  0  0  0  0  0  0  0  0  0  0  0
   -4.3327   -2.8897   -0.1810 C   0  0  0  0  0  0  0  0  0  0  0  0
   -4.0889   -1.5169   -0.0962 C   0  0  0  0  0  0  0  0  0  0  0  0
   -5.0163   -0.5506   -0.5792 C   0  0  0  0  0  0  0  0  0  0  0  0
   -7.4593    1.8789   -2.9867 C   0  0  0  0  0  0  0  0  0  0  0  0
   -8.7580    2.5381   -2.5650 C   0  0  0  0  0  0  0  0  0  0  0  0
   -8.5529    3.7096   -1.6103 C   0  0  0  0  0  0  0  0  0  0  0  0
   -7.8122    3.3545   -0.3191 C   0  0  0  0  0  0  0  0  0  0  0  0
   -6.3040    3.0770   -0.5021 C   0  0  0  0  0  0  0  0  0  0  0  0
   -3.1666    1.0830    1.4299 C   0  0  0  0  0  0  0  0  0  0  0  0
   -1.9623    1.6249    1.9017 C   0  0  0  0  0  0  0  0  0  0  0  0
   -0.4402    3.1231    1.6127 H   0  0  0  0  0  0  0  0  0  0  0  0
   -1.5490    4.0941   -0.3833 H   0  0  0  0  0  0  0  0  0  0  0  0
   -3.5704    3.0624   -1.2969 H   0  0  0  0  0  0  0  0  0  0  0  0
   -7.2364   -2.7689   -1.8954 H   0  0  0  0  0  0  0  0  0  0  0  0
   -5.7175   -4.4027   -0.8326 H   0  0  0  0  0  0  0  0  0  0  0  0
   -3.6213   -3.5967    0.2369 H   0  0  0  0  0  0  0  0  0  0  0  0
   -3.1552   -1.2146    0.3683 H   0  0  0  0  0  0  0  0  0  0  0  0
   -7.6591    1.2227   -3.8439 H   0  0  0  0  0  0  0  0  0  0  0  0
   -6.7480    2.6289   -3.3593 H   0  0  0  0  0  0  0  0  0  0  0  0
   -9.4339    1.7986   -2.1197 H   0  0  0  0  0  0  0  0  0  0  0  0
   -9.2571    2.9202   -3.4653 H   0  0  0  0  0  0  0  0  0  0  0  0
   -9.5425    4.1067   -1.3522 H   0  0  0  0  0  0  0  0  0  0  0  0
   -8.0213    4.5188   -2.1264 H   0  0  0  0  0  0  0  0  0  0  0  0
   -7.9190    4.2139    0.3561 H   0  0  0  0  0  0  0  0  0  0  0  0
   -8.3117    2.5105    0.1768 H   0  0  0  0  0  0  0  0  0  0  0  0
   -5.8582    3.8013   -1.1906 H   0  0  0  0  0  0  0  0  0  0  0  0
   -5.8575    3.2405    0.4861 H   0  0  0  0  0  0  0  0  0  0  0  0
   -3.6070    0.2591    1.9873 H   0  0  0  0  0  0  0  0  0  0  0  0
   -1.4792    1.1943    2.7754 H   0  0  0  0  0  0  0  0  0  0  0  0
  1  2  2  0  0  0  0
  1 21  1  0  0  0  0
  1 22  1  0  0  0  0
  2  3  1  0  0  0  0
  2 23  1  0  0  0  0
  3  4  2  0  0  0  0
  3 24  1  0  0  0  0
  4  5  1  0  0  0  0
  4 20  1  0  0  0  0
  5  6  2  0  0  0  0
  5 14  1  0  0  0  0
  6  7  1  0  0  0  0
  6 19  1  0  0  0  0
  7  8  2  0  0  0  0
  7 15  1  0  0  0  0
  8  9  1  0  0  0  0
  9 10  2  0  0  0  0
  9 14  1  0  0  0  0
 10 11  1  0  0  0  0
 10 25  1  0  0  0  0
 11 12  2  0  0  0  0
 11 26  1  0  0  0  0
 12 13  1  0  0  0  0
 12 27  1  0  0  0  0
 13 14  2  0  0  0  0
 13 28  1  0  0  0  0
 15 16  1  0  0  0  0
 15 29  1  0  0  0  0
 15 30  1  0  0  0  0
 16 17  1  0  0  0  0
 16 31  1  0  0  0  0
 16 32  1  0  0  0  0
 17 18  1  0  0  0  0
 17 33  1  0  0  0  0
 17 34  1  0  0  0  0
 18 19  1  0  0  0  0
 18 35  1  0  0  0  0
 18 36  1  0  0  0  0
 19 37  1  0  0  0  0
 19 38  1  0  0  0  0
 20 21  2  0  0  0  0
 20 39  1  0  0  0  0
 21 40  1  0  0  0  0
M  END
$$$$
