
 OpenBabel09162610133D

 34 36  0  0  1  0  0  0  0  0999 V2000
    0.9203   -0.1413   -0.0774 C   0  0  0  0  0  0  0  0  0  0  0  0
    2.4380    0.0081    0.0187 C   0  0  2  0  0  0  0  0  0  0  0  0
    2.9408   -1.1513    0.7571 N   0  0  0  0  0  0  0  0  0  0  0  0
    4.2005   -1.4305    0.7522 C   0  0  0  0  0  0  0  0  0  0  0  0
    4.6323   -2.6160    1.5701 C   0  0  0  0  0  0  0  0  0  0  0  0
    3.7597   -3.7014    1.7189 C   0  0  0  0  0  0  0  0  0  0  0  0
    4.1456   -4.8142    2.4698 C   0  0  0  0  0  0  0  0  0  0  0  0
    5.4000   -4.8472    3.0782 C   0  0  0  0  0  0  0  0  0  0  0  0
    6.2651   -3.7615    2.9526 C   0  0  0  0  0  0  0  0  0  0  0  0
    5.8778   -2.6421    2.2140 C   0  0  0  0  0  0  0  0  0  0  0  0
    5.2469   -0.6471    0.0191 C   0  0  0  0  0  0  0  0  0  0  0  0
    6.2862   -1.3513   -0.6205 C   0  0  0  0  0  0  0  0  0  0  0  0
    7.3964   -0.6730   -1.1341 C   0  0  0  0  0  0  0  0  0  0  0  0
    8.4790   -1.4025   -1.7304 C   0  0  0  0  0  0  0  0  0  0  0  0
    9.3627   -1.9900   -2.1972 N   0  0  0  0  0  0  0  0  0  0  0  0
    7.4648    0.7164   -1.0238 C   0  0  0  0  0  0  0  0  0  0  0  0
    6.4213    1.4235   -0.4202 C   0  0  0  0  0  0  0  0  0  0  0  0
    5.2937    0.7550    0.0758 C   0  0  0  0  0  0  0  0  0  0  0  0
    4.2885    1.5630    0.6293 N   0  0  0  0  0  0  0  0  0  0  0  0
    2.9488    1.2754    0.7215 C   0  0  0  0  0  0  0  0  0  0  0  0
    1.9887    2.3984    1.5184 S   0  0  0  0  0  0  0  0  0  0  0  0
    0.6583   -1.0634   -0.6080 H   0  0  0  0  0  0  0  0  0  0  0  0
    0.4736    0.6957   -0.6249 H   0  0  0  0  0  0  0  0  0  0  0  0
    0.4510   -0.1959    0.9114 H   0  0  0  0  0  0  0  0  0  0  0  0
    2.8212    0.0041   -1.0107 H   0  0  0  0  0  0  0  0  0  0  0  0
    2.7770   -3.6849    1.2521 H   0  0  0  0  0  0  0  0  0  0  0  0
    3.4640   -5.6542    2.5860 H   0  0  0  0  0  0  0  0  0  0  0  0
    5.6996   -5.7140    3.6630 H   0  0  0  0  0  0  0  0  0  0  0  0
    7.2378   -3.7819    3.4381 H   0  0  0  0  0  0  0  0  0  0  0  0
    6.5561   -1.7951    2.1634 H   0  0  0  0  0  0  0  0  0  0  0  0
    6.2508   -2.4388   -0.6841 H   0  0  0  0  0  0  0  0  0  0  0  0
    8.3249    1.2618   -1.4103 H   0  0  0  0  0  0  0  0  0  0  0  0
    6.4870    2.5090   -0.3692 H   0  0  0  0  0  0  0  0  0  0  0  0
    4.5297    2.5055    0.9178 H   0  0  0  0  0  0  0  0  0  0  0  0
  1  2  1  0  0  0  0
  1 22  1  0  0  0  0
  1 23  1  0  0  0  0
  1 24  1  0  0  0  0
  2  3  1  0  0  0  0
  2 20  1  0  0  0  0
  2 25  1  6  0  0  0
  3  4  2  0  0  0  0
  4  5  1  0  0  0  0
  4 11  1  0  0  0  0
  5  6  2  0  0  0  0
  5 10  1  0  0  0  0
  6  7  1  0  0  0  0
  6 26  1  0  0  0  0
  7  8  2  0  0  0  0
  7 27  1  0  0  0  0
  8  9  1  0  0  0  0
  8 28  1  0  0  0  0
  9 10  2  0  0  0  0
  9 29  1  0  0  0  0
 10 30  1  0  0  0  0
 11 12  2  0  0  0  0
 11 18  1  0  0  0  0
 12 13  1  0  0  0  0
 12 31  1  0  0  0  0
 13 14  1  0  0  0  0
 13 16  2  0  0  0  0
 14 15  3  0  0  0  0
 16 17  1  0  0  0  0
 16 32  1  0  0  0  0
 17 18  2  0  0  0  0
 17 33  1  0  0  0  0
 18 19  1  0  0  0  0
 19 20  1  0  0  0  0
 19 34  1  0  0  0  0
 20 21  2  0  0  0  0
M  END
$$$$
