
 OpenBabel09162610133D

 34 35  0  0  0  0  0  0  0  0999 V2000
    1.1863    0.0848    0.6514 C   0  0  0  0  0  0  0  0  0  0  0  0
    2.4062   -0.2182   -0.0857 N   0  0  0  0  0  0  0  0  0  0  0  0
    3.1309   -1.4282    0.2878 C   0  0  0  0  0  0  0  0  0  0  0  0
    3.0559    0.7721   -0.8189 C   0  0  0  0  0  0  0  0  0  0  0  0
    2.6023    2.1013   -0.8551 C   0  0  0  0  0  0  0  0  0  0  0  0
    3.2365    3.0896   -1.6242 C   0  0  0  0  0  0  0  0  0  0  0  0
    4.3548    2.7820   -2.3976 C   0  0  0  0  0  0  0  0  0  0  0  0
    4.9728    3.7428   -3.3212 C   0  0  0  0  0  0  0  0  0  0  0  0
    5.0009    5.0747   -3.1526 C   0  0  0  0  0  0  0  0  0  0  0  0
    5.5456    6.0112   -4.1499 C   0  0  0  0  0  0  0  0  0  0  0  0
    5.4808    5.7435   -5.5248 C   0  0  0  0  0  0  0  0  0  0  0  0
    5.9599    6.6738   -6.4442 C   0  0  0  0  0  0  0  0  0  0  0  0
    5.8915    6.3967   -7.7537 F   0  0  0  0  0  0  0  0  0  0  0  0
    6.4955    7.8852   -6.0298 C   0  0  0  0  0  0  0  0  0  0  0  0
    6.5489    8.1757   -4.6674 C   0  0  0  0  0  0  0  0  0  0  0  0
    6.0719    7.2454   -3.7434 C   0  0  0  0  0  0  0  0  0  0  0  0
    6.1235    7.5611   -2.4396 F   0  0  0  0  0  0  0  0  0  0  0  0
    4.8231    1.4681   -2.3793 C   0  0  0  0  0  0  0  0  0  0  0  0
    4.1873    0.4900   -1.6013 C   0  0  0  0  0  0  0  0  0  0  0  0
    0.7771   -0.8076    1.1377 H   0  0  0  0  0  0  0  0  0  0  0  0
    0.4063    0.4513   -0.0257 H   0  0  0  0  0  0  0  0  0  0  0  0
    1.3698    0.8291    1.4338 H   0  0  0  0  0  0  0  0  0  0  0  0
    2.5520   -2.0515    0.9782 H   0  0  0  0  0  0  0  0  0  0  0  0
    4.0745   -1.1835    0.7879 H   0  0  0  0  0  0  0  0  0  0  0  0
    3.3349   -2.0472   -0.5923 H   0  0  0  0  0  0  0  0  0  0  0  0
    1.7307    2.4076   -0.2852 H   0  0  0  0  0  0  0  0  0  0  0  0
    2.8150    4.0915   -1.6248 H   0  0  0  0  0  0  0  0  0  0  0  0
    5.4140    3.2908   -4.2071 H   0  0  0  0  0  0  0  0  0  0  0  0
    4.6117    5.5328   -2.2452 H   0  0  0  0  0  0  0  0  0  0  0  0
    5.0459    4.8244   -5.9065 H   0  0  0  0  0  0  0  0  0  0  0  0
    6.8571    8.5958   -6.7663 H   0  0  0  0  0  0  0  0  0  0  0  0
    6.9533    9.1204   -4.3175 H   0  0  0  0  0  0  0  0  0  0  0  0
    5.6800    1.1776   -2.9828 H   0  0  0  0  0  0  0  0  0  0  0  0
    4.5889   -0.5180   -1.6533 H   0  0  0  0  0  0  0  0  0  0  0  0
  1  2  1  0  0  0  0
  1 20  1  0  0  0  0
  1 21  1  0  0  0  0
  1 22  1  0  0  0  0
  2  3  1  0  0  0  0
  2  4  1  0  0  0  0
  3 23  1  0  0  0  0
  3 24  1  0  0  0  0
  3 25  1  0  0  0  0
  4  5  2  0  0  0  0
  4 19  1  0  0  0  0
  5  6  1  0  0  0  0
  5 26  1  0  0  0  0
  6  7  2  0  0  0  0
  6 27  1  0  0  0  0
  7  8  1  0  0  0  0
  7 18  1  0  0  0  0
  8  9  2  0  0  0  0
  8 28  1  0  0  0  0
  9 10  1  0  0  0  0
  9 29  1  0  0  0  0
 10 11  2  0  0  0  0
 10 16  1  0  0  0  0
 11 12  1  0  0  0  0
 11 30  1  0  0  0  0
 12 13  1  0  0  0  0
 12 14  2  0  0  0  0
 14 15  1  0  0  0  0
 14 31  1  0  0  0  0
 15 16  2  0  0  0  0
 15 32  1  0  0  0  0
 16 17  1  0  0  0  0
 18 19  2  0  0  0  0
 18 33  1  0  0  0  0
 19 34  1  0  0  0  0
M  END
$$$$
