
 OpenBabel09162610133D

 19 20  0  0  0  0  0  0  0  0999 V2000
    1.0267   -0.2580    0.1130 Cl  0  0  0  0  0  0  0  0  0  0  0  0
    2.7419   -0.1025    0.0319 C   0  0  0  0  0  0  0  0  0  0  0  0
    3.3558   -1.2989   -0.0039 N   0  0  0  0  0  0  0  0  0  0  0  0
    4.6980   -1.2875   -0.0769 C   0  0  0  0  0  0  0  0  0  0  0  0
    5.4679   -2.6180   -0.1580 C   0  0  0  0  0  0  0  0  0  0  0  0
    4.3885   -4.0575   -0.1718 Cl  0  0  0  0  0  0  0  0  0  0  0  0
    6.4482   -2.6662   -1.6680 Cl  0  0  0  0  0  0  0  0  0  0  0  0
    6.5715   -2.7780    1.2533 Cl  0  0  0  0  0  0  0  0  0  0  0  0
    5.4148   -0.1363   -0.0981 N   0  0  0  0  0  0  0  0  0  0  0  0
    4.7715    1.0387   -0.0663 C   0  0  0  0  0  0  0  0  0  0  0  0
    5.5112    2.2141   -0.1059 C   0  0  0  0  0  0  0  0  0  0  0  0
    4.9030    3.4739   -0.0943 C   0  0  0  0  0  0  0  0  0  0  0  0
    3.5198    3.5708   -0.0347 C   0  0  0  0  0  0  0  0  0  0  0  0
    2.7554    2.4090    0.0149 C   0  0  0  0  0  0  0  0  0  0  0  0
    3.3819    1.1332   -0.0031 C   0  0  0  0  0  0  0  0  0  0  0  0
    6.5969    2.1521   -0.1544 H   0  0  0  0  0  0  0  0  0  0  0  0
    5.5144    4.3723   -0.1337 H   0  0  0  0  0  0  0  0  0  0  0  0
    3.0371    4.5460   -0.0267 H   0  0  0  0  0  0  0  0  0  0  0  0
    1.6720    2.4960    0.0613 H   0  0  0  0  0  0  0  0  0  0  0  0
  1  2  1  0  0  0  0
  2  3  2  0  0  0  0
  2 15  1  0  0  0  0
  3  4  1  0  0  0  0
  4  5  1  0  0  0  0
  4  9  2  0  0  0  0
  5  6  1  0  0  0  0
  5  7  1  0  0  0  0
  5  8  1  0  0  0  0
  9 10  1  0  0  0  0
 10 11  1  0  0  0  0
 10 15  2  0  0  0  0
 11 12  2  0  0  0  0
 11 16  1  0  0  0  0
 12 13  1  0  0  0  0
 12 17  1  0  0  0  0
 13 14  2  0  0  0  0
 13 18  1  0  0  0  0
 14 15  1  0  0  0  0
 14 19  1  0  0  0  0
M  END
$$$$
