
 OpenBabel09162610133D

 33 35  0  0  0  0  0  0  0  0999 V2000
    0.2122   -4.6532   -1.1999 C   0  0  0  0  0  0  0  0  0  0  0  0
   -0.6361   -4.8827   -0.1196 C   0  0  0  0  0  0  0  0  0  0  0  0
   -1.8978   -4.2830   -0.0790 C   0  0  0  0  0  0  0  0  0  0  0  0
   -2.3270   -3.4540   -1.1265 C   0  0  0  0  0  0  0  0  0  0  0  0
   -3.7114   -2.8486   -1.1109 C   0  0  0  0  0  0  0  0  0  0  0  0
   -3.7373   -1.1758   -0.3883 S   0  0  0  0  0  0  0  0  0  0  0  0
   -5.4730   -0.8125   -0.5489 C   0  0  0  0  0  0  0  0  0  0  0  0
   -5.9162    0.4971   -0.6162 C   0  0  0  0  0  0  0  0  0  0  0  0
   -7.2860    0.7466   -0.7496 C   0  0  0  0  0  0  0  0  0  0  0  0
   -8.1747   -0.3218   -0.8010 C   0  0  0  0  0  0  0  0  0  0  0  0
   -9.6296   -0.1786   -0.9493 C   0  0  0  0  0  0  0  0  0  0  0  0
  -10.2282    0.8753   -1.6566 C   0  0  0  0  0  0  0  0  0  0  0  0
  -11.6172    0.9577   -1.7702 C   0  0  0  0  0  0  0  0  0  0  0  0
  -12.3860   -0.0216   -1.1684 C   0  0  0  0  0  0  0  0  0  0  0  0
  -11.8646   -1.0561   -0.4816 N   0  0  0  0  0  0  0  0  0  0  0  0
  -10.5103   -1.1125   -0.3965 C   0  0  0  0  0  0  0  0  0  0  0  0
   -7.7050   -1.5857   -0.7093 N   0  0  0  0  0  0  0  0  0  0  0  0
   -6.3526   -1.8311   -0.5848 N   0  0  0  0  0  0  0  0  0  0  0  0
   -1.4555   -3.2164   -2.2005 C   0  0  0  0  0  0  0  0  0  0  0  0
   -0.1943   -3.8170   -2.2374 C   0  0  0  0  0  0  0  0  0  0  0  0
    1.1900   -5.1268   -1.2347 H   0  0  0  0  0  0  0  0  0  0  0  0
   -0.3189   -5.5352    0.6908 H   0  0  0  0  0  0  0  0  0  0  0  0
   -2.5497   -4.4785    0.7693 H   0  0  0  0  0  0  0  0  0  0  0  0
   -4.3826   -3.5105   -0.5523 H   0  0  0  0  0  0  0  0  0  0  0  0
   -4.0919   -2.7983   -2.1381 H   0  0  0  0  0  0  0  0  0  0  0  0
   -5.2165    1.3260   -0.5712 H   0  0  0  0  0  0  0  0  0  0  0  0
   -7.6363    1.7715   -0.7959 H   0  0  0  0  0  0  0  0  0  0  0  0
   -9.6239    1.6333   -2.1483 H   0  0  0  0  0  0  0  0  0  0  0  0
  -12.0866    1.7647   -2.3221 H   0  0  0  0  0  0  0  0  0  0  0  0
  -13.4705   -0.0022   -1.2278 H   0  0  0  0  0  0  0  0  0  0  0  0
  -10.1397   -1.9702    0.1627 H   0  0  0  0  0  0  0  0  0  0  0  0
   -1.7591   -2.5709   -3.0215 H   0  0  0  0  0  0  0  0  0  0  0  0
    0.4677   -3.6361   -3.0800 H   0  0  0  0  0  0  0  0  0  0  0  0
  1  2  2  0  0  0  0
  1 20  1  0  0  0  0
  1 21  1  0  0  0  0
  2  3  1  0  0  0  0
  2 22  1  0  0  0  0
  3  4  2  0  0  0  0
  3 23  1  0  0  0  0
  4  5  1  0  0  0  0
  4 19  1  0  0  0  0
  5  6  1  0  0  0  0
  5 24  1  0  0  0  0
  5 25  1  0  0  0  0
  6  7  1  0  0  0  0
  7  8  2  0  0  0  0
  7 18  1  0  0  0  0
  8  9  1  0  0  0  0
  8 26  1  0  0  0  0
  9 10  2  0  0  0  0
  9 27  1  0  0  0  0
 10 11  1  0  0  0  0
 10 17  1  0  0  0  0
 11 12  2  0  0  0  0
 11 16  1  0  0  0  0
 12 13  1  0  0  0  0
 12 28  1  0  0  0  0
 13 14  2  0  0  0  0
 13 29  1  0  0  0  0
 14 15  1  0  0  0  0
 14 30  1  0  0  0  0
 15 16  2  0  0  0  0
 16 31  1  0  0  0  0
 17 18  2  0  0  0  0
 19 20  2  0  0  0  0
 19 32  1  0  0  0  0
 20 33  1  0  0  0  0
M  END
$$$$
