
 OpenBabel09162610133D

 30 32  0  0  0  0  0  0  0  0999 V2000
    2.2274    0.0105    0.0219 C   0  0  0  0  0  0  0  0  0  0  0  0
    0.7671   -0.2111    0.0250 C   0  0  0  0  0  0  0  0  0  0  0  0
   -0.0014    0.9063    0.0604 O   0  0  0  0  0  0  0  0  0  0  0  0
   -1.3343    0.5577    0.0686 N   0  0  0  0  0  0  0  0  0  0  0  0
   -1.3746   -0.7842    0.0649 C   0  0  0  0  0  0  0  0  0  0  0  0
   -2.6585   -1.4856    0.1409 C   0  0  0  0  0  0  0  0  0  0  0  0
   -3.7836   -0.9785   -0.5313 C   0  0  0  0  0  0  0  0  0  0  0  0
   -5.0053   -1.6619   -0.4878 C   0  0  0  0  0  0  0  0  0  0  0  0
   -5.1071   -2.8554    0.2211 C   0  0  0  0  0  0  0  0  0  0  0  0
   -6.6033   -3.7022    0.2650 Cl  0  0  0  0  0  0  0  0  0  0  0  0
   -4.0060   -3.3696    0.9007 C   0  0  0  0  0  0  0  0  0  0  0  0
   -2.7921   -2.6735    0.8765 C   0  0  0  0  0  0  0  0  0  0  0  0
   -0.0485   -1.3237   -0.0159 C   0  0  0  0  0  0  0  0  0  0  0  0
    0.4336   -2.6901   -0.1172 C   0  0  0  0  0  0  0  0  0  0  0  0
   -0.2490   -3.6312   -0.8615 C   0  0  0  0  0  0  0  0  0  0  0  0
    0.2387   -4.9128   -0.8067 C   0  0  0  0  0  0  0  0  0  0  0  0
    1.3323   -5.2552   -0.1091 N   0  0  0  0  0  0  0  0  0  0  0  0
    1.9504   -4.2619    0.5498 C   0  0  0  0  0  0  0  0  0  0  0  0
    3.4014   -4.6982    1.4553 S   0  0  0  0  0  0  0  0  0  0  0  0
    1.5466   -2.9843    0.5829 N   0  0  0  0  0  0  0  0  0  0  0  0
    2.4679    1.0788    0.0098 H   0  0  0  0  0  0  0  0  0  0  0  0
    2.6852   -0.4475   -0.8597 H   0  0  0  0  0  0  0  0  0  0  0  0
    2.6844   -0.4219    0.9173 H   0  0  0  0  0  0  0  0  0  0  0  0
   -3.7163   -0.0503   -1.0921 H   0  0  0  0  0  0  0  0  0  0  0  0
   -5.8666   -1.2541   -1.0100 H   0  0  0  0  0  0  0  0  0  0  0  0
   -4.0810   -4.2999    1.4522 H   0  0  0  0  0  0  0  0  0  0  0  0
   -1.9570   -3.0763    1.4435 H   0  0  0  0  0  0  0  0  0  0  0  0
   -1.1340   -3.3985   -1.4384 H   0  0  0  0  0  0  0  0  0  0  0  0
   -0.2569   -5.7246   -1.3316 H   0  0  0  0  0  0  0  0  0  0  0  0
    3.2702   -6.0040    1.1917 H   0  0  0  0  0  0  0  0  0  0  0  0
  1  2  1  0  0  0  0
  1 21  1  0  0  0  0
  1 22  1  0  0  0  0
  1 23  1  0  0  0  0
  2  3  1  0  0  0  0
  2 13  2  0  0  0  0
  3  4  1  0  0  0  0
  4  5  2  0  0  0  0
  5  6  1  0  0  0  0
  5 13  1  0  0  0  0
  6  7  2  0  0  0  0
  6 12  1  0  0  0  0
  7  8  1  0  0  0  0
  7 24  1  0  0  0  0
  8  9  2  0  0  0  0
  8 25  1  0  0  0  0
  9 10  1  0  0  0  0
  9 11  1  0  0  0  0
 11 12  2  0  0  0  0
 11 26  1  0  0  0  0
 12 27  1  0  0  0  0
 13 14  1  0  0  0  0
 14 15  2  0  0  0  0
 14 20  1  0  0  0  0
 15 16  1  0  0  0  0
 15 28  1  0  0  0  0
 16 17  2  0  0  0  0
 16 29  1  0  0  0  0
 17 18  1  0  0  0  0
 18 19  1  0  0  0  0
 18 20  2  0  0  0  0
 19 30  1  0  0  0  0
M  END
$$$$
