
 OpenBabel09162610133D

 41 43  0  0  0  0  0  0  0  0999 V2000
   -2.9613    1.4293    0.0197 C   0  0  0  0  0  0  0  0  0  0  0  0
   -1.6703    0.6693    0.0067 C   0  0  0  0  0  0  0  0  0  0  0  0
   -0.5383    1.4128    0.0020 N   0  0  0  0  0  0  0  0  0  0  0  0
    0.6328    0.7532   -0.0151 C   0  0  0  0  0  0  0  0  0  0  0  0
    1.8129    1.4761   -0.0038 C   0  0  0  0  0  0  0  0  0  0  0  0
    3.0570    0.8403   -0.0183 C   0  0  0  0  0  0  0  0  0  0  0  0
    3.1336   -0.5497   -0.0402 C   0  0  0  0  0  0  0  0  0  0  0  0
    4.3577   -1.2598   -0.0395 N   0  0  0  0  0  0  0  0  0  0  0  0
    5.5941   -0.7554    0.3088 C   0  0  0  0  0  0  0  0  0  0  0  0
    5.7700    0.3711    0.7701 O   0  0  0  0  0  0  0  0  0  0  0  0
    6.6573   -1.6407    0.1508 N   0  0  0  0  0  0  0  0  0  0  0  0
    7.9594   -1.2629    0.7036 C   0  0  0  0  0  0  0  0  0  0  0  0
    8.9900   -1.0591   -0.4029 C   0  0  0  0  0  0  0  0  0  0  0  0
    9.0758   -2.2944   -1.2971 C   0  0  0  0  0  0  0  0  0  0  0  0
    7.6951   -2.6780   -1.8291 C   0  0  0  0  0  0  0  0  0  0  0  0
    6.6780   -2.8352   -0.6961 C   0  0  0  0  0  0  0  0  0  0  0  0
    1.9394   -1.2824   -0.0726 C   0  0  0  0  0  0  0  0  0  0  0  0
    0.6921   -0.6582   -0.0454 C   0  0  0  0  0  0  0  0  0  0  0  0
   -0.4386   -1.3953   -0.0367 N   0  0  0  0  0  0  0  0  0  0  0  0
   -1.6215   -0.7247    0.0003 C   0  0  0  0  0  0  0  0  0  0  0  0
   -2.8688   -1.5552    0.0494 C   0  0  0  0  0  0  0  0  0  0  0  0
   -2.7756    2.5086   -0.0068 H   0  0  0  0  0  0  0  0  0  0  0  0
   -3.5288    1.2093    0.9289 H   0  0  0  0  0  0  0  0  0  0  0  0
   -3.5643    1.1753   -0.8577 H   0  0  0  0  0  0  0  0  0  0  0  0
    1.7679    2.5619    0.0247 H   0  0  0  0  0  0  0  0  0  0  0  0
    3.9442    1.4650   -0.0158 H   0  0  0  0  0  0  0  0  0  0  0  0
    4.2842   -2.2644   -0.0300 H   0  0  0  0  0  0  0  0  0  0  0  0
    8.2752   -2.0742    1.3699 H   0  0  0  0  0  0  0  0  0  0  0  0
    7.8915   -0.3577    1.3156 H   0  0  0  0  0  0  0  0  0  0  0  0
    9.9715   -0.8479    0.0358 H   0  0  0  0  0  0  0  0  0  0  0  0
    8.7109   -0.1900   -1.0113 H   0  0  0  0  0  0  0  0  0  0  0  0
    9.4939   -3.1319   -0.7250 H   0  0  0  0  0  0  0  0  0  0  0  0
    9.7585   -2.1029   -2.1323 H   0  0  0  0  0  0  0  0  0  0  0  0
    7.7638   -3.6104   -2.3999 H   0  0  0  0  0  0  0  0  0  0  0  0
    7.3503   -1.8984   -2.5197 H   0  0  0  0  0  0  0  0  0  0  0  0
    6.9502   -3.6833   -0.0565 H   0  0  0  0  0  0  0  0  0  0  0  0
    5.7003   -3.0461   -1.1337 H   0  0  0  0  0  0  0  0  0  0  0  0
    1.9587   -2.3685   -0.1002 H   0  0  0  0  0  0  0  0  0  0  0  0
   -2.6279   -2.6228    0.0512 H   0  0  0  0  0  0  0  0  0  0  0  0
   -3.5002   -1.3527   -0.8211 H   0  0  0  0  0  0  0  0  0  0  0  0
   -3.4333   -1.3389    0.9627 H   0  0  0  0  0  0  0  0  0  0  0  0
  1  2  1  0  0  0  0
  1 22  1  0  0  0  0
  1 23  1  0  0  0  0
  1 24  1  0  0  0  0
  2  3  2  0  0  0  0
  2 20  1  0  0  0  0
  3  4  1  0  0  0  0
  4  5  2  0  0  0  0
  4 18  1  0  0  0  0
  5  6  1  0  0  0  0
  5 25  1  0  0  0  0
  6  7  2  0  0  0  0
  6 26  1  0  0  0  0
  7  8  1  0  0  0  0
  7 17  1  0  0  0  0
  8  9  1  0  0  0  0
  8 27  1  0  0  0  0
  9 10  2  0  0  0  0
  9 11  1  0  0  0  0
 11 12  1  0  0  0  0
 11 16  1  0  0  0  0
 12 13  1  0  0  0  0
 12 28  1  0  0  0  0
 12 29  1  0  0  0  0
 13 14  1  0  0  0  0
 13 30  1  0  0  0  0
 13 31  1  0  0  0  0
 14 15  1  0  0  0  0
 14 32  1  0  0  0  0
 14 33  1  0  0  0  0
 15 16  1  0  0  0  0
 15 34  1  0  0  0  0
 15 35  1  0  0  0  0
 16 36  1  0  0  0  0
 16 37  1  0  0  0  0
 17 18  2  0  0  0  0
 17 38  1  0  0  0  0
 18 19  1  0  0  0  0
 19 20  2  0  0  0  0
 20 21  1  0  0  0  0
 21 39  1  0  0  0  0
 21 40  1  0  0  0  0
 21 41  1  0  0  0  0
M  END
$$$$
