
 OpenBabel09162610133D

 38 41  0  0  0  0  0  0  0  0999 V2000
    1.0867    1.3755    0.3839 C   0  0  0  0  0  0  0  0  0  0  0  0
    1.8795    0.8389    1.5339 C   0  0  0  0  0  0  0  0  0  0  0  0
    2.8311    1.6013    2.1096 C   0  0  0  0  0  0  0  0  0  0  0  0
    3.6522    1.2143    3.3163 C   0  0  0  0  0  0  0  0  0  0  0  0
    3.0938    1.8723    4.5871 C   0  0  0  0  0  0  0  0  0  0  0  0
    5.1055    1.6764    3.1098 C   0  0  0  0  0  0  0  0  0  0  0  0
    3.6696   -0.2433    3.5092 N   0  0  0  0  0  0  0  0  0  0  0  0
    2.4487   -0.9090    3.2192 C   0  0  0  0  0  0  0  0  0  0  0  0
    2.2015   -2.1065    3.8892 C   0  0  0  0  0  0  0  0  0  0  0  0
    1.0823   -2.8793    3.5829 C   0  0  0  0  0  0  0  0  0  0  0  0
    0.2495   -2.4964    2.5156 C   0  0  0  0  0  0  0  0  0  0  0  0
    0.5440   -1.3281    1.7994 C   0  0  0  0  0  0  0  0  0  0  0  0
   -0.3730   -1.2862    0.7706 N   0  0  0  0  0  0  0  0  0  0  0  0
   -1.2664   -2.3278    0.8310 C   0  0  0  0  0  0  0  0  0  0  0  0
   -2.3347   -2.6526   -0.0123 C   0  0  0  0  0  0  0  0  0  0  0  0
   -3.1045   -3.7707    0.3223 C   0  0  0  0  0  0  0  0  0  0  0  0
   -2.8130   -4.5291    1.4538 C   0  0  0  0  0  0  0  0  0  0  0  0
   -1.7227   -4.2028    2.2684 C   0  0  0  0  0  0  0  0  0  0  0  0
   -0.9276   -3.0832    1.9463 C   0  0  0  0  0  0  0  0  0  0  0  0
    1.6098   -0.4709    2.1640 C   0  0  0  0  0  0  0  0  0  0  0  0
    1.3980    2.3907    0.1101 H   0  0  0  0  0  0  0  0  0  0  0  0
    0.0241    1.4408    0.6356 H   0  0  0  0  0  0  0  0  0  0  0  0
    1.2221    0.7540   -0.5070 H   0  0  0  0  0  0  0  0  0  0  0  0
    3.0171    2.5999    1.7186 H   0  0  0  0  0  0  0  0  0  0  0  0
    3.0959    2.9655    4.5078 H   0  0  0  0  0  0  0  0  0  0  0  0
    3.6915    1.5981    5.4646 H   0  0  0  0  0  0  0  0  0  0  0  0
    2.0635    1.5561    4.7893 H   0  0  0  0  0  0  0  0  0  0  0  0
    5.1740    2.7688    3.0463 H   0  0  0  0  0  0  0  0  0  0  0  0
    5.5297    1.2631    2.1863 H   0  0  0  0  0  0  0  0  0  0  0  0
    5.7472    1.3486    3.9361 H   0  0  0  0  0  0  0  0  0  0  0  0
    4.3579   -0.6628    2.8827 H   0  0  0  0  0  0  0  0  0  0  0  0
    2.8740   -2.4289    4.6800 H   0  0  0  0  0  0  0  0  0  0  0  0
    0.8804   -3.7875    4.1421 H   0  0  0  0  0  0  0  0  0  0  0  0
   -0.3884   -0.5971    0.0384 H   0  0  0  0  0  0  0  0  0  0  0  0
   -2.5652   -2.0632   -0.8941 H   0  0  0  0  0  0  0  0  0  0  0  0
   -3.9457   -4.0497   -0.3082 H   0  0  0  0  0  0  0  0  0  0  0  0
   -3.4329   -5.3859    1.7056 H   0  0  0  0  0  0  0  0  0  0  0  0
   -1.4967   -4.8033    3.1444 H   0  0  0  0  0  0  0  0  0  0  0  0
  1  2  1  0  0  0  0
  1 21  1  0  0  0  0
  1 22  1  0  0  0  0
  1 23  1  0  0  0  0
  2  3  2  0  0  0  0
  2 20  1  0  0  0  0
  3  4  1  0  0  0  0
  3 24  1  0  0  0  0
  4  5  1  0  0  0  0
  4  6  1  0  0  0  0
  4  7  1  0  0  0  0
  5 25  1  0  0  0  0
  5 26  1  0  0  0  0
  5 27  1  0  0  0  0
  6 28  1  0  0  0  0
  6 29  1  0  0  0  0
  6 30  1  0  0  0  0
  7  8  1  0  0  0  0
  7 31  1  0  0  0  0
  8  9  1  0  0  0  0
  8 20  2  0  0  0  0
  9 10  2  0  0  0  0
  9 32  1  0  0  0  0
 10 11  1  0  0  0  0
 10 33  1  0  0  0  0
 11 12  2  0  0  0  0
 11 19  1  0  0  0  0
 12 13  1  0  0  0  0
 12 20  1  0  0  0  0
 13 14  1  0  0  0  0
 13 34  1  0  0  0  0
 14 15  2  0  0  0  0
 14 19  1  0  0  0  0
 15 16  1  0  0  0  0
 15 35  1  0  0  0  0
 16 17  2  0  0  0  0
 16 36  1  0  0  0  0
 17 18  1  0  0  0  0
 17 37  1  0  0  0  0
 18 19  2  0  0  0  0
 18 38  1  0  0  0  0
M  END
$$$$
