
 OpenBabel09162610133D

 39 41  0  0  0  0  0  0  0  0999 V2000
    0.9419   -0.0360    1.3159 C   0  0  0  0  0  0  0  0  0  0  0  0
    2.2668    0.3719    0.6692 C   0  0  0  0  0  0  0  0  0  0  0  0
    1.9934    1.4160   -0.4286 C   0  0  0  0  0  0  0  0  0  0  0  0
    3.0097   -0.8422    0.0962 C   0  0  0  0  0  0  0  0  0  0  0  0
    4.4700   -0.4617    0.2104 C   0  0  0  0  0  0  0  0  0  0  0  0
    5.3563   -1.0669   -0.3681 O   0  0  0  0  0  0  0  0  0  0  0  0
    4.5604    0.6159    1.0966 N   0  0  0  0  0  0  0  0  0  0  0  0
    5.7582    1.3194    1.3608 C   0  0  0  0  0  0  0  0  0  0  0  0
    5.8179    2.3131    2.3340 C   0  0  0  0  0  0  0  0  0  0  0  0
    7.0001    3.0414    2.5219 C   0  0  0  0  0  0  0  0  0  0  0  0
    8.0904    2.7534    1.7290 C   0  0  0  0  0  0  0  0  0  0  0  0
    9.3180    3.4818    1.8154 C   0  0  0  0  0  0  0  0  0  0  0  0
   10.3342    4.1213    1.8701 C   0  0  0  0  0  0  0  0  0  0  0  0
   11.5308    4.9135    1.9084 C   0  0  0  0  0  0  0  0  0  0  0  0
   11.4423    6.3083    1.9509 C   0  0  0  0  0  0  0  0  0  0  0  0
   12.6025    7.0877    1.9651 C   0  0  0  0  0  0  0  0  0  0  0  0
   13.8547    6.4756    1.9382 C   0  0  0  0  0  0  0  0  0  0  0  0
   13.9466    5.0845    1.9015 C   0  0  0  0  0  0  0  0  0  0  0  0
   12.7878    4.3035    1.8869 C   0  0  0  0  0  0  0  0  0  0  0  0
    8.0379    1.7861    0.8015 N   0  0  0  0  0  0  0  0  0  0  0  0
    6.8620    1.0657    0.6275 N   0  0  0  0  0  0  0  0  0  0  0  0
    3.2783    0.9177    1.6840 C   0  0  0  0  0  0  0  0  0  0  0  0
    0.2544   -0.4491    0.5681 H   0  0  0  0  0  0  0  0  0  0  0  0
    0.4495    0.8229    1.7846 H   0  0  0  0  0  0  0  0  0  0  0  0
    1.0869   -0.8000    2.0872 H   0  0  0  0  0  0  0  0  0  0  0  0
    1.3286    1.0119   -1.2000 H   0  0  0  0  0  0  0  0  0  0  0  0
    2.9159    1.7400   -0.9227 H   0  0  0  0  0  0  0  0  0  0  0  0
    1.5138    2.3072   -0.0078 H   0  0  0  0  0  0  0  0  0  0  0  0
    2.7492   -1.0349   -0.9490 H   0  0  0  0  0  0  0  0  0  0  0  0
    2.8455   -1.7492    0.6883 H   0  0  0  0  0  0  0  0  0  0  0  0
    4.9677    2.5481    2.9626 H   0  0  0  0  0  0  0  0  0  0  0  0
    7.0489    3.8232    3.2715 H   0  0  0  0  0  0  0  0  0  0  0  0
   10.4713    6.7977    1.9653 H   0  0  0  0  0  0  0  0  0  0  0  0
   12.5285    8.1717    1.9917 H   0  0  0  0  0  0  0  0  0  0  0  0
   14.7576    7.0819    1.9429 H   0  0  0  0  0  0  0  0  0  0  0  0
   14.9244    4.6066    1.8786 H   0  0  0  0  0  0  0  0  0  0  0  0
   12.8740    3.2200    1.8514 H   0  0  0  0  0  0  0  0  0  0  0  0
    3.1392    1.9904    1.8492 H   0  0  0  0  0  0  0  0  0  0  0  0
    3.2162    0.3893    2.6432 H   0  0  0  0  0  0  0  0  0  0  0  0
  1  2  1  0  0  0  0
  1 23  1  0  0  0  0
  1 24  1  0  0  0  0
  1 25  1  0  0  0  0
  2  3  1  0  0  0  0
  2  4  1  0  0  0  0
  2 22  1  0  0  0  0
  3 26  1  0  0  0  0
  3 27  1  0  0  0  0
  3 28  1  0  0  0  0
  4  5  1  0  0  0  0
  4 29  1  0  0  0  0
  4 30  1  0  0  0  0
  5  6  2  0  0  0  0
  5  7  1  0  0  0  0
  7  8  1  0  0  0  0
  7 22  1  0  0  0  0
  8  9  2  0  0  0  0
  8 21  1  0  0  0  0
  9 10  1  0  0  0  0
  9 31  1  0  0  0  0
 10 11  2  0  0  0  0
 10 32  1  0  0  0  0
 11 12  1  0  0  0  0
 11 20  1  0  0  0  0
 12 13  3  0  0  0  0
 13 14  1  0  0  0  0
 14 15  2  0  0  0  0
 14 19  1  0  0  0  0
 15 16  1  0  0  0  0
 15 33  1  0  0  0  0
 16 17  2  0  0  0  0
 16 34  1  0  0  0  0
 17 18  1  0  0  0  0
 17 35  1  0  0  0  0
 18 19  2  0  0  0  0
 18 36  1  0  0  0  0
 19 37  1  0  0  0  0
 20 21  2  0  0  0  0
 22 38  1  0  0  0  0
 22 39  1  0  0  0  0
M  END
$$$$
