
 OpenBabel09162610133D

 35 37  0  0  0  0  0  0  0  0999 V2000
    0.9107    0.0595    0.2444 C   0  0  0  0  0  0  0  0  0  0  0  0
    2.3554    0.1147    0.0992 N   0  0  0  0  0  0  0  0  0  0  0  0
    2.8511    0.3166   -1.2567 C   0  0  0  0  0  0  0  0  0  0  0  0
    3.1211   -0.2083    1.2238 C   0  0  0  0  0  0  0  0  0  0  0  0
    2.6001   -0.5354    2.2977 O   0  0  0  0  0  0  0  0  0  0  0  0
    4.6105   -0.1991    1.1568 C   0  0  0  0  0  0  0  0  0  0  0  0
    5.3111    0.6875    0.3342 C   0  0  0  0  0  0  0  0  0  0  0  0
    6.6813    0.5516    0.1552 C   0  0  0  0  0  0  0  0  0  0  0  0
    7.3887   -0.3321    0.9567 C   0  0  0  0  0  0  0  0  0  0  0  0
    6.7449   -0.9267    2.0547 C   0  0  0  0  0  0  0  0  0  0  0  0
    7.4757   -1.0402    3.3256 N   0  0  0  0  0  0  0  0  0  0  0  0
    6.5979   -0.0905    4.6063 S   0  0  0  0  0  0  0  0  0  0  0  0
    7.5028    1.3438    4.0810 C   0  0  0  0  0  0  0  0  0  0  0  0
    7.0272    2.6379    3.9294 C   0  0  0  0  0  0  0  0  0  0  0  0
    7.8192    3.5616    3.2370 C   0  0  0  0  0  0  0  0  0  0  0  0
    9.0779    3.1945    2.7317 C   0  0  0  0  0  0  0  0  0  0  0  0
    9.5430    1.8848    2.8711 C   0  0  0  0  0  0  0  0  0  0  0  0
    8.7239    0.9679    3.5185 C   0  0  0  0  0  0  0  0  0  0  0  0
    8.7987   -0.5076    3.2939 C   0  0  0  0  0  0  0  0  0  0  0  0
    9.8207   -1.0671    2.9197 O   0  0  0  0  0  0  0  0  0  0  0  0
    5.3418   -1.0078    2.0388 C   0  0  0  0  0  0  0  0  0  0  0  0
    0.4231    0.5990   -0.5732 H   0  0  0  0  0  0  0  0  0  0  0  0
    0.6053    0.5062    1.1943 H   0  0  0  0  0  0  0  0  0  0  0  0
    0.6048   -0.9916    0.2252 H   0  0  0  0  0  0  0  0  0  0  0  0
    2.0917    0.0420   -1.9933 H   0  0  0  0  0  0  0  0  0  0  0  0
    3.7412   -0.2853   -1.4489 H   0  0  0  0  0  0  0  0  0  0  0  0
    3.0725    1.3820   -1.3834 H   0  0  0  0  0  0  0  0  0  0  0  0
    4.8058    1.4978   -0.1783 H   0  0  0  0  0  0  0  0  0  0  0  0
    7.2100    1.1908   -0.5461 H   0  0  0  0  0  0  0  0  0  0  0  0
    8.4693   -0.3676    0.8382 H   0  0  0  0  0  0  0  0  0  0  0  0
    6.0263    2.9072    4.2542 H   0  0  0  0  0  0  0  0  0  0  0  0
    7.4372    4.5637    3.0487 H   0  0  0  0  0  0  0  0  0  0  0  0
    9.6640    3.9196    2.1696 H   0  0  0  0  0  0  0  0  0  0  0  0
   10.4620    1.5645    2.3885 H   0  0  0  0  0  0  0  0  0  0  0  0
    4.8160   -1.5738    2.8062 H   0  0  0  0  0  0  0  0  0  0  0  0
  1  2  1  0  0  0  0
  1 22  1  0  0  0  0
  1 23  1  0  0  0  0
  1 24  1  0  0  0  0
  2  3  1  0  0  0  0
  2  4  1  0  0  0  0
  3 25  1  0  0  0  0
  3 26  1  0  0  0  0
  3 27  1  0  0  0  0
  4  5  2  0  0  0  0
  4  6  1  0  0  0  0
  6  7  2  0  0  0  0
  6 21  1  0  0  0  0
  7  8  1  0  0  0  0
  7 28  1  0  0  0  0
  8  9  2  0  0  0  0
  8 29  1  0  0  0  0
  9 10  1  0  0  0  0
  9 30  1  0  0  0  0
 10 11  1  0  0  0  0
 10 21  2  0  0  0  0
 11 12  1  0  0  0  0
 11 19  1  0  0  0  0
 12 13  1  0  0  0  0
 13 14  2  0  0  0  0
 13 18  1  0  0  0  0
 14 15  1  0  0  0  0
 14 31  1  0  0  0  0
 15 16  2  0  0  0  0
 15 32  1  0  0  0  0
 16 17  1  0  0  0  0
 16 33  1  0  0  0  0
 17 18  2  0  0  0  0
 17 34  1  0  0  0  0
 18 19  1  0  0  0  0
 19 20  2  0  0  0  0
 21 35  1  0  0  0  0
M  END
$$$$
