
 OpenBabel09162610133D

 36 39  0  0  0  0  0  0  0  0999 V2000
    4.4429    1.0537    3.1161 C   0  0  0  0  0  0  0  0  0  0  0  0
    3.9453    0.3678    1.8737 C   0  0  0  0  0  0  0  0  0  0  0  0
    2.7661    0.7270    1.2132 C   0  0  0  0  0  0  0  0  0  0  0  0
    1.9309    1.7247    1.6206 O   0  0  0  0  0  0  0  0  0  0  0  0
    2.3596    0.0566    0.0610 C   0  0  0  0  0  0  0  0  0  0  0  0
    3.1014   -1.0166   -0.4328 C   0  0  0  0  0  0  0  0  0  0  0  0
    4.2848   -1.4233    0.1887 C   0  0  0  0  0  0  0  0  0  0  0  0
    4.9659   -2.6484   -0.2564 C   0  0  0  0  0  0  0  0  0  0  0  0
    5.5450   -3.5048    0.6604 N   0  0  0  0  0  0  0  0  0  0  0  0
    6.0068   -4.6528    0.1458 N   0  0  0  0  0  0  0  0  0  0  0  0
    5.6813   -4.5616   -1.1412 C   0  0  0  0  0  0  0  0  0  0  0  0
    5.0606   -3.3348   -1.4616 C   0  0  0  0  0  0  0  0  0  0  0  0
    4.6082   -2.9206   -2.8292 C   0  0  0  0  0  0  0  0  0  0  0  0
    4.4497   -1.6624   -3.1822 N   0  0  0  0  0  0  0  0  0  0  0  0
    4.1034   -1.5833   -4.5237 C   0  0  0  0  0  0  0  0  0  0  0  0
    3.9303   -0.4024   -5.2743 C   0  0  0  0  0  0  0  0  0  0  0  0
    3.5809   -0.4798   -6.6287 C   0  0  0  0  0  0  0  0  0  0  0  0
    3.3740   -1.7141   -7.2349 C   0  0  0  0  0  0  0  0  0  0  0  0
    3.5314   -2.9001   -6.5117 C   0  0  0  0  0  0  0  0  0  0  0  0
    3.9202   -2.8100   -5.1652 C   0  0  0  0  0  0  0  0  0  0  0  0
    4.2751   -4.0746   -4.0597 S   0  0  0  0  0  0  0  0  0  0  0  0
    4.6969   -0.6969    1.3305 C   0  0  0  0  0  0  0  0  0  0  0  0
    5.8766   -1.0232    1.9627 O   0  0  0  0  0  0  0  0  0  0  0  0
    3.8209    1.8952    3.4274 H   0  0  0  0  0  0  0  0  0  0  0  0
    5.4490    1.4521    2.9499 H   0  0  0  0  0  0  0  0  0  0  0  0
    4.4692    0.3433    3.9490 H   0  0  0  0  0  0  0  0  0  0  0  0
    2.1261    1.9619    2.5395 H   0  0  0  0  0  0  0  0  0  0  0  0
    1.4405    0.3509   -0.4399 H   0  0  0  0  0  0  0  0  0  0  0  0
    2.7119   -1.5446   -1.2978 H   0  0  0  0  0  0  0  0  0  0  0  0
    5.6339   -3.3493    1.6607 H   0  0  0  0  0  0  0  0  0  0  0  0
    5.9354   -5.3880   -1.7972 H   0  0  0  0  0  0  0  0  0  0  0  0
    4.0869    0.5621   -4.7995 H   0  0  0  0  0  0  0  0  0  0  0  0
    3.4700    0.4335   -7.2087 H   0  0  0  0  0  0  0  0  0  0  0  0
    3.0967   -1.7617   -8.2858 H   0  0  0  0  0  0  0  0  0  0  0  0
    3.3763   -3.8645   -6.9857 H   0  0  0  0  0  0  0  0  0  0  0  0
    6.5501   -1.0813    1.2598 H   0  0  0  0  0  0  0  0  0  0  0  0
  1  2  1  0  0  0  0
  1 24  1  0  0  0  0
  1 25  1  0  0  0  0
  1 26  1  0  0  0  0
  2  3  2  0  0  0  0
  2 22  1  0  0  0  0
  3  4  1  0  0  0  0
  3  5  1  0  0  0  0
  4 27  1  0  0  0  0
  5  6  2  0  0  0  0
  5 28  1  0  0  0  0
  6  7  1  0  0  0  0
  6 29  1  0  0  0  0
  7  8  1  0  0  0  0
  7 22  2  0  0  0  0
  8  9  1  0  0  0  0
  8 12  2  0  0  0  0
  9 10  1  0  0  0  0
  9 30  1  0  0  0  0
 10 11  2  0  0  0  0
 11 12  1  0  0  0  0
 11 31  1  0  0  0  0
 12 13  1  0  0  0  0
 13 14  2  0  0  0  0
 13 21  1  0  0  0  0
 14 15  1  0  0  0  0
 15 16  2  0  0  0  0
 15 20  1  0  0  0  0
 16 17  1  0  0  0  0
 16 32  1  0  0  0  0
 17 18  2  0  0  0  0
 17 33  1  0  0  0  0
 18 19  1  0  0  0  0
 18 34  1  0  0  0  0
 19 20  2  0  0  0  0
 19 35  1  0  0  0  0
 20 21  1  0  0  0  0
 22 23  1  0  0  0  0
 23 36  1  0  0  0  0
M  END
$$$$
