
 OpenBabel09162610133D

 30 31  0  0  0  0  0  0  0  0999 V2000
    2.3164    0.2607   -1.6823 C   0  0  0  0  0  0  0  0  0  0  0  0
    2.6740   -0.0264   -0.2272 C   0  0  0  0  0  0  0  0  0  0  0  0
    3.0902    1.1853    0.5812 C   0  0  0  0  0  0  0  0  0  0  0  0
    2.6715    2.3740    0.0842 N   0  0  0  0  0  0  0  0  0  0  0  0
    2.9314    3.4751    0.7833 C   0  0  0  0  0  0  0  0  0  0  0  0
    2.5428    4.6774    0.2404 N   0  0  0  0  0  0  0  0  0  0  0  0
    3.4947    3.4843    1.9847 N   0  0  0  0  0  0  0  0  0  0  0  0
    3.9051    2.3045    2.4751 C   0  0  0  0  0  0  0  0  0  0  0  0
    4.4476    2.3931    3.7631 N   0  0  0  0  0  0  0  0  0  0  0  0
    3.7700    1.0805    1.8036 C   0  0  0  0  0  0  0  0  0  0  0  0
    4.2946   -0.2023    2.3453 C   0  0  0  0  0  0  0  0  0  0  0  0
    3.4200   -1.2910    2.5537 C   0  0  0  0  0  0  0  0  0  0  0  0
    3.8856   -2.5410    2.9778 C   0  0  0  0  0  0  0  0  0  0  0  0
    5.2320   -2.7162    3.2650 C   0  0  0  0  0  0  0  0  0  0  0  0
    5.8052   -4.2502    3.7893 Cl  0  0  0  0  0  0  0  0  0  0  0  0
    6.1203   -1.6582    3.1189 C   0  0  0  0  0  0  0  0  0  0  0  0
    5.6612   -0.4228    2.6422 C   0  0  0  0  0  0  0  0  0  0  0  0
    6.8750    0.7932    2.4002 Cl  0  0  0  0  0  0  0  0  0  0  0  0
    1.9975   -0.6622   -2.1776 H   0  0  0  0  0  0  0  0  0  0  0  0
    3.1820    0.6596   -2.2281 H   0  0  0  0  0  0  0  0  0  0  0  0
    1.4955    0.9796   -1.7671 H   0  0  0  0  0  0  0  0  0  0  0  0
    3.4742   -0.7729   -0.2259 H   0  0  0  0  0  0  0  0  0  0  0  0
    1.7920   -0.4634    0.2510 H   0  0  0  0  0  0  0  0  0  0  0  0
    1.7882    4.5263   -0.4152 H   0  0  0  0  0  0  0  0  0  0  0  0
    2.3858    5.3504    0.9761 H   0  0  0  0  0  0  0  0  0  0  0  0
    4.4609    3.3840    3.9972 H   0  0  0  0  0  0  0  0  0  0  0  0
    5.3868    2.0076    3.7857 H   0  0  0  0  0  0  0  0  0  0  0  0
    2.3536   -1.1822    2.3638 H   0  0  0  0  0  0  0  0  0  0  0  0
    3.1883   -3.3697    3.0779 H   0  0  0  0  0  0  0  0  0  0  0  0
    7.1720   -1.7982    3.3568 H   0  0  0  0  0  0  0  0  0  0  0  0
  1  2  1  0  0  0  0
  1 19  1  0  0  0  0
  1 20  1  0  0  0  0
  1 21  1  0  0  0  0
  2  3  1  0  0  0  0
  2 22  1  0  0  0  0
  2 23  1  0  0  0  0
  3  4  2  0  0  0  0
  3 10  1  0  0  0  0
  4  5  1  0  0  0  0
  5  6  1  0  0  0  0
  5  7  2  0  0  0  0
  6 24  1  0  0  0  0
  6 25  1  0  0  0  0
  7  8  1  0  0  0  0
  8  9  1  0  0  0  0
  8 10  2  0  0  0  0
  9 26  1  0  0  0  0
  9 27  1  0  0  0  0
 10 11  1  0  0  0  0
 11 12  2  0  0  0  0
 11 17  1  0  0  0  0
 12 13  1  0  0  0  0
 12 28  1  0  0  0  0
 13 14  2  0  0  0  0
 13 29  1  0  0  0  0
 14 15  1  0  0  0  0
 14 16  1  0  0  0  0
 16 17  2  0  0  0  0
 16 30  1  0  0  0  0
 17 18  1  0  0  0  0
M  END
$$$$
