
 OpenBabel09162610133D

 30 32  0  0  0  0  0  0  0  0999 V2000
    0.9811    0.1703    0.0617 C   0  0  0  0  0  0  0  0  0  0  0  0
    2.4790   -0.0968    0.0807 C   0  0  0  0  0  0  0  0  0  0  0  0
    2.9837   -0.2584    1.4411 N   0  0  0  0  0  0  0  0  0  0  0  0
    3.0337   -1.5283    2.0113 C   0  0  0  0  0  0  0  0  0  0  0  0
    3.4508   -1.7263    3.2747 C   0  0  0  0  0  0  0  0  0  0  0  0
    3.8556   -0.6225    4.0876 C   0  0  0  0  0  0  0  0  0  0  0  0
    3.7959    0.6325    3.5168 C   0  0  0  0  0  0  0  0  0  0  0  0
    4.2991    1.8519    4.5808 S   0  0  0  0  0  0  0  0  0  0  0  0
    4.5938    0.7162    5.8195 C   0  0  0  0  0  0  0  0  0  0  0  0
    5.0463    1.1437    7.0151 N   0  0  0  0  0  0  0  0  0  0  0  0
    5.2374    0.1641    7.9115 C   0  0  0  0  0  0  0  0  0  0  0  0
    5.0096   -1.1817    7.6882 C   0  0  0  0  0  0  0  0  0  0  0  0
    4.5412   -1.5970    6.4377 C   0  0  0  0  0  0  0  0  0  0  0  0
    4.2806   -2.9038    6.1083 O   0  0  0  0  0  0  0  0  0  0  0  0
    4.4981   -3.8855    7.1164 C   0  0  0  0  0  0  0  0  0  0  0  0
    4.3199   -0.6018    5.4475 C   0  0  0  0  0  0  0  0  0  0  0  0
    3.3495    0.9047    2.1607 C   0  0  0  0  0  0  0  0  0  0  0  0
    3.2830    2.0309    1.6693 O   0  0  0  0  0  0  0  0  0  0  0  0
    0.6371    0.3389   -0.9632 H   0  0  0  0  0  0  0  0  0  0  0  0
    0.7276    1.0538    0.6571 H   0  0  0  0  0  0  0  0  0  0  0  0
    0.4271   -0.6793    0.4738 H   0  0  0  0  0  0  0  0  0  0  0  0
    3.0003    0.7407   -0.3978 H   0  0  0  0  0  0  0  0  0  0  0  0
    2.7132   -0.9933   -0.5051 H   0  0  0  0  0  0  0  0  0  0  0  0
    2.7178   -2.3617    1.3896 H   0  0  0  0  0  0  0  0  0  0  0  0
    3.4778   -2.7321    3.6840 H   0  0  0  0  0  0  0  0  0  0  0  0
    5.6013    0.5041    8.8788 H   0  0  0  0  0  0  0  0  0  0  0  0
    5.2042   -1.8721    8.4993 H   0  0  0  0  0  0  0  0  0  0  0  0
    4.2413   -4.8625    6.6964 H   0  0  0  0  0  0  0  0  0  0  0  0
    3.8480   -3.7143    7.9811 H   0  0  0  0  0  0  0  0  0  0  0  0
    5.5517   -3.9184    7.4141 H   0  0  0  0  0  0  0  0  0  0  0  0
  1  2  1  0  0  0  0
  1 19  1  0  0  0  0
  1 20  1  0  0  0  0
  1 21  1  0  0  0  0
  2  3  1  0  0  0  0
  2 22  1  0  0  0  0
  2 23  1  0  0  0  0
  3  4  1  0  0  0  0
  3 17  1  0  0  0  0
  4  5  2  0  0  0  0
  4 24  1  0  0  0  0
  5  6  1  0  0  0  0
  5 25  1  0  0  0  0
  6  7  2  0  0  0  0
  6 16  1  0  0  0  0
  7  8  1  0  0  0  0
  7 17  1  0  0  0  0
  8  9  1  0  0  0  0
  9 10  2  0  0  0  0
  9 16  1  0  0  0  0
 10 11  1  0  0  0  0
 11 12  2  0  0  0  0
 11 26  1  0  0  0  0
 12 13  1  0  0  0  0
 12 27  1  0  0  0  0
 13 14  1  0  0  0  0
 13 16  2  0  0  0  0
 14 15  1  0  0  0  0
 15 28  1  0  0  0  0
 15 29  1  0  0  0  0
 15 30  1  0  0  0  0
 17 18  2  0  0  0  0
M  END
$$$$
