
 OpenBabel09162610133D

 37 39  0  0  0  0  0  0  0  0999 V2000
    1.0418   -0.2043    0.0694 C   0  0  0  0  0  0  0  0  0  0  0  0
    2.5409   -0.0793    0.0415 C   0  0  0  0  0  0  0  0  0  0  0  0
    3.2997   -1.2711    0.0722 C   0  0  0  0  0  0  0  0  0  0  0  0
    4.6895   -1.2651    0.0413 C   0  0  0  0  0  0  0  0  0  0  0  0
    5.3803   -0.0619   -0.0322 C   0  0  0  0  0  0  0  0  0  0  0  0
    4.6659    1.1495   -0.0725 C   0  0  0  0  0  0  0  0  0  0  0  0
    5.0836    2.5001   -0.1592 C   0  0  0  0  0  0  0  0  0  0  0  0
    3.9783    3.3314   -0.0741 C   0  0  0  0  0  0  0  0  0  0  0  0
    3.9299    4.7940   -0.0779 C   0  0  0  0  0  0  0  0  0  0  0  0
    3.0425    5.3904   -0.6890 O   0  0  0  0  0  0  0  0  0  0  0  0
    4.9019    5.5371    0.6089 N   0  0  0  0  0  0  0  0  0  0  0  0
    5.9724    5.0284    1.4748 C   0  0  0  0  0  0  0  0  0  0  0  0
    7.3567    5.2932    0.8731 C   0  0  0  0  0  0  0  0  0  0  0  0
    7.6773    7.0826    0.6776 S   0  0  0  0  0  0  0  0  0  0  0  0
    6.1485    7.5285   -0.2208 C   0  0  0  0  0  0  0  0  0  0  0  0
    4.8912    7.0003    0.4745 C   0  0  0  0  0  0  0  0  0  0  0  0
    2.8741    2.4772   -0.1155 N   0  0  0  0  0  0  0  0  0  0  0  0
    1.4890    2.8934   -0.2098 C   0  0  0  0  0  0  0  0  0  0  0  0
    3.2685    1.1403   -0.0367 C   0  0  0  0  0  0  0  0  0  0  0  0
    0.7266   -1.2304    0.2912 H   0  0  0  0  0  0  0  0  0  0  0  0
    0.6232    0.0626   -0.9045 H   0  0  0  0  0  0  0  0  0  0  0  0
    0.6159    0.4346    0.8480 H   0  0  0  0  0  0  0  0  0  0  0  0
    2.7909   -2.2327    0.1209 H   0  0  0  0  0  0  0  0  0  0  0  0
    5.2384   -2.2028    0.0722 H   0  0  0  0  0  0  0  0  0  0  0  0
    6.4677   -0.0592   -0.0558 H   0  0  0  0  0  0  0  0  0  0  0  0
    6.1093    2.8210   -0.2491 H   0  0  0  0  0  0  0  0  0  0  0  0
    5.8480    3.9681    1.6923 H   0  0  0  0  0  0  0  0  0  0  0  0
    5.8798    5.5338    2.4448 H   0  0  0  0  0  0  0  0  0  0  0  0
    7.4548    4.8256   -0.1119 H   0  0  0  0  0  0  0  0  0  0  0  0
    8.1357    4.8792    1.5205 H   0  0  0  0  0  0  0  0  0  0  0  0
    6.2223    7.1305   -1.2384 H   0  0  0  0  0  0  0  0  0  0  0  0
    6.1037    8.6197   -0.2914 H   0  0  0  0  0  0  0  0  0  0  0  0
    4.0173    7.3407   -0.0897 H   0  0  0  0  0  0  0  0  0  0  0  0
    4.7944    7.4273    1.4805 H   0  0  0  0  0  0  0  0  0  0  0  0
    1.3904    3.9268   -0.5273 H   0  0  0  0  0  0  0  0  0  0  0  0
    1.0246    2.7673    0.7709 H   0  0  0  0  0  0  0  0  0  0  0  0
    0.9913    2.2825   -0.9657 H   0  0  0  0  0  0  0  0  0  0  0  0
  1  2  1  0  0  0  0
  1 20  1  0  0  0  0
  1 21  1  0  0  0  0
  1 22  1  0  0  0  0
  2  3  2  0  0  0  0
  2 19  1  0  0  0  0
  3  4  1  0  0  0  0
  3 23  1  0  0  0  0
  4  5  2  0  0  0  0
  4 24  1  0  0  0  0
  5  6  1  0  0  0  0
  5 25  1  0  0  0  0
  6  7  1  0  0  0  0
  6 19  2  0  0  0  0
  7  8  2  0  0  0  0
  7 26  1  0  0  0  0
  8  9  1  0  0  0  0
  8 17  1  0  0  0  0
  9 10  2  0  0  0  0
  9 11  1  0  0  0  0
 11 12  1  0  0  0  0
 11 16  1  0  0  0  0
 12 13  1  0  0  0  0
 12 27  1  0  0  0  0
 12 28  1  0  0  0  0
 13 14  1  0  0  0  0
 13 29  1  0  0  0  0
 13 30  1  0  0  0  0
 14 15  1  0  0  0  0
 15 16  1  0  0  0  0
 15 31  1  0  0  0  0
 15 32  1  0  0  0  0
 16 33  1  0  0  0  0
 16 34  1  0  0  0  0
 17 18  1  0  0  0  0
 17 19  1  0  0  0  0
 18 35  1  0  0  0  0
 18 36  1  0  0  0  0
 18 37  1  0  0  0  0
M  END
$$$$
