
 OpenBabel09162610133D

 33 37  0  0  0  0  0  0  0  0999 V2000
    2.7719   -1.7076    0.1967 C   0  0  0  0  0  0  0  0  0  0  0  0
    2.6380   -0.9524   -1.0264 N   0  0  0  0  0  0  0  0  0  0  0  0
    2.7361   -1.4759   -2.2779 C   0  0  0  0  0  0  0  0  0  0  0  0
    3.0720   -2.6042   -2.5836 O   0  0  0  0  0  0  0  0  0  0  0  0
    2.2716   -0.4299   -3.2046 C   0  0  0  0  0  0  0  0  0  0  0  0
    1.9049    0.6290   -2.4553 C   0  0  0  0  0  0  0  0  0  0  0  0
    1.1713    1.6816   -2.9942 N   0  0  0  0  0  0  0  0  0  0  0  0
    0.6811    2.8299   -2.4197 C   0  0  0  0  0  0  0  0  0  0  0  0
   -0.1344    3.4639   -3.3353 C   0  0  0  0  0  0  0  0  0  0  0  0
   -0.1181    2.7041   -4.5342 C   0  0  0  0  0  0  0  0  0  0  0  0
    0.7155    1.6350   -4.3144 C   0  0  0  0  0  0  0  0  0  0  0  0
    1.1438    0.5133   -5.0988 C   0  0  0  0  0  0  0  0  0  0  0  0
    0.8583    0.2238   -6.3966 N   0  0  0  0  0  0  0  0  0  0  0  0
    1.5377   -0.9202   -6.7715 C   0  0  0  0  0  0  0  0  0  0  0  0
    1.5649   -1.5732   -8.0103 C   0  0  0  0  0  0  0  0  0  0  0  0
    2.3854   -2.6967   -8.1365 C   0  0  0  0  0  0  0  0  0  0  0  0
    3.1469   -3.1508   -7.0635 C   0  0  0  0  0  0  0  0  0  0  0  0
    3.0886   -2.5075   -5.8208 C   0  0  0  0  0  0  0  0  0  0  0  0
    2.2634   -1.3758   -5.6586 C   0  0  0  0  0  0  0  0  0  0  0  0
    1.9466   -0.4987   -4.5915 C   0  0  0  0  0  0  0  0  0  0  0  0
    2.2134    0.3375   -1.0581 C   0  0  0  0  0  0  0  0  0  0  0  0
    2.0473    1.0972   -0.1218 O   0  0  0  0  0  0  0  0  0  0  0  0
    3.6877   -1.4037    0.7083 H   0  0  0  0  0  0  0  0  0  0  0  0
    2.7922   -2.7806   -0.0098 H   0  0  0  0  0  0  0  0  0  0  0  0
    1.9187   -1.4803    0.8456 H   0  0  0  0  0  0  0  0  0  0  0  0
    0.9332    3.0897   -1.3990 H   0  0  0  0  0  0  0  0  0  0  0  0
   -0.6892    4.3754   -3.1517 H   0  0  0  0  0  0  0  0  0  0  0  0
   -0.6663    2.9200   -5.4410 H   0  0  0  0  0  0  0  0  0  0  0  0
    0.2632    0.7678   -7.0045 H   0  0  0  0  0  0  0  0  0  0  0  0
    0.9777   -1.2191   -8.8516 H   0  0  0  0  0  0  0  0  0  0  0  0
    2.4346   -3.2192   -9.0892 H   0  0  0  0  0  0  0  0  0  0  0  0
    3.7930   -4.0168   -7.1872 H   0  0  0  0  0  0  0  0  0  0  0  0
    3.6911   -2.8798   -4.9969 H   0  0  0  0  0  0  0  0  0  0  0  0
  1  2  1  0  0  0  0
  1 23  1  0  0  0  0
  1 24  1  0  0  0  0
  1 25  1  0  0  0  0
  2  3  1  0  0  0  0
  2 21  1  0  0  0  0
  3  4  2  0  0  0  0
  3  5  1  0  0  0  0
  5  6  2  0  0  0  0
  5 20  1  0  0  0  0
  6  7  1  0  0  0  0
  6 21  1  0  0  0  0
  7  8  1  0  0  0  0
  7 11  1  0  0  0  0
  8  9  2  0  0  0  0
  8 26  1  0  0  0  0
  9 10  1  0  0  0  0
  9 27  1  0  0  0  0
 10 11  2  0  0  0  0
 10 28  1  0  0  0  0
 11 12  1  0  0  0  0
 12 13  1  0  0  0  0
 12 20  2  0  0  0  0
 13 14  1  0  0  0  0
 13 29  1  0  0  0  0
 14 15  1  0  0  0  0
 14 19  2  0  0  0  0
 15 16  2  0  0  0  0
 15 30  1  0  0  0  0
 16 17  1  0  0  0  0
 16 31  1  0  0  0  0
 17 18  2  0  0  0  0
 17 32  1  0  0  0  0
 18 19  1  0  0  0  0
 18 33  1  0  0  0  0
 19 20  1  0  0  0  0
 21 22  2  0  0  0  0
M  END
$$$$
