
 OpenBabel09162610133D

 37 39  0  0  0  0  0  0  0  0999 V2000
    2.1061    1.9883   -0.0218 C   0  0  0  0  0  0  0  0  0  0  0  0
    1.0355    0.9401   -0.0902 C   0  0  0  0  0  0  0  0  0  0  0  0
    1.3555   -0.4133   -0.1554 C   0  0  0  0  0  0  0  0  0  0  0  0
    0.3620   -1.4152   -0.1560 C   0  0  0  0  0  0  0  0  0  0  0  0
    0.8706   -2.8343   -0.1766 C   0  0  0  0  0  0  0  0  0  0  0  0
   -1.0051   -1.0336   -0.0807 C   0  0  0  0  0  0  0  0  0  0  0  0
   -2.2933   -2.2782    0.1044 S   0  0  0  0  0  0  0  0  0  0  0  0
   -1.7636   -3.6146   -0.0711 O   0  0  0  0  0  0  0  0  0  0  0  0
   -3.0674   -1.9360    1.2863 O   0  0  0  0  0  0  0  0  0  0  0  0
   -3.3424   -2.0876   -1.2259 N   0  0  0  0  0  0  0  0  0  0  0  0
   -4.6874   -1.8354   -1.1037 C   0  0  0  0  0  0  0  0  0  0  0  0
   -5.1986   -1.7136   -2.3772 C   0  0  0  0  0  0  0  0  0  0  0  0
   -4.1384   -1.9658   -3.2927 C   0  0  0  0  0  0  0  0  0  0  0  0
   -4.0627   -2.0032   -4.6916 C   0  0  0  0  0  0  0  0  0  0  0  0
   -2.8348   -2.3351   -5.2378 C   0  0  0  0  0  0  0  0  0  0  0  0
   -1.7331   -2.6298   -4.5181 N   0  0  0  0  0  0  0  0  0  0  0  0
   -1.7947   -2.5983   -3.1678 C   0  0  0  0  0  0  0  0  0  0  0  0
   -2.9859   -2.2444   -2.5459 C   0  0  0  0  0  0  0  0  0  0  0  0
   -1.3418    0.3454   -0.0345 C   0  0  0  0  0  0  0  0  0  0  0  0
   -2.7268    0.9299    0.0661 C   0  0  0  0  0  0  0  0  0  0  0  0
   -0.3072    1.3055   -0.0480 C   0  0  0  0  0  0  0  0  0  0  0  0
    3.1076    1.5476   -0.0863 H   0  0  0  0  0  0  0  0  0  0  0  0
    2.0409    2.5291    0.9280 H   0  0  0  0  0  0  0  0  0  0  0  0
    1.9976    2.6984   -0.8477 H   0  0  0  0  0  0  0  0  0  0  0  0
    2.4072   -0.7008   -0.1837 H   0  0  0  0  0  0  0  0  0  0  0  0
    1.9439   -2.8691   -0.3978 H   0  0  0  0  0  0  0  0  0  0  0  0
    0.4030   -3.4207   -0.9690 H   0  0  0  0  0  0  0  0  0  0  0  0
    0.7219   -3.3078    0.7975 H   0  0  0  0  0  0  0  0  0  0  0  0
   -5.1604   -1.7470   -0.1341 H   0  0  0  0  0  0  0  0  0  0  0  0
   -6.2293   -1.4940   -2.6238 H   0  0  0  0  0  0  0  0  0  0  0  0
   -4.9188   -1.7925   -5.3216 H   0  0  0  0  0  0  0  0  0  0  0  0
   -2.7029   -2.3820   -6.3156 H   0  0  0  0  0  0  0  0  0  0  0  0
   -0.8871   -2.8670   -2.6460 H   0  0  0  0  0  0  0  0  0  0  0  0
   -3.5270    0.2034    0.1244 H   0  0  0  0  0  0  0  0  0  0  0  0
   -2.9228    1.5588   -0.8110 H   0  0  0  0  0  0  0  0  0  0  0  0
   -2.8018    1.5503    0.9658 H   0  0  0  0  0  0  0  0  0  0  0  0
   -0.5598    2.3654    0.0069 H   0  0  0  0  0  0  0  0  0  0  0  0
  1  2  1  0  0  0  0
  1 22  1  0  0  0  0
  1 23  1  0  0  0  0
  1 24  1  0  0  0  0
  2  3  2  0  0  0  0
  2 21  1  0  0  0  0
  3  4  1  0  0  0  0
  3 25  1  0  0  0  0
  4  5  1  0  0  0  0
  4  6  2  0  0  0  0
  5 26  1  0  0  0  0
  5 27  1  0  0  0  0
  5 28  1  0  0  0  0
  6  7  1  0  0  0  0
  6 19  1  0  0  0  0
  7  8  2  0  0  0  0
  7  9  2  0  0  0  0
  7 10  1  0  0  0  0
 10 11  1  0  0  0  0
 10 18  1  0  0  0  0
 11 12  2  0  0  0  0
 11 29  1  0  0  0  0
 12 13  1  0  0  0  0
 12 30  1  0  0  0  0
 13 14  2  0  0  0  0
 13 18  1  0  0  0  0
 14 15  1  0  0  0  0
 14 31  1  0  0  0  0
 15 16  2  0  0  0  0
 15 32  1  0  0  0  0
 16 17  1  0  0  0  0
 17 18  2  0  0  0  0
 17 33  1  0  0  0  0
 19 20  1  0  0  0  0
 19 21  2  0  0  0  0
 20 34  1  0  0  0  0
 20 35  1  0  0  0  0
 20 36  1  0  0  0  0
 21 37  1  0  0  0  0
M  END
$$$$
