
 OpenBabel09162610133D

 43 44  0  0  0  0  0  0  0  0999 V2000
    1.1546   -0.5355   -0.4666 C   0  0  0  0  0  0  0  0  0  0  0  0
    2.5092   -0.1317   -0.2843 O   0  0  0  0  0  0  0  0  0  0  0  0
    3.1214   -0.5440    0.8694 C   0  0  0  0  0  0  0  0  0  0  0  0
    2.7154   -1.6923    1.5501 C   0  0  0  0  0  0  0  0  0  0  0  0
    3.3926   -2.1353    2.6859 C   0  0  0  0  0  0  0  0  0  0  0  0
    4.5029   -1.4562    3.1761 C   0  0  0  0  0  0  0  0  0  0  0  0
    5.2137   -1.8750    4.3318 N   0  0  0  0  0  0  0  0  0  0  0  0
    4.8441   -2.9109    5.1764 C   0  0  0  0  0  0  0  0  0  0  0  0
    3.8450   -3.6229    5.0717 O   0  0  0  0  0  0  0  0  0  0  0  0
    5.8046   -3.1660    6.3207 C   0  0  0  0  0  0  0  0  0  0  0  0
    6.9653   -4.0937    5.9330 C   0  0  0  0  0  0  0  0  0  0  0  0
    6.4799   -5.4599    5.4128 C   0  0  0  0  0  0  0  0  0  0  0  0
    7.6511   -6.3815    5.0768 C   0  0  0  0  0  0  0  0  0  0  0  0
    8.5806   -6.5679    6.2704 C   0  0  0  0  0  0  0  0  0  0  0  0
    9.0568   -5.2282    6.8219 C   0  0  0  0  0  0  0  0  0  0  0  0
    7.8888   -4.3000    7.1464 C   0  0  0  0  0  0  0  0  0  0  0  0
    4.9307   -0.3137    2.4875 C   0  0  0  0  0  0  0  0  0  0  0  0
    4.2389    0.1591    1.3478 C   0  0  0  0  0  0  0  0  0  0  0  0
    4.7904    1.2905    0.7997 O   0  0  0  0  0  0  0  0  0  0  0  0
    3.8956    2.1756    0.1278 C   0  0  0  0  0  0  0  0  0  0  0  0
    0.7807   -0.0550   -1.3765 H   0  0  0  0  0  0  0  0  0  0  0  0
    0.5328   -0.2087    0.3694 H   0  0  0  0  0  0  0  0  0  0  0  0
    1.0723   -1.6169   -0.6206 H   0  0  0  0  0  0  0  0  0  0  0  0
    1.8806   -2.2983    1.2143 H   0  0  0  0  0  0  0  0  0  0  0  0
    3.0220   -3.0427    3.1481 H   0  0  0  0  0  0  0  0  0  0  0  0
    6.0276   -1.3297    4.5838 H   0  0  0  0  0  0  0  0  0  0  0  0
    5.2240   -3.6015    7.1446 H   0  0  0  0  0  0  0  0  0  0  0  0
    6.1847   -2.2054    6.6880 H   0  0  0  0  0  0  0  0  0  0  0  0
    7.5420   -3.6110    5.1327 H   0  0  0  0  0  0  0  0  0  0  0  0
    5.8701   -5.3351    4.5113 H   0  0  0  0  0  0  0  0  0  0  0  0
    5.8427   -5.9429    6.1655 H   0  0  0  0  0  0  0  0  0  0  0  0
    8.2156   -5.9581    4.2368 H   0  0  0  0  0  0  0  0  0  0  0  0
    7.2728   -7.3558    4.7476 H   0  0  0  0  0  0  0  0  0  0  0  0
    9.4446   -7.1735    5.9742 H   0  0  0  0  0  0  0  0  0  0  0  0
    8.0562   -7.1232    7.0579 H   0  0  0  0  0  0  0  0  0  0  0  0
    9.7106   -4.7428    6.0871 H   0  0  0  0  0  0  0  0  0  0  0  0
    9.6571   -5.3948    7.7234 H   0  0  0  0  0  0  0  0  0  0  0  0
    8.2777   -3.3357    7.4915 H   0  0  0  0  0  0  0  0  0  0  0  0
    7.3149   -4.7270    7.9812 H   0  0  0  0  0  0  0  0  0  0  0  0
    5.7994    0.2461    2.8238 H   0  0  0  0  0  0  0  0  0  0  0  0
    4.3961    3.1450    0.0315 H   0  0  0  0  0  0  0  0  0  0  0  0
    2.9761    2.3364    0.7004 H   0  0  0  0  0  0  0  0  0  0  0  0
    3.6842    1.8289   -0.8873 H   0  0  0  0  0  0  0  0  0  0  0  0
  1  2  1  0  0  0  0
  1 21  1  0  0  0  0
  1 22  1  0  0  0  0
  1 23  1  0  0  0  0
  2  3  1  0  0  0  0
  3  4  2  0  0  0  0
  3 18  1  0  0  0  0
  4  5  1  0  0  0  0
  4 24  1  0  0  0  0
  5  6  2  0  0  0  0
  5 25  1  0  0  0  0
  6  7  1  0  0  0  0
  6 17  1  0  0  0  0
  7  8  1  0  0  0  0
  7 26  1  0  0  0  0
  8  9  2  0  0  0  0
  8 10  1  0  0  0  0
 10 11  1  0  0  0  0
 10 27  1  0  0  0  0
 10 28  1  0  0  0  0
 11 12  1  0  0  0  0
 11 16  1  0  0  0  0
 11 29  1  0  0  0  0
 12 13  1  0  0  0  0
 12 30  1  0  0  0  0
 12 31  1  0  0  0  0
 13 14  1  0  0  0  0
 13 32  1  0  0  0  0
 13 33  1  0  0  0  0
 14 15  1  0  0  0  0
 14 34  1  0  0  0  0
 14 35  1  0  0  0  0
 15 16  1  0  0  0  0
 15 36  1  0  0  0  0
 15 37  1  0  0  0  0
 16 38  1  0  0  0  0
 16 39  1  0  0  0  0
 17 18  2  0  0  0  0
 17 40  1  0  0  0  0
 18 19  1  0  0  0  0
 19 20  1  0  0  0  0
 20 41  1  0  0  0  0
 20 42  1  0  0  0  0
 20 43  1  0  0  0  0
M  END
$$$$
