
 OpenBabel09162610133D

 35 37  0  0  0  0  0  0  0  0999 V2000
    1.0434   -0.1168   -0.0668 C   0  0  0  0  0  0  0  0  0  0  0  0
    2.5433   -0.0738   -0.0700 C   0  0  0  0  0  0  0  0  0  0  0  0
    3.2986   -1.2496   -0.0698 C   0  0  0  0  0  0  0  0  0  0  0  0
    4.6977   -1.2181   -0.0690 C   0  0  0  0  0  0  0  0  0  0  0  0
    5.3202    0.0352   -0.0660 C   0  0  0  0  0  0  0  0  0  0  0  0
    6.6600    0.3598   -0.0710 N   0  0  0  0  0  0  0  0  0  0  0  0
    6.8296    1.7227   -0.0875 C   0  0  0  0  0  0  0  0  0  0  0  0
    8.0342    2.2884   -0.1131 O   0  0  0  0  0  0  0  0  0  0  0  0
    5.5687    2.2805   -0.0721 C   0  0  0  0  0  0  0  0  0  0  0  0
    5.3376    3.6628   -0.1290 N   0  0  0  0  0  0  0  0  0  0  0  0
    4.3881    4.0515    0.5849 N   0  0  0  0  0  0  0  0  0  0  0  0
    4.2401    5.4572    0.5278 C   0  0  0  0  0  0  0  0  0  0  0  0
    5.3541    6.3152    0.5760 C   0  0  0  0  0  0  0  0  0  0  0  0
    5.2036    7.7028    0.5508 C   0  0  0  0  0  0  0  0  0  0  0  0
    3.9304    8.2575    0.4892 C   0  0  0  0  0  0  0  0  0  0  0  0
    2.8103    7.4280    0.4578 C   0  0  0  0  0  0  0  0  0  0  0  0
    2.9520    6.0285    0.4805 C   0  0  0  0  0  0  0  0  0  0  0  0
    1.7229    5.1630    0.4641 C   0  0  0  0  0  0  0  0  0  0  0  0
    4.6029    1.2342   -0.0655 C   0  0  0  0  0  0  0  0  0  0  0  0
    3.1944    1.1706   -0.0729 C   0  0  0  0  0  0  0  0  0  0  0  0
    0.6701   -1.1458   -0.0631 H   0  0  0  0  0  0  0  0  0  0  0  0
    0.6508    0.3811   -0.9592 H   0  0  0  0  0  0  0  0  0  0  0  0
    0.6554    0.3850    0.8256 H   0  0  0  0  0  0  0  0  0  0  0  0
    2.7992   -2.2166   -0.0719 H   0  0  0  0  0  0  0  0  0  0  0  0
    5.2714   -2.1396   -0.0742 H   0  0  0  0  0  0  0  0  0  0  0  0
    7.4016   -0.3235   -0.0795 H   0  0  0  0  0  0  0  0  0  0  0  0
    8.7251    1.6080   -0.1126 H   0  0  0  0  0  0  0  0  0  0  0  0
    6.3550    5.8929    0.6357 H   0  0  0  0  0  0  0  0  0  0  0  0
    6.0803    8.3430    0.5823 H   0  0  0  0  0  0  0  0  0  0  0  0
    3.8082    9.3377    0.4714 H   0  0  0  0  0  0  0  0  0  0  0  0
    1.8213    7.8797    0.4185 H   0  0  0  0  0  0  0  0  0  0  0  0
    0.8101    5.7645    0.3881 H   0  0  0  0  0  0  0  0  0  0  0  0
    1.6576    4.5791    1.3877 H   0  0  0  0  0  0  0  0  0  0  0  0
    1.7414    4.4879   -0.3970 H   0  0  0  0  0  0  0  0  0  0  0  0
    2.6171    2.0905   -0.0779 H   0  0  0  0  0  0  0  0  0  0  0  0
  1  2  1  0  0  0  0
  1 21  1  0  0  0  0
  1 22  1  0  0  0  0
  1 23  1  0  0  0  0
  2  3  2  0  0  0  0
  2 20  1  0  0  0  0
  3  4  1  0  0  0  0
  3 24  1  0  0  0  0
  4  5  2  0  0  0  0
  4 25  1  0  0  0  0
  5  6  1  0  0  0  0
  5 19  1  0  0  0  0
  6  7  1  0  0  0  0
  6 26  1  0  0  0  0
  7  8  1  0  0  0  0
  7  9  2  0  0  0  0
  8 27  1  0  0  0  0
  9 10  1  0  0  0  0
  9 19  1  0  0  0  0
 10 11  2  3  0  0  0
 11 12  1  0  0  0  0
 12 13  2  0  0  0  0
 12 17  1  0  0  0  0
 13 14  1  0  0  0  0
 13 28  1  0  0  0  0
 14 15  2  0  0  0  0
 14 29  1  0  0  0  0
 15 16  1  0  0  0  0
 15 30  1  0  0  0  0
 16 17  2  0  0  0  0
 16 31  1  0  0  0  0
 17 18  1  0  0  0  0
 18 32  1  0  0  0  0
 18 33  1  0  0  0  0
 18 34  1  0  0  0  0
 19 20  2  0  0  0  0
 20 35  1  0  0  0  0
M  END
$$$$
