
 OpenBabel09162610133D

 28 29  0  0  0  0  0  0  0  0999 V2000
    1.3192   -0.3915    0.6711 C   0  0  0  0  0  0  0  0  0  0  0  0
    2.4842   -0.0997   -0.0918 O   0  0  0  0  0  0  0  0  0  0  0  0
    3.1325    1.0696    0.1950 C   0  0  0  0  0  0  0  0  0  0  0  0
    2.7129    2.0365    1.1075 C   0  0  0  0  0  0  0  0  0  0  0  0
    3.4642    3.2032    1.2861 C   0  0  0  0  0  0  0  0  0  0  0  0
    4.6385    3.4178    0.5520 C   0  0  0  0  0  0  0  0  0  0  0  0
    5.3563    4.7091    0.7441 C   0  0  0  0  0  0  0  0  0  0  0  0
    5.2098    5.3031    1.8112 O   0  0  0  0  0  0  0  0  0  0  0  0
    6.1469    5.3441   -0.3471 C   0  0  0  0  0  0  0  0  0  0  0  0
    5.6754    5.2532   -1.6703 C   0  0  0  0  0  0  0  0  0  0  0  0
    6.3604    5.8763   -2.7162 C   0  0  0  0  0  0  0  0  0  0  0  0
    7.4975    6.6299   -2.4449 C   0  0  0  0  0  0  0  0  0  0  0  0
    8.3242    7.4180   -3.7302 Cl  0  0  0  0  0  0  0  0  0  0  0  0
    7.9668    6.7512   -1.1398 C   0  0  0  0  0  0  0  0  0  0  0  0
    7.3004    6.1045   -0.0901 C   0  0  0  0  0  0  0  0  0  0  0  0
    8.0090    6.2624    1.4794 Cl  0  0  0  0  0  0  0  0  0  0  0  0
    5.0820    2.4287   -0.3307 C   0  0  0  0  0  0  0  0  0  0  0  0
    4.3190    1.2708   -0.5172 C   0  0  0  0  0  0  0  0  0  0  0  0
    0.9431   -1.3667    0.3473 H   0  0  0  0  0  0  0  0  0  0  0  0
    0.5314    0.3467    0.4875 H   0  0  0  0  0  0  0  0  0  0  0  0
    1.5543   -0.4626    1.7383 H   0  0  0  0  0  0  0  0  0  0  0  0
    1.8049    1.9222    1.6906 H   0  0  0  0  0  0  0  0  0  0  0  0
    3.1205    3.9535    1.9970 H   0  0  0  0  0  0  0  0  0  0  0  0
    4.7618    4.7110   -1.9056 H   0  0  0  0  0  0  0  0  0  0  0  0
    5.9917    5.7812   -3.7352 H   0  0  0  0  0  0  0  0  0  0  0  0
    8.8529    7.3489   -0.9375 H   0  0  0  0  0  0  0  0  0  0  0  0
    6.0101    2.5353   -0.8842 H   0  0  0  0  0  0  0  0  0  0  0  0
    4.6522    0.5129   -1.2233 H   0  0  0  0  0  0  0  0  0  0  0  0
  1  2  1  0  0  0  0
  1 19  1  0  0  0  0
  1 20  1  0  0  0  0
  1 21  1  0  0  0  0
  2  3  1  0  0  0  0
  3  4  2  0  0  0  0
  3 18  1  0  0  0  0
  4  5  1  0  0  0  0
  4 22  1  0  0  0  0
  5  6  2  0  0  0  0
  5 23  1  0  0  0  0
  6  7  1  0  0  0  0
  6 17  1  0  0  0  0
  7  8  2  0  0  0  0
  7  9  1  0  0  0  0
  9 10  2  0  0  0  0
  9 15  1  0  0  0  0
 10 11  1  0  0  0  0
 10 24  1  0  0  0  0
 11 12  2  0  0  0  0
 11 25  1  0  0  0  0
 12 13  1  0  0  0  0
 12 14  1  0  0  0  0
 14 15  2  0  0  0  0
 14 26  1  0  0  0  0
 15 16  1  0  0  0  0
 17 18  2  0  0  0  0
 17 27  1  0  0  0  0
 18 28  1  0  0  0  0
M  END
$$$$
