
 OpenBabel09162610133D

 36 38  0  0  0  0  0  0  0  0999 V2000
    1.1344    0.1054    0.1371 C   0  0  0  0  0  0  0  0  0  0  0  0
    2.5828    0.1031    0.1340 N   0  0  0  0  0  0  0  0  0  0  0  0
    3.2494    1.3301    0.0873 C   0  0  0  0  0  0  0  0  0  0  0  0
    2.6992    2.4259    0.0979 O   0  0  0  0  0  0  0  0  0  0  0  0
    4.6684    1.1887   -0.0001 C   0  0  0  0  0  0  0  0  0  0  0  0
    5.6037    2.1812   -0.1469 N   0  0  0  0  0  0  0  0  0  0  0  0
    6.8487    1.6103   -0.3200 C   0  0  0  0  0  0  0  0  0  0  0  0
    7.9444    2.4385   -0.6842 C   0  0  0  0  0  0  0  0  0  0  0  0
    9.1552    1.8943   -0.8959 C   0  0  0  0  0  0  0  0  0  0  0  0
   10.3502    2.5808   -1.4138 C   0  0  0  0  0  0  0  0  0  0  0  0
   10.5945    3.9475   -1.2428 C   0  0  0  0  0  0  0  0  0  0  0  0
   11.7663    4.5267   -1.7432 C   0  0  0  0  0  0  0  0  0  0  0  0
   12.7082    3.7460   -2.4113 C   0  0  0  0  0  0  0  0  0  0  0  0
   12.4823    2.3832   -2.5803 C   0  0  0  0  0  0  0  0  0  0  0  0
   11.3128    1.8060   -2.0817 C   0  0  0  0  0  0  0  0  0  0  0  0
    6.6928    0.2444   -0.1330 C   0  0  0  0  0  0  0  0  0  0  0  0
    5.3144   -0.0131    0.0068 C   0  0  0  0  0  0  0  0  0  0  0  0
    4.5996   -1.1949    0.0953 N   0  0  0  0  0  0  0  0  0  0  0  0
    5.2329   -2.4996    0.0382 C   0  0  0  0  0  0  0  0  0  0  0  0
    3.1992   -1.1601    0.1277 C   0  0  0  0  0  0  0  0  0  0  0  0
    2.5333   -2.2008    0.1368 O   0  0  0  0  0  0  0  0  0  0  0  0
    0.7144    1.1128    0.1784 H   0  0  0  0  0  0  0  0  0  0  0  0
    0.7738   -0.4690    0.9969 H   0  0  0  0  0  0  0  0  0  0  0  0
    0.7819   -0.3880   -0.7757 H   0  0  0  0  0  0  0  0  0  0  0  0
    5.3831    3.1681   -0.1977 H   0  0  0  0  0  0  0  0  0  0  0  0
    7.7723    3.4955   -0.8705 H   0  0  0  0  0  0  0  0  0  0  0  0
    9.3046    0.8302   -0.7290 H   0  0  0  0  0  0  0  0  0  0  0  0
    9.8882    4.5790   -0.7118 H   0  0  0  0  0  0  0  0  0  0  0  0
   11.9466    5.5896   -1.6055 H   0  0  0  0  0  0  0  0  0  0  0  0
   13.6187    4.1975   -2.7960 H   0  0  0  0  0  0  0  0  0  0  0  0
   13.2136    1.7683   -3.0978 H   0  0  0  0  0  0  0  0  0  0  0  0
   11.1572    0.7391   -2.2283 H   0  0  0  0  0  0  0  0  0  0  0  0
    7.4870   -0.4870   -0.1859 H   0  0  0  0  0  0  0  0  0  0  0  0
    6.3217   -2.4308    0.0837 H   0  0  0  0  0  0  0  0  0  0  0  0
    4.9410   -2.9920   -0.8949 H   0  0  0  0  0  0  0  0  0  0  0  0
    4.8831   -3.1069    0.8794 H   0  0  0  0  0  0  0  0  0  0  0  0
  1  2  1  0  0  0  0
  1 22  1  0  0  0  0
  1 23  1  0  0  0  0
  1 24  1  0  0  0  0
  2  3  1  0  0  0  0
  2 20  1  0  0  0  0
  3  4  2  0  0  0  0
  3  5  1  0  0  0  0
  5  6  1  0  0  0  0
  5 17  2  0  0  0  0
  6  7  1  0  0  0  0
  6 25  1  0  0  0  0
  7  8  1  0  0  0  0
  7 16  2  0  0  0  0
  8  9  2  0  0  0  0
  8 26  1  0  0  0  0
  9 10  1  0  0  0  0
  9 27  1  0  0  0  0
 10 11  2  0  0  0  0
 10 15  1  0  0  0  0
 11 12  1  0  0  0  0
 11 28  1  0  0  0  0
 12 13  2  0  0  0  0
 12 29  1  0  0  0  0
 13 14  1  0  0  0  0
 13 30  1  0  0  0  0
 14 15  2  0  0  0  0
 14 31  1  0  0  0  0
 15 32  1  0  0  0  0
 16 17  1  0  0  0  0
 16 33  1  0  0  0  0
 17 18  1  0  0  0  0
 18 19  1  0  0  0  0
 18 20  1  0  0  0  0
 19 34  1  0  0  0  0
 19 35  1  0  0  0  0
 19 36  1  0  0  0  0
 20 21  2  0  0  0  0
M  END
$$$$
