
 OpenBabel09162610133D

 37 39  0  0  0  0  0  0  0  0999 V2000
    5.5952   -1.1901    4.4213 C   0  0  0  0  0  0  0  0  0  0  0  0
    5.5621   -0.7769    2.9845 C   0  0  0  0  0  0  0  0  0  0  0  0
    5.2640   -1.9556    1.7899 S   0  0  0  0  0  0  0  0  0  0  0  0
    5.3727   -0.8149    0.5385 C   0  0  0  0  0  0  0  0  0  0  0  0
    5.2148   -1.2234   -0.7305 N   0  0  0  0  0  0  0  0  0  0  0  0
    5.3355   -0.2258   -1.5987 C   0  0  0  0  0  0  0  0  0  0  0  0
    5.5740    1.0613   -1.3251 N   0  0  0  0  0  0  0  0  0  0  0  0
    5.7222    1.4639   -0.0344 C   0  0  0  0  0  0  0  0  0  0  0  0
    5.9816    2.8374    0.2198 N   0  0  0  0  0  0  0  0  0  0  0  0
    6.6707    3.4577   -0.9298 C   0  0  0  0  0  0  0  0  0  0  0  0
    6.9939    4.9187   -0.6241 C   0  0  0  0  0  0  0  0  0  0  0  0
    5.7169    5.6893   -0.2679 C   0  0  0  0  0  0  0  0  0  0  0  0
    6.0311    7.1467    0.0567 C   0  0  0  0  0  0  0  0  0  0  0  0
    5.0093    4.9892    0.9007 C   0  0  0  0  0  0  0  0  0  0  0  0
    4.7233    3.5196    0.5688 C   0  0  0  0  0  0  0  0  0  0  0  0
    5.6253    0.4757    0.9851 C   0  0  0  0  0  0  0  0  0  0  0  0
    5.7505    0.4897    2.4411 C   0  0  0  0  0  0  0  0  0  0  0  0
    6.0360    1.7016    3.2710 C   0  0  0  0  0  0  0  0  0  0  0  0
    5.4287   -2.2648    4.5522 H   0  0  0  0  0  0  0  0  0  0  0  0
    4.8188   -0.6617    4.9839 H   0  0  0  0  0  0  0  0  0  0  0  0
    6.5679   -0.9509    4.8631 H   0  0  0  0  0  0  0  0  0  0  0  0
    5.2301   -0.4812   -2.6481 H   0  0  0  0  0  0  0  0  0  0  0  0
    6.0529    3.4225   -1.8370 H   0  0  0  0  0  0  0  0  0  0  0  0
    7.6116    2.9285   -1.1350 H   0  0  0  0  0  0  0  0  0  0  0  0
    7.4764    5.3735   -1.4975 H   0  0  0  0  0  0  0  0  0  0  0  0
    7.7098    4.9727    0.2060 H   0  0  0  0  0  0  0  0  0  0  0  0
    5.0458    5.6770   -1.1374 H   0  0  0  0  0  0  0  0  0  0  0  0
    6.7173    7.2298    0.9057 H   0  0  0  0  0  0  0  0  0  0  0  0
    5.1163    7.6960    0.3021 H   0  0  0  0  0  0  0  0  0  0  0  0
    6.4960    7.6409   -0.8035 H   0  0  0  0  0  0  0  0  0  0  0  0
    4.0682    5.5013    1.1319 H   0  0  0  0  0  0  0  0  0  0  0  0
    5.6367    5.0457    1.8001 H   0  0  0  0  0  0  0  0  0  0  0  0
    4.0054    3.4633   -0.2605 H   0  0  0  0  0  0  0  0  0  0  0  0
    4.2525    3.0565    1.4437 H   0  0  0  0  0  0  0  0  0  0  0  0
    6.6094    2.4524    2.7240 H   0  0  0  0  0  0  0  0  0  0  0  0
    6.6238    1.4411    4.1576 H   0  0  0  0  0  0  0  0  0  0  0  0
    5.0961    2.1498    3.6097 H   0  0  0  0  0  0  0  0  0  0  0  0
  1  2  1  0  0  0  0
  1 19  1  0  0  0  0
  1 20  1  0  0  0  0
  1 21  1  0  0  0  0
  2  3  1  0  0  0  0
  2 17  2  0  0  0  0
  3  4  1  0  0  0  0
  4  5  1  0  0  0  0
  4 16  2  0  0  0  0
  5  6  2  0  0  0  0
  6  7  1  0  0  0  0
  6 22  1  0  0  0  0
  7  8  2  0  0  0  0
  8  9  1  0  0  0  0
  8 16  1  0  0  0  0
  9 10  1  0  0  0  0
  9 15  1  0  0  0  0
 10 11  1  0  0  0  0
 10 23  1  0  0  0  0
 10 24  1  0  0  0  0
 11 12  1  0  0  0  0
 11 25  1  0  0  0  0
 11 26  1  0  0  0  0
 12 13  1  0  0  0  0
 12 14  1  0  0  0  0
 12 27  1  0  0  0  0
 13 28  1  0  0  0  0
 13 29  1  0  0  0  0
 13 30  1  0  0  0  0
 14 15  1  0  0  0  0
 14 31  1  0  0  0  0
 14 32  1  0  0  0  0
 15 33  1  0  0  0  0
 15 34  1  0  0  0  0
 16 17  1  0  0  0  0
 17 18  1  0  0  0  0
 18 35  1  0  0  0  0
 18 36  1  0  0  0  0
 18 37  1  0  0  0  0
M  END
$$$$
