
 OpenBabel09162610133D

 32 34  0  0  1  0  0  0  0  0999 V2000
    1.1047    0.0224   -0.1375 C   0  0  0  0  0  0  0  0  0  0  0  0
    2.6108   -0.0530    0.1299 C   0  0  1  0  0  0  0  0  0  0  0  0
    3.0074    0.7396    1.3575 C   0  0  0  0  0  0  0  0  0  0  0  0
    3.0955    2.1644    1.4516 C   0  0  0  0  0  0  0  0  0  0  0  0
    3.5154    2.5779    2.6991 C   0  0  0  0  0  0  0  0  0  0  0  0
    3.7980    1.2658    3.7555 S   0  0  0  0  0  0  0  0  0  0  0  0
    3.3637    0.1440    2.5547 C   0  0  0  0  0  0  0  0  0  0  0  0
    3.4340   -1.3348    2.7780 C   0  0  0  0  0  0  0  0  0  0  0  0
    2.7274   -2.0611    1.6190 C   0  0  0  0  0  0  0  0  0  0  0  0
    3.0668   -1.4496    0.3185 N   0  0  0  0  0  0  0  0  0  0  0  0
    3.6881   -2.0743   -0.7613 C   0  0  0  0  0  0  0  0  0  0  0  0
    3.7090   -1.5667   -1.8873 O   0  0  0  0  0  0  0  0  0  0  0  0
    4.3699   -3.3886   -0.6157 C   0  0  0  0  0  0  0  0  0  0  0  0
    4.3238   -4.2715   -1.6970 C   0  0  0  0  0  0  0  0  0  0  0  0
    4.9853   -5.4809   -1.5856 C   0  0  0  0  0  0  0  0  0  0  0  0
    5.6708   -5.8601   -0.4865 N   0  0  0  0  0  0  0  0  0  0  0  0
    5.7401   -4.9718    0.5253 C   0  0  0  0  0  0  0  0  0  0  0  0
    5.1376   -3.7263    0.4972 C   0  0  0  0  0  0  0  0  0  0  0  0
    0.7960    1.0518   -0.3453 H   0  0  0  0  0  0  0  0  0  0  0  0
    0.5167   -0.3204    0.7210 H   0  0  0  0  0  0  0  0  0  0  0  0
    0.8276   -0.5970   -0.9981 H   0  0  0  0  0  0  0  0  0  0  0  0
    3.1305    0.3845   -0.7317 H   0  0  0  0  0  0  0  0  0  0  0  0
    2.8727    2.8503    0.6437 H   0  0  0  0  0  0  0  0  0  0  0  0
    3.6780    3.5930    3.0373 H   0  0  0  0  0  0  0  0  0  0  0  0
    2.9751   -1.6209    3.7302 H   0  0  0  0  0  0  0  0  0  0  0  0
    4.4887   -1.6265    2.8139 H   0  0  0  0  0  0  0  0  0  0  0  0
    1.6411   -1.9794    1.7431 H   0  0  0  0  0  0  0  0  0  0  0  0
    2.9407   -3.1312    1.6388 H   0  0  0  0  0  0  0  0  0  0  0  0
    3.7999   -4.0143   -2.6118 H   0  0  0  0  0  0  0  0  0  0  0  0
    4.9891   -6.1953   -2.4051 H   0  0  0  0  0  0  0  0  0  0  0  0
    6.3206   -5.2955    1.3847 H   0  0  0  0  0  0  0  0  0  0  0  0
    5.2917   -3.0431    1.3196 H   0  0  0  0  0  0  0  0  0  0  0  0
  1  2  1  0  0  0  0
  1 19  1  0  0  0  0
  1 20  1  0  0  0  0
  1 21  1  0  0  0  0
  2  3  1  0  0  0  0
  2 10  1  0  0  0  0
  2 22  1  6  0  0  0
  3  4  1  0  0  0  0
  3  7  2  0  0  0  0
  4  5  2  0  0  0  0
  4 23  1  0  0  0  0
  5  6  1  0  0  0  0
  5 24  1  0  0  0  0
  6  7  1  0  0  0  0
  7  8  1  0  0  0  0
  8  9  1  0  0  0  0
  8 25  1  0  0  0  0
  8 26  1  0  0  0  0
  9 10  1  0  0  0  0
  9 27  1  0  0  0  0
  9 28  1  0  0  0  0
 10 11  1  0  0  0  0
 11 12  2  0  0  0  0
 11 13  1  0  0  0  0
 13 14  2  0  0  0  0
 13 18  1  0  0  0  0
 14 15  1  0  0  0  0
 14 29  1  0  0  0  0
 15 16  2  0  0  0  0
 15 30  1  0  0  0  0
 16 17  1  0  0  0  0
 17 18  2  0  0  0  0
 17 31  1  0  0  0  0
 18 32  1  0  0  0  0
M  END
$$$$
