
 OpenBabel09162610133D

 33 36  0  0  0  0  0  0  0  0999 V2000
    0.9248   -0.0719   -0.1669 N   0  0  0  0  0  0  0  0  0  0  0  0
    2.3019   -0.0130    0.0689 C   0  0  0  0  0  0  0  0  0  0  0  0
    2.9602    1.2128    0.0639 C   0  0  0  0  0  0  0  0  0  0  0  0
    4.3521    1.2648    0.1677 C   0  0  0  0  0  0  0  0  0  0  0  0
    5.1120    0.1058    0.2222 C   0  0  0  0  0  0  0  0  0  0  0  0
    6.4503    0.1954    0.3086 N   0  0  0  0  0  0  0  0  0  0  0  0
    7.1302   -0.9755    0.3166 C   0  0  0  0  0  0  0  0  0  0  0  0
    6.5153   -2.2201    0.2498 C   0  0  0  0  0  0  0  0  0  0  0  0
    7.2486   -3.4943    0.2340 C   0  0  0  0  0  0  0  0  0  0  0  0
    8.4832   -3.6646    0.8557 C   0  0  0  0  0  0  0  0  0  0  0  0
    9.2087   -4.8113    0.8620 N   0  0  0  0  0  0  0  0  0  0  0  0
    8.6993   -5.8813    0.2308 C   0  0  0  0  0  0  0  0  0  0  0  0
    9.4074   -7.0758    0.2260 C   0  0  0  0  0  0  0  0  0  0  0  0
    8.9163   -8.2187   -0.4118 C   0  0  0  0  0  0  0  0  0  0  0  0
    7.6913   -8.1720   -1.0673 C   0  0  0  0  0  0  0  0  0  0  0  0
    6.9619   -6.9846   -1.0791 C   0  0  0  0  0  0  0  0  0  0  0  0
    7.4563   -5.8389   -0.4303 C   0  0  0  0  0  0  0  0  0  0  0  0
    6.7425   -4.6290   -0.4146 C   0  0  0  0  0  0  0  0  0  0  0  0
    5.1612   -2.3016    0.1697 N   0  0  0  0  0  0  0  0  0  0  0  0
    4.4603   -1.1467    0.1594 C   0  0  0  0  0  0  0  0  0  0  0  0
    3.0714   -1.1796    0.0712 C   0  0  0  0  0  0  0  0  0  0  0  0
    0.4137    0.7554    0.1259 H   0  0  0  0  0  0  0  0  0  0  0  0
    0.4827   -0.9287    0.1530 H   0  0  0  0  0  0  0  0  0  0  0  0
    2.4017    2.1408   -0.0206 H   0  0  0  0  0  0  0  0  0  0  0  0
    4.8551    2.2280    0.1844 H   0  0  0  0  0  0  0  0  0  0  0  0
    8.2090   -0.8651    0.3571 H   0  0  0  0  0  0  0  0  0  0  0  0
    8.9578   -2.8593    1.4111 H   0  0  0  0  0  0  0  0  0  0  0  0
   10.3664   -7.1183    0.7368 H   0  0  0  0  0  0  0  0  0  0  0  0
    9.4927   -9.1398   -0.3921 H   0  0  0  0  0  0  0  0  0  0  0  0
    7.3037   -9.0566   -1.5659 H   0  0  0  0  0  0  0  0  0  0  0  0
    6.0040   -6.9559   -1.5940 H   0  0  0  0  0  0  0  0  0  0  0  0
    5.7783   -4.5685   -0.9180 H   0  0  0  0  0  0  0  0  0  0  0  0
    2.5854   -2.1489   -0.0013 H   0  0  0  0  0  0  0  0  0  0  0  0
  1  2  1  0  0  0  0
  1 22  1  0  0  0  0
  1 23  1  0  0  0  0
  2  3  2  0  0  0  0
  2 21  1  0  0  0  0
  3  4  1  0  0  0  0
  3 24  1  0  0  0  0
  4  5  2  0  0  0  0
  4 25  1  0  0  0  0
  5  6  1  0  0  0  0
  5 20  1  0  0  0  0
  6  7  2  0  0  0  0
  7  8  1  0  0  0  0
  7 26  1  0  0  0  0
  8  9  1  0  0  0  0
  8 19  2  0  0  0  0
  9 10  2  0  0  0  0
  9 18  1  0  0  0  0
 10 11  1  0  0  0  0
 10 27  1  0  0  0  0
 11 12  2  0  0  0  0
 12 13  1  0  0  0  0
 12 17  1  0  0  0  0
 13 14  2  0  0  0  0
 13 28  1  0  0  0  0
 14 15  1  0  0  0  0
 14 29  1  0  0  0  0
 15 16  2  0  0  0  0
 15 30  1  0  0  0  0
 16 17  1  0  0  0  0
 16 31  1  0  0  0  0
 17 18  2  0  0  0  0
 18 32  1  0  0  0  0
 19 20  1  0  0  0  0
 20 21  2  0  0  0  0
 21 33  1  0  0  0  0
M  END
$$$$
