
 OpenBabel09162610133D

 27 28  0  0  0  0  0  0  0  0999 V2000
    1.1761    0.3277   -0.6555 C   0  0  0  0  0  0  0  0  0  0  0  0
    2.4432    0.0223   -0.0810 O   0  0  0  0  0  0  0  0  0  0  0  0
    3.1213   -1.0147   -0.6567 C   0  0  0  0  0  0  0  0  0  0  0  0
    2.9907   -1.4307   -1.9723 C   0  0  0  0  0  0  0  0  0  0  0  0
    3.7686   -2.4921   -2.4394 C   0  0  0  0  0  0  0  0  0  0  0  0
    4.6700   -3.1589   -1.6233 C   0  0  0  0  0  0  0  0  0  0  0  0
    5.3522   -4.1773   -2.1582 N   0  0  0  0  0  0  0  0  0  0  0  0
    6.2069   -4.8989   -1.3769 C   0  0  0  0  0  0  0  0  0  0  0  0
    6.9421   -6.0655   -2.0207 C   0  0  0  0  0  0  0  0  0  0  0  0
    6.6470   -6.2449   -3.3395 F   0  0  0  0  0  0  0  0  0  0  0  0
    8.2968   -5.9210   -1.9667 F   0  0  0  0  0  0  0  0  0  0  0  0
    6.6643   -7.2565   -1.4191 F   0  0  0  0  0  0  0  0  0  0  0  0
    6.4069   -4.5953   -0.0305 C   0  0  0  0  0  0  0  0  0  0  0  0
    7.2885   -5.3965    0.7667 C   0  0  0  0  0  0  0  0  0  0  0  0
    8.0134   -6.0242    1.4177 N   0  0  0  0  0  0  0  0  0  0  0  0
    5.7465   -3.4805    0.5271 C   0  0  0  0  0  0  0  0  0  0  0  0
    5.8180   -3.2329    1.9201 N   0  0  0  0  0  0  0  0  0  0  0  0
    4.8200   -2.7567   -0.2810 C   0  0  0  0  0  0  0  0  0  0  0  0
    4.0387   -1.6636    0.1736 C   0  0  0  0  0  0  0  0  0  0  0  0
    0.7004    1.0878   -0.0285 H   0  0  0  0  0  0  0  0  0  0  0  0
    0.5277   -0.5552   -0.6643 H   0  0  0  0  0  0  0  0  0  0  0  0
    1.2821    0.7491   -1.6598 H   0  0  0  0  0  0  0  0  0  0  0  0
    2.3098   -0.9476   -2.6659 H   0  0  0  0  0  0  0  0  0  0  0  0
    3.6609   -2.8124   -3.4743 H   0  0  0  0  0  0  0  0  0  0  0  0
    6.6445   -3.5827    2.4011 H   0  0  0  0  0  0  0  0  0  0  0  0
    5.6105   -2.2809    2.2039 H   0  0  0  0  0  0  0  0  0  0  0  0
    4.1205   -1.3077    1.1967 H   0  0  0  0  0  0  0  0  0  0  0  0
  1  2  1  0  0  0  0
  1 20  1  0  0  0  0
  1 21  1  0  0  0  0
  1 22  1  0  0  0  0
  2  3  1  0  0  0  0
  3  4  2  0  0  0  0
  3 19  1  0  0  0  0
  4  5  1  0  0  0  0
  4 23  1  0  0  0  0
  5  6  2  0  0  0  0
  5 24  1  0  0  0  0
  6  7  1  0  0  0  0
  6 18  1  0  0  0  0
  7  8  2  0  0  0  0
  8  9  1  0  0  0  0
  8 13  1  0  0  0  0
  9 10  1  0  0  0  0
  9 11  1  0  0  0  0
  9 12  1  0  0  0  0
 13 14  1  0  0  0  0
 13 16  2  0  0  0  0
 14 15  3  0  0  0  0
 16 17  1  0  0  0  0
 16 18  1  0  0  0  0
 17 25  1  0  0  0  0
 17 26  1  0  0  0  0
 18 19  2  0  0  0  0
 19 27  1  0  0  0  0
M  END
$$$$
