
 OpenBabel09162610133D

 35 38  0  0  0  0  0  0  0  0999 V2000
    0.9099    0.0583   -0.0326 C   0  0  0  0  0  0  0  0  0  0  0  0
    2.4063    0.1289    0.0449 C   0  0  0  0  0  0  0  0  0  0  0  0
    3.0690    1.3574    0.0242 C   0  0  0  0  0  0  0  0  0  0  0  0
    4.4628    1.4049    0.0817 C   0  0  0  0  0  0  0  0  0  0  0  0
    5.2339    0.2241    0.1556 C   0  0  0  0  0  0  0  0  0  0  0  0
    6.6396    0.1990    0.1897 C   0  0  0  0  0  0  0  0  0  0  0  0
    7.4020    1.3722    0.2009 N   0  0  0  0  0  0  0  0  0  0  0  0
    7.3643   -0.9343    0.1882 N   0  0  0  0  0  0  0  0  0  0  0  0
    6.7098   -2.1206    0.1921 C   0  0  0  0  0  0  0  0  0  0  0  0
    7.5744   -3.3126    0.1165 C   0  0  0  0  0  0  0  0  0  0  0  0
    8.7188   -3.2976   -0.7293 C   0  0  0  0  0  0  0  0  0  0  0  0
    9.5708   -4.4001   -0.8422 C   0  0  0  0  0  0  0  0  0  0  0  0
    9.2772   -5.5086   -0.0857 C   0  0  0  0  0  0  0  0  0  0  0  0
    8.1794   -5.5475    0.7405 C   0  0  0  0  0  0  0  0  0  0  0  0
    7.3114   -4.4791    0.8582 C   0  0  0  0  0  0  0  0  0  0  0  0
    8.0756   -6.7311    1.4056 O   0  0  0  0  0  0  0  0  0  0  0  0
    9.2809   -7.3923    0.9664 C   0  0  0  0  0  0  0  0  0  0  0  0
    9.9979   -6.6604   -0.0485 O   0  0  0  0  0  0  0  0  0  0  0  0
    5.3209   -2.1960    0.2119 C   0  0  0  0  0  0  0  0  0  0  0  0
    4.5662   -1.0159    0.1783 C   0  0  0  0  0  0  0  0  0  0  0  0
    3.1598   -1.0499    0.1372 C   0  0  0  0  0  0  0  0  0  0  0  0
    0.4719    1.0417   -0.2333 H   0  0  0  0  0  0  0  0  0  0  0  0
    0.4999   -0.3124    0.9121 H   0  0  0  0  0  0  0  0  0  0  0  0
    0.6056   -0.6099   -0.8450 H   0  0  0  0  0  0  0  0  0  0  0  0
    2.5086    2.2873   -0.0509 H   0  0  0  0  0  0  0  0  0  0  0  0
    4.9547    2.3748    0.0366 H   0  0  0  0  0  0  0  0  0  0  0  0
    7.1399    1.9555    0.9866 H   0  0  0  0  0  0  0  0  0  0  0  0
    8.3728    1.0756    0.2672 H   0  0  0  0  0  0  0  0  0  0  0  0
    8.9391   -2.4022   -1.3101 H   0  0  0  0  0  0  0  0  0  0  0  0
   10.4378   -4.3747   -1.4924 H   0  0  0  0  0  0  0  0  0  0  0  0
    6.4656   -4.5462    1.5351 H   0  0  0  0  0  0  0  0  0  0  0  0
    9.0194   -8.3799    0.5710 H   0  0  0  0  0  0  0  0  0  0  0  0
    9.9418   -7.5239    1.8317 H   0  0  0  0  0  0  0  0  0  0  0  0
    4.8258   -3.1614    0.2021 H   0  0  0  0  0  0  0  0  0  0  0  0
    2.6410   -2.0067    0.1551 H   0  0  0  0  0  0  0  0  0  0  0  0
  1  2  1  0  0  0  0
  1 22  1  0  0  0  0
  1 23  1  0  0  0  0
  1 24  1  0  0  0  0
  2  3  2  0  0  0  0
  2 21  1  0  0  0  0
  3  4  1  0  0  0  0
  3 25  1  0  0  0  0
  4  5  2  0  0  0  0
  4 26  1  0  0  0  0
  5  6  1  0  0  0  0
  5 20  1  0  0  0  0
  6  7  1  0  0  0  0
  6  8  2  0  0  0  0
  7 27  1  0  0  0  0
  7 28  1  0  0  0  0
  8  9  1  0  0  0  0
  9 10  1  0  0  0  0
  9 19  2  0  0  0  0
 10 11  2  0  0  0  0
 10 15  1  0  0  0  0
 11 12  1  0  0  0  0
 11 29  1  0  0  0  0
 12 13  2  0  0  0  0
 12 30  1  0  0  0  0
 13 14  1  0  0  0  0
 13 18  1  0  0  0  0
 14 15  2  0  0  0  0
 14 16  1  0  0  0  0
 15 31  1  0  0  0  0
 16 17  1  0  0  0  0
 17 18  1  0  0  0  0
 17 32  1  0  0  0  0
 17 33  1  0  0  0  0
 19 20  1  0  0  0  0
 19 34  1  0  0  0  0
 20 21  2  0  0  0  0
 21 35  1  0  0  0  0
M  END
$$$$
