
 OpenBabel09162610133D

 30 31  0  0  0  0  0  0  0  0999 V2000
    1.3097    0.2414    0.7376 C   0  0  0  0  0  0  0  0  0  0  0  0
    2.3669   -0.0154   -0.1827 O   0  0  0  0  0  0  0  0  0  0  0  0
    3.0134    1.0664   -0.7276 C   0  0  0  0  0  0  0  0  0  0  0  0
    2.6149    2.3944   -0.4984 C   0  0  0  0  0  0  0  0  0  0  0  0
    3.3015    3.4651   -1.0785 C   0  0  0  0  0  0  0  0  0  0  0  0
    4.3954    3.2278   -1.8985 C   0  0  0  0  0  0  0  0  0  0  0  0
    4.8026    1.9170   -2.1361 C   0  0  0  0  0  0  0  0  0  0  0  0
    4.1249    0.8224   -1.5598 C   0  0  0  0  0  0  0  0  0  0  0  0
    4.6796   -0.5346   -1.8960 C   0  0  0  0  0  0  0  0  0  0  0  0
    5.7440   -0.5891   -2.5076 O   0  0  0  0  0  0  0  0  0  0  0  0
    3.9298   -1.6375   -1.5356 N   0  0  0  0  0  0  0  0  0  0  0  0
    4.2317   -2.9935   -1.7937 C   0  0  0  0  0  0  0  0  0  0  0  0
    5.4708   -3.4422   -2.2585 C   0  0  0  0  0  0  0  0  0  0  0  0
    5.6780   -4.7992   -2.5315 C   0  0  0  0  0  0  0  0  0  0  0  0
    4.6436   -5.7155   -2.3399 C   0  0  0  0  0  0  0  0  0  0  0  0
    4.8981   -7.3753   -2.7108 Cl  0  0  0  0  0  0  0  0  0  0  0  0
    3.4112   -5.2918   -1.8575 C   0  0  0  0  0  0  0  0  0  0  0  0
    3.2210   -3.9409   -1.5781 C   0  0  0  0  0  0  0  0  0  0  0  0
    2.0241   -3.5389   -1.1200 F   0  0  0  0  0  0  0  0  0  0  0  0
    0.9476   -0.7222    1.1086 H   0  0  0  0  0  0  0  0  0  0  0  0
    0.4715    0.7423    0.2422 H   0  0  0  0  0  0  0  0  0  0  0  0
    1.6647    0.8169    1.5990 H   0  0  0  0  0  0  0  0  0  0  0  0
    1.7650    2.6389    0.1309 H   0  0  0  0  0  0  0  0  0  0  0  0
    2.9790    4.4855   -0.8874 H   0  0  0  0  0  0  0  0  0  0  0  0
    4.9338    4.0554   -2.3535 H   0  0  0  0  0  0  0  0  0  0  0  0
    5.6625    1.7497   -2.7837 H   0  0  0  0  0  0  0  0  0  0  0  0
    3.0242   -1.4560   -1.1068 H   0  0  0  0  0  0  0  0  0  0  0  0
    6.3037   -2.7618   -2.4092 H   0  0  0  0  0  0  0  0  0  0  0  0
    6.6483   -5.1268   -2.8969 H   0  0  0  0  0  0  0  0  0  0  0  0
    2.5971   -5.9922   -1.7053 H   0  0  0  0  0  0  0  0  0  0  0  0
  1  2  1  0  0  0  0
  1 20  1  0  0  0  0
  1 21  1  0  0  0  0
  1 22  1  0  0  0  0
  2  3  1  0  0  0  0
  3  4  2  0  0  0  0
  3  8  1  0  0  0  0
  4  5  1  0  0  0  0
  4 23  1  0  0  0  0
  5  6  2  0  0  0  0
  5 24  1  0  0  0  0
  6  7  1  0  0  0  0
  6 25  1  0  0  0  0
  7  8  2  0  0  0  0
  7 26  1  0  0  0  0
  8  9  1  0  0  0  0
  9 10  2  0  0  0  0
  9 11  1  0  0  0  0
 11 12  1  0  0  0  0
 11 27  1  0  0  0  0
 12 13  2  0  0  0  0
 12 18  1  0  0  0  0
 13 14  1  0  0  0  0
 13 28  1  0  0  0  0
 14 15  2  0  0  0  0
 14 29  1  0  0  0  0
 15 16  1  0  0  0  0
 15 17  1  0  0  0  0
 17 18  2  0  0  0  0
 17 30  1  0  0  0  0
 18 19  1  0  0  0  0
M  END
$$$$
