
 OpenBabel09162610133D

 44 45  0  0  1  0  0  0  0  0999 V2000
    5.0429    6.8339    2.8799 C   0  0  0  0  0  0  0  0  0  0  0  0
    5.0967    5.3469    2.5540 C   0  0  0  0  0  0  0  0  0  0  0  0
    6.2051    4.6504    3.3481 C   0  0  0  0  0  0  0  0  0  0  0  0
    6.1432    3.1201    3.3054 C   0  0  0  0  0  0  0  0  0  0  0  0
    6.2031    2.5638    1.9466 N   0  0  0  0  0  0  0  0  0  0  0  0
    5.1263    1.6127    1.6242 C   0  0  0  0  0  0  0  0  0  0  0  0
    7.2589    2.7585    1.0442 C   0  0  0  0  0  0  0  0  0  0  0  0
    8.5659    2.9525    1.3526 C   0  0  0  0  0  0  0  0  0  0  0  0
    9.5912    2.9460    0.3036 C   0  0  0  0  0  0  0  0  0  0  0  0
   10.7603    2.2771    0.4661 C   0  0  0  0  0  0  0  0  0  0  0  0
   11.4044    1.6581   -0.7002 C   0  0  0  0  0  0  0  0  0  0  0  0
   12.6877    1.2616   -0.8613 C   0  0  0  0  0  0  0  0  0  0  0  0
   13.9346    1.5883   -0.0557 C   0  0  0  0  0  0  0  0  0  0  0  0
   14.9689    1.8593    0.6127 N   0  0  0  0  0  0  0  0  0  0  0  0
   13.0595    0.5135   -2.0284 C   0  0  0  0  0  0  0  0  0  0  0  0
   13.3561   -0.0987   -2.9741 N   0  0  0  0  0  0  0  0  0  0  0  0
   10.3516    1.3509   -1.7726 C   0  0  0  0  0  0  0  0  0  0  0  0
    9.6785    2.6336   -2.2384 C   0  0  0  0  0  0  0  0  0  0  0  0
    9.1758    3.4925   -1.0652 C   0  0  1  0  0  0  0  0  0  0  0  0
    7.6713    3.7640   -1.1935 C   0  0  0  0  0  0  0  0  0  0  0  0
    6.8714    2.7223   -0.4311 C   0  0  0  0  0  0  0  0  0  0  0  0
    4.3063    7.3395    2.2474 H   0  0  0  0  0  0  0  0  0  0  0  0
    6.0154    7.3107    2.7187 H   0  0  0  0  0  0  0  0  0  0  0  0
    4.7540    6.9926    3.9245 H   0  0  0  0  0  0  0  0  0  0  0  0
    5.2731    5.2239    1.4796 H   0  0  0  0  0  0  0  0  0  0  0  0
    4.1221    4.8984    2.7784 H   0  0  0  0  0  0  0  0  0  0  0  0
    6.1307    4.9515    4.4015 H   0  0  0  0  0  0  0  0  0  0  0  0
    7.1805    5.0021    2.9934 H   0  0  0  0  0  0  0  0  0  0  0  0
    5.2100    2.8207    3.7995 H   0  0  0  0  0  0  0  0  0  0  0  0
    6.9537    2.6960    3.9092 H   0  0  0  0  0  0  0  0  0  0  0  0
    4.6159    1.2408    2.5192 H   0  0  0  0  0  0  0  0  0  0  0  0
    5.5328    0.7327    1.1113 H   0  0  0  0  0  0  0  0  0  0  0  0
    4.3765    2.0819    0.9796 H   0  0  0  0  0  0  0  0  0  0  0  0
    8.8919    2.9275    2.3871 H   0  0  0  0  0  0  0  0  0  0  0  0
   11.0738    1.9170    1.4440 H   0  0  0  0  0  0  0  0  0  0  0  0
    9.6041    0.6581   -1.3613 H   0  0  0  0  0  0  0  0  0  0  0  0
   10.7517    0.8520   -2.6603 H   0  0  0  0  0  0  0  0  0  0  0  0
    8.8703    2.3765   -2.9335 H   0  0  0  0  0  0  0  0  0  0  0  0
   10.3958    3.2259   -2.8234 H   0  0  0  0  0  0  0  0  0  0  0  0
    9.6598    4.4757   -1.1661 H   0  0  0  0  0  0  0  0  0  0  0  0
    7.3520    3.8025   -2.2414 H   0  0  0  0  0  0  0  0  0  0  0  0
    7.4474    4.7571   -0.7783 H   0  0  0  0  0  0  0  0  0  0  0  0
    7.0356    1.7156   -0.8359 H   0  0  0  0  0  0  0  0  0  0  0  0
    5.8109    2.9609   -0.5678 H   0  0  0  0  0  0  0  0  0  0  0  0
  1  2  1  0  0  0  0
  1 22  1  0  0  0  0
  1 23  1  0  0  0  0
  1 24  1  0  0  0  0
  2  3  1  0  0  0  0
  2 25  1  0  0  0  0
  2 26  1  0  0  0  0
  3  4  1  0  0  0  0
  3 27  1  0  0  0  0
  3 28  1  0  0  0  0
  4  5  1  0  0  0  0
  4 29  1  0  0  0  0
  4 30  1  0  0  0  0
  5  6  1  0  0  0  0
  5  7  1  0  0  0  0
  6 31  1  0  0  0  0
  6 32  1  0  0  0  0
  6 33  1  0  0  0  0
  7  8  2  0  0  0  0
  7 21  1  0  0  0  0
  8  9  1  0  0  0  0
  8 34  1  0  0  0  0
  9 10  2  0  0  0  0
  9 19  1  0  0  0  0
 10 11  1  0  0  0  0
 10 35  1  0  0  0  0
 11 12  2  0  0  0  0
 11 17  1  0  0  0  0
 12 13  1  0  0  0  0
 12 15  1  0  0  0  0
 13 14  3  0  0  0  0
 15 16  3  0  0  0  0
 17 18  1  0  0  0  0
 17 36  1  0  0  0  0
 17 37  1  0  0  0  0
 18 19  1  0  0  0  0
 18 38  1  0  0  0  0
 18 39  1  0  0  0  0
 19 20  1  0  0  0  0
 19 40  1  6  0  0  0
 20 21  1  0  0  0  0
 20 41  1  0  0  0  0
 20 42  1  0  0  0  0
 21 43  1  0  0  0  0
 21 44  1  0  0  0  0
M  END
$$$$
