
 OpenBabel09162610133D

 40 41  0  0  0  0  0  0  0  0999 V2000
   -2.6088  -10.0933   -0.8052 C   0  0  0  0  0  0  0  0  0  0  0  0
   -1.7339   -8.8809   -0.6888 C   0  0  0  0  0  0  0  0  0  0  0  0
   -0.3411   -8.9684   -0.7916 C   0  0  0  0  0  0  0  0  0  0  0  0
    0.4521   -7.8214   -0.6866 C   0  0  0  0  0  0  0  0  0  0  0  0
   -0.1358   -6.5735   -0.4732 C   0  0  0  0  0  0  0  0  0  0  0  0
   -1.5220   -6.4821   -0.3640 C   0  0  0  0  0  0  0  0  0  0  0  0
   -2.1613   -5.1684   -0.1388 C   0  0  0  0  0  0  0  0  0  0  0  0
   -3.4446   -5.0874    0.0115 N   0  0  0  0  0  0  0  0  0  0  0  0
   -3.9554   -3.8330    0.1598 N   0  0  0  0  0  0  0  0  0  0  0  0
   -5.3291   -3.6286    0.1530 C   0  0  0  0  0  0  0  0  0  0  0  0
   -5.7905   -2.4941    0.2053 O   0  0  0  0  0  0  0  0  0  0  0  0
   -6.0318   -4.8156    0.1028 N   0  0  0  0  0  0  0  0  0  0  0  0
   -7.4353   -4.9095    0.1518 C   0  0  0  0  0  0  0  0  0  0  0  0
   -8.2523   -4.2128   -0.7619 C   0  0  0  0  0  0  0  0  0  0  0  0
   -7.7169   -3.4224   -1.9262 C   0  0  0  0  0  0  0  0  0  0  0  0
   -9.6483   -4.2920   -0.6270 C   0  0  0  0  0  0  0  0  0  0  0  0
  -10.2269   -5.0851    0.3590 C   0  0  0  0  0  0  0  0  0  0  0  0
   -9.4183   -5.8294    1.2127 C   0  0  0  0  0  0  0  0  0  0  0  0
   -8.0197   -5.7628    1.1143 C   0  0  0  0  0  0  0  0  0  0  0  0
   -7.1901   -6.5696    2.0766 C   0  0  0  0  0  0  0  0  0  0  0  0
   -2.3189   -7.6292   -0.4774 C   0  0  0  0  0  0  0  0  0  0  0  0
   -2.0182  -11.0062   -0.9287 H   0  0  0  0  0  0  0  0  0  0  0  0
   -3.2716   -9.9973   -1.6713 H   0  0  0  0  0  0  0  0  0  0  0  0
   -3.2164  -10.2056    0.0991 H   0  0  0  0  0  0  0  0  0  0  0  0
    0.1364   -9.9320   -0.9566 H   0  0  0  0  0  0  0  0  0  0  0  0
    1.5333   -7.9058   -0.7719 H   0  0  0  0  0  0  0  0  0  0  0  0
    0.4936   -5.6911   -0.3955 H   0  0  0  0  0  0  0  0  0  0  0  0
   -1.5026   -4.2822   -0.1238 H   0  0  0  0  0  0  0  0  0  0  0  0
   -3.3656   -3.0134    0.1722 H   0  0  0  0  0  0  0  0  0  0  0  0
   -5.4680   -5.5571    0.4970 H   0  0  0  0  0  0  0  0  0  0  0  0
   -6.6748   -3.6604   -2.1565 H   0  0  0  0  0  0  0  0  0  0  0  0
   -7.8064   -2.3499   -1.7322 H   0  0  0  0  0  0  0  0  0  0  0  0
   -8.2839   -3.6659   -2.8326 H   0  0  0  0  0  0  0  0  0  0  0  0
  -10.2918   -3.7415   -1.3098 H   0  0  0  0  0  0  0  0  0  0  0  0
  -11.3083   -5.1328    0.4524 H   0  0  0  0  0  0  0  0  0  0  0  0
   -9.8882   -6.4531    1.9695 H   0  0  0  0  0  0  0  0  0  0  0  0
   -7.8168   -7.1091    2.7949 H   0  0  0  0  0  0  0  0  0  0  0  0
   -6.5257   -5.9160    2.6512 H   0  0  0  0  0  0  0  0  0  0  0  0
   -6.5962   -7.3125    1.5345 H   0  0  0  0  0  0  0  0  0  0  0  0
   -3.4022   -7.5494   -0.4085 H   0  0  0  0  0  0  0  0  0  0  0  0
  1  2  1  0  0  0  0
  1 22  1  0  0  0  0
  1 23  1  0  0  0  0
  1 24  1  0  0  0  0
  2  3  2  0  0  0  0
  2 21  1  0  0  0  0
  3  4  1  0  0  0  0
  3 25  1  0  0  0  0
  4  5  2  0  0  0  0
  4 26  1  0  0  0  0
  5  6  1  0  0  0  0
  5 27  1  0  0  0  0
  6  7  1  0  0  0  0
  6 21  2  0  0  0  0
  7  8  2  0  0  0  0
  7 28  1  0  0  0  0
  8  9  1  0  0  0  0
  9 10  1  0  0  0  0
  9 29  1  0  0  0  0
 10 11  2  0  0  0  0
 10 12  1  0  0  0  0
 12 13  1  0  0  0  0
 12 30  1  0  0  0  0
 13 14  2  0  0  0  0
 13 19  1  0  0  0  0
 14 15  1  0  0  0  0
 14 16  1  0  0  0  0
 15 31  1  0  0  0  0
 15 32  1  0  0  0  0
 15 33  1  0  0  0  0
 16 17  2  0  0  0  0
 16 34  1  0  0  0  0
 17 18  1  0  0  0  0
 17 35  1  0  0  0  0
 18 19  2  0  0  0  0
 18 36  1  0  0  0  0
 19 20  1  0  0  0  0
 20 37  1  0  0  0  0
 20 38  1  0  0  0  0
 20 39  1  0  0  0  0
 21 40  1  0  0  0  0
M  END
$$$$
