
 OpenBabel09162610133D

 38 40  0  0  0  0  0  0  0  0999 V2000
    0.9507   -0.3019    0.0186 C   0  0  0  0  0  0  0  0  0  0  0  0
    2.4097   -0.2122    0.3905 C   0  0  0  0  0  0  0  0  0  0  0  0
    2.7583    0.4022    1.3905 O   0  0  0  0  0  0  0  0  0  0  0  0
    3.2234   -0.8838   -0.5054 N   0  0  0  0  0  0  0  0  0  0  0  0
    4.6312   -0.9940   -0.4427 C   0  0  0  0  0  0  0  0  0  0  0  0
    5.3726   -0.6584    0.6966 C   0  0  0  0  0  0  0  0  0  0  0  0
    6.7724   -0.7115    0.7130 C   0  0  0  0  0  0  0  0  0  0  0  0
    7.3928   -1.1078   -0.4671 C   0  0  0  0  0  0  0  0  0  0  0  0
    8.7074   -1.2109   -0.8251 N   0  0  0  0  0  0  0  0  0  0  0  0
    8.7865   -1.6227   -2.1373 C   0  0  0  0  0  0  0  0  0  0  0  0
   10.0661   -1.7635   -2.8542 C   0  0  0  0  0  0  0  0  0  0  0  0
   11.2246   -2.1259   -2.1343 C   0  0  0  0  0  0  0  0  0  0  0  0
   12.4761   -2.2328   -2.7550 C   0  0  0  0  0  0  0  0  0  0  0  0
   13.6991   -2.6080   -1.9714 C   0  0  0  0  0  0  0  0  0  0  0  0
   12.5714   -1.9953   -4.1257 C   0  0  0  0  0  0  0  0  0  0  0  0
   11.4368   -1.6503   -4.8601 C   0  0  0  0  0  0  0  0  0  0  0  0
   10.1807   -1.5250   -4.2409 C   0  0  0  0  0  0  0  0  0  0  0  0
    9.0016   -1.1247   -5.0885 C   0  0  0  0  0  0  0  0  0  0  0  0
    7.5682   -1.8126   -2.6178 N   0  0  0  0  0  0  0  0  0  0  0  0
    6.6983   -1.4820   -1.6066 C   0  0  0  0  0  0  0  0  0  0  0  0
    5.2940   -1.4508   -1.5958 C   0  0  0  0  0  0  0  0  0  0  0  0
    0.3892    0.4644    0.5641 H   0  0  0  0  0  0  0  0  0  0  0  0
    0.5657   -1.2876    0.2897 H   0  0  0  0  0  0  0  0  0  0  0  0
    0.8107   -0.1281   -1.0515 H   0  0  0  0  0  0  0  0  0  0  0  0
    2.7884   -1.2328   -1.3510 H   0  0  0  0  0  0  0  0  0  0  0  0
    4.8802   -0.3447    1.6128 H   0  0  0  0  0  0  0  0  0  0  0  0
    7.3314   -0.4346    1.6001 H   0  0  0  0  0  0  0  0  0  0  0  0
    9.4940   -0.9649   -0.2453 H   0  0  0  0  0  0  0  0  0  0  0  0
   11.1584   -2.3447   -1.0710 H   0  0  0  0  0  0  0  0  0  0  0  0
   13.4783   -2.7046   -0.9032 H   0  0  0  0  0  0  0  0  0  0  0  0
   14.4693   -1.8379   -2.0823 H   0  0  0  0  0  0  0  0  0  0  0  0
   14.0933   -3.5666   -2.3233 H   0  0  0  0  0  0  0  0  0  0  0  0
   13.5296   -2.0796   -4.6337 H   0  0  0  0  0  0  0  0  0  0  0  0
   11.5400   -1.4719   -5.9287 H   0  0  0  0  0  0  0  0  0  0  0  0
    9.3034   -0.9190   -6.1214 H   0  0  0  0  0  0  0  0  0  0  0  0
    8.5435   -0.2093   -4.7003 H   0  0  0  0  0  0  0  0  0  0  0  0
    8.2617   -1.9300   -5.1237 H   0  0  0  0  0  0  0  0  0  0  0  0
    4.7614   -1.7326   -2.4958 H   0  0  0  0  0  0  0  0  0  0  0  0
  1  2  1  0  0  0  0
  1 22  1  0  0  0  0
  1 23  1  0  0  0  0
  1 24  1  0  0  0  0
  2  3  2  0  0  0  0
  2  4  1  0  0  0  0
  4  5  1  0  0  0  0
  4 25  1  0  0  0  0
  5  6  2  0  0  0  0
  5 21  1  0  0  0  0
  6  7  1  0  0  0  0
  6 26  1  0  0  0  0
  7  8  2  0  0  0  0
  7 27  1  0  0  0  0
  8  9  1  0  0  0  0
  8 20  1  0  0  0  0
  9 10  1  0  0  0  0
  9 28  1  0  0  0  0
 10 11  1  0  0  0  0
 10 19  2  0  0  0  0
 11 12  2  0  0  0  0
 11 17  1  0  0  0  0
 12 13  1  0  0  0  0
 12 29  1  0  0  0  0
 13 14  1  0  0  0  0
 13 15  2  0  0  0  0
 14 30  1  0  0  0  0
 14 31  1  0  0  0  0
 14 32  1  0  0  0  0
 15 16  1  0  0  0  0
 15 33  1  0  0  0  0
 16 17  2  0  0  0  0
 16 34  1  0  0  0  0
 17 18  1  0  0  0  0
 18 35  1  0  0  0  0
 18 36  1  0  0  0  0
 18 37  1  0  0  0  0
 19 20  1  0  0  0  0
 20 21  2  0  0  0  0
 21 38  1  0  0  0  0
M  END
$$$$
