
 OpenBabel09162610133D

 34 35  0  0  0  0  0  0  0  0999 V2000
    1.4757    1.2605   -1.2680 S   0  0  0  0  0  0  0  0  0  0  0  0
    2.4540    0.2155   -0.3816 C   0  0  0  0  0  0  0  0  0  0  0  0
    3.4934   -0.9410   -1.2388 S   0  0  0  0  0  0  0  0  0  0  0  0
    2.1495   -2.4388   -1.7000 S   0  0  0  0  0  0  0  0  0  0  0  0
    3.1566   -3.7570   -2.4967 C   0  0  0  0  0  0  0  0  0  0  0  0
    4.2385   -4.2964   -1.5541 C   0  0  0  0  0  0  0  0  0  0  0  0
    5.0538   -5.4041   -2.2194 C   0  0  0  0  0  0  0  0  0  0  0  0
    5.6434   -4.9434   -3.5497 C   0  0  0  0  0  0  0  0  0  0  0  0
    4.5597   -4.4296   -4.4920 C   0  0  0  0  0  0  0  0  0  0  0  0
    3.7354   -3.3121   -3.8460 C   0  0  0  0  0  0  0  0  0  0  0  0
    2.5610    0.2163    1.0078 N   0  0  0  0  0  0  0  0  0  0  0  0
    1.7564    1.0447    1.9056 C   0  0  0  0  0  0  0  0  0  0  0  0
    2.6868    1.3079    3.0721 C   0  0  0  0  0  0  0  0  0  0  0  0
    3.4228   -0.0146    3.2197 C   0  0  0  0  0  0  0  0  0  0  0  0
    3.5417   -0.5384    1.7918 C   0  0  0  0  0  0  0  0  0  0  0  0
    2.4477   -4.5713   -2.6933 H   0  0  0  0  0  0  0  0  0  0  0  0
    3.7817   -4.6917   -0.6386 H   0  0  0  0  0  0  0  0  0  0  0  0
    4.9299   -3.5006   -1.2523 H   0  0  0  0  0  0  0  0  0  0  0  0
    4.4145   -6.2801   -2.3864 H   0  0  0  0  0  0  0  0  0  0  0  0
    5.8601   -5.7201   -1.5481 H   0  0  0  0  0  0  0  0  0  0  0  0
    6.1811   -5.7738   -4.0213 H   0  0  0  0  0  0  0  0  0  0  0  0
    6.3775   -4.1480   -3.3692 H   0  0  0  0  0  0  0  0  0  0  0  0
    3.8973   -5.2577   -4.7730 H   0  0  0  0  0  0  0  0  0  0  0  0
    5.0185   -4.0621   -5.4169 H   0  0  0  0  0  0  0  0  0  0  0  0
    2.9267   -3.0311   -4.5327 H   0  0  0  0  0  0  0  0  0  0  0  0
    4.3784   -2.4328   -3.7283 H   0  0  0  0  0  0  0  0  0  0  0  0
    0.8938    0.4411    2.2178 H   0  0  0  0  0  0  0  0  0  0  0  0
    1.3987    1.9663    1.4478 H   0  0  0  0  0  0  0  0  0  0  0  0
    2.1566    1.6096    3.9803 H   0  0  0  0  0  0  0  0  0  0  0  0
    3.3978    2.1019    2.8070 H   0  0  0  0  0  0  0  0  0  0  0  0
    2.8311   -0.7071    3.8325 H   0  0  0  0  0  0  0  0  0  0  0  0
    4.4005    0.1051    3.7013 H   0  0  0  0  0  0  0  0  0  0  0  0
    3.3128   -1.6075    1.7405 H   0  0  0  0  0  0  0  0  0  0  0  0
    4.5459   -0.3610    1.3891 H   0  0  0  0  0  0  0  0  0  0  0  0
  1  2  2  0  0  0  0
  2  3  1  0  0  0  0
  2 11  1  0  0  0  0
  3  4  1  0  0  0  0
  4  5  1  0  0  0  0
  5  6  1  0  0  0  0
  5 10  1  0  0  0  0
  5 16  1  0  0  0  0
  6  7  1  0  0  0  0
  6 17  1  0  0  0  0
  6 18  1  0  0  0  0
  7  8  1  0  0  0  0
  7 19  1  0  0  0  0
  7 20  1  0  0  0  0
  8  9  1  0  0  0  0
  8 21  1  0  0  0  0
  8 22  1  0  0  0  0
  9 10  1  0  0  0  0
  9 23  1  0  0  0  0
  9 24  1  0  0  0  0
 10 25  1  0  0  0  0
 10 26  1  0  0  0  0
 11 12  1  0  0  0  0
 11 15  1  0  0  0  0
 12 13  1  0  0  0  0
 12 27  1  0  0  0  0
 12 28  1  0  0  0  0
 13 14  1  0  0  0  0
 13 29  1  0  0  0  0
 13 30  1  0  0  0  0
 14 15  1  0  0  0  0
 14 31  1  0  0  0  0
 14 32  1  0  0  0  0
 15 33  1  0  0  0  0
 15 34  1  0  0  0  0
M  END
$$$$
