
 OpenBabel09162610133D

 32 35  0  0  0  0  0  0  0  0999 V2000
    0.9413   -0.0313   -0.0807 O   0  0  0  0  0  0  0  0  0  0  0  0
    2.1645   -0.0584   -0.0287 C   0  0  0  0  0  0  0  0  0  0  0  0
    2.9483    1.1779    0.0338 C   0  0  0  0  0  0  0  0  0  0  0  0
    4.2874    1.1113    0.0768 C   0  0  0  0  0  0  0  0  0  0  0  0
    5.0999    2.3466    0.2088 C   0  0  0  0  0  0  0  0  0  0  0  0
    6.4932    2.3188    0.2292 C   0  0  0  0  0  0  0  0  0  0  0  0
    7.1949    3.5094    0.4234 C   0  0  0  0  0  0  0  0  0  0  0  0
    6.4951    4.6977    0.5862 C   0  0  0  0  0  0  0  0  0  0  0  0
    5.1153    4.6486    0.5367 C   0  0  0  0  0  0  0  0  0  0  0  0
    4.4120    3.5102    0.3524 N   0  0  0  0  0  0  0  0  0  0  0  0
    5.0036   -0.0796    0.0372 O   0  0  0  0  0  0  0  0  0  0  0  0
    4.3147   -1.2761    0.0141 C   0  0  0  0  0  0  0  0  0  0  0  0
    2.9197   -1.3161   -0.0113 C   0  0  0  0  0  0  0  0  0  0  0  0
    2.2383   -2.5334   -0.0096 C   0  0  0  0  0  0  0  0  0  0  0  0
    2.9588   -3.7250    0.0082 C   0  0  0  0  0  0  0  0  0  0  0  0
    4.3616   -3.7145    0.0203 C   0  0  0  0  0  0  0  0  0  0  0  0
    5.0749   -4.9233    0.0316 C   0  0  0  0  0  0  0  0  0  0  0  0
    6.4693   -4.9311    0.0415 C   0  0  0  0  0  0  0  0  0  0  0  0
    7.1675   -3.7291    0.0421 C   0  0  0  0  0  0  0  0  0  0  0  0
    6.4727   -2.5170    0.0340 C   0  0  0  0  0  0  0  0  0  0  0  0
    5.0611   -2.4794    0.0227 C   0  0  0  0  0  0  0  0  0  0  0  0
    2.3897    2.1052    0.0649 H   0  0  0  0  0  0  0  0  0  0  0  0
    7.0406    1.3900    0.1097 H   0  0  0  0  0  0  0  0  0  0  0  0
    8.2809    3.5059    0.4557 H   0  0  0  0  0  0  0  0  0  0  0  0
    7.0101    5.6371    0.7501 H   0  0  0  0  0  0  0  0  0  0  0  0
    4.5165    5.5475    0.6538 H   0  0  0  0  0  0  0  0  0  0  0  0
    1.1507   -2.5558   -0.0194 H   0  0  0  0  0  0  0  0  0  0  0  0
    2.4121   -4.6662    0.0115 H   0  0  0  0  0  0  0  0  0  0  0  0
    4.5472   -5.8750    0.0320 H   0  0  0  0  0  0  0  0  0  0  0  0
    7.0062   -5.8759    0.0484 H   0  0  0  0  0  0  0  0  0  0  0  0
    8.2542   -3.7336    0.0487 H   0  0  0  0  0  0  0  0  0  0  0  0
    7.0465   -1.5924    0.0346 H   0  0  0  0  0  0  0  0  0  0  0  0
  1  2  2  0  0  0  0
  2  3  1  0  0  0  0
  2 13  1  0  0  0  0
  3  4  2  0  0  0  0
  3 22  1  0  0  0  0
  4  5  1  0  0  0  0
  4 11  1  0  0  0  0
  5  6  2  0  0  0  0
  5 10  1  0  0  0  0
  6  7  1  0  0  0  0
  6 23  1  0  0  0  0
  7  8  2  0  0  0  0
  7 24  1  0  0  0  0
  8  9  1  0  0  0  0
  8 25  1  0  0  0  0
  9 10  2  0  0  0  0
  9 26  1  0  0  0  0
 11 12  1  0  0  0  0
 12 13  2  0  0  0  0
 12 21  1  0  0  0  0
 13 14  1  0  0  0  0
 14 15  2  0  0  0  0
 14 27  1  0  0  0  0
 15 16  1  0  0  0  0
 15 28  1  0  0  0  0
 16 17  1  0  0  0  0
 16 21  2  0  0  0  0
 17 18  2  0  0  0  0
 17 29  1  0  0  0  0
 18 19  1  0  0  0  0
 18 30  1  0  0  0  0
 19 20  2  0  0  0  0
 19 31  1  0  0  0  0
 20 21  1  0  0  0  0
 20 32  1  0  0  0  0
M  END
$$$$
