
 OpenBabel09162610133D

 33 35  0  0  0  0  0  0  0  0999 V2000
    1.0921   -0.1295   -0.2766 C   0  0  0  0  0  0  0  0  0  0  0  0
    2.6237   -0.0129   -0.4152 C   0  0  0  0  0  0  0  0  0  0  0  0
    3.2561   -0.1779    0.9732 C   0  0  0  0  0  0  0  0  0  0  0  0
    3.1088   -1.1370   -1.3431 C   0  0  0  0  0  0  0  0  0  0  0  0
    2.9603    1.3889   -0.9795 C   0  0  0  0  0  0  0  0  0  0  0  0
    2.0838    2.2467   -1.0751 O   0  0  0  0  0  0  0  0  0  0  0  0
    4.2839    1.5760   -1.3216 N   0  0  0  0  0  0  0  0  0  0  0  0
    4.7505    2.7909   -1.7595 C   0  0  0  0  0  0  0  0  0  0  0  0
    4.1520    3.9521   -1.7522 N   0  0  0  0  0  0  0  0  0  0  0  0
    4.9965    4.9242   -2.2587 C   0  0  0  0  0  0  0  0  0  0  0  0
    4.6915    6.2987   -2.3683 C   0  0  0  0  0  0  0  0  0  0  0  0
    5.6690    7.1258   -2.8880 C   0  0  0  0  0  0  0  0  0  0  0  0
    6.8855    6.6472   -3.3061 C   0  0  0  0  0  0  0  0  0  0  0  0
    7.2278    5.3092   -3.2321 C   0  0  0  0  0  0  0  0  0  0  0  0
    6.2531    4.4565   -2.6788 C   0  0  0  0  0  0  0  0  0  0  0  0
    6.3382    2.7565   -2.3740 S   0  0  0  0  0  0  0  0  0  0  0  0
    7.6949    7.6355   -3.7795 O   0  0  0  0  0  0  0  0  0  0  0  0
    6.8553    8.7937   -3.5900 C   0  0  0  0  0  0  0  0  0  0  0  0
    5.5605    8.4738   -3.0425 O   0  0  0  0  0  0  0  0  0  0  0  0
    0.7955   -1.1063    0.1195 H   0  0  0  0  0  0  0  0  0  0  0  0
    0.5995    0.0029   -1.2476 H   0  0  0  0  0  0  0  0  0  0  0  0
    0.6935    0.6374    0.3986 H   0  0  0  0  0  0  0  0  0  0  0  0
    2.9534   -1.1256    1.4342 H   0  0  0  0  0  0  0  0  0  0  0  0
    2.9497    0.6325    1.6451 H   0  0  0  0  0  0  0  0  0  0  0  0
    4.3502   -0.1668    0.9256 H   0  0  0  0  0  0  0  0  0  0  0  0
    2.7507   -2.1134   -0.9965 H   0  0  0  0  0  0  0  0  0  0  0  0
    4.2016   -1.1944   -1.3837 H   0  0  0  0  0  0  0  0  0  0  0  0
    2.7472   -0.9889   -2.3667 H   0  0  0  0  0  0  0  0  0  0  0  0
    4.9369    0.8114   -1.3366 H   0  0  0  0  0  0  0  0  0  0  0  0
    3.7316    6.6815   -2.0429 H   0  0  0  0  0  0  0  0  0  0  0  0
    8.1918    4.9455   -3.5645 H   0  0  0  0  0  0  0  0  0  0  0  0
    6.7156    9.2891   -4.5576 H   0  0  0  0  0  0  0  0  0  0  0  0
    7.3634    9.4882   -2.9103 H   0  0  0  0  0  0  0  0  0  0  0  0
  1  2  1  0  0  0  0
  1 20  1  0  0  0  0
  1 21  1  0  0  0  0
  1 22  1  0  0  0  0
  2  3  1  0  0  0  0
  2  4  1  0  0  0  0
  2  5  1  0  0  0  0
  3 23  1  0  0  0  0
  3 24  1  0  0  0  0
  3 25  1  0  0  0  0
  4 26  1  0  0  0  0
  4 27  1  0  0  0  0
  4 28  1  0  0  0  0
  5  6  2  0  0  0  0
  5  7  1  0  0  0  0
  7  8  1  0  0  0  0
  7 29  1  0  0  0  0
  8  9  2  0  0  0  0
  8 16  1  0  0  0  0
  9 10  1  0  0  0  0
 10 11  1  0  0  0  0
 10 15  2  0  0  0  0
 11 12  2  0  0  0  0
 11 30  1  0  0  0  0
 12 13  1  0  0  0  0
 12 19  1  0  0  0  0
 13 14  2  0  0  0  0
 13 17  1  0  0  0  0
 14 15  1  0  0  0  0
 14 31  1  0  0  0  0
 15 16  1  0  0  0  0
 17 18  1  0  0  0  0
 18 19  1  0  0  0  0
 18 32  1  0  0  0  0
 18 33  1  0  0  0  0
M  END
$$$$
