
 OpenBabel09162610133D

 25 26  0  0  0  0  0  0  0  0999 V2000
   -1.5693   -0.1357   -0.4705 Br  0  0  0  0  0  0  0  0  0  0  0  0
    0.3141   -0.1049   -0.3192 C   0  0  0  0  0  0  0  0  0  0  0  0
    0.9728   -1.1226    0.3676 C   0  0  0  0  0  0  0  0  0  0  0  0
    2.3672   -1.0908    0.4970 C   0  0  0  0  0  0  0  0  0  0  0  0
    3.1097   -0.0472   -0.0645 C   0  0  0  0  0  0  0  0  0  0  0  0
    4.8798    0.1302    0.1136 S   0  0  0  0  0  0  0  0  0  0  0  0
    5.4672   -1.5969    0.1123 C   0  0  0  0  0  0  0  0  0  0  0  0
    6.9705   -1.6609    0.1238 C   0  0  0  0  0  0  0  0  0  0  0  0
    7.6974   -1.6502    1.3194 C   0  0  0  0  0  0  0  0  0  0  0  0
    9.0882   -1.7048    1.2857 C   0  0  0  0  0  0  0  0  0  0  0  0
    9.7125   -1.7656    0.0518 C   0  0  0  0  0  0  0  0  0  0  0  0
    9.0496   -1.7707   -1.1239 N   0  0  0  0  0  0  0  0  0  0  0  0
    7.6993   -1.7092   -1.0612 C   0  0  0  0  0  0  0  0  0  0  0  0
    2.4289    0.9692   -0.7514 C   0  0  0  0  0  0  0  0  0  0  0  0
    1.0360    0.9418   -0.8819 C   0  0  0  0  0  0  0  0  0  0  0  0
    0.4101   -1.9359    0.8194 H   0  0  0  0  0  0  0  0  0  0  0  0
    2.8441   -1.8815    1.0672 H   0  0  0  0  0  0  0  0  0  0  0  0
    5.0793   -2.1187   -0.7699 H   0  0  0  0  0  0  0  0  0  0  0  0
    5.0848   -2.1207    0.9947 H   0  0  0  0  0  0  0  0  0  0  0  0
    7.1867   -1.5932    2.2776 H   0  0  0  0  0  0  0  0  0  0  0  0
    9.6715   -1.6967    2.2000 H   0  0  0  0  0  0  0  0  0  0  0  0
   10.7959   -1.8099   -0.0266 H   0  0  0  0  0  0  0  0  0  0  0  0
    7.2044   -1.6999   -2.0293 H   0  0  0  0  0  0  0  0  0  0  0  0
    2.9783    1.8027   -1.1829 H   0  0  0  0  0  0  0  0  0  0  0  0
    0.5324    1.7451   -1.4128 H   0  0  0  0  0  0  0  0  0  0  0  0
  1  2  1  0  0  0  0
  2  3  2  0  0  0  0
  2 15  1  0  0  0  0
  3  4  1  0  0  0  0
  3 16  1  0  0  0  0
  4  5  2  0  0  0  0
  4 17  1  0  0  0  0
  5  6  1  0  0  0  0
  5 14  1  0  0  0  0
  6  7  1  0  0  0  0
  7  8  1  0  0  0  0
  7 18  1  0  0  0  0
  7 19  1  0  0  0  0
  8  9  2  0  0  0  0
  8 13  1  0  0  0  0
  9 10  1  0  0  0  0
  9 20  1  0  0  0  0
 10 11  2  0  0  0  0
 10 21  1  0  0  0  0
 11 12  1  0  0  0  0
 11 22  1  0  0  0  0
 12 13  2  0  0  0  0
 13 23  1  0  0  0  0
 14 15  2  0  0  0  0
 14 24  1  0  0  0  0
 15 25  1  0  0  0  0
M  END
$$$$
