
 OpenBabel09162610133D

 28 30  0  0  0  0  0  0  0  0999 V2000
    3.5128   -1.5250   -0.7705 C   0  0  0  0  0  0  0  0  0  0  0  0
    2.7794   -0.0226   -0.0716 S   0  0  0  0  0  0  0  0  0  0  0  0
    3.1986    1.1536   -1.3405 C   0  0  0  0  0  0  0  0  0  0  0  0
    3.8317    0.7028   -2.4303 N   0  0  0  0  0  0  0  0  0  0  0  0
    4.2186    1.5911   -3.3688 C   0  0  0  0  0  0  0  0  0  0  0  0
    4.9148    1.1444   -4.4830 O   0  0  0  0  0  0  0  0  0  0  0  0
    5.8506    0.1508   -4.2933 C   0  0  0  0  0  0  0  0  0  0  0  0
    6.0522   -0.7242   -5.3618 C   0  0  0  0  0  0  0  0  0  0  0  0
    7.0078   -1.7387   -5.2675 C   0  0  0  0  0  0  0  0  0  0  0  0
    7.7681   -1.8751   -4.1053 C   0  0  0  0  0  0  0  0  0  0  0  0
    7.5858   -0.9892   -3.0457 C   0  0  0  0  0  0  0  0  0  0  0  0
    6.6412    0.0326   -3.1439 C   0  0  0  0  0  0  0  0  0  0  0  0
    3.8901    2.9286   -3.2191 C   0  0  0  0  0  0  0  0  0  0  0  0
    4.1904    4.2785   -4.2376 S   0  0  0  0  0  0  0  0  0  0  0  0
    3.4488    5.3586   -3.1412 C   0  0  0  0  0  0  0  0  0  0  0  0
    2.9802    4.7117   -2.0194 C   0  0  0  0  0  0  0  0  0  0  0  0
    3.2233    3.3077   -2.0599 C   0  0  0  0  0  0  0  0  0  0  0  0
    2.8743    2.4269   -1.0933 N   0  0  0  0  0  0  0  0  0  0  0  0
    3.3447   -2.3568   -0.0810 H   0  0  0  0  0  0  0  0  0  0  0  0
    4.5921   -1.4080   -0.9048 H   0  0  0  0  0  0  0  0  0  0  0  0
    3.0465   -1.7760   -1.7275 H   0  0  0  0  0  0  0  0  0  0  0  0
    5.4641   -0.6195   -6.2696 H   0  0  0  0  0  0  0  0  0  0  0  0
    7.1601   -2.4206   -6.0992 H   0  0  0  0  0  0  0  0  0  0  0  0
    8.5084   -2.6675   -4.0294 H   0  0  0  0  0  0  0  0  0  0  0  0
    8.1814   -1.0895   -2.1417 H   0  0  0  0  0  0  0  0  0  0  0  0
    6.5300    0.7224   -2.3129 H   0  0  0  0  0  0  0  0  0  0  0  0
    3.3943    6.4151   -3.3679 H   0  0  0  0  0  0  0  0  0  0  0  0
    2.4846    5.2146   -1.1992 H   0  0  0  0  0  0  0  0  0  0  0  0
  1  2  1  0  0  0  0
  1 19  1  0  0  0  0
  1 20  1  0  0  0  0
  1 21  1  0  0  0  0
  2  3  1  0  0  0  0
  3  4  2  0  0  0  0
  3 18  1  0  0  0  0
  4  5  1  0  0  0  0
  5  6  1  0  0  0  0
  5 13  2  0  0  0  0
  6  7  1  0  0  0  0
  7  8  2  0  0  0  0
  7 12  1  0  0  0  0
  8  9  1  0  0  0  0
  8 22  1  0  0  0  0
  9 10  2  0  0  0  0
  9 23  1  0  0  0  0
 10 11  1  0  0  0  0
 10 24  1  0  0  0  0
 11 12  2  0  0  0  0
 11 25  1  0  0  0  0
 12 26  1  0  0  0  0
 13 14  1  0  0  0  0
 13 17  1  0  0  0  0
 14 15  1  0  0  0  0
 15 16  2  0  0  0  0
 15 27  1  0  0  0  0
 16 17  1  0  0  0  0
 16 28  1  0  0  0  0
 17 18  2  0  0  0  0
M  END
$$$$
