
 OpenBabel09162610133D

 29 30  0  0  0  0  0  0  0  0999 V2000
    0.9222    0.2712   -0.0066 C   0  0  0  0  0  0  0  0  0  0  0  0
    2.4144    0.1316   -0.0059 C   0  0  0  0  0  0  0  0  0  0  0  0
    3.0055   -1.1135   -0.0122 C   0  0  0  0  0  0  0  0  0  0  0  0
    4.3791   -1.1356    0.0677 C   0  0  0  0  0  0  0  0  0  0  0  0
    5.1383   -2.3265    0.1077 O   0  0  0  0  0  0  0  0  0  0  0  0
    4.6014   -3.5831    0.3081 C   0  0  0  0  0  0  0  0  0  0  0  0
    3.4429   -3.8749    0.5616 O   0  0  0  0  0  0  0  0  0  0  0  0
    5.6809   -4.5858    0.2267 C   0  0  0  0  0  0  0  0  0  0  0  0
    6.5224   -4.6579   -0.8961 C   0  0  0  0  0  0  0  0  0  0  0  0
    6.3305   -3.6480   -2.2870 Cl  0  0  0  0  0  0  0  0  0  0  0  0
    7.5410   -5.6156   -0.9548 C   0  0  0  0  0  0  0  0  0  0  0  0
    7.7007   -6.5240    0.0867 C   0  0  0  0  0  0  0  0  0  0  0  0
    8.9532   -7.6991    0.0099 Cl  0  0  0  0  0  0  0  0  0  0  0  0
    6.8495   -6.4923    1.1851 C   0  0  0  0  0  0  0  0  0  0  0  0
    5.8431   -5.5230    1.2594 C   0  0  0  0  0  0  0  0  0  0  0  0
    4.8611   -5.5409    2.6839 Cl  0  0  0  0  0  0  0  0  0  0  0  0
    5.1342   -0.0226    0.0865 N   0  0  0  0  0  0  0  0  0  0  0  0
    4.4740    1.1474    0.0523 C   0  0  0  0  0  0  0  0  0  0  0  0
    5.2742    2.4120    0.0509 C   0  0  0  0  0  0  0  0  0  0  0  0
    3.1344    1.2706    0.0203 N   0  0  0  0  0  0  0  0  0  0  0  0
    0.4239   -0.7030    0.0002 H   0  0  0  0  0  0  0  0  0  0  0  0
    0.5966    0.8172   -0.8974 H   0  0  0  0  0  0  0  0  0  0  0  0
    0.6032    0.8191    0.8854 H   0  0  0  0  0  0  0  0  0  0  0  0
    2.3962   -2.0025   -0.0661 H   0  0  0  0  0  0  0  0  0  0  0  0
    8.2003   -5.6610   -1.8190 H   0  0  0  0  0  0  0  0  0  0  0  0
    6.9709   -7.2188    1.9867 H   0  0  0  0  0  0  0  0  0  0  0  0
    6.3475    2.2013    0.0542 H   0  0  0  0  0  0  0  0  0  0  0  0
    5.0328    3.0063    0.9371 H   0  0  0  0  0  0  0  0  0  0  0  0
    5.0396    2.9994   -0.8422 H   0  0  0  0  0  0  0  0  0  0  0  0
  1  2  1  0  0  0  0
  1 21  1  0  0  0  0
  1 22  1  0  0  0  0
  1 23  1  0  0  0  0
  2  3  2  0  0  0  0
  2 20  1  0  0  0  0
  3  4  1  0  0  0  0
  3 24  1  0  0  0  0
  4  5  1  0  0  0  0
  4 17  2  0  0  0  0
  5  6  1  0  0  0  0
  6  7  2  0  0  0  0
  6  8  1  0  0  0  0
  8  9  2  0  0  0  0
  8 15  1  0  0  0  0
  9 10  1  0  0  0  0
  9 11  1  0  0  0  0
 11 12  2  0  0  0  0
 11 25  1  0  0  0  0
 12 13  1  0  0  0  0
 12 14  1  0  0  0  0
 14 15  2  0  0  0  0
 14 26  1  0  0  0  0
 15 16  1  0  0  0  0
 17 18  1  0  0  0  0
 18 19  1  0  0  0  0
 18 20  2  0  0  0  0
 19 27  1  0  0  0  0
 19 28  1  0  0  0  0
 19 29  1  0  0  0  0
M  END
$$$$
