
 OpenBabel09162610133D

 27 28  0  0  0  0  0  0  0  0999 V2000
    0.6209   -0.0912    0.1732 O   0  0  0  0  0  0  0  0  0  0  0  0
    1.8138    0.1818    0.1131 C   0  0  0  0  0  0  0  0  0  0  0  0
    2.4496    0.7869   -0.9663 N   0  0  0  0  0  0  0  0  0  0  0  0
    2.0309    1.1223   -2.2400 C   0  0  0  0  0  0  0  0  0  0  0  0
    0.6683    0.5651   -3.0200 S   0  0  0  0  0  0  0  0  0  0  0  0
    2.8988    1.9382   -2.9351 N   0  0  0  0  0  0  0  0  0  0  0  0
    3.9085    2.7987   -2.4361 C   0  0  0  0  0  0  0  0  0  0  0  0
    3.8379    3.3472   -1.1473 C   0  0  0  0  0  0  0  0  0  0  0  0
    4.8728    4.1395   -0.6490 C   0  0  0  0  0  0  0  0  0  0  0  0
    5.9814    4.4170   -1.4447 C   0  0  0  0  0  0  0  0  0  0  0  0
    6.0357    3.9321   -2.7517 C   0  0  0  0  0  0  0  0  0  0  0  0
    4.9961    3.1433   -3.2530 C   0  0  0  0  0  0  0  0  0  0  0  0
    5.1189    2.5570   -4.8746 Cl  0  0  0  0  0  0  0  0  0  0  0  0
    2.7239    0.0005    1.2302 C   0  0  0  0  0  0  0  0  0  0  0  0
    2.5096   -0.3820    2.5397 C   0  0  0  0  0  0  0  0  0  0  0  0
    3.7671   -0.3391    3.1895 C   0  0  0  0  0  0  0  0  0  0  0  0
    4.6783    0.0555    2.2381 C   0  0  0  0  0  0  0  0  0  0  0  0
    4.0595    0.2725    1.0498 O   0  0  0  0  0  0  0  0  0  0  0  0
    3.4394    0.9275   -0.8058 H   0  0  0  0  0  0  0  0  0  0  0  0
    2.8035    1.8991   -3.9481 H   0  0  0  0  0  0  0  0  0  0  0  0
    2.9625    3.2016   -0.5182 H   0  0  0  0  0  0  0  0  0  0  0  0
    4.8073    4.5452    0.3584 H   0  0  0  0  0  0  0  0  0  0  0  0
    6.7934    5.0228   -1.0518 H   0  0  0  0  0  0  0  0  0  0  0  0
    6.8972    4.1659   -3.3727 H   0  0  0  0  0  0  0  0  0  0  0  0
    1.5497   -0.6401    2.9673 H   0  0  0  0  0  0  0  0  0  0  0  0
    3.9834   -0.5657    4.2239 H   0  0  0  0  0  0  0  0  0  0  0  0
    5.7462    0.2261    2.2503 H   0  0  0  0  0  0  0  0  0  0  0  0
  1  2  2  0  0  0  0
  2  3  1  0  0  0  0
  2 14  1  0  0  0  0
  3  4  1  0  0  0  0
  3 19  1  0  0  0  0
  4  5  2  0  0  0  0
  4  6  1  0  0  0  0
  6  7  1  0  0  0  0
  6 20  1  0  0  0  0
  7  8  2  0  0  0  0
  7 12  1  0  0  0  0
  8  9  1  0  0  0  0
  8 21  1  0  0  0  0
  9 10  2  0  0  0  0
  9 22  1  0  0  0  0
 10 11  1  0  0  0  0
 10 23  1  0  0  0  0
 11 12  2  0  0  0  0
 11 24  1  0  0  0  0
 12 13  1  0  0  0  0
 14 15  2  0  0  0  0
 14 18  1  0  0  0  0
 15 16  1  0  0  0  0
 15 25  1  0  0  0  0
 16 17  2  0  0  0  0
 16 26  1  0  0  0  0
 17 18  1  0  0  0  0
 17 27  1  0  0  0  0
M  END
$$$$
