
 OpenBabel09162610133D

 36 38  0  0  0  0  0  0  0  0999 V2000
    0.9842    0.2536   -0.0411 C   0  0  0  0  0  0  0  0  0  0  0  0
    2.4456   -0.1647    0.0355 C   0  0  0  0  0  0  0  0  0  0  0  0
    2.8636   -0.9263   -1.1971 C   0  0  0  0  0  0  0  0  0  0  0  0
    2.7228   -2.3105   -1.2473 C   0  0  0  0  0  0  0  0  0  0  0  0
    3.0485   -3.0020   -2.4108 C   0  0  0  0  0  0  0  0  0  0  0  0
    3.5087   -2.3272   -3.5516 C   0  0  0  0  0  0  0  0  0  0  0  0
    3.7980   -3.0678   -4.7049 C   0  0  0  0  0  0  0  0  0  0  0  0
    4.2380   -2.4463   -5.8649 C   0  0  0  0  0  0  0  0  0  0  0  0
    4.4024   -1.0676   -5.8868 C   0  0  0  0  0  0  0  0  0  0  0  0
    4.1312   -0.2922   -4.7446 C   0  0  0  0  0  0  0  0  0  0  0  0
    4.3018    1.1958   -4.8534 C   0  0  0  0  0  0  0  0  0  0  0  0
    3.5451    1.9606   -4.2565 O   0  0  0  0  0  0  0  0  0  0  0  0
    5.3980    1.7468   -5.7421 C   0  0  0  0  0  0  0  0  0  0  0  0
    4.9737    1.9877   -7.1102 N   0  0  0  0  0  0  0  0  0  0  0  0
    5.7697    1.8683   -8.2187 C   0  0  0  0  0  0  0  0  0  0  0  0
    4.9363    2.1216   -9.2839 C   0  0  0  0  0  0  0  0  0  0  0  0
    3.6686    2.4003   -8.8491 N   0  0  0  0  0  0  0  0  0  0  0  0
    3.7238    2.3361   -7.5372 C   0  0  0  0  0  0  0  0  0  0  0  0
    3.6671   -0.9154   -3.5441 C   0  0  0  0  0  0  0  0  0  0  0  0
    3.3418   -0.2475   -2.3321 C   0  0  0  0  0  0  0  0  0  0  0  0
    0.6973    0.8006    0.8623 H   0  0  0  0  0  0  0  0  0  0  0  0
    0.3259   -0.6173   -0.1331 H   0  0  0  0  0  0  0  0  0  0  0  0
    0.8018    0.9030   -0.9042 H   0  0  0  0  0  0  0  0  0  0  0  0
    2.6053   -0.7855    0.9257 H   0  0  0  0  0  0  0  0  0  0  0  0
    3.0821    0.7189    0.1615 H   0  0  0  0  0  0  0  0  0  0  0  0
    2.3457   -2.8597   -0.3873 H   0  0  0  0  0  0  0  0  0  0  0  0
    2.9226   -4.0829   -2.4212 H   0  0  0  0  0  0  0  0  0  0  0  0
    3.6669   -4.1498   -4.7123 H   0  0  0  0  0  0  0  0  0  0  0  0
    4.4349   -3.0353   -6.7580 H   0  0  0  0  0  0  0  0  0  0  0  0
    4.7119   -0.6232   -6.8279 H   0  0  0  0  0  0  0  0  0  0  0  0
    6.2580    1.0682   -5.7537 H   0  0  0  0  0  0  0  0  0  0  0  0
    5.7428    2.7048   -5.3376 H   0  0  0  0  0  0  0  0  0  0  0  0
    6.8201    1.6193   -8.1673 H   0  0  0  0  0  0  0  0  0  0  0  0
    5.1817    2.1198  -10.3365 H   0  0  0  0  0  0  0  0  0  0  0  0
    2.8917    2.5171   -6.8674 H   0  0  0  0  0  0  0  0  0  0  0  0
    3.4369    0.8343   -2.2617 H   0  0  0  0  0  0  0  0  0  0  0  0
  1  2  1  0  0  0  0
  1 21  1  0  0  0  0
  1 22  1  0  0  0  0
  1 23  1  0  0  0  0
  2  3  1  0  0  0  0
  2 24  1  0  0  0  0
  2 25  1  0  0  0  0
  3  4  2  0  0  0  0
  3 20  1  0  0  0  0
  4  5  1  0  0  0  0
  4 26  1  0  0  0  0
  5  6  2  0  0  0  0
  5 27  1  0  0  0  0
  6  7  1  0  0  0  0
  6 19  1  0  0  0  0
  7  8  2  0  0  0  0
  7 28  1  0  0  0  0
  8  9  1  0  0  0  0
  8 29  1  0  0  0  0
  9 10  2  0  0  0  0
  9 30  1  0  0  0  0
 10 11  1  0  0  0  0
 10 19  1  0  0  0  0
 11 12  2  0  0  0  0
 11 13  1  0  0  0  0
 13 14  1  0  0  0  0
 13 31  1  0  0  0  0
 13 32  1  0  0  0  0
 14 15  1  0  0  0  0
 14 18  1  0  0  0  0
 15 16  2  0  0  0  0
 15 33  1  0  0  0  0
 16 17  1  0  0  0  0
 16 34  1  0  0  0  0
 17 18  2  0  0  0  0
 18 35  1  0  0  0  0
 19 20  2  0  0  0  0
 20 36  1  0  0  0  0
M  END
$$$$
