
 OpenBabel09162610133D

 25 27  0  0  0  0  0  0  0  0999 V2000
    1.0836    0.0453    0.0531 O   0  0  0  0  0  0  0  0  0  0  0  0
    2.3086    0.0193    0.0561 C   0  0  0  0  0  0  0  0  0  0  0  0
    3.0595    1.1854    0.0592 O   0  0  0  0  0  0  0  0  0  0  0  0
    4.4689    1.2003    0.0616 C   0  0  0  0  0  0  0  0  0  0  0  0
    5.0842    2.4528    0.0633 C   0  0  0  0  0  0  0  0  0  0  0  0
    4.3464    3.5721    0.0629 F   0  0  0  0  0  0  0  0  0  0  0  0
    6.4664    2.5348    0.0650 C   0  0  0  0  0  0  0  0  0  0  0  0
    7.0774    3.7267    0.0663 F   0  0  0  0  0  0  0  0  0  0  0  0
    7.2337    1.3776    0.0651 C   0  0  0  0  0  0  0  0  0  0  0  0
    6.6056    0.1255    0.0637 C   0  0  0  0  0  0  0  0  0  0  0  0
    5.2020    0.0085    0.0621 C   0  0  0  0  0  0  0  0  0  0  0  0
    4.4749   -1.2686    0.0609 C   0  0  0  0  0  0  0  0  0  0  0  0
    5.1223   -2.5226    0.0635 C   0  0  0  0  0  0  0  0  0  0  0  0
    4.3836   -3.7030    0.0626 C   0  0  0  0  0  0  0  0  0  0  0  0
    4.9840   -4.9313    0.0667 O   0  0  0  0  0  0  0  0  0  0  0  0
    2.9965   -3.6643    0.0577 C   0  0  0  0  0  0  0  0  0  0  0  0
    2.2802   -4.8248    0.0562 O   0  0  0  0  0  0  0  0  0  0  0  0
    2.3269   -2.4539    0.0552 C   0  0  0  0  0  0  0  0  0  0  0  0
    3.0650   -1.2582    0.0572 C   0  0  0  0  0  0  0  0  0  0  0  0
    8.3175    1.4528    0.0661 H   0  0  0  0  0  0  0  0  0  0  0  0
    7.2499   -0.7494    0.0636 H   0  0  0  0  0  0  0  0  0  0  0  0
    6.2044   -2.5909    0.0665 H   0  0  0  0  0  0  0  0  0  0  0  0
    5.9497   -4.8111    0.0754 H   0  0  0  0  0  0  0  0  0  0  0  0
    2.9499   -5.5377    0.0582 H   0  0  0  0  0  0  0  0  0  0  0  0
    1.2390   -2.4415    0.0519 H   0  0  0  0  0  0  0  0  0  0  0  0
  1  2  2  0  0  0  0
  2  3  1  0  0  0  0
  2 19  1  0  0  0  0
  3  4  1  0  0  0  0
  4  5  2  0  0  0  0
  4 11  1  0  0  0  0
  5  6  1  0  0  0  0
  5  7  1  0  0  0  0
  7  8  1  0  0  0  0
  7  9  2  0  0  0  0
  9 10  1  0  0  0  0
  9 20  1  0  0  0  0
 10 11  2  0  0  0  0
 10 21  1  0  0  0  0
 11 12  1  0  0  0  0
 12 13  1  0  0  0  0
 12 19  2  0  0  0  0
 13 14  2  0  0  0  0
 13 22  1  0  0  0  0
 14 15  1  0  0  0  0
 14 16  1  0  0  0  0
 15 23  1  0  0  0  0
 16 17  1  0  0  0  0
 16 18  2  0  0  0  0
 17 24  1  0  0  0  0
 18 19  1  0  0  0  0
 18 25  1  0  0  0  0
M  END
$$$$
