
 OpenBabel09162610133D

 37 39  0  0  0  0  0  0  0  0999 V2000
    1.0086   -0.0137    0.0162 C   0  0  0  0  0  0  0  0  0  0  0  0
    2.5039    0.2375    0.0008 C   0  0  0  0  0  0  0  0  0  0  0  0
    3.1950    0.7175    0.9974 N   0  0  0  0  0  0  0  0  0  0  0  0
    2.5469    0.9863    2.1613 N   0  0  0  0  0  0  0  0  0  0  0  0
    3.2610    1.5889    3.2148 C   0  0  0  0  0  0  0  0  0  0  0  0
    4.3306    2.4398    2.9660 C   0  0  0  0  0  0  0  0  0  0  0  0
    4.9917    3.0614    4.0299 C   0  0  0  0  0  0  0  0  0  0  0  0
    6.1444    3.9787    3.7323 C   0  0  0  0  0  0  0  0  0  0  0  0
    4.5435    2.8114    5.3448 C   0  0  0  0  0  0  0  0  0  0  0  0
    5.1294    3.3930    6.4938 C   0  0  0  0  0  0  0  0  0  0  0  0
    4.6467    3.1122    7.7704 C   0  0  0  0  0  0  0  0  0  0  0  0
    3.5726    2.2470    7.9183 C   0  0  0  0  0  0  0  0  0  0  0  0
    2.9875    1.6709    6.7872 C   0  0  0  0  0  0  0  0  0  0  0  0
    3.4467    1.9337    5.5024 C   0  0  0  0  0  0  0  0  0  0  0  0
    2.8229    1.3429    4.4667 N   0  0  0  0  0  0  0  0  0  0  0  0
    3.2096   -0.0764   -1.2855 C   0  0  0  0  0  0  0  0  0  0  0  0
    4.5822    0.1194   -1.4032 C   0  0  0  0  0  0  0  0  0  0  0  0
    5.1930   -0.1762   -2.6193 C   0  0  0  0  0  0  0  0  0  0  0  0
    4.4199   -0.6543   -3.6712 C   0  0  0  0  0  0  0  0  0  0  0  0
    3.0600   -0.8208   -3.4642 C   0  0  0  0  0  0  0  0  0  0  0  0
    2.4364   -0.5448   -2.2981 N   0  0  0  0  0  0  0  0  0  0  0  0
    0.5424    0.2226    0.9733 H   0  0  0  0  0  0  0  0  0  0  0  0
    0.8128   -1.0679   -0.2030 H   0  0  0  0  0  0  0  0  0  0  0  0
    0.5297    0.6074   -0.7473 H   0  0  0  0  0  0  0  0  0  0  0  0
    1.9058    0.3054    2.5645 H   0  0  0  0  0  0  0  0  0  0  0  0
    4.6386    2.6176    1.9406 H   0  0  0  0  0  0  0  0  0  0  0  0
    6.3522    4.0291    2.6581 H   0  0  0  0  0  0  0  0  0  0  0  0
    7.0543    3.6200    4.2240 H   0  0  0  0  0  0  0  0  0  0  0  0
    5.9186    4.9948    4.0713 H   0  0  0  0  0  0  0  0  0  0  0  0
    5.9708    4.0752    6.4028 H   0  0  0  0  0  0  0  0  0  0  0  0
    5.1078    3.5689    8.6421 H   0  0  0  0  0  0  0  0  0  0  0  0
    3.1850    2.0175    8.9073 H   0  0  0  0  0  0  0  0  0  0  0  0
    2.1439    0.9955    6.9130 H   0  0  0  0  0  0  0  0  0  0  0  0
    5.1684    0.4940   -0.5707 H   0  0  0  0  0  0  0  0  0  0  0  0
    6.2629   -0.0331   -2.7431 H   0  0  0  0  0  0  0  0  0  0  0  0
    4.8666   -0.8918   -4.6307 H   0  0  0  0  0  0  0  0  0  0  0  0
    2.4165   -1.1918   -4.2574 H   0  0  0  0  0  0  0  0  0  0  0  0
  1  2  1  0  0  0  0
  1 22  1  0  0  0  0
  1 23  1  0  0  0  0
  1 24  1  0  0  0  0
  2  3  2  3  0  0  0
  2 16  1  0  0  0  0
  3  4  1  0  0  0  0
  4  5  1  0  0  0  0
  4 25  1  0  0  0  0
  5  6  2  0  0  0  0
  5 15  1  0  0  0  0
  6  7  1  0  0  0  0
  6 26  1  0  0  0  0
  7  8  1  0  0  0  0
  7  9  2  0  0  0  0
  8 27  1  0  0  0  0
  8 28  1  0  0  0  0
  8 29  1  0  0  0  0
  9 10  1  0  0  0  0
  9 14  1  0  0  0  0
 10 11  2  0  0  0  0
 10 30  1  0  0  0  0
 11 12  1  0  0  0  0
 11 31  1  0  0  0  0
 12 13  2  0  0  0  0
 12 32  1  0  0  0  0
 13 14  1  0  0  0  0
 13 33  1  0  0  0  0
 14 15  2  0  0  0  0
 16 17  2  0  0  0  0
 16 21  1  0  0  0  0
 17 18  1  0  0  0  0
 17 34  1  0  0  0  0
 18 19  2  0  0  0  0
 18 35  1  0  0  0  0
 19 20  1  0  0  0  0
 19 36  1  0  0  0  0
 20 21  2  0  0  0  0
 20 37  1  0  0  0  0
M  END
$$$$
