
 OpenBabel09162610133D

 42 45  0  0  0  0  0  0  0  0999 V2000
    1.1705    0.0597    0.1424 C   0  0  0  0  0  0  0  0  0  0  0  0
    2.5703   -0.1644    0.0271 O   0  0  0  0  0  0  0  0  0  0  0  0
    3.2113    0.5505   -0.9531 C   0  0  0  0  0  0  0  0  0  0  0  0
    2.8079    1.8351   -1.3575 C   0  0  0  0  0  0  0  0  0  0  0  0
    3.5110    2.5429   -2.3329 C   0  0  0  0  0  0  0  0  0  0  0  0
    4.6451    2.0016   -2.9343 C   0  0  0  0  0  0  0  0  0  0  0  0
    5.0505    0.7320   -2.5140 C   0  0  0  0  0  0  0  0  0  0  0  0
    6.1170   -0.0264   -2.9304 N   0  0  0  0  0  0  0  0  0  0  0  0
    6.1985   -1.2035   -2.2321 C   0  0  0  0  0  0  0  0  0  0  0  0
    7.1130   -2.2591   -2.2853 C   0  0  0  0  0  0  0  0  0  0  0  0
    8.2669   -2.2594   -3.0382 N   0  0  0  0  0  0  0  0  0  0  0  0
    8.7416   -3.5171   -3.6073 C   0  0  0  0  0  0  0  0  0  0  0  0
   10.2066   -3.7591   -3.2438 C   0  0  0  0  0  0  0  0  0  0  0  0
   11.0791   -2.5455   -3.5914 C   0  0  0  0  0  0  0  0  0  0  0  0
   12.5319   -2.7777   -3.1846 C   0  0  0  0  0  0  0  0  0  0  0  0
   10.5196   -1.2979   -2.9020 C   0  0  0  0  0  0  0  0  0  0  0  0
    9.0569   -1.0596   -3.2706 C   0  0  0  0  0  0  0  0  0  0  0  0
    6.7957   -3.3423   -1.5370 N   0  0  0  0  0  0  0  0  0  0  0  0
    5.6984   -3.3080   -0.7597 C   0  0  0  0  0  0  0  0  0  0  0  0
    4.8136   -2.3137   -0.6200 N   0  0  0  0  0  0  0  0  0  0  0  0
    5.0876   -1.2435   -1.3996 C   0  0  0  0  0  0  0  0  0  0  0  0
    4.3725   -0.0086   -1.5425 C   0  0  0  0  0  0  0  0  0  0  0  0
    0.7614   -0.7124    0.8011 H   0  0  0  0  0  0  0  0  0  0  0  0
    0.6688   -0.0253   -0.8276 H   0  0  0  0  0  0  0  0  0  0  0  0
    0.9647    1.0285    0.6076 H   0  0  0  0  0  0  0  0  0  0  0  0
    1.9476    2.3183   -0.9056 H   0  0  0  0  0  0  0  0  0  0  0  0
    3.1742    3.5360   -2.6228 H   0  0  0  0  0  0  0  0  0  0  0  0
    5.1934    2.5549   -3.6900 H   0  0  0  0  0  0  0  0  0  0  0  0
    6.7553    0.2430   -3.6627 H   0  0  0  0  0  0  0  0  0  0  0  0
    8.6434   -3.4598   -4.6987 H   0  0  0  0  0  0  0  0  0  0  0  0
    8.1489   -4.3846   -3.2944 H   0  0  0  0  0  0  0  0  0  0  0  0
   10.5703   -4.6460   -3.7762 H   0  0  0  0  0  0  0  0  0  0  0  0
   10.2823   -3.9753   -2.1702 H   0  0  0  0  0  0  0  0  0  0  0  0
   11.0502   -2.3894   -4.6780 H   0  0  0  0  0  0  0  0  0  0  0  0
   12.6216   -2.9525   -2.1071 H   0  0  0  0  0  0  0  0  0  0  0  0
   13.1485   -1.9086   -3.4379 H   0  0  0  0  0  0  0  0  0  0  0  0
   12.9469   -3.6467   -3.7055 H   0  0  0  0  0  0  0  0  0  0  0  0
   11.1096   -0.4156   -3.1771 H   0  0  0  0  0  0  0  0  0  0  0  0
   10.6023   -1.4100   -1.8127 H   0  0  0  0  0  0  0  0  0  0  0  0
    8.9757   -0.7726   -4.3257 H   0  0  0  0  0  0  0  0  0  0  0  0
    8.7142   -0.2098   -2.6707 H   0  0  0  0  0  0  0  0  0  0  0  0
    5.5069   -4.1992   -0.1705 H   0  0  0  0  0  0  0  0  0  0  0  0
  1  2  1  0  0  0  0
  1 23  1  0  0  0  0
  1 24  1  0  0  0  0
  1 25  1  0  0  0  0
  2  3  1  0  0  0  0
  3  4  2  0  0  0  0
  3 22  1  0  0  0  0
  4  5  1  0  0  0  0
  4 26  1  0  0  0  0
  5  6  2  0  0  0  0
  5 27  1  0  0  0  0
  6  7  1  0  0  0  0
  6 28  1  0  0  0  0
  7  8  1  0  0  0  0
  7 22  2  0  0  0  0
  8  9  1  0  0  0  0
  8 29  1  0  0  0  0
  9 10  1  0  0  0  0
  9 21  2  0  0  0  0
 10 11  1  0  0  0  0
 10 18  2  0  0  0  0
 11 12  1  0  0  0  0
 11 17  1  0  0  0  0
 12 13  1  0  0  0  0
 12 30  1  0  0  0  0
 12 31  1  0  0  0  0
 13 14  1  0  0  0  0
 13 32  1  0  0  0  0
 13 33  1  0  0  0  0
 14 15  1  0  0  0  0
 14 16  1  0  0  0  0
 14 34  1  0  0  0  0
 15 35  1  0  0  0  0
 15 36  1  0  0  0  0
 15 37  1  0  0  0  0
 16 17  1  0  0  0  0
 16 38  1  0  0  0  0
 16 39  1  0  0  0  0
 17 40  1  0  0  0  0
 17 41  1  0  0  0  0
 18 19  1  0  0  0  0
 19 20  2  0  0  0  0
 19 42  1  0  0  0  0
 20 21  1  0  0  0  0
 21 22  1  0  0  0  0
M  END
$$$$
