
 OpenBabel09162610133D

 38 40  0  0  0  0  0  0  0  0999 V2000
   -2.0425    1.1680    1.3988 C   0  0  0  0  0  0  0  0  0  0  0  0
   -1.4247    0.1993    0.5315 N   0  0  0  0  0  0  0  0  0  0  0  0
   -1.9292   -0.9858   -0.0322 C   0  0  0  0  0  0  0  0  0  0  0  0
   -3.3038   -1.4505    0.0046 C   0  0  0  0  0  0  0  0  0  0  0  0
   -3.5838   -2.9444   -0.0124 C   0  0  0  0  0  0  0  0  0  0  0  0
   -3.8161   -4.1837   -0.0265 N   0  0  0  0  0  0  0  0  0  0  0  0
   -4.4256   -0.6611    0.0312 C   0  0  0  0  0  0  0  0  0  0  0  0
   -5.8415   -1.2814    0.0384 C   0  0  0  0  0  0  0  0  0  0  0  0
   -6.4889   -1.1539    1.4172 C   0  0  0  0  0  0  0  0  0  0  0  0
   -7.2734    0.1433    1.6142 C   0  0  0  0  0  0  0  0  0  0  0  0
   -6.6925    1.3996    0.9613 C   0  0  0  0  0  0  0  0  0  0  0  0
   -5.1792    1.5079    1.0580 C   0  0  0  0  0  0  0  0  0  0  0  0
   -4.4642    0.7401    0.0162 N   0  0  0  0  0  0  0  0  0  0  0  0
   -0.9045   -1.6501   -0.5603 N   0  0  0  0  0  0  0  0  0  0  0  0
    0.2326   -0.8877   -0.3966 C   0  0  0  0  0  0  0  0  0  0  0  0
    1.5633   -1.1452   -0.7547 C   0  0  0  0  0  0  0  0  0  0  0  0
    2.5535   -0.1910   -0.4567 C   0  0  0  0  0  0  0  0  0  0  0  0
    2.2180    1.0078    0.1692 C   0  0  0  0  0  0  0  0  0  0  0  0
    0.8976    1.2805    0.5285 C   0  0  0  0  0  0  0  0  0  0  0  0
   -0.0698    0.2952    0.2501 C   0  0  0  0  0  0  0  0  0  0  0  0
   -2.7131    0.6688    2.0941 H   0  0  0  0  0  0  0  0  0  0  0  0
   -2.5101    1.9377    0.7807 H   0  0  0  0  0  0  0  0  0  0  0  0
   -1.2826    1.6738    2.0042 H   0  0  0  0  0  0  0  0  0  0  0  0
   -5.8457   -2.3373   -0.2433 H   0  0  0  0  0  0  0  0  0  0  0  0
   -6.4583   -0.8033   -0.7336 H   0  0  0  0  0  0  0  0  0  0  0  0
   -5.7269   -1.2422    2.2027 H   0  0  0  0  0  0  0  0  0  0  0  0
   -7.1763   -1.9941    1.5768 H   0  0  0  0  0  0  0  0  0  0  0  0
   -7.3818    0.3136    2.6932 H   0  0  0  0  0  0  0  0  0  0  0  0
   -8.2924    0.0060    1.2317 H   0  0  0  0  0  0  0  0  0  0  0  0
   -7.1357    2.2652    1.4697 H   0  0  0  0  0  0  0  0  0  0  0  0
   -7.0118    1.4614   -0.0844 H   0  0  0  0  0  0  0  0  0  0  0  0
   -4.8400    1.2085    2.0560 H   0  0  0  0  0  0  0  0  0  0  0  0
   -4.8931    2.5577    0.9299 H   0  0  0  0  0  0  0  0  0  0  0  0
   -4.7988    1.0495   -0.9018 H   0  0  0  0  0  0  0  0  0  0  0  0
    1.8241   -2.0750   -1.2476 H   0  0  0  0  0  0  0  0  0  0  0  0
    3.5886   -0.3881   -0.7171 H   0  0  0  0  0  0  0  0  0  0  0  0
    2.9969    1.7388    0.3902 H   0  0  0  0  0  0  0  0  0  0  0  0
    0.6483    2.2164    1.0228 H   0  0  0  0  0  0  0  0  0  0  0  0
  1  2  1  0  0  0  0
  1 21  1  0  0  0  0
  1 22  1  0  0  0  0
  1 23  1  0  0  0  0
  2  3  1  0  0  0  0
  2 20  1  0  0  0  0
  3  4  1  0  0  0  0
  3 14  2  0  0  0  0
  4  5  1  0  0  0  0
  4  7  2  0  0  0  0
  5  6  3  0  0  0  0
  7  8  1  0  0  0  0
  7 13  1  0  0  0  0
  8  9  1  0  0  0  0
  8 24  1  0  0  0  0
  8 25  1  0  0  0  0
  9 10  1  0  0  0  0
  9 26  1  0  0  0  0
  9 27  1  0  0  0  0
 10 11  1  0  0  0  0
 10 28  1  0  0  0  0
 10 29  1  0  0  0  0
 11 12  1  0  0  0  0
 11 30  1  0  0  0  0
 11 31  1  0  0  0  0
 12 13  1  0  0  0  0
 12 32  1  0  0  0  0
 12 33  1  0  0  0  0
 13 34  1  0  0  0  0
 14 15  1  0  0  0  0
 15 16  1  0  0  0  0
 15 20  2  0  0  0  0
 16 17  2  0  0  0  0
 16 35  1  0  0  0  0
 17 18  1  0  0  0  0
 17 36  1  0  0  0  0
 18 19  2  0  0  0  0
 18 37  1  0  0  0  0
 19 20  1  0  0  0  0
 19 38  1  0  0  0  0
M  END
$$$$
