
 OpenBabel09162610133D

 29 32  0  0  0  0  0  0  0  0999 V2000
    0.7319   -0.1394    2.3814 C   0  0  0  0  0  0  0  0  0  0  0  0
    0.2374   -1.2389    1.6854 C   0  0  0  0  0  0  0  0  0  0  0  0
   -0.9319   -1.1166    0.9314 C   0  0  0  0  0  0  0  0  0  0  0  0
   -1.6149    0.1038    0.8508 C   0  0  0  0  0  0  0  0  0  0  0  0
   -2.7876    0.2605    0.0858 N   0  0  0  0  0  0  0  0  0  0  0  0
   -3.7305   -0.7332   -0.2201 C   0  0  0  0  0  0  0  0  0  0  0  0
   -3.9656   -1.7378    0.6564 N   0  0  0  0  0  0  0  0  0  0  0  0
   -4.8834   -2.6642    0.3705 C   0  0  0  0  0  0  0  0  0  0  0  0
   -5.6241   -2.7420   -0.7316 N   0  0  0  0  0  0  0  0  0  0  0  0
   -5.4043   -1.7460   -1.6297 C   0  0  0  0  0  0  0  0  0  0  0  0
   -4.4853   -0.7243   -1.4005 C   0  0  0  0  0  0  0  0  0  0  0  0
   -4.4465    0.3938   -2.7105 S   0  0  0  0  0  0  0  0  0  0  0  0
   -5.6048   -0.4865   -3.5827 C   0  0  0  0  0  0  0  0  0  0  0  0
   -6.0162   -0.0951   -4.8121 N   0  0  0  0  0  0  0  0  0  0  0  0
   -6.9304   -0.9412   -5.3343 C   0  0  0  0  0  0  0  0  0  0  0  0
   -7.3973   -2.0707   -4.6862 C   0  0  0  0  0  0  0  0  0  0  0  0
   -6.9861   -2.4494   -3.4596 N   0  0  0  0  0  0  0  0  0  0  0  0
   -6.0515   -1.6146   -2.9037 C   0  0  0  0  0  0  0  0  0  0  0  0
   -1.0959    1.2045    1.5423 C   0  0  0  0  0  0  0  0  0  0  0  0
    0.0644    1.0822    2.3129 C   0  0  0  0  0  0  0  0  0  0  0  0
    1.6342   -0.2356    2.9797 H   0  0  0  0  0  0  0  0  0  0  0  0
    0.7547   -2.1925    1.7293 H   0  0  0  0  0  0  0  0  0  0  0  0
   -1.2989   -1.9880    0.3951 H   0  0  0  0  0  0  0  0  0  0  0  0
   -2.6949    0.9730   -0.6277 H   0  0  0  0  0  0  0  0  0  0  0  0
   -5.0370   -3.4367    1.1174 H   0  0  0  0  0  0  0  0  0  0  0  0
   -7.2948   -0.6799   -6.3241 H   0  0  0  0  0  0  0  0  0  0  0  0
   -8.1324   -2.7189   -5.1523 H   0  0  0  0  0  0  0  0  0  0  0  0
   -1.6144    2.1596    1.5139 H   0  0  0  0  0  0  0  0  0  0  0  0
    0.4401    1.9379    2.8677 H   0  0  0  0  0  0  0  0  0  0  0  0
  1  2  2  0  0  0  0
  1 20  1  0  0  0  0
  1 21  1  0  0  0  0
  2  3  1  0  0  0  0
  2 22  1  0  0  0  0
  3  4  2  0  0  0  0
  3 23  1  0  0  0  0
  4  5  1  0  0  0  0
  4 19  1  0  0  0  0
  5  6  1  0  0  0  0
  5 24  1  0  0  0  0
  6  7  2  0  0  0  0
  6 11  1  0  0  0  0
  7  8  1  0  0  0  0
  8  9  2  0  0  0  0
  8 25  1  0  0  0  0
  9 10  1  0  0  0  0
 10 11  2  0  0  0  0
 10 18  1  0  0  0  0
 11 12  1  0  0  0  0
 12 13  1  0  0  0  0
 13 14  1  0  0  0  0
 13 18  2  0  0  0  0
 14 15  2  0  0  0  0
 15 16  1  0  0  0  0
 15 26  1  0  0  0  0
 16 17  2  0  0  0  0
 16 27  1  0  0  0  0
 17 18  1  0  0  0  0
 19 20  2  0  0  0  0
 19 28  1  0  0  0  0
 20 29  1  0  0  0  0
M  END
$$$$
