
 OpenBabel09162610133D

 32 34  0  0  0  0  0  0  0  0999 V2000
    2.6066    1.0957   -0.0953 O   0  0  0  0  0  0  0  0  0  0  0  0
    2.2175   -0.0528    0.1030 C   0  0  0  0  0  0  0  0  0  0  0  0
    1.0414   -0.6068   -0.3651 N   0  0  0  0  0  0  0  0  0  0  0  0
    0.0714    0.0423   -1.1585 C   0  0  0  0  0  0  0  0  0  0  0  0
    0.3010    1.2608   -1.8059 C   0  0  0  0  0  0  0  0  0  0  0  0
   -0.7116    1.8875   -2.5372 C   0  0  0  0  0  0  0  0  0  0  0  0
   -1.9679    1.2993   -2.6323 C   0  0  0  0  0  0  0  0  0  0  0  0
   -2.2028    0.0719   -2.0162 C   0  0  0  0  0  0  0  0  0  0  0  0
   -1.1842   -0.5609   -1.2924 C   0  0  0  0  0  0  0  0  0  0  0  0
    3.0077   -0.9686    0.9360 C   0  0  0  0  0  0  0  0  0  0  0  0
    4.1707   -0.5703    1.5686 C   0  0  0  0  0  0  0  0  0  0  0  0
    4.8503   -1.8649    2.4382 S   0  0  0  0  0  0  0  0  0  0  0  0
    3.5803   -2.9001    1.8920 C   0  0  0  0  0  0  0  0  0  0  0  0
    3.5671   -4.3244    2.2718 C   0  0  0  0  0  0  0  0  0  0  0  0
    2.3414   -4.9963    2.3911 C   0  0  0  0  0  0  0  0  0  0  0  0
    2.2962   -6.3527    2.7265 C   0  0  0  0  0  0  0  0  0  0  0  0
    3.4770   -7.0599    2.9418 C   0  0  0  0  0  0  0  0  0  0  0  0
    4.7029   -6.4123    2.8274 C   0  0  0  0  0  0  0  0  0  0  0  0
    4.7482   -5.0558    2.4947 C   0  0  0  0  0  0  0  0  0  0  0  0
    2.6542   -2.3029    1.1580 N   0  0  0  0  0  0  0  0  0  0  0  0
    0.8381   -1.5389   -0.0177 H   0  0  0  0  0  0  0  0  0  0  0  0
    1.2681    1.7522   -1.7730 H   0  0  0  0  0  0  0  0  0  0  0  0
   -0.5116    2.8383   -3.0249 H   0  0  0  0  0  0  0  0  0  0  0  0
   -2.7590    1.7974   -3.1865 H   0  0  0  0  0  0  0  0  0  0  0  0
   -3.1845   -0.3884   -2.0909 H   0  0  0  0  0  0  0  0  0  0  0  0
   -1.4000   -1.5117   -0.8132 H   0  0  0  0  0  0  0  0  0  0  0  0
    4.6305    0.4086    1.5502 H   0  0  0  0  0  0  0  0  0  0  0  0
    1.4088   -4.4606    2.2249 H   0  0  0  0  0  0  0  0  0  0  0  0
    1.3375   -6.8575    2.8157 H   0  0  0  0  0  0  0  0  0  0  0  0
    3.4423   -8.1167    3.1942 H   0  0  0  0  0  0  0  0  0  0  0  0
    5.6278   -6.9613    2.9899 H   0  0  0  0  0  0  0  0  0  0  0  0
    5.7251   -4.5876    2.3974 H   0  0  0  0  0  0  0  0  0  0  0  0
  1  2  2  0  0  0  0
  2  3  1  0  0  0  0
  2 10  1  0  0  0  0
  3  4  1  0  0  0  0
  3 21  1  0  0  0  0
  4  5  2  0  0  0  0
  4  9  1  0  0  0  0
  5  6  1  0  0  0  0
  5 22  1  0  0  0  0
  6  7  2  0  0  0  0
  6 23  1  0  0  0  0
  7  8  1  0  0  0  0
  7 24  1  0  0  0  0
  8  9  2  0  0  0  0
  8 25  1  0  0  0  0
  9 26  1  0  0  0  0
 10 11  2  0  0  0  0
 10 20  1  0  0  0  0
 11 12  1  0  0  0  0
 11 27  1  0  0  0  0
 12 13  1  0  0  0  0
 13 14  1  0  0  0  0
 13 20  2  0  0  0  0
 14 15  2  0  0  0  0
 14 19  1  0  0  0  0
 15 16  1  0  0  0  0
 15 28  1  0  0  0  0
 16 17  2  0  0  0  0
 16 29  1  0  0  0  0
 17 18  1  0  0  0  0
 17 30  1  0  0  0  0
 18 19  2  0  0  0  0
 18 31  1  0  0  0  0
 19 32  1  0  0  0  0
M  END
$$$$
