
 OpenBabel09162610133D

 35 38  0  0  0  0  0  0  0  0999 V2000
    1.3929   -0.5704    0.1973 C   0  0  0  0  0  0  0  0  0  0  0  0
    2.8392   -0.6215   -0.1996 C   0  0  0  0  0  0  0  0  0  0  0  0
    3.5437   -1.8268   -0.1016 C   0  0  0  0  0  0  0  0  0  0  0  0
    4.9053   -1.8710   -0.3997 C   0  0  0  0  0  0  0  0  0  0  0  0
    5.5715   -0.7061   -0.7996 C   0  0  0  0  0  0  0  0  0  0  0  0
    7.0532   -0.7301   -0.9730 C   0  0  0  0  0  0  0  0  0  0  0  0
    7.6463   -1.8008   -0.8559 O   0  0  0  0  0  0  0  0  0  0  0  0
    7.6896    0.4981   -1.2233 N   0  0  0  0  0  0  0  0  0  0  0  0
    9.1408    0.5034   -1.2118 C   0  0  0  0  0  0  0  0  0  0  0  0
    6.9589    1.6418   -1.4712 C   0  0  0  0  0  0  0  0  0  0  0  0
    5.6142    1.6705   -1.3898 C   0  0  0  0  0  0  0  0  0  0  0  0
    4.8689    0.4952   -0.9639 C   0  0  0  0  0  0  0  0  0  0  0  0
    3.4980    0.5251   -0.6714 C   0  0  0  0  0  0  0  0  0  0  0  0
    5.0231    3.0050   -1.7344 C   0  0  0  0  0  0  0  0  0  0  0  0
    6.2621    3.7978   -2.0155 C   0  0  0  0  0  0  0  0  0  0  0  0
    6.3423    5.1357   -2.3792 C   0  0  0  0  0  0  0  0  0  0  0  0
    7.6049    5.6895   -2.5779 C   0  0  0  0  0  0  0  0  0  0  0  0
    8.7537    4.9046   -2.4121 C   0  0  0  0  0  0  0  0  0  0  0  0
    8.6580    3.5543   -2.0543 C   0  0  0  0  0  0  0  0  0  0  0  0
    7.4058    2.9914   -1.8512 C   0  0  0  0  0  0  0  0  0  0  0  0
    1.2453   -1.0923    1.1491 H   0  0  0  0  0  0  0  0  0  0  0  0
    0.7694   -1.0389   -0.5698 H   0  0  0  0  0  0  0  0  0  0  0  0
    1.0565    0.4618    0.3413 H   0  0  0  0  0  0  0  0  0  0  0  0
    3.0443   -2.7318    0.2383 H   0  0  0  0  0  0  0  0  0  0  0  0
    5.4520   -2.8056   -0.2886 H   0  0  0  0  0  0  0  0  0  0  0  0
    9.5531   -0.4612   -0.8995 H   0  0  0  0  0  0  0  0  0  0  0  0
    9.4914    1.2486   -0.4914 H   0  0  0  0  0  0  0  0  0  0  0  0
    9.5133    0.7194   -2.2173 H   0  0  0  0  0  0  0  0  0  0  0  0
    2.9379    1.4527   -0.7670 H   0  0  0  0  0  0  0  0  0  0  0  0
    4.4692    3.4368   -0.8949 H   0  0  0  0  0  0  0  0  0  0  0  0
    4.3904    2.9440   -2.6267 H   0  0  0  0  0  0  0  0  0  0  0  0
    5.4493    5.7387   -2.5043 H   0  0  0  0  0  0  0  0  0  0  0  0
    7.7022    6.7348   -2.8568 H   0  0  0  0  0  0  0  0  0  0  0  0
    9.7349    5.3519   -2.5666 H   0  0  0  0  0  0  0  0  0  0  0  0
    9.5726    2.9876   -1.9419 H   0  0  0  0  0  0  0  0  0  0  0  0
  1  2  1  0  0  0  0
  1 21  1  0  0  0  0
  1 22  1  0  0  0  0
  1 23  1  0  0  0  0
  2  3  2  0  0  0  0
  2 13  1  0  0  0  0
  3  4  1  0  0  0  0
  3 24  1  0  0  0  0
  4  5  2  0  0  0  0
  4 25  1  0  0  0  0
  5  6  1  0  0  0  0
  5 12  1  0  0  0  0
  6  7  2  0  0  0  0
  6  8  1  0  0  0  0
  8  9  1  0  0  0  0
  8 10  1  0  0  0  0
  9 26  1  0  0  0  0
  9 27  1  0  0  0  0
  9 28  1  0  0  0  0
 10 11  2  0  0  0  0
 10 20  1  0  0  0  0
 11 12  1  0  0  0  0
 11 14  1  0  0  0  0
 12 13  2  0  0  0  0
 13 29  1  0  0  0  0
 14 15  1  0  0  0  0
 14 30  1  0  0  0  0
 14 31  1  0  0  0  0
 15 16  1  0  0  0  0
 15 20  2  0  0  0  0
 16 17  2  0  0  0  0
 16 32  1  0  0  0  0
 17 18  1  0  0  0  0
 17 33  1  0  0  0  0
 18 19  2  0  0  0  0
 18 34  1  0  0  0  0
 19 20  1  0  0  0  0
 19 35  1  0  0  0  0
M  END
$$$$
