
 OpenBabel09162610133D

 31 33  0  0  1  0  0  0  0  0999 V2000
    1.3306    0.4901    0.3487 C   0  0  0  0  0  0  0  0  0  0  0  0
    2.6733   -0.0907    0.0752 C   0  0  0  0  0  0  0  0  0  0  0  0
    3.3254    0.1477   -1.0212 N   0  0  0  0  0  0  0  0  0  0  0  0
    4.4481   -0.6721   -0.9935 N   0  0  0  0  0  0  0  0  0  0  0  0
    4.7624   -1.2464   -2.2096 C   0  0  0  0  0  0  0  0  0  0  0  0
    4.7639   -0.6110   -3.2685 O   0  0  0  0  0  0  0  0  0  0  0  0
    5.0152   -2.7582   -2.2397 C   0  0  1  0  0  0  0  0  0  0  0  0
    6.4766   -3.0429   -2.5969 C   0  0  0  0  0  0  0  0  0  0  0  0
    4.4784   -3.5449   -1.1737 O   0  0  0  0  0  0  0  0  0  0  0  0
    5.2840   -3.5539   -0.0733 C   0  0  0  0  0  0  0  0  0  0  0  0
    5.9059   -4.7538    0.3070 C   0  0  0  0  0  0  0  0  0  0  0  0
    5.5777   -6.2323   -0.5208 Cl  0  0  0  0  0  0  0  0  0  0  0  0
    6.8282   -4.7645    1.3481 C   0  0  0  0  0  0  0  0  0  0  0  0
    7.1045   -3.5779    2.0173 C   0  0  0  0  0  0  0  0  0  0  0  0
    8.2781   -3.5656    3.2751 Cl  0  0  0  0  0  0  0  0  0  0  0  0
    6.4313   -2.3976    1.6852 C   0  0  0  0  0  0  0  0  0  0  0  0
    5.4882   -2.3736    0.6404 C   0  0  0  0  0  0  0  0  0  0  0  0
    4.6857   -1.1345    0.3807 C   0  0  2  0  0  0  0  0  0  0  0  0
    3.2806   -1.1311    0.9705 C   0  0  0  0  0  0  0  0  0  0  0  0
    1.1663    1.3738   -0.2724 H   0  0  0  0  0  0  0  0  0  0  0  0
    1.2477    0.7617    1.4024 H   0  0  0  0  0  0  0  0  0  0  0  0
    0.5722   -0.2603    0.1071 H   0  0  0  0  0  0  0  0  0  0  0  0
    4.4252   -3.0953   -3.1030 H   0  0  0  0  0  0  0  0  0  0  0  0
    7.1619   -2.6452   -1.8406 H   0  0  0  0  0  0  0  0  0  0  0  0
    6.7426   -2.5714   -3.5486 H   0  0  0  0  0  0  0  0  0  0  0  0
    6.6565   -4.1187   -2.6805 H   0  0  0  0  0  0  0  0  0  0  0  0
    7.3342   -5.6854    1.6240 H   0  0  0  0  0  0  0  0  0  0  0  0
    6.6476   -1.4923    2.2520 H   0  0  0  0  0  0  0  0  0  0  0  0
    5.2341   -0.2936    0.8312 H   0  0  0  0  0  0  0  0  0  0  0  0
    3.2540   -0.8422    2.0228 H   0  0  0  0  0  0  0  0  0  0  0  0
    2.7489   -2.0765    0.8235 H   0  0  0  0  0  0  0  0  0  0  0  0
  1  2  1  0  0  0  0
  1 20  1  0  0  0  0
  1 21  1  0  0  0  0
  1 22  1  0  0  0  0
  2  3  2  0  0  0  0
  2 19  1  0  0  0  0
  3  4  1  0  0  0  0
  4  5  1  0  0  0  0
  4 18  1  0  0  0  0
  5  6  2  0  0  0  0
  5  7  1  0  0  0  0
  7  8  1  0  0  0  0
  7  9  1  0  0  0  0
  7 23  1  6  0  0  0
  8 24  1  0  0  0  0
  8 25  1  0  0  0  0
  8 26  1  0  0  0  0
  9 10  1  0  0  0  0
 10 11  1  0  0  0  0
 10 17  2  0  0  0  0
 11 12  1  0  0  0  0
 11 13  2  0  0  0  0
 13 14  1  0  0  0  0
 13 27  1  0  0  0  0
 14 15  1  0  0  0  0
 14 16  2  0  0  0  0
 16 17  1  0  0  0  0
 16 28  1  0  0  0  0
 17 18  1  0  0  0  0
 18 19  1  0  0  0  0
 18 29  1  1  0  0  0
 19 30  1  0  0  0  0
 19 31  1  0  0  0  0
M  END
$$$$
