
 OpenBabel09162610133D

 34 36  0  0  0  0  0  0  0  0999 V2000
    1.6692   -0.8279   -2.1917 C   0  0  0  0  0  0  0  0  0  0  0  0
    0.8549   -0.3301   -1.0539 C   0  0  0  0  0  0  0  0  0  0  0  0
    0.7024    0.9892   -0.8722 N   0  0  0  0  0  0  0  0  0  0  0  0
   -0.0973    1.0833    0.2009 N   0  0  0  0  0  0  0  0  0  0  0  0
   -0.4120   -0.1213    0.7693 C   0  0  0  0  0  0  0  0  0  0  0  0
   -1.2385   -0.2106    1.9936 C   0  0  0  0  0  0  0  0  0  0  0  0
    0.1703   -1.0672   -0.0569 C   0  0  0  0  0  0  0  0  0  0  0  0
    0.1181   -2.7918    0.0220 S   0  0  0  0  0  0  0  0  0  0  0  0
   -0.4356   -3.0951    1.3227 O   0  0  0  0  0  0  0  0  0  0  0  0
   -0.5786   -3.1419   -1.2009 O   0  0  0  0  0  0  0  0  0  0  0  0
    1.7110   -3.3314   -0.0364 N   0  0  0  0  0  0  0  0  0  0  0  0
    2.6010   -2.9889    1.1124 C   0  0  0  0  0  0  0  0  0  0  0  0
    3.8434   -3.8796    0.9307 C   0  0  0  0  0  0  0  0  0  0  0  0
    3.2989   -4.9959    0.0949 C   0  0  0  0  0  0  0  0  0  0  0  0
    3.9335   -6.1812   -0.2460 C   0  0  0  0  0  0  0  0  0  0  0  0
    3.2762   -7.0557   -1.1120 C   0  0  0  0  0  0  0  0  0  0  0  0
    2.0171   -6.7259   -1.6347 C   0  0  0  0  0  0  0  0  0  0  0  0
    1.3999   -5.5138   -1.3045 C   0  0  0  0  0  0  0  0  0  0  0  0
    2.0408   -4.6675   -0.4187 C   0  0  0  0  0  0  0  0  0  0  0  0
    2.0760   -0.0028   -2.7839 H   0  0  0  0  0  0  0  0  0  0  0  0
    1.0640   -1.4528   -2.8572 H   0  0  0  0  0  0  0  0  0  0  0  0
    2.5158   -1.4196   -1.8308 H   0  0  0  0  0  0  0  0  0  0  0  0
   -0.3865    2.0101    0.4984 H   0  0  0  0  0  0  0  0  0  0  0  0
   -1.3844    0.7771    2.4460 H   0  0  0  0  0  0  0  0  0  0  0  0
   -0.7558   -0.8422    2.7452 H   0  0  0  0  0  0  0  0  0  0  0  0
   -2.2253   -0.6242    1.7650 H   0  0  0  0  0  0  0  0  0  0  0  0
    2.1103   -3.2371    2.0621 H   0  0  0  0  0  0  0  0  0  0  0  0
    2.8712   -1.9292    1.1152 H   0  0  0  0  0  0  0  0  0  0  0  0
    4.2384   -4.2241    1.8906 H   0  0  0  0  0  0  0  0  0  0  0  0
    4.6232   -3.3468    0.3764 H   0  0  0  0  0  0  0  0  0  0  0  0
    4.9240   -6.4185    0.1300 H   0  0  0  0  0  0  0  0  0  0  0  0
    3.7505   -7.9911   -1.4009 H   0  0  0  0  0  0  0  0  0  0  0  0
    1.5236   -7.4099   -2.3217 H   0  0  0  0  0  0  0  0  0  0  0  0
    0.4452   -5.2660   -1.7540 H   0  0  0  0  0  0  0  0  0  0  0  0
  1  2  1  0  0  0  0
  1 20  1  0  0  0  0
  1 21  1  0  0  0  0
  1 22  1  0  0  0  0
  2  3  2  0  0  0  0
  2  7  1  0  0  0  0
  3  4  1  0  0  0  0
  4  5  1  0  0  0  0
  4 23  1  0  0  0  0
  5  6  1  0  0  0  0
  5  7  2  0  0  0  0
  6 24  1  0  0  0  0
  6 25  1  0  0  0  0
  6 26  1  0  0  0  0
  7  8  1  0  0  0  0
  8  9  2  0  0  0  0
  8 10  2  0  0  0  0
  8 11  1  0  0  0  0
 11 12  1  0  0  0  0
 11 19  1  0  0  0  0
 12 13  1  0  0  0  0
 12 27  1  0  0  0  0
 12 28  1  0  0  0  0
 13 14  1  0  0  0  0
 13 29  1  0  0  0  0
 13 30  1  0  0  0  0
 14 15  1  0  0  0  0
 14 19  2  0  0  0  0
 15 16  2  0  0  0  0
 15 31  1  0  0  0  0
 16 17  1  0  0  0  0
 16 32  1  0  0  0  0
 17 18  2  0  0  0  0
 17 33  1  0  0  0  0
 18 19  1  0  0  0  0
 18 34  1  0  0  0  0
M  END
$$$$
