
 OpenBabel09162610133D

 29 31  0  0  1  0  0  0  0  0999 V2000
    1.4164   -0.5243   -0.3966 C   0  0  0  0  0  0  0  0  0  0  0  0
    2.7873   -0.2647    0.1765 C   0  0  2  0  0  0  0  0  0  0  0  0
    2.9676    1.1378    0.7418 C   0  0  0  0  0  0  0  0  0  0  0  0
    4.1652    1.8888   -0.4218 P   0  0  2  0  0  0  0  0  0  0  0  0
    4.9898    2.9570    0.2426 O   0  0  0  0  0  0  0  0  0  0  0  0
    3.2579    2.3343   -1.8808 C   0  0  0  0  0  0  0  0  0  0  0  0
    2.2277    3.2803   -1.7759 C   0  0  0  0  0  0  0  0  0  0  0  0
    1.4109    3.5713   -2.8677 C   0  0  0  0  0  0  0  0  0  0  0  0
    1.6210    2.9306   -4.0853 C   0  0  0  0  0  0  0  0  0  0  0  0
    2.6648    2.0173   -4.2170 C   0  0  0  0  0  0  0  0  0  0  0  0
    3.4815    1.7266   -3.1238 C   0  0  0  0  0  0  0  0  0  0  0  0
    5.0918    0.3485   -0.6720 C   0  0  0  0  0  0  0  0  0  0  0  0
    4.0176   -0.7037   -0.6073 C   0  0  1  0  0  0  0  0  0  0  0  0
    3.6356   -1.4395    0.6537 C   0  0  0  0  0  0  0  0  0  0  0  0
    4.6126   -1.2926    2.1033 Cl  0  0  0  0  0  0  0  0  0  0  0  0
    3.0443   -3.0932    0.4279 Cl  0  0  0  0  0  0  0  0  0  0  0  0
    0.9975    0.3809   -0.8488 H   0  0  0  0  0  0  0  0  0  0  0  0
    0.7354   -0.8455    0.3985 H   0  0  0  0  0  0  0  0  0  0  0  0
    1.4269   -1.2925   -1.1763 H   0  0  0  0  0  0  0  0  0  0  0  0
    3.3850    1.1310    1.7513 H   0  0  0  0  0  0  0  0  0  0  0  0
    2.0382    1.7139    0.7672 H   0  0  0  0  0  0  0  0  0  0  0  0
    2.0542    3.7881   -0.8281 H   0  0  0  0  0  0  0  0  0  0  0  0
    0.6048    4.2938   -2.7661 H   0  0  0  0  0  0  0  0  0  0  0  0
    0.9763    3.1441   -4.9331 H   0  0  0  0  0  0  0  0  0  0  0  0
    2.8386    1.5257   -5.1711 H   0  0  0  0  0  0  0  0  0  0  0  0
    4.2847    1.0089   -3.2604 H   0  0  0  0  0  0  0  0  0  0  0  0
    5.8323    0.2286    0.1225 H   0  0  0  0  0  0  0  0  0  0  0  0
    5.6282    0.3379   -1.6239 H   0  0  0  0  0  0  0  0  0  0  0  0
    3.8687   -1.1923   -1.5630 H   0  0  0  0  0  0  0  0  0  0  0  0
  1 17  1  0  0  0  0
  1 18  1  0  0  0  0
  1 19  1  0  0  0  0
  2  1  1  6  0  0  0
  2  3  1  0  0  0  0
  2 13  1  0  0  0  0
  2 14  1  0  0  0  0
  3  4  1  0  0  0  0
  3 20  1  0  0  0  0
  3 21  1  0  0  0  0
  4  5  2  1  0  0  0
  4  6  1  0  0  0  0
  4 12  1  0  0  0  0
  6  7  2  0  0  0  0
  6 11  1  0  0  0  0
  7  8  1  0  0  0  0
  7 22  1  0  0  0  0
  8  9  2  0  0  0  0
  8 23  1  0  0  0  0
  9 10  1  0  0  0  0
  9 24  1  0  0  0  0
 10 11  2  0  0  0  0
 10 25  1  0  0  0  0
 11 26  1  0  0  0  0
 12 13  1  0  0  0  0
 12 27  1  0  0  0  0
 12 28  1  0  0  0  0
 13 14  1  0  0  0  0
 13 29  1  6  0  0  0
 14 15  1  0  0  0  0
 14 16  1  0  0  0  0
M  END
$$$$
