
 OpenBabel09162610133D

 32 34  0  0  0  0  0  0  0  0999 V2000
    0.8692    0.1598    0.1266 O   0  0  0  0  0  0  0  0  0  0  0  0
    2.0935    0.1482    0.0833 C   0  0  0  0  0  0  0  0  0  0  0  0
    2.8293   -1.1292    0.0217 C   0  0  0  0  0  0  0  0  0  0  0  0
    4.1666   -1.1535   -0.0523 C   0  0  0  0  0  0  0  0  0  0  0  0
    4.8553   -2.5084   -0.0701 C   0  0  0  0  0  0  0  0  0  0  0  0
    5.4460   -3.6706   -0.0853 C   0  0  0  0  0  0  0  0  0  0  0  0
    6.1082   -4.9358   -0.1522 C   0  0  0  0  0  0  0  0  0  0  0  0
    7.4658   -4.9951   -0.4767 C   0  0  0  0  0  0  0  0  0  0  0  0
    8.1076   -6.2311   -0.5756 C   0  0  0  0  0  0  0  0  0  0  0  0
    7.3935   -7.4074   -0.3490 C   0  0  0  0  0  0  0  0  0  0  0  0
    6.0396   -7.3494   -0.0179 C   0  0  0  0  0  0  0  0  0  0  0  0
    5.3962   -6.1139    0.0812 C   0  0  0  0  0  0  0  0  0  0  0  0
    4.9364    0.1048   -0.1080 C   0  0  0  0  0  0  0  0  0  0  0  0
    6.3318    0.1077   -0.2679 C   0  0  0  0  0  0  0  0  0  0  0  0
    7.0437    1.3056   -0.3201 C   0  0  0  0  0  0  0  0  0  0  0  0
    6.3730    2.5190   -0.1921 C   0  0  0  0  0  0  0  0  0  0  0  0
    4.9767    2.5372   -0.0237 C   0  0  0  0  0  0  0  0  0  0  0  0
    4.3232    3.8455    0.1362 N   0  3  0  0  0  0  0  0  0  0  0  0
    5.0425    4.8548    0.1216 O   0  0  0  0  0  0  0  0  0  0  0  0
    3.0925    3.8738    0.2823 O   0  5  0  0  0  0  0  0  0  0  0  0
    4.2483    1.3310   -0.0019 C   0  0  0  0  0  0  0  0  0  0  0  0
    2.8426    1.2875    0.1005 N   0  0  0  0  0  0  0  0  0  0  0  0
    2.2246   -2.0276    0.0518 H   0  0  0  0  0  0  0  0  0  0  0  0
    8.0293   -4.0840   -0.6607 H   0  0  0  0  0  0  0  0  0  0  0  0
    9.1624   -6.2768   -0.8339 H   0  0  0  0  0  0  0  0  0  0  0  0
    7.8917   -8.3701   -0.4324 H   0  0  0  0  0  0  0  0  0  0  0  0
    5.4837   -8.2667    0.1586 H   0  0  0  0  0  0  0  0  0  0  0  0
    4.3394   -6.0792    0.3342 H   0  0  0  0  0  0  0  0  0  0  0  0
    6.8855   -0.8247   -0.3622 H   0  0  0  0  0  0  0  0  0  0  0  0
    8.1234    1.2899   -0.4563 H   0  0  0  0  0  0  0  0  0  0  0  0
    6.9527    3.4404   -0.2278 H   0  0  0  0  0  0  0  0  0  0  0  0
    2.3147    2.1581    0.1642 H   0  0  0  0  0  0  0  0  0  0  0  0
  1  2  2  0  0  0  0
  2  3  1  0  0  0  0
  2 22  1  0  0  0  0
  3  4  2  0  0  0  0
  3 23  1  0  0  0  0
  4  5  1  0  0  0  0
  4 13  1  0  0  0  0
  5  6  3  0  0  0  0
  6  7  1  0  0  0  0
  7  8  2  0  0  0  0
  7 12  1  0  0  0  0
  8  9  1  0  0  0  0
  8 24  1  0  0  0  0
  9 10  2  0  0  0  0
  9 25  1  0  0  0  0
 10 11  1  0  0  0  0
 10 26  1  0  0  0  0
 11 12  2  0  0  0  0
 11 27  1  0  0  0  0
 12 28  1  0  0  0  0
 13 14  1  0  0  0  0
 13 21  2  0  0  0  0
 14 15  2  0  0  0  0
 14 29  1  0  0  0  0
 15 16  1  0  0  0  0
 15 30  1  0  0  0  0
 16 17  2  0  0  0  0
 16 31  1  0  0  0  0
 17 18  1  0  0  0  0
 17 21  1  0  0  0  0
 18 19  2  0  0  0  0
 18 20  1  0  0  0  0
 21 22  1  0  0  0  0
 22 32  1  0  0  0  0
M  CHG  2  18   1  20  -1
M  END
$$$$
