
 OpenBabel09162610133D

 43 44  0  0  0  0  0  0  0  0999 V2000
    0.7572   -0.0235   -0.1733 C   0  0  0  0  0  0  0  0  0  0  0  0
    2.2639    0.0713    0.0134 C   0  0  0  0  0  0  0  0  0  0  0  0
    2.9924   -1.0898   -0.6692 C   0  0  0  0  0  0  0  0  0  0  0  0
    4.5360   -1.0220   -0.6402 N   0  3  0  0  0  0  0  0  0  0  0  0
    4.9167    0.1341   -1.2595 O   0  5  0  0  0  0  0  0  0  0  0  0
    4.9986   -1.0625    0.8296 C   0  0  0  0  0  0  0  0  0  0  0  0
    6.4709   -0.8810    1.2130 C   0  0  0  0  0  0  0  0  0  0  0  0
    7.1684    0.3387    0.6347 C   0  0  0  0  0  0  0  0  0  0  0  0
    5.0325   -2.2312   -1.4458 C   0  0  0  0  0  0  0  0  0  0  0  0
    6.5348   -2.3400   -1.6777 C   0  0  0  0  0  0  0  0  0  0  0  0
    6.9000   -3.5745   -2.4345 C   0  0  0  0  0  0  0  0  0  0  0  0
    7.1633   -3.6613   -3.7935 C   0  0  0  0  0  0  0  0  0  0  0  0
    7.4649   -4.9619   -4.0833 N   0  0  0  0  0  0  0  0  0  0  0  0
    7.3983   -5.7380   -2.9479 C   0  0  0  0  0  0  0  0  0  0  0  0
    7.6107   -7.1116   -2.7712 C   0  0  0  0  0  0  0  0  0  0  0  0
    7.4900   -7.6304   -1.4785 C   0  0  0  0  0  0  0  0  0  0  0  0
    7.1854   -6.8044   -0.3998 C   0  0  0  0  0  0  0  0  0  0  0  0
    6.9631   -5.4356   -0.5899 C   0  0  0  0  0  0  0  0  0  0  0  0
    7.0665   -4.8892   -1.8911 C   0  0  0  0  0  0  0  0  0  0  0  0
    0.2608    0.7986    0.3518 H   0  0  0  0  0  0  0  0  0  0  0  0
    0.3707   -0.9642    0.2318 H   0  0  0  0  0  0  0  0  0  0  0  0
    0.4851    0.0359   -1.2318 H   0  0  0  0  0  0  0  0  0  0  0  0
    2.4613    0.0747    1.0892 H   0  0  0  0  0  0  0  0  0  0  0  0
    2.6181    1.0297   -0.3810 H   0  0  0  0  0  0  0  0  0  0  0  0
    2.7218   -1.1132   -1.7330 H   0  0  0  0  0  0  0  0  0  0  0  0
    2.7175   -2.0476   -0.2130 H   0  0  0  0  0  0  0  0  0  0  0  0
    4.6277   -2.0169    1.2214 H   0  0  0  0  0  0  0  0  0  0  0  0
    4.4563   -0.2526    1.3204 H   0  0  0  0  0  0  0  0  0  0  0  0
    7.0534   -1.7811    1.0195 H   0  0  0  0  0  0  0  0  0  0  0  0
    6.5069   -0.7870    2.3070 H   0  0  0  0  0  0  0  0  0  0  0  0
    7.1765    0.3403   -0.4578 H   0  0  0  0  0  0  0  0  0  0  0  0
    8.2149    0.3563    0.9557 H   0  0  0  0  0  0  0  0  0  0  0  0
    6.6938    1.2603    0.9845 H   0  0  0  0  0  0  0  0  0  0  0  0
    4.5353   -2.1444   -2.4212 H   0  0  0  0  0  0  0  0  0  0  0  0
    4.6326   -3.1177   -0.9392 H   0  0  0  0  0  0  0  0  0  0  0  0
    7.0755   -2.4092   -0.7416 H   0  0  0  0  0  0  0  0  0  0  0  0
    6.9152   -1.4472   -2.1880 H   0  0  0  0  0  0  0  0  0  0  0  0
    7.1765   -2.9021   -4.5606 H   0  0  0  0  0  0  0  0  0  0  0  0
    7.7085   -5.3127   -4.9981 H   0  0  0  0  0  0  0  0  0  0  0  0
    7.8620   -7.7529   -3.6062 H   0  0  0  0  0  0  0  0  0  0  0  0
    7.6505   -8.6896   -1.3132 H   0  0  0  0  0  0  0  0  0  0  0  0
    7.1061   -7.2267    0.6005 H   0  0  0  0  0  0  0  0  0  0  0  0
    6.7378   -4.7986    0.2602 H   0  0  0  0  0  0  0  0  0  0  0  0
  1  2  1  0  0  0  0
  1 20  1  0  0  0  0
  1 21  1  0  0  0  0
  1 22  1  0  0  0  0
  2  3  1  0  0  0  0
  2 23  1  0  0  0  0
  2 24  1  0  0  0  0
  3  4  1  0  0  0  0
  3 25  1  0  0  0  0
  3 26  1  0  0  0  0
  4  5  1  0  0  0  0
  4  6  1  0  0  0  0
  4  9  1  0  0  0  0
  6  7  1  0  0  0  0
  6 27  1  0  0  0  0
  6 28  1  0  0  0  0
  7  8  1  0  0  0  0
  7 29  1  0  0  0  0
  7 30  1  0  0  0  0
  8 31  1  0  0  0  0
  8 32  1  0  0  0  0
  8 33  1  0  0  0  0
  9 10  1  0  0  0  0
  9 34  1  0  0  0  0
  9 35  1  0  0  0  0
 10 11  1  0  0  0  0
 10 36  1  0  0  0  0
 10 37  1  0  0  0  0
 11 12  2  0  0  0  0
 11 19  1  0  0  0  0
 12 13  1  0  0  0  0
 12 38  1  0  0  0  0
 13 14  1  0  0  0  0
 13 39  1  0  0  0  0
 14 15  1  0  0  0  0
 14 19  2  0  0  0  0
 15 16  2  0  0  0  0
 15 40  1  0  0  0  0
 16 17  1  0  0  0  0
 16 41  1  0  0  0  0
 17 18  2  0  0  0  0
 17 42  1  0  0  0  0
 18 19  1  0  0  0  0
 18 43  1  0  0  0  0
M  CHG  2   4   1   5  -1
M  END
$$$$
