
 OpenBabel09162610133D

 38 40  0  0  1  0  0  0  0  0999 V2000
    2.4988   -0.0180   -0.1202 C   0  0  0  0  0  0  0  0  0  0  0  0
    1.0349   -0.0065    0.3192 C   0  0  1  0  0  0  0  0  0  0  0  0
    0.3416    1.2784   -0.1537 C   0  0  0  0  0  0  0  0  0  0  0  0
   -1.1453    1.2878    0.2047 C   0  0  0  0  0  0  0  0  0  0  0  0
   -1.8808    0.0524   -0.3272 C   0  0  1  0  0  0  0  0  0  0  0  0
   -1.9728    0.0740   -1.7822 N   0  0  0  0  0  0  0  0  0  0  0  0
   -2.9927    0.7076   -2.4615 C   0  0  0  0  0  0  0  0  0  0  0  0
   -3.9175    1.2950   -1.9162 O   0  0  0  0  0  0  0  0  0  0  0  0
   -2.8929    0.6672   -3.9501 C   0  0  0  0  0  0  0  0  0  0  0  0
   -3.4965    1.6913   -4.6962 C   0  0  0  0  0  0  0  0  0  0  0  0
   -3.4157    1.7218   -6.0956 C   0  0  0  0  0  0  0  0  0  0  0  0
   -2.7119    0.6796   -6.7017 C   0  0  0  0  0  0  0  0  0  0  0  0
   -2.4268    0.3892   -8.0132 N   0  0  0  0  0  0  0  0  0  0  0  0
   -1.7035   -0.7697   -8.0411 C   0  0  0  0  0  0  0  0  0  0  0  0
   -1.5055   -1.2471   -6.8347 N   0  0  0  0  0  0  0  0  0  0  0  0
   -2.1230   -0.3599   -5.9909 C   0  0  0  0  0  0  0  0  0  0  0  0
   -2.2190   -0.3837   -4.5944 C   0  0  0  0  0  0  0  0  0  0  0  0
   -1.1855   -1.2332    0.1381 C   0  0  0  0  0  0  0  0  0  0  0  0
    0.3085   -1.2566   -0.1943 C   0  0  0  0  0  0  0  0  0  0  0  0
    3.0281    0.8590    0.2670 H   0  0  0  0  0  0  0  0  0  0  0  0
    2.5870   -0.0107   -1.2121 H   0  0  0  0  0  0  0  0  0  0  0  0
    3.0104   -0.9109    0.2542 H   0  0  0  0  0  0  0  0  0  0  0  0
    1.0124   -0.0243    1.4170 H   0  0  0  0  0  0  0  0  0  0  0  0
    0.4582    1.3912   -1.2388 H   0  0  0  0  0  0  0  0  0  0  0  0
    0.8258    2.1492    0.3048 H   0  0  0  0  0  0  0  0  0  0  0  0
   -1.6062    2.2058   -0.1781 H   0  0  0  0  0  0  0  0  0  0  0  0
   -1.2431    1.3155    1.2977 H   0  0  0  0  0  0  0  0  0  0  0  0
   -2.9043    0.0601    0.0669 H   0  0  0  0  0  0  0  0  0  0  0  0
   -1.1402   -0.1698   -2.2999 H   0  0  0  0  0  0  0  0  0  0  0  0
   -4.0362    2.4849   -4.1799 H   0  0  0  0  0  0  0  0  0  0  0  0
   -3.8781    2.5183   -6.6688 H   0  0  0  0  0  0  0  0  0  0  0  0
   -2.7031    0.9350   -8.8163 H   0  0  0  0  0  0  0  0  0  0  0  0
   -1.3525   -1.2138   -8.9634 H   0  0  0  0  0  0  0  0  0  0  0  0
   -1.7868   -1.2184   -4.0575 H   0  0  0  0  0  0  0  0  0  0  0  0
   -1.6687   -2.1083   -0.3134 H   0  0  0  0  0  0  0  0  0  0  0  0
   -1.3056   -1.3293    1.2244 H   0  0  0  0  0  0  0  0  0  0  0  0
    0.4431   -1.3487   -1.2792 H   0  0  0  0  0  0  0  0  0  0  0  0
    0.7582   -2.1536    0.2487 H   0  0  0  0  0  0  0  0  0  0  0  0
  1  2  1  0  0  0  0
  1 20  1  0  0  0  0
  1 21  1  0  0  0  0
  1 22  1  0  0  0  0
  2  3  1  0  0  0  0
  2 19  1  0  0  0  0
  2 23  1  1  0  0  0
  3  4  1  0  0  0  0
  3 24  1  0  0  0  0
  3 25  1  0  0  0  0
  4  5  1  0  0  0  0
  4 26  1  0  0  0  0
  4 27  1  0  0  0  0
  5  6  1  0  0  0  0
  5 18  1  0  0  0  0
  5 28  1  1  0  0  0
  6  7  1  0  0  0  0
  6 29  1  0  0  0  0
  7  8  2  0  0  0  0
  7  9  1  0  0  0  0
  9 10  2  0  0  0  0
  9 17  1  0  0  0  0
 10 11  1  0  0  0  0
 10 30  1  0  0  0  0
 11 12  2  0  0  0  0
 11 31  1  0  0  0  0
 12 13  1  0  0  0  0
 12 16  1  0  0  0  0
 13 14  1  0  0  0  0
 13 32  1  0  0  0  0
 14 15  2  0  0  0  0
 14 33  1  0  0  0  0
 15 16  1  0  0  0  0
 16 17  2  0  0  0  0
 17 34  1  0  0  0  0
 18 19  1  0  0  0  0
 18 35  1  0  0  0  0
 18 36  1  0  0  0  0
 19 37  1  0  0  0  0
 19 38  1  0  0  0  0
M  END
$$$$
