
 OpenBabel09162610133D

 38 40  0  0  0  0  0  0  0  0999 V2000
   -2.2078   -0.4912    0.5139 C   0  0  0  0  0  0  0  0  0  0  0  0
   -1.3127   -1.1921    1.4610 C   0  0  0  0  0  0  0  0  0  0  0  0
   -1.5179   -0.9103    2.7786 O   0  0  0  0  0  0  0  0  0  0  0  0
   -0.6605   -1.6775    3.4902 C   0  0  0  0  0  0  0  0  0  0  0  0
    0.0878   -2.4608    2.6461 C   0  0  0  0  0  0  0  0  0  0  0  0
   -0.2687   -2.0958    1.3104 C   0  0  0  0  0  0  0  0  0  0  0  0
    0.2364   -2.5873    0.0299 C   0  0  0  0  0  0  0  0  0  0  0  0
   -0.5280   -2.7195   -0.9274 O   0  0  0  0  0  0  0  0  0  0  0  0
    1.5953   -2.8933   -0.0845 N   0  0  0  0  0  0  0  0  0  0  0  0
    2.6116   -2.6663    0.9524 C   0  0  0  0  0  0  0  0  0  0  0  0
    4.0134   -2.3500    0.3992 C   0  0  0  0  0  0  0  0  0  0  0  0
    4.3771   -3.3410   -0.6198 N   0  0  0  0  0  0  0  0  0  0  0  0
    5.7092   -3.6423   -0.8690 C   0  0  0  0  0  0  0  0  0  0  0  0
    6.0448   -4.8490   -1.5101 C   0  0  0  0  0  0  0  0  0  0  0  0
    7.3757   -5.2387   -1.7036 C   0  0  0  0  0  0  0  0  0  0  0  0
    8.4084   -4.4229   -1.2586 C   0  0  0  0  0  0  0  0  0  0  0  0
    8.1095   -3.2214   -0.6281 C   0  0  0  0  0  0  0  0  0  0  0  0
    6.7745   -2.8402   -0.4355 C   0  0  0  0  0  0  0  0  0  0  0  0
    3.4153   -3.3923   -1.7399 C   0  0  0  0  0  0  0  0  0  0  0  0
    2.0234   -3.7594   -1.1948 C   0  0  0  0  0  0  0  0  0  0  0  0
   -3.0030    0.0403    1.0463 H   0  0  0  0  0  0  0  0  0  0  0  0
   -2.6866   -1.2026   -0.1666 H   0  0  0  0  0  0  0  0  0  0  0  0
   -1.6491    0.2401   -0.0789 H   0  0  0  0  0  0  0  0  0  0  0  0
   -0.7127   -1.5724    4.5650 H   0  0  0  0  0  0  0  0  0  0  0  0
    0.8128   -3.1969    2.9607 H   0  0  0  0  0  0  0  0  0  0  0  0
    2.6595   -3.5862    1.5486 H   0  0  0  0  0  0  0  0  0  0  0  0
    2.3215   -1.8377    1.6023 H   0  0  0  0  0  0  0  0  0  0  0  0
    4.7076   -2.3650    1.2471 H   0  0  0  0  0  0  0  0  0  0  0  0
    4.0255   -1.3430   -0.0374 H   0  0  0  0  0  0  0  0  0  0  0  0
    5.2629   -5.5326   -1.8228 H   0  0  0  0  0  0  0  0  0  0  0  0
    7.5933   -6.1861   -2.1824 H   0  0  0  0  0  0  0  0  0  0  0  0
    9.4422   -4.7283   -1.3943 H   0  0  0  0  0  0  0  0  0  0  0  0
    8.9103   -2.5790   -0.2725 H   0  0  0  0  0  0  0  0  0  0  0  0
    6.5904   -1.8906    0.0576 H   0  0  0  0  0  0  0  0  0  0  0  0
    3.6931   -4.1166   -2.5120 H   0  0  0  0  0  0  0  0  0  0  0  0
    3.3728   -2.4068   -2.2220 H   0  0  0  0  0  0  0  0  0  0  0  0
    2.0494   -4.7811   -0.7933 H   0  0  0  0  0  0  0  0  0  0  0  0
    1.2915   -3.7514   -2.0091 H   0  0  0  0  0  0  0  0  0  0  0  0
  1  2  1  0  0  0  0
  1 21  1  0  0  0  0
  1 22  1  0  0  0  0
  1 23  1  0  0  0  0
  2  3  1  0  0  0  0
  2  6  2  0  0  0  0
  3  4  1  0  0  0  0
  4  5  2  0  0  0  0
  4 24  1  0  0  0  0
  5  6  1  0  0  0  0
  5 25  1  0  0  0  0
  6  7  1  0  0  0  0
  7  8  2  0  0  0  0
  7  9  1  0  0  0  0
  9 10  1  0  0  0  0
  9 20  1  0  0  0  0
 10 11  1  0  0  0  0
 10 26  1  0  0  0  0
 10 27  1  0  0  0  0
 11 12  1  0  0  0  0
 11 28  1  0  0  0  0
 11 29  1  0  0  0  0
 12 13  1  0  0  0  0
 12 19  1  0  0  0  0
 13 14  2  0  0  0  0
 13 18  1  0  0  0  0
 14 15  1  0  0  0  0
 14 30  1  0  0  0  0
 15 16  2  0  0  0  0
 15 31  1  0  0  0  0
 16 17  1  0  0  0  0
 16 32  1  0  0  0  0
 17 18  2  0  0  0  0
 17 33  1  0  0  0  0
 18 34  1  0  0  0  0
 19 20  1  0  0  0  0
 19 35  1  0  0  0  0
 19 36  1  0  0  0  0
 20 37  1  0  0  0  0
 20 38  1  0  0  0  0
M  END
$$$$
