
 OpenBabel09162610133D

 37 40  0  0  0  0  0  0  0  0999 V2000
    1.3015   -0.5239    0.8123 N   0  0  0  0  0  0  0  0  0  0  0  0
    2.4164   -0.3033    0.0434 C   0  0  0  0  0  0  0  0  0  0  0  0
    2.7125   -1.1411   -0.8073 O   0  0  0  0  0  0  0  0  0  0  0  0
    3.1583    0.9233    0.2886 C   0  0  0  0  0  0  0  0  0  0  0  0
    2.6499    2.0380    1.4797 S   0  0  0  0  0  0  0  0  0  0  0  0
    3.9220    3.1040    1.1270 C   0  0  0  0  0  0  0  0  0  0  0  0
    4.0258    4.2313    1.8487 N   0  0  0  0  0  0  0  0  0  0  0  0
    5.0394    5.0467    1.5102 C   0  0  0  0  0  0  0  0  0  0  0  0
    5.9434    4.7942    0.4723 C   0  0  0  0  0  0  0  0  0  0  0  0
    5.7800    3.6004   -0.2780 C   0  0  0  0  0  0  0  0  0  0  0  0
    6.6394    3.2809   -1.4262 C   0  0  0  0  0  0  0  0  0  0  0  0
    8.0043    3.0548   -1.4640 C   0  0  0  0  0  0  0  0  0  0  0  0
    8.4805    2.7617   -2.7755 C   0  0  0  0  0  0  0  0  0  0  0  0
    7.4627    2.7538   -3.7012 C   0  0  0  0  0  0  0  0  0  0  0  0
    5.9674    3.2099   -3.0095 S   0  0  0  0  0  0  0  0  0  0  0  0
    4.7433    2.6851    0.0877 C   0  0  0  0  0  0  0  0  0  0  0  0
    4.3118    1.3679   -0.3418 C   0  0  0  0  0  0  0  0  0  0  0  0
    4.9486    0.6095   -1.2646 N   0  0  0  0  0  0  0  0  0  0  0  0
    6.9910    5.8277    0.1143 C   0  0  0  0  0  0  0  0  0  0  0  0
    7.2778    6.8388    1.2248 C   0  0  0  0  0  0  0  0  0  0  0  0
    5.9796    7.3886    1.7895 C   0  0  0  0  0  0  0  0  0  0  0  0
    5.1698    6.2568    2.4029 C   0  0  0  0  0  0  0  0  0  0  0  0
    0.7647   -1.3608    0.6374 H   0  0  0  0  0  0  0  0  0  0  0  0
    1.0021    0.1354    1.5148 H   0  0  0  0  0  0  0  0  0  0  0  0
    8.6386    3.0973   -0.5865 H   0  0  0  0  0  0  0  0  0  0  0  0
    9.5144    2.5524   -3.0230 H   0  0  0  0  0  0  0  0  0  0  0  0
    7.5292    2.5305   -4.7575 H   0  0  0  0  0  0  0  0  0  0  0  0
    5.6711    0.9788   -1.8756 H   0  0  0  0  0  0  0  0  0  0  0  0
    4.5206   -0.2517   -1.6146 H   0  0  0  0  0  0  0  0  0  0  0  0
    6.6447    6.3635   -0.7783 H   0  0  0  0  0  0  0  0  0  0  0  0
    7.9443    5.3526   -0.1302 H   0  0  0  0  0  0  0  0  0  0  0  0
    7.8955    7.6539    0.8319 H   0  0  0  0  0  0  0  0  0  0  0  0
    7.8533    6.3575    2.0261 H   0  0  0  0  0  0  0  0  0  0  0  0
    5.4045    7.8767    0.9931 H   0  0  0  0  0  0  0  0  0  0  0  0
    6.1883    8.1480    2.5514 H   0  0  0  0  0  0  0  0  0  0  0  0
    4.1725    6.6293    2.6658 H   0  0  0  0  0  0  0  0  0  0  0  0
    5.6482    5.9292    3.3349 H   0  0  0  0  0  0  0  0  0  0  0  0
  1  2  1  0  0  0  0
  1 23  1  0  0  0  0
  1 24  1  0  0  0  0
  2  3  2  0  0  0  0
  2  4  1  0  0  0  0
  4  5  1  0  0  0  0
  4 17  2  0  0  0  0
  5  6  1  0  0  0  0
  6  7  1  0  0  0  0
  6 16  2  0  0  0  0
  7  8  2  0  0  0  0
  8  9  1  0  0  0  0
  8 22  1  0  0  0  0
  9 10  2  0  0  0  0
  9 19  1  0  0  0  0
 10 11  1  0  0  0  0
 10 16  1  0  0  0  0
 11 12  2  0  0  0  0
 11 15  1  0  0  0  0
 12 13  1  0  0  0  0
 12 25  1  0  0  0  0
 13 14  2  0  0  0  0
 13 26  1  0  0  0  0
 14 15  1  0  0  0  0
 14 27  1  0  0  0  0
 16 17  1  0  0  0  0
 17 18  1  0  0  0  0
 18 28  1  0  0  0  0
 18 29  1  0  0  0  0
 19 20  1  0  0  0  0
 19 30  1  0  0  0  0
 19 31  1  0  0  0  0
 20 21  1  0  0  0  0
 20 32  1  0  0  0  0
 20 33  1  0  0  0  0
 21 22  1  0  0  0  0
 21 34  1  0  0  0  0
 21 35  1  0  0  0  0
 22 36  1  0  0  0  0
 22 37  1  0  0  0  0
M  END
$$$$
