
 OpenBabel09162610133D

 27 30  0  0  0  0  0  0  0  0999 V2000
    2.5310   -0.2951    0.6274 C   0  0  0  0  0  0  0  0  0  0  0  0
    2.3694    0.8993   -0.0701 C   0  0  0  0  0  0  0  0  0  0  0  0
    1.1122    1.2888   -0.5395 C   0  0  0  0  0  0  0  0  0  0  0  0
    0.0202    0.4420   -0.2908 C   0  0  0  0  0  0  0  0  0  0  0  0
   -1.6238    0.6396   -0.7423 S   0  0  0  0  0  0  0  0  0  0  0  0
   -2.0152   -0.8764   -0.0246 C   0  0  0  0  0  0  0  0  0  0  0  0
   -3.3872   -1.4103   -0.0731 C   0  0  0  0  0  0  0  0  0  0  0  0
   -4.2686   -1.1207   -1.1452 C   0  0  0  0  0  0  0  0  0  0  0  0
   -5.5593   -1.6575   -1.1936 C   0  0  0  0  0  0  0  0  0  0  0  0
   -5.9491   -2.4759   -0.1594 C   0  0  0  0  0  0  0  0  0  0  0  0
   -5.1085   -2.7692    0.8872 C   0  0  0  0  0  0  0  0  0  0  0  0
   -3.8273   -2.2620    0.9557 C   0  0  0  0  0  0  0  0  0  0  0  0
   -5.6898   -3.5935    1.8004 O   0  0  0  0  0  0  0  0  0  0  0  0
   -7.0056   -3.7471    1.2286 C   0  0  0  0  0  0  0  0  0  0  0  0
   -7.1612   -3.0807   -0.0407 O   0  0  0  0  0  0  0  0  0  0  0  0
   -1.0091   -1.4834    0.5729 N   0  0  0  0  0  0  0  0  0  0  0  0
    0.1573   -0.7565    0.4078 C   0  0  0  0  0  0  0  0  0  0  0  0
    1.4340   -1.1269    0.8736 C   0  0  0  0  0  0  0  0  0  0  0  0
    3.5164   -0.5861    0.9834 H   0  0  0  0  0  0  0  0  0  0  0  0
    3.2309    1.5368   -0.2540 H   0  0  0  0  0  0  0  0  0  0  0  0
    0.9856    2.2186   -1.0860 H   0  0  0  0  0  0  0  0  0  0  0  0
   -3.9511   -0.4850   -1.9687 H   0  0  0  0  0  0  0  0  0  0  0  0
   -6.2276   -1.4402   -2.0195 H   0  0  0  0  0  0  0  0  0  0  0  0
   -3.1795   -2.5189    1.7897 H   0  0  0  0  0  0  0  0  0  0  0  0
   -7.7414   -3.3342    1.9290 H   0  0  0  0  0  0  0  0  0  0  0  0
   -7.2090   -4.8152    1.0932 H   0  0  0  0  0  0  0  0  0  0  0  0
    1.5557   -2.0597    1.4150 H   0  0  0  0  0  0  0  0  0  0  0  0
  1  2  2  0  0  0  0
  1 18  1  0  0  0  0
  1 19  1  0  0  0  0
  2  3  1  0  0  0  0
  2 20  1  0  0  0  0
  3  4  2  0  0  0  0
  3 21  1  0  0  0  0
  4  5  1  0  0  0  0
  4 17  1  0  0  0  0
  5  6  1  0  0  0  0
  6  7  1  0  0  0  0
  6 16  2  0  0  0  0
  7  8  2  0  0  0  0
  7 12  1  0  0  0  0
  8  9  1  0  0  0  0
  8 22  1  0  0  0  0
  9 10  2  0  0  0  0
  9 23  1  0  0  0  0
 10 11  1  0  0  0  0
 10 15  1  0  0  0  0
 11 12  2  0  0  0  0
 11 13  1  0  0  0  0
 12 24  1  0  0  0  0
 13 14  1  0  0  0  0
 14 15  1  0  0  0  0
 14 25  1  0  0  0  0
 14 26  1  0  0  0  0
 16 17  1  0  0  0  0
 17 18  2  0  0  0  0
 18 27  1  0  0  0  0
M  END
$$$$
