
 OpenBabel09162610133D

 36 39  0  0  0  0  0  0  0  0999 V2000
    0.8109    1.4580    5.5096 C   0  0  0  0  0  0  0  0  0  0  0  0
    2.2041    1.7181    5.4047 O   0  0  0  0  0  0  0  0  0  0  0  0
    2.7616    1.4941    4.1761 C   0  0  0  0  0  0  0  0  0  0  0  0
    2.0826    1.5634    2.9631 C   0  0  0  0  0  0  0  0  0  0  0  0
    2.7805    1.3347    1.7681 C   0  0  0  0  0  0  0  0  0  0  0  0
    4.1433    1.0113    1.8085 C   0  0  0  0  0  0  0  0  0  0  0  0
    4.8217    0.8985    3.0287 C   0  0  0  0  0  0  0  0  0  0  0  0
    6.1731    0.4779    3.0907 N   0  0  0  0  0  0  0  0  0  0  0  0
    7.3037    1.2174    3.2383 C   0  0  0  0  0  0  0  0  0  0  0  0
    8.4370    0.7920    2.6441 N   0  0  0  0  0  0  0  0  0  0  0  0
    9.0346    1.9346    2.2670 N   0  0  0  0  0  0  0  0  0  0  0  0
    8.3228    3.0254    2.6485 C   0  0  0  0  0  0  0  0  0  0  0  0
    7.4397    2.5802    3.6283 C   0  0  0  0  0  0  0  0  0  0  0  0
    6.4869    3.6683    4.0324 C   0  0  0  0  0  0  0  0  0  0  0  0
    6.4211    4.3074    2.6486 C   0  0  0  0  0  0  0  0  0  0  0  0
    5.2768    4.8428    2.0898 C   0  0  0  0  0  0  0  0  0  0  0  0
    5.2264    4.9448    0.6989 C   0  0  0  0  0  0  0  0  0  0  0  0
    6.3202    4.5492   -0.0955 C   0  0  0  0  0  0  0  0  0  0  0  0
    7.5089    4.0795    0.4745 C   0  0  0  0  0  0  0  0  0  0  0  0
    7.5575    3.9720    1.8535 C   0  0  0  0  0  0  0  0  0  0  0  0
    4.1261    1.1877    4.1989 C   0  0  0  0  0  0  0  0  0  0  0  0
    0.5550    1.4451    6.5728 H   0  0  0  0  0  0  0  0  0  0  0  0
    0.5470    0.4811    5.0896 H   0  0  0  0  0  0  0  0  0  0  0  0
    0.2327    2.2587    5.0356 H   0  0  0  0  0  0  0  0  0  0  0  0
    1.0293    1.7983    2.9065 H   0  0  0  0  0  0  0  0  0  0  0  0
    2.2579    1.3986    0.8176 H   0  0  0  0  0  0  0  0  0  0  0  0
    4.6638    0.8436    0.8673 H   0  0  0  0  0  0  0  0  0  0  0  0
    6.3366   -0.2115    2.3615 H   0  0  0  0  0  0  0  0  0  0  0  0
    9.8386    1.8852    1.6473 H   0  0  0  0  0  0  0  0  0  0  0  0
    6.9556    4.3575    4.7495 H   0  0  0  0  0  0  0  0  0  0  0  0
    5.5290    3.3321    4.4048 H   0  0  0  0  0  0  0  0  0  0  0  0
    4.3965    5.0356    2.6937 H   0  0  0  0  0  0  0  0  0  0  0  0
    4.2942    5.2417    0.2234 H   0  0  0  0  0  0  0  0  0  0  0  0
    6.2063    4.5360   -1.1787 H   0  0  0  0  0  0  0  0  0  0  0  0
    8.2870    3.6628   -0.1530 H   0  0  0  0  0  0  0  0  0  0  0  0
    4.6446    1.1339    5.1535 H   0  0  0  0  0  0  0  0  0  0  0  0
  1  2  1  0  0  0  0
  1 22  1  0  0  0  0
  1 23  1  0  0  0  0
  1 24  1  0  0  0  0
  2  3  1  0  0  0  0
  3  4  2  0  0  0  0
  3 21  1  0  0  0  0
  4  5  1  0  0  0  0
  4 25  1  0  0  0  0
  5  6  2  0  0  0  0
  5 26  1  0  0  0  0
  6  7  1  0  0  0  0
  6 27  1  0  0  0  0
  7  8  1  0  0  0  0
  7 21  2  0  0  0  0
  8  9  1  0  0  0  0
  8 28  1  0  0  0  0
  9 10  2  0  0  0  0
  9 13  1  0  0  0  0
 10 11  1  0  0  0  0
 11 12  1  0  0  0  0
 11 29  1  0  0  0  0
 12 13  2  0  0  0  0
 12 20  1  0  0  0  0
 13 14  1  0  0  0  0
 14 15  1  0  0  0  0
 14 30  1  0  0  0  0
 14 31  1  0  0  0  0
 15 16  1  0  0  0  0
 15 20  2  0  0  0  0
 16 17  2  0  0  0  0
 16 32  1  0  0  0  0
 17 18  1  0  0  0  0
 17 33  1  0  0  0  0
 18 19  2  0  0  0  0
 18 34  1  0  0  0  0
 19 20  1  0  0  0  0
 19 35  1  0  0  0  0
 21 36  1  0  0  0  0
M  END
$$$$
