
 OpenBabel09162610133D

 32 36  0  0  0  0  0  0  0  0999 V2000
    0.9191   -0.0239   -0.0239 O   0  0  0  0  0  0  0  0  0  0  0  0
    2.1445   -0.0358   -0.0191 C   0  0  0  0  0  0  0  0  0  0  0  0
    2.8715   -1.3204   -0.0158 C   0  0  0  0  0  0  0  0  0  0  0  0
    2.1660   -2.5299   -0.0172 C   0  0  0  0  0  0  0  0  0  0  0  0
    2.8566   -3.7451   -0.0136 C   0  0  0  0  0  0  0  0  0  0  0  0
    4.2503   -3.7584   -0.0083 C   0  0  0  0  0  0  0  0  0  0  0  0
    4.9538   -2.5567   -0.0065 C   0  0  0  0  0  0  0  0  0  0  0  0
    4.2611   -1.3376   -0.0104 C   0  0  0  0  0  0  0  0  0  0  0  0
    5.0245   -0.0818   -0.0067 C   0  0  0  0  0  0  0  0  0  0  0  0
    6.2467   -0.1465    0.0011 O   0  0  0  0  0  0  0  0  0  0  0  0
    4.3151    1.2113   -0.0111 C   0  0  0  0  0  0  0  0  0  0  0  0
    2.9093    1.2335   -0.0176 C   0  0  0  0  0  0  0  0  0  0  0  0
    2.2017    2.4427   -0.0186 C   0  0  0  0  0  0  0  0  0  0  0  0
    2.8769    3.6666   -0.0149 C   0  0  0  0  0  0  0  0  0  0  0  0
    4.2804    3.6739   -0.0097 C   0  0  0  0  0  0  0  0  0  0  0  0
    5.1275    4.7614   -0.0045 N   0  0  0  0  0  0  0  0  0  0  0  0
    6.3127    4.2254    0.0007 C   0  0  0  0  0  0  0  0  0  0  0  0
    6.2854    2.8702   -0.0041 N   0  0  0  0  0  0  0  0  0  0  0  0
    4.9832    2.4544   -0.0084 C   0  0  0  0  0  0  0  0  0  0  0  0
    7.5594    2.1907    0.0020 C   0  0  0  0  0  0  0  0  0  0  0  0
    8.6755    3.2371   -0.0056 C   0  0  0  0  0  0  0  0  0  0  0  0
    7.8924    4.8910    0.0138 S   0  0  0  0  0  0  0  0  0  0  0  0
    1.0775   -2.5314   -0.0209 H   0  0  0  0  0  0  0  0  0  0  0  0
    2.3068   -4.6831   -0.0147 H   0  0  0  0  0  0  0  0  0  0  0  0
    4.7912   -4.7022   -0.0055 H   0  0  0  0  0  0  0  0  0  0  0  0
    6.0425   -2.5731   -0.0020 H   0  0  0  0  0  0  0  0  0  0  0  0
    1.1120    2.4433   -0.0223 H   0  0  0  0  0  0  0  0  0  0  0  0
    2.3323    4.6076   -0.0155 H   0  0  0  0  0  0  0  0  0  0  0  0
    7.6207    1.5683   -0.8956 H   0  0  0  0  0  0  0  0  0  0  0  0
    7.6176    1.5819    0.9093 H   0  0  0  0  0  0  0  0  0  0  0  0
    9.2959    3.1311   -0.9012 H   0  0  0  0  0  0  0  0  0  0  0  0
    9.3220    3.1185    0.8695 H   0  0  0  0  0  0  0  0  0  0  0  0
  1  2  2  0  0  0  0
  2  3  1  0  0  0  0
  2 12  1  0  0  0  0
  3  4  1  0  0  0  0
  3  8  2  0  0  0  0
  4  5  2  0  0  0  0
  4 23  1  0  0  0  0
  5  6  1  0  0  0  0
  5 24  1  0  0  0  0
  6  7  2  0  0  0  0
  6 25  1  0  0  0  0
  7  8  1  0  0  0  0
  7 26  1  0  0  0  0
  8  9  1  0  0  0  0
  9 10  2  0  0  0  0
  9 11  1  0  0  0  0
 11 12  2  0  0  0  0
 11 19  1  0  0  0  0
 12 13  1  0  0  0  0
 13 14  2  0  0  0  0
 13 27  1  0  0  0  0
 14 15  1  0  0  0  0
 14 28  1  0  0  0  0
 15 16  1  0  0  0  0
 15 19  2  0  0  0  0
 16 17  2  0  0  0  0
 17 18  1  0  0  0  0
 17 22  1  0  0  0  0
 18 19  1  0  0  0  0
 18 20  1  0  0  0  0
 20 21  1  0  0  0  0
 20 29  1  0  0  0  0
 20 30  1  0  0  0  0
 21 22  1  0  0  0  0
 21 31  1  0  0  0  0
 21 32  1  0  0  0  0
M  END
$$$$
