
 OpenBabel09162610133D

 36 39  0  0  0  0  0  0  0  0999 V2000
    1.0733    0.3301    0.1311 C   0  0  0  0  0  0  0  0  0  0  0  0
    2.5841    0.0695   -0.0170 C   0  0  0  0  0  0  0  0  0  0  0  0
    2.9860    0.3577   -1.4760 C   0  0  0  0  0  0  0  0  0  0  0  0
    3.1971    1.0734    0.8326 O   0  0  0  0  0  0  0  0  0  0  0  0
    4.5243    0.8794    1.1138 C   0  0  0  0  0  0  0  0  0  0  0  0
    5.2781    2.0276    1.3537 C   0  0  0  0  0  0  0  0  0  0  0  0
    6.6407    1.8974    1.5977 C   0  0  0  0  0  0  0  0  0  0  0  0
    7.3772    3.0814    1.7929 O   0  0  0  0  0  0  0  0  0  0  0  0
    8.7480    3.0481    1.9960 C   0  0  0  0  0  0  0  0  0  0  0  0
    9.4151    4.0653    2.1464 O   0  0  0  0  0  0  0  0  0  0  0  0
    9.3949    1.7265    2.0281 C   0  0  0  0  0  0  0  0  0  0  0  0
    8.7019    0.5981    1.8595 C   0  0  0  0  0  0  0  0  0  0  0  0
    9.2768   -0.6533    1.8831 O   0  0  0  0  0  0  0  0  0  0  0  0
    7.2621    0.6522    1.6265 C   0  0  0  0  0  0  0  0  0  0  0  0
    6.4787   -0.4911    1.4192 C   0  0  0  0  0  0  0  0  0  0  0  0
    5.0957   -0.4012    1.1732 C   0  0  0  0  0  0  0  0  0  0  0  0
    4.2320   -1.5711    0.9577 C   0  0  0  0  0  0  0  0  0  0  0  0
    4.5980   -2.8797    1.3204 C   0  0  0  0  0  0  0  0  0  0  0  0
    3.7536   -3.9621    1.0721 C   0  0  0  0  0  0  0  0  0  0  0  0
    2.5265   -3.7550    0.4566 C   0  0  0  0  0  0  0  0  0  0  0  0
    2.1355   -2.4640    0.1038 C   0  0  0  0  0  0  0  0  0  0  0  0
    2.9686   -1.3606    0.3665 C   0  0  0  0  0  0  0  0  0  0  0  0
    0.8450    1.3918   -0.0233 H   0  0  0  0  0  0  0  0  0  0  0  0
    0.7301    0.0833    1.1428 H   0  0  0  0  0  0  0  0  0  0  0  0
    0.4747   -0.2425   -0.5849 H   0  0  0  0  0  0  0  0  0  0  0  0
    2.7258    1.3861   -1.7537 H   0  0  0  0  0  0  0  0  0  0  0  0
    2.4947   -0.3265   -2.1756 H   0  0  0  0  0  0  0  0  0  0  0  0
    4.0680    0.2641   -1.6241 H   0  0  0  0  0  0  0  0  0  0  0  0
    4.8117    3.0071    1.3240 H   0  0  0  0  0  0  0  0  0  0  0  0
   10.4633    1.7396    2.1961 H   0  0  0  0  0  0  0  0  0  0  0  0
   10.2327   -0.5646    2.0384 H   0  0  0  0  0  0  0  0  0  0  0  0
    6.9690   -1.4610    1.4301 H   0  0  0  0  0  0  0  0  0  0  0  0
    5.5449   -3.0801    1.8147 H   0  0  0  0  0  0  0  0  0  0  0  0
    4.0586   -4.9648    1.3592 H   0  0  0  0  0  0  0  0  0  0  0  0
    1.8709   -4.5979    0.2534 H   0  0  0  0  0  0  0  0  0  0  0  0
    1.1720   -2.3373   -0.3825 H   0  0  0  0  0  0  0  0  0  0  0  0
  1  2  1  0  0  0  0
  1 23  1  0  0  0  0
  1 24  1  0  0  0  0
  1 25  1  0  0  0  0
  2  3  1  0  0  0  0
  2  4  1  0  0  0  0
  2 22  1  0  0  0  0
  3 26  1  0  0  0  0
  3 27  1  0  0  0  0
  3 28  1  0  0  0  0
  4  5  1  0  0  0  0
  5  6  1  0  0  0  0
  5 16  2  0  0  0  0
  6  7  2  0  0  0  0
  6 29  1  0  0  0  0
  7  8  1  0  0  0  0
  7 14  1  0  0  0  0
  8  9  1  0  0  0  0
  9 10  2  0  0  0  0
  9 11  1  0  0  0  0
 11 12  2  0  0  0  0
 11 30  1  0  0  0  0
 12 13  1  0  0  0  0
 12 14  1  0  0  0  0
 13 31  1  0  0  0  0
 14 15  2  0  0  0  0
 15 16  1  0  0  0  0
 15 32  1  0  0  0  0
 16 17  1  0  0  0  0
 17 18  1  0  0  0  0
 17 22  2  0  0  0  0
 18 19  2  0  0  0  0
 18 33  1  0  0  0  0
 19 20  1  0  0  0  0
 19 34  1  0  0  0  0
 20 21  2  0  0  0  0
 20 35  1  0  0  0  0
 21 22  1  0  0  0  0
 21 36  1  0  0  0  0
M  END
$$$$
