
 OpenBabel09162610133D

 35 38  0  0  0  0  0  0  0  0999 V2000
    1.3993   -1.9667   -1.4907 O   0  0  0  0  0  0  0  0  0  0  0  0
    2.3385   -1.3327   -1.0316 C   0  0  0  0  0  0  0  0  0  0  0  0
    3.4667   -2.0069   -0.3637 C   0  0  0  0  0  0  0  0  0  0  0  0
    3.4803   -3.3991   -0.2436 C   0  0  0  0  0  0  0  0  0  0  0  0
    4.5833   -4.0228    0.3300 C   0  0  0  0  0  0  0  0  0  0  0  0
    5.6627   -3.2537    0.7705 C   0  0  0  0  0  0  0  0  0  0  0  0
    5.6225   -1.8567    0.6730 C   0  0  0  0  0  0  0  0  0  0  0  0
    4.5146   -1.2116    0.1223 C   0  0  0  0  0  0  0  0  0  0  0  0
    4.4633    0.1996    0.1318 N   0  0  0  0  0  0  0  0  0  0  0  0
    3.4369    0.7404   -0.4293 C   0  0  0  0  0  0  0  0  0  0  0  0
    2.4416    0.0357   -1.0692 N   0  0  0  0  0  0  0  0  0  0  0  0
    1.4417    0.8673   -1.6839 C   0  0  0  0  0  0  0  0  0  0  0  0
    1.7583    2.2853   -1.2615 C   0  0  0  0  0  0  0  0  0  0  0  0
    3.0127    2.1639   -0.4408 C   0  0  0  0  0  0  0  0  0  0  0  0
    3.5045    3.0343    0.4579 C   0  0  0  0  0  0  0  0  0  0  0  0
    2.6612    4.1593    0.8808 C   0  0  0  0  0  0  0  0  0  0  0  0
    2.1003    4.0777    2.1640 C   0  0  0  0  0  0  0  0  0  0  0  0
    1.0523    4.9207    2.5293 C   0  0  0  0  0  0  0  0  0  0  0  0
    0.5687    5.8591    1.6213 C   0  0  0  0  0  0  0  0  0  0  0  0
    1.1665    5.9910    0.3667 C   0  0  0  0  0  0  0  0  0  0  0  0
    2.2246    5.1554    0.0011 C   0  0  0  0  0  0  0  0  0  0  0  0
    2.6360   -3.9892   -0.5952 H   0  0  0  0  0  0  0  0  0  0  0  0
    4.6050   -5.1054    0.4264 H   0  0  0  0  0  0  0  0  0  0  0  0
    6.5325   -3.7415    1.2007 H   0  0  0  0  0  0  0  0  0  0  0  0
    6.4583   -1.2660    1.0387 H   0  0  0  0  0  0  0  0  0  0  0  0
    0.4390    0.5542   -1.3741 H   0  0  0  0  0  0  0  0  0  0  0  0
    1.5139    0.7474   -2.7710 H   0  0  0  0  0  0  0  0  0  0  0  0
    0.9217    2.6923   -0.6851 H   0  0  0  0  0  0  0  0  0  0  0  0
    1.9226    2.9213   -2.1376 H   0  0  0  0  0  0  0  0  0  0  0  0
    4.3535    2.7822    1.0892 H   0  0  0  0  0  0  0  0  0  0  0  0
    2.4288    3.3078    2.8580 H   0  0  0  0  0  0  0  0  0  0  0  0
    0.5891    4.8126    3.5065 H   0  0  0  0  0  0  0  0  0  0  0  0
   -0.2834    6.4791    1.8873 H   0  0  0  0  0  0  0  0  0  0  0  0
    0.7795    6.7187   -0.3418 H   0  0  0  0  0  0  0  0  0  0  0  0
    2.6466    5.2346   -0.9976 H   0  0  0  0  0  0  0  0  0  0  0  0
  1  2  2  0  0  0  0
  2  3  1  0  0  0  0
  2 11  1  0  0  0  0
  3  4  2  0  0  0  0
  3  8  1  0  0  0  0
  4  5  1  0  0  0  0
  4 22  1  0  0  0  0
  5  6  2  0  0  0  0
  5 23  1  0  0  0  0
  6  7  1  0  0  0  0
  6 24  1  0  0  0  0
  7  8  2  0  0  0  0
  7 25  1  0  0  0  0
  8  9  1  0  0  0  0
  9 10  2  0  0  0  0
 10 11  1  0  0  0  0
 10 14  1  0  0  0  0
 11 12  1  0  0  0  0
 12 13  1  0  0  0  0
 12 26  1  0  0  0  0
 12 27  1  0  0  0  0
 13 14  1  0  0  0  0
 13 28  1  0  0  0  0
 13 29  1  0  0  0  0
 14 15  2  0  0  0  0
 15 16  1  0  0  0  0
 15 30  1  0  0  0  0
 16 17  2  0  0  0  0
 16 21  1  0  0  0  0
 17 18  1  0  0  0  0
 17 31  1  0  0  0  0
 18 19  2  0  0  0  0
 18 32  1  0  0  0  0
 19 20  1  0  0  0  0
 19 33  1  0  0  0  0
 20 21  2  0  0  0  0
 20 34  1  0  0  0  0
 21 35  1  0  0  0  0
M  END
$$$$
