
 OpenBabel09162610133D

 36 38  0  0  0  0  0  0  0  0999 V2000
    1.3519    0.1450   -0.1050 C   0  0  0  0  0  0  0  0  0  0  0  0
    2.8257   -0.0081   -0.1612 C   0  0  0  0  0  0  0  0  0  0  0  0
    3.4843   -1.0922    0.0864 N   0  0  0  0  0  0  0  0  0  0  0  0
    4.7898   -0.6922   -0.0552 C   0  0  0  0  0  0  0  0  0  0  0  0
    5.8335   -1.4923    0.2001 C   0  0  0  0  0  0  0  0  0  0  0  0
    7.2388   -1.0869    0.1960 C   0  0  0  0  0  0  0  0  0  0  0  0
    7.8232   -0.6558    1.3931 C   0  0  0  0  0  0  0  0  0  0  0  0
    9.1614   -0.2587    1.4211 C   0  0  0  0  0  0  0  0  0  0  0  0
    9.9200   -0.2937    0.2527 C   0  0  0  0  0  0  0  0  0  0  0  0
    9.3430   -0.7234   -0.9428 C   0  0  0  0  0  0  0  0  0  0  0  0
    8.0036   -1.1205   -0.9722 C   0  0  0  0  0  0  0  0  0  0  0  0
    4.8397    0.7366   -0.4720 C   0  0  0  0  0  0  0  0  0  0  0  0
    5.8190    1.4930   -0.8227 N   0  0  0  0  0  0  0  0  0  0  0  0
    5.4779    2.7538   -1.2149 N   0  0  0  0  0  0  0  0  0  0  0  0
    6.3833    3.4313   -2.0645 C   0  0  0  0  0  0  0  0  0  0  0  0
    7.3730    2.7497   -2.7877 C   0  0  0  0  0  0  0  0  0  0  0  0
    8.1805    3.4152   -3.7122 C   0  0  0  0  0  0  0  0  0  0  0  0
    7.9959    4.7752   -3.9435 C   0  0  0  0  0  0  0  0  0  0  0  0
    7.0028    5.4658   -3.2523 C   0  0  0  0  0  0  0  0  0  0  0  0
    6.1958    4.7953   -2.3270 C   0  0  0  0  0  0  0  0  0  0  0  0
    3.5233    1.1051   -0.4665 O   0  0  0  0  0  0  0  0  0  0  0  0
    0.8711   -0.8356   -0.1507 H   0  0  0  0  0  0  0  0  0  0  0  0
    1.0061    0.7470   -0.9493 H   0  0  0  0  0  0  0  0  0  0  0  0
    1.0753    0.6368    0.8312 H   0  0  0  0  0  0  0  0  0  0  0  0
    5.6520   -2.5205    0.5007 H   0  0  0  0  0  0  0  0  0  0  0  0
    7.2398   -0.6195    2.3096 H   0  0  0  0  0  0  0  0  0  0  0  0
    9.6074    0.0808    2.3515 H   0  0  0  0  0  0  0  0  0  0  0  0
   10.9602    0.0207    0.2723 H   0  0  0  0  0  0  0  0  0  0  0  0
    9.9349   -0.7416   -1.8541 H   0  0  0  0  0  0  0  0  0  0  0  0
    7.5635   -1.4430   -1.9127 H   0  0  0  0  0  0  0  0  0  0  0  0
    5.0773    3.3612   -0.5009 H   0  0  0  0  0  0  0  0  0  0  0  0
    7.5171    1.6833   -2.6330 H   0  0  0  0  0  0  0  0  0  0  0  0
    8.9428    2.8645   -4.2561 H   0  0  0  0  0  0  0  0  0  0  0  0
    8.6167    5.2919   -4.6701 H   0  0  0  0  0  0  0  0  0  0  0  0
    6.8459    6.5241   -3.4427 H   0  0  0  0  0  0  0  0  0  0  0  0
    5.4095    5.3473   -1.8200 H   0  0  0  0  0  0  0  0  0  0  0  0
  1  2  1  0  0  0  0
  1 22  1  0  0  0  0
  1 23  1  0  0  0  0
  1 24  1  0  0  0  0
  2  3  2  0  0  0  0
  2 21  1  0  0  0  0
  3  4  1  0  0  0  0
  4  5  2  0  0  0  0
  4 12  1  0  0  0  0
  5  6  1  0  0  0  0
  5 25  1  0  0  0  0
  6  7  2  0  0  0  0
  6 11  1  0  0  0  0
  7  8  1  0  0  0  0
  7 26  1  0  0  0  0
  8  9  2  0  0  0  0
  8 27  1  0  0  0  0
  9 10  1  0  0  0  0
  9 28  1  0  0  0  0
 10 11  2  0  0  0  0
 10 29  1  0  0  0  0
 11 30  1  0  0  0  0
 12 13  2  0  0  0  0
 12 21  1  0  0  0  0
 13 14  1  0  0  0  0
 14 15  1  0  0  0  0
 14 31  1  0  0  0  0
 15 16  2  0  0  0  0
 15 20  1  0  0  0  0
 16 17  1  0  0  0  0
 16 32  1  0  0  0  0
 17 18  2  0  0  0  0
 17 33  1  0  0  0  0
 18 19  1  0  0  0  0
 18 34  1  0  0  0  0
 19 20  2  0  0  0  0
 19 35  1  0  0  0  0
 20 36  1  0  0  0  0
M  END
$$$$
