
 OpenBabel09162610133D

 34 37  0  0  0  0  0  0  0  0999 V2000
   -2.3787    1.2570    1.1266 C   0  0  0  0  0  0  0  0  0  0  0  0
   -1.5368    0.2521    0.5212 N   0  0  0  0  0  0  0  0  0  0  0  0
   -1.9131   -0.9631   -0.0172 C   0  0  0  0  0  0  0  0  0  0  0  0
   -3.2646   -1.3718   -0.0255 C   0  0  0  0  0  0  0  0  0  0  0  0
   -4.1093   -1.0725   -1.0218 C   0  0  0  0  0  0  0  0  0  0  0  0
   -5.5475   -1.5052   -0.9319 C   0  0  0  0  0  0  0  0  0  0  0  0
   -6.0693   -2.1649   -0.0542 O   0  0  0  0  0  0  0  0  0  0  0  0
   -6.1573   -0.9547   -2.0466 N   0  0  0  0  0  0  0  0  0  0  0  0
   -5.2448   -0.2467   -2.8251 C   0  0  0  0  0  0  0  0  0  0  0  0
   -5.5147    0.4303   -3.9974 C   0  0  0  0  0  0  0  0  0  0  0  0
   -4.4446    1.0638   -4.6318 C   0  0  0  0  0  0  0  0  0  0  0  0
   -3.1464    0.9903   -4.0952 C   0  0  0  0  0  0  0  0  0  0  0  0
   -2.8970    0.2982   -2.9039 C   0  0  0  0  0  0  0  0  0  0  0  0
   -3.9639   -0.3035   -2.2616 C   0  0  0  0  0  0  0  0  0  0  0  0
   -0.8616   -1.6176   -0.4664 N   0  0  0  0  0  0  0  0  0  0  0  0
    0.2180   -0.8075   -0.2372 C   0  0  0  0  0  0  0  0  0  0  0  0
    1.5712   -1.0221   -0.5322 C   0  0  0  0  0  0  0  0  0  0  0  0
    2.4974   -0.0221   -0.2142 C   0  0  0  0  0  0  0  0  0  0  0  0
    2.0835    1.1674    0.3880 C   0  0  0  0  0  0  0  0  0  0  0  0
    0.7370    1.3956    0.6969 C   0  0  0  0  0  0  0  0  0  0  0  0
   -0.1719    0.3814    0.3697 C   0  0  0  0  0  0  0  0  0  0  0  0
   -3.4112    0.9128    1.2022 H   0  0  0  0  0  0  0  0  0  0  0  0
   -2.3358    2.1573    0.5075 H   0  0  0  0  0  0  0  0  0  0  0  0
   -1.9970    1.4672    2.1296 H   0  0  0  0  0  0  0  0  0  0  0  0
   -3.6026   -1.9742    0.8136 H   0  0  0  0  0  0  0  0  0  0  0  0
   -7.1371   -1.0774   -2.2501 H   0  0  0  0  0  0  0  0  0  0  0  0
   -6.5138    0.4740   -4.4150 H   0  0  0  0  0  0  0  0  0  0  0  0
   -4.6115    1.6122   -5.5564 H   0  0  0  0  0  0  0  0  0  0  0  0
   -2.3218    1.4732   -4.6162 H   0  0  0  0  0  0  0  0  0  0  0  0
   -1.8851    0.2336   -2.5182 H   0  0  0  0  0  0  0  0  0  0  0  0
    1.8830   -1.9491   -1.0009 H   0  0  0  0  0  0  0  0  0  0  0  0
    3.5496   -0.1765   -0.4411 H   0  0  0  0  0  0  0  0  0  0  0  0
    2.8219    1.9312    0.6232 H   0  0  0  0  0  0  0  0  0  0  0  0
    0.4225    2.3211    1.1673 H   0  0  0  0  0  0  0  0  0  0  0  0
  1  2  1  0  0  0  0
  1 22  1  0  0  0  0
  1 23  1  0  0  0  0
  1 24  1  0  0  0  0
  2  3  1  0  0  0  0
  2 21  1  0  0  0  0
  3  4  1  0  0  0  0
  3 15  2  0  0  0  0
  4  5  2  0  0  0  0
  4 25  1  0  0  0  0
  5  6  1  0  0  0  0
  5 14  1  0  0  0  0
  6  7  2  0  0  0  0
  6  8  1  0  0  0  0
  8  9  1  0  0  0  0
  8 26  1  0  0  0  0
  9 10  1  0  0  0  0
  9 14  2  0  0  0  0
 10 11  2  0  0  0  0
 10 27  1  0  0  0  0
 11 12  1  0  0  0  0
 11 28  1  0  0  0  0
 12 13  2  0  0  0  0
 12 29  1  0  0  0  0
 13 14  1  0  0  0  0
 13 30  1  0  0  0  0
 15 16  1  0  0  0  0
 16 17  1  0  0  0  0
 16 21  2  0  0  0  0
 17 18  2  0  0  0  0
 17 31  1  0  0  0  0
 18 19  1  0  0  0  0
 18 32  1  0  0  0  0
 19 20  2  0  0  0  0
 19 33  1  0  0  0  0
 20 21  1  0  0  0  0
 20 34  1  0  0  0  0
M  END
$$$$
