
 OpenBabel09162610133D

 28 31  0  0  0  0  0  0  0  0999 V2000
    0.9954   -0.0804   -0.0794 O   0  0  0  0  0  0  0  0  0  0  0  0
    2.2201   -0.0555   -0.0792 C   0  0  0  0  0  0  0  0  0  0  0  0
    2.9795   -1.2182   -0.0786 O   0  0  0  0  0  0  0  0  0  0  0  0
    4.3903   -1.2060   -0.0781 C   0  0  0  0  0  0  0  0  0  0  0  0
    5.0278   -2.4463   -0.0784 C   0  0  0  0  0  0  0  0  0  0  0  0
    6.4189   -2.4928   -0.0781 C   0  0  0  0  0  0  0  0  0  0  0  0
    7.1524   -1.3064   -0.0773 C   0  0  0  0  0  0  0  0  0  0  0  0
    6.4950   -0.0705   -0.0770 C   0  0  0  0  0  0  0  0  0  0  0  0
    5.0941   -0.0016   -0.0775 C   0  0  0  0  0  0  0  0  0  0  0  0
    4.3402    1.2453   -0.0780 C   0  0  0  0  0  0  0  0  0  0  0  0
    5.0497    2.4079   -0.0775 N   0  0  0  0  0  0  0  0  0  0  0  0
    4.3861    3.5767   -0.0787 C   0  0  0  0  0  0  0  0  0  0  0  0
    5.1010    4.7651   -0.0780 C   0  0  0  0  0  0  0  0  0  0  0  0
    4.4449    5.9922   -0.0794 C   0  0  0  0  0  0  0  0  0  0  0  0
    5.1653    7.1220   -0.0784 F   0  0  0  0  0  0  0  0  0  0  0  0
    3.0597    6.0500   -0.0817 C   0  0  0  0  0  0  0  0  0  0  0  0
    2.4299    7.2320   -0.0831 F   0  0  0  0  0  0  0  0  0  0  0  0
    2.3142    4.8793   -0.0824 C   0  0  0  0  0  0  0  0  0  0  0  0
    2.9730    3.6387   -0.0807 C   0  0  0  0  0  0  0  0  0  0  0  0
    2.2623    2.4341   -0.0809 C   0  0  0  0  0  0  0  0  0  0  0  0
    2.9561    1.2225   -0.0794 C   0  0  0  0  0  0  0  0  0  0  0  0
    4.4465   -3.3639   -0.0789 H   0  0  0  0  0  0  0  0  0  0  0  0
    6.9323   -3.4512   -0.0785 H   0  0  0  0  0  0  0  0  0  0  0  0
    8.2396   -1.3402   -0.0771 H   0  0  0  0  0  0  0  0  0  0  0  0
    7.0881    0.8426   -0.0764 H   0  0  0  0  0  0  0  0  0  0  0  0
    6.1866    4.7440   -0.0764 H   0  0  0  0  0  0  0  0  0  0  0  0
    1.2298    4.9462   -0.0842 H   0  0  0  0  0  0  0  0  0  0  0  0
    1.1732    2.4321   -0.0823 H   0  0  0  0  0  0  0  0  0  0  0  0
  1  2  2  0  0  0  0
  2  3  1  0  0  0  0
  2 21  1  0  0  0  0
  3  4  1  0  0  0  0
  4  5  2  0  0  0  0
  4  9  1  0  0  0  0
  5  6  1  0  0  0  0
  5 22  1  0  0  0  0
  6  7  2  0  0  0  0
  6 23  1  0  0  0  0
  7  8  1  0  0  0  0
  7 24  1  0  0  0  0
  8  9  2  0  0  0  0
  8 25  1  0  0  0  0
  9 10  1  0  0  0  0
 10 11  1  0  0  0  0
 10 21  2  0  0  0  0
 11 12  2  0  0  0  0
 12 13  1  0  0  0  0
 12 19  1  0  0  0  0
 13 14  2  0  0  0  0
 13 26  1  0  0  0  0
 14 15  1  0  0  0  0
 14 16  1  0  0  0  0
 16 17  1  0  0  0  0
 16 18  2  0  0  0  0
 18 19  1  0  0  0  0
 18 27  1  0  0  0  0
 19 20  2  0  0  0  0
 20 21  1  0  0  0  0
 20 28  1  0  0  0  0
M  END
$$$$
