
 OpenBabel09162610133D

 40 41  0  0  0  0  0  0  0  0999 V2000
    2.4951    0.1866    0.1881 C   0  0  0  0  0  0  0  0  0  0  0  0
    0.9943    0.0995    0.1232 C   0  0  0  0  0  0  0  0  0  0  0  0
    0.2515    1.2932    0.1611 C   0  0  0  0  0  0  0  0  0  0  0  0
   -1.1376    1.2829    0.0256 C   0  0  0  0  0  0  0  0  0  0  0  0
   -1.8093    0.0794   -0.1514 C   0  0  0  0  0  0  0  0  0  0  0  0
   -1.0912   -1.1153   -0.1817 C   0  0  0  0  0  0  0  0  0  0  0  0
    0.3086   -1.1246   -0.0322 C   0  0  0  0  0  0  0  0  0  0  0  0
    1.0007   -2.3846   -0.0330 N   0  0  0  0  0  0  0  0  0  0  0  0
    1.6705   -2.7404    1.1427 C   0  0  0  0  0  0  0  0  0  0  0  0
    1.6687   -2.0792    2.1818 O   0  0  0  0  0  0  0  0  0  0  0  0
    2.3138   -4.1067    1.1763 C   0  0  0  0  0  0  0  0  0  0  0  0
    2.7182   -4.6366   -0.1947 C   0  0  0  0  0  0  0  0  0  0  0  0
    3.3771   -6.0691   -0.1338 C   0  0  0  0  0  0  0  0  0  0  0  0
    2.4351   -7.1304    0.4736 C   0  0  0  0  0  0  0  0  0  0  0  0
    3.7775   -6.5423   -1.5480 C   0  0  0  0  0  0  0  0  0  0  0  0
    4.6651   -6.0367    0.7178 C   0  0  0  0  0  0  0  0  0  0  0  0
    1.4805   -4.5841   -1.0865 C   0  0  0  0  0  0  0  0  0  0  0  0
    0.7792   -3.2449   -1.1108 C   0  0  0  0  0  0  0  0  0  0  0  0
    0.0247   -3.0086   -2.0591 O   0  0  0  0  0  0  0  0  0  0  0  0
    2.8371    1.2250    0.1139 H   0  0  0  0  0  0  0  0  0  0  0  0
    2.9418   -0.3584   -0.6499 H   0  0  0  0  0  0  0  0  0  0  0  0
    2.8801   -0.2095    1.1301 H   0  0  0  0  0  0  0  0  0  0  0  0
    0.7567    2.2493    0.2819 H   0  0  0  0  0  0  0  0  0  0  0  0
   -1.6922    2.2170    0.0487 H   0  0  0  0  0  0  0  0  0  0  0  0
   -2.8899    0.0676   -0.2632 H   0  0  0  0  0  0  0  0  0  0  0  0
   -1.6402   -2.0464   -0.3057 H   0  0  0  0  0  0  0  0  0  0  0  0
    1.6022   -4.7729    1.6746 H   0  0  0  0  0  0  0  0  0  0  0  0
    3.1996   -4.0141    1.8139 H   0  0  0  0  0  0  0  0  0  0  0  0
    3.4595   -3.9409   -0.6156 H   0  0  0  0  0  0  0  0  0  0  0  0
    1.5180   -7.2467   -0.1115 H   0  0  0  0  0  0  0  0  0  0  0  0
    2.1528   -6.8855    1.5021 H   0  0  0  0  0  0  0  0  0  0  0  0
    2.9200   -8.1132    0.5039 H   0  0  0  0  0  0  0  0  0  0  0  0
    2.9060   -6.6832   -2.1950 H   0  0  0  0  0  0  0  0  0  0  0  0
    4.2983   -7.5065   -1.5081 H   0  0  0  0  0  0  0  0  0  0  0  0
    4.4487   -5.8231   -2.0298 H   0  0  0  0  0  0  0  0  0  0  0  0
    4.4572   -5.8093    1.7679 H   0  0  0  0  0  0  0  0  0  0  0  0
    5.3709   -5.2895    0.3393 H   0  0  0  0  0  0  0  0  0  0  0  0
    5.1721   -7.0091    0.7015 H   0  0  0  0  0  0  0  0  0  0  0  0
    0.7321   -5.3258   -0.7919 H   0  0  0  0  0  0  0  0  0  0  0  0
    1.7731   -4.7890   -2.1229 H   0  0  0  0  0  0  0  0  0  0  0  0
  1  2  1  0  0  0  0
  1 20  1  0  0  0  0
  1 21  1  0  0  0  0
  1 22  1  0  0  0  0
  2  3  2  0  0  0  0
  2  7  1  0  0  0  0
  3  4  1  0  0  0  0
  3 23  1  0  0  0  0
  4  5  2  0  0  0  0
  4 24  1  0  0  0  0
  5  6  1  0  0  0  0
  5 25  1  0  0  0  0
  6  7  2  0  0  0  0
  6 26  1  0  0  0  0
  7  8  1  0  0  0  0
  8  9  1  0  0  0  0
  8 18  1  0  0  0  0
  9 10  2  0  0  0  0
  9 11  1  0  0  0  0
 11 12  1  0  0  0  0
 11 27  1  0  0  0  0
 11 28  1  0  0  0  0
 12 13  1  0  0  0  0
 12 17  1  0  0  0  0
 12 29  1  0  0  0  0
 13 14  1  0  0  0  0
 13 15  1  0  0  0  0
 13 16  1  0  0  0  0
 14 30  1  0  0  0  0
 14 31  1  0  0  0  0
 14 32  1  0  0  0  0
 15 33  1  0  0  0  0
 15 34  1  0  0  0  0
 15 35  1  0  0  0  0
 16 36  1  0  0  0  0
 16 37  1  0  0  0  0
 16 38  1  0  0  0  0
 17 18  1  0  0  0  0
 17 39  1  0  0  0  0
 17 40  1  0  0  0  0
 18 19  2  0  0  0  0
M  END
$$$$
