
 OpenBabel09162610133D

 26 27  0  0  0  0  0  0  0  0999 V2000
    0.9815    0.1056   -0.0166 C   0  0  0  0  0  0  0  0  0  0  0  0
    2.4765    0.0171   -0.0541 C   0  0  0  0  0  0  0  0  0  0  0  0
    3.1075   -1.2079   -0.0506 C   0  0  0  0  0  0  0  0  0  0  0  0
    4.4732   -1.1568   -0.0784 C   0  0  0  0  0  0  0  0  0  0  0  0
    5.2355   -2.2858   -0.0873 O   0  0  0  0  0  0  0  0  0  0  0  0
    5.1733   -0.0260   -0.0904 N   0  0  0  0  0  0  0  0  0  0  0  0
    4.4986    1.1260   -0.0701 C   0  0  0  0  0  0  0  0  0  0  0  0
    5.1741    2.3447    0.0200 N   0  0  0  0  0  0  0  0  0  0  0  0
    6.5023    2.6104    0.3882 C   0  0  0  0  0  0  0  0  0  0  0  0
    6.8259    3.8677    0.9210 C   0  0  0  0  0  0  0  0  0  0  0  0
    8.1256    4.1588    1.3513 C   0  0  0  0  0  0  0  0  0  0  0  0
    9.1305    3.2002    1.2433 C   0  0  0  0  0  0  0  0  0  0  0  0
    8.8284    1.9562    0.7037 C   0  0  0  0  0  0  0  0  0  0  0  0
   10.1808    0.6441    0.5373 Br  0  0  0  0  0  0  0  0  0  0  0  0
    7.5318    1.6651    0.2812 C   0  0  0  0  0  0  0  0  0  0  0  0
    3.1557    1.1857   -0.0715 N   0  0  0  0  0  0  0  0  0  0  0  0
    0.5205   -0.8872   -0.0111 H   0  0  0  0  0  0  0  0  0  0  0  0
    0.6195    0.6458   -0.8955 H   0  0  0  0  0  0  0  0  0  0  0  0
    0.6625    0.6340    0.8869 H   0  0  0  0  0  0  0  0  0  0  0  0
    2.5611   -2.1381   -0.0263 H   0  0  0  0  0  0  0  0  0  0  0  0
    4.6510   -3.0572   -0.0396 H   0  0  0  0  0  0  0  0  0  0  0  0
    4.5057    3.0953    0.1047 H   0  0  0  0  0  0  0  0  0  0  0  0
    6.0587    4.6311    1.0279 H   0  0  0  0  0  0  0  0  0  0  0  0
    8.3510    5.1329    1.7770 H   0  0  0  0  0  0  0  0  0  0  0  0
   10.1382    3.4285    1.5766 H   0  0  0  0  0  0  0  0  0  0  0  0
    7.3405    0.6827   -0.1391 H   0  0  0  0  0  0  0  0  0  0  0  0
  1  2  1  0  0  0  0
  1 17  1  0  0  0  0
  1 18  1  0  0  0  0
  1 19  1  0  0  0  0
  2  3  2  0  0  0  0
  2 16  1  0  0  0  0
  3  4  1  0  0  0  0
  3 20  1  0  0  0  0
  4  5  1  0  0  0  0
  4  6  2  0  0  0  0
  5 21  1  0  0  0  0
  6  7  1  0  0  0  0
  7  8  1  0  0  0  0
  7 16  2  0  0  0  0
  8  9  1  0  0  0  0
  8 22  1  0  0  0  0
  9 10  2  0  0  0  0
  9 15  1  0  0  0  0
 10 11  1  0  0  0  0
 10 23  1  0  0  0  0
 11 12  2  0  0  0  0
 11 24  1  0  0  0  0
 12 13  1  0  0  0  0
 12 25  1  0  0  0  0
 13 14  1  0  0  0  0
 13 15  2  0  0  0  0
 15 26  1  0  0  0  0
M  END
$$$$
