
 OpenBabel09162610133D

 10  9  0  0  0  0  0  0  0  0999 V2000
    1.6766   -0.1146    1.3081 O   0  0  0  0  0  0  0  0  0  0  0  0
    2.5545   -0.0955    0.4247 C   0  0  0  0  0  0  0  0  0  0  0  0
    3.1047   -1.4033   -0.1393 C   0  0  0  0  0  0  0  0  0  0  0  0
    4.6277   -1.8064    0.6961 Cl  0  0  0  0  0  0  0  0  0  0  0  0
    1.9418   -2.7407    0.2118 Cl  0  0  0  0  0  0  0  0  0  0  0  0
    3.3201   -1.3884   -1.9023 Cl  0  0  0  0  0  0  0  0  0  0  0  0
    3.0717    1.2401   -0.1075 C   0  0  0  0  0  0  0  0  0  0  0  0
    4.7940    1.2590   -0.5363 Cl  0  0  0  0  0  0  0  0  0  0  0  0
    2.0702    1.7209   -1.5059 Cl  0  0  0  0  0  0  0  0  0  0  0  0
    2.8597    2.5007    1.1674 Cl  0  0  0  0  0  0  0  0  0  0  0  0
  1  2  2  0  0  0  0
  2  3  1  0  0  0  0
  2  7  1  0  0  0  0
  3  4  1  0  0  0  0
  3  5  1  0  0  0  0
  3  6  1  0  0  0  0
  7  8  1  0  0  0  0
  7  9  1  0  0  0  0
  7 10  1  0  0  0  0
M  END
$$$$
