
 OpenBabel09162610133D

 37 39  0  0  1  0  0  0  0  0999 V2000
    1.5586   -0.1485    2.7687 C   0  0  0  0  0  0  0  0  0  0  0  0
    2.4231    0.7417    2.2675 C   0  0  0  0  0  0  0  0  0  0  0  0
    2.9504    0.7310    0.8474 C   0  0  0  0  0  0  0  0  0  0  0  0
    4.4994    0.6144    0.7567 C   0  0  2  0  0  0  0  0  0  0  0  0
    5.0179   -0.6782    1.4586 C   0  0  0  0  0  0  0  0  0  0  0  0
    4.4172   -1.9883    0.9539 C   0  0  0  0  0  0  0  0  0  0  0  0
    5.0873    1.7113    1.4911 O   0  0  0  0  0  0  0  0  0  0  0  0
    5.1294    2.9123    0.8336 C   0  0  0  0  0  0  0  0  0  0  0  0
    4.3359    3.9469    1.3280 C   0  0  0  0  0  0  0  0  0  0  0  0
    4.4420    5.2299    0.7878 C   0  0  0  0  0  0  0  0  0  0  0  0
    5.3840    5.4964   -0.2063 C   0  0  0  0  0  0  0  0  0  0  0  0
    6.2222    4.4806   -0.6670 C   0  0  0  0  0  0  0  0  0  0  0  0
    6.0768    3.1837   -0.1593 C   0  0  0  0  0  0  0  0  0  0  0  0
    6.8399    2.1311   -0.7056 N   0  0  0  0  0  0  0  0  0  0  0  0
    8.1359    2.1995   -1.1686 C   0  0  0  0  0  0  0  0  0  0  0  0
    8.4750    0.9778   -1.7064 C   0  0  0  0  0  0  0  0  0  0  0  0
    7.3276    0.1583   -1.6302 C   0  0  0  0  0  0  0  0  0  0  0  0
    6.3379    0.8767   -0.9862 C   0  0  0  0  0  0  0  0  0  0  0  0
    4.9635    0.4966   -0.7229 C   0  0  0  0  0  0  0  0  0  0  0  0
    4.2408    0.0205   -1.6002 O   0  0  0  0  0  0  0  0  0  0  0  0
    1.2356   -0.0841    3.8040 H   0  0  0  0  0  0  0  0  0  0  0  0
    1.1592   -0.9612    2.1707 H   0  0  0  0  0  0  0  0  0  0  0  0
    2.7911    1.5307    2.9216 H   0  0  0  0  0  0  0  0  0  0  0  0
    2.6255    1.6668    0.3760 H   0  0  0  0  0  0  0  0  0  0  0  0
    2.4680   -0.0704    0.2748 H   0  0  0  0  0  0  0  0  0  0  0  0
    4.8598   -0.6073    2.5421 H   0  0  0  0  0  0  0  0  0  0  0  0
    6.1090   -0.7362    1.3435 H   0  0  0  0  0  0  0  0  0  0  0  0
    3.3577   -2.0713    1.2099 H   0  0  0  0  0  0  0  0  0  0  0  0
    4.9327   -2.8373    1.4140 H   0  0  0  0  0  0  0  0  0  0  0  0
    4.5162   -2.0982   -0.1296 H   0  0  0  0  0  0  0  0  0  0  0  0
    3.6337    3.7615    2.1355 H   0  0  0  0  0  0  0  0  0  0  0  0
    3.7972    6.0263    1.1515 H   0  0  0  0  0  0  0  0  0  0  0  0
    5.4592    6.4956   -0.6287 H   0  0  0  0  0  0  0  0  0  0  0  0
    6.9304    4.7035   -1.4612 H   0  0  0  0  0  0  0  0  0  0  0  0
    8.7277    3.0965   -1.0384 H   0  0  0  0  0  0  0  0  0  0  0  0
    9.4379    0.7165   -2.1267 H   0  0  0  0  0  0  0  0  0  0  0  0
    7.2270   -0.8567   -2.0003 H   0  0  0  0  0  0  0  0  0  0  0  0
  1  2  2  0  0  0  0
  1 21  1  0  0  0  0
  1 22  1  0  0  0  0
  2  3  1  0  0  0  0
  2 23  1  0  0  0  0
  3 24  1  0  0  0  0
  3 25  1  0  0  0  0
  4  3  1  1  0  0  0
  4  5  1  0  0  0  0
  4  7  1  0  0  0  0
  4 19  1  0  0  0  0
  5  6  1  0  0  0  0
  5 26  1  0  0  0  0
  5 27  1  0  0  0  0
  6 28  1  0  0  0  0
  6 29  1  0  0  0  0
  6 30  1  0  0  0  0
  7  8  1  0  0  0  0
  8  9  2  0  0  0  0
  8 13  1  0  0  0  0
  9 10  1  0  0  0  0
  9 31  1  0  0  0  0
 10 11  2  0  0  0  0
 10 32  1  0  0  0  0
 11 12  1  0  0  0  0
 11 33  1  0  0  0  0
 12 13  2  0  0  0  0
 12 34  1  0  0  0  0
 13 14  1  0  0  0  0
 14 15  1  0  0  0  0
 14 18  1  0  0  0  0
 15 16  2  0  0  0  0
 15 35  1  0  0  0  0
 16 17  1  0  0  0  0
 16 36  1  0  0  0  0
 17 18  2  0  0  0  0
 17 37  1  0  0  0  0
 18 19  1  0  0  0  0
 19 20  2  0  0  0  0
M  END
$$$$
