
 OpenBabel09162610133D

 33 34  0  0  1  0  0  0  0  0999 V2000
    1.0283    0.1297    0.2012 C   0  0  0  0  0  0  0  0  0  0  0  0
    2.5151    0.1169    0.0776 C   0  0  0  0  0  0  0  0  0  0  0  0
    3.2175   -0.9679    0.1564 N   0  0  0  0  0  0  0  0  0  0  0  0
    4.5237   -0.6040   -0.0545 N   0  0  0  0  0  0  0  0  0  0  0  0
    5.5879   -1.5033   -0.1333 C   0  0  0  0  0  0  0  0  0  0  0  0
    6.7366   -1.0665   -0.2792 O   0  0  0  0  0  0  0  0  0  0  0  0
    5.3159   -2.9471   -0.0317 C   0  0  0  0  0  0  0  0  0  0  0  0
    4.1797   -3.5606   -0.5281 C   0  0  0  0  0  0  0  0  0  0  0  0
    4.1213   -5.2338   -0.2457 S   0  0  0  0  0  0  0  0  0  0  0  0
    5.6533   -5.2214    0.5025 C   0  0  0  0  0  0  0  0  0  0  0  0
    6.2165   -6.5051    1.0191 C   0  0  0  0  0  0  0  0  0  0  0  0
    6.2173   -3.9489    0.5271 C   0  0  0  0  0  0  0  0  0  0  0  0
    7.5736   -3.6324    1.0788 C   0  0  0  0  0  0  0  0  0  0  0  0
    4.6760    0.8148   -0.4128 C   0  0  1  0  0  0  0  0  0  0  0  0
    5.6096    1.4148    0.4985 O   0  0  0  0  0  0  0  0  0  0  0  0
    5.0710    1.0002   -1.9110 C   0  0  0  0  0  0  0  0  0  0  0  0
    4.7735   -0.0895   -2.6585 F   0  0  0  0  0  0  0  0  0  0  0  0
    4.4279    2.0486   -2.4822 F   0  0  0  0  0  0  0  0  0  0  0  0
    6.3981    1.2339   -2.0502 F   0  0  0  0  0  0  0  0  0  0  0  0
    3.2881    1.3803   -0.1052 C   0  0  0  0  0  0  0  0  0  0  0  0
    0.6379   -0.8925    0.1930 H   0  0  0  0  0  0  0  0  0  0  0  0
    0.5996    0.6799   -0.6384 H   0  0  0  0  0  0  0  0  0  0  0  0
    0.7458    0.6203    1.1365 H   0  0  0  0  0  0  0  0  0  0  0  0
    3.3534   -3.0998   -1.0527 H   0  0  0  0  0  0  0  0  0  0  0  0
    5.4845   -7.3197    0.9963 H   0  0  0  0  0  0  0  0  0  0  0  0
    6.5437   -6.3896    2.0574 H   0  0  0  0  0  0  0  0  0  0  0  0
    7.0768   -6.8080    0.4140 H   0  0  0  0  0  0  0  0  0  0  0  0
    8.0557   -4.5161    1.5119 H   0  0  0  0  0  0  0  0  0  0  0  0
    7.5038   -2.8744    1.8646 H   0  0  0  0  0  0  0  0  0  0  0  0
    8.2270   -3.2609    0.2834 H   0  0  0  0  0  0  0  0  0  0  0  0
    6.4572    0.9502    0.3317 H   0  0  0  0  0  0  0  0  0  0  0  0
    2.8455    1.9863   -0.8979 H   0  0  0  0  0  0  0  0  0  0  0  0
    3.2600    1.9456    0.8328 H   0  0  0  0  0  0  0  0  0  0  0  0
  1  2  1  0  0  0  0
  1 21  1  0  0  0  0
  1 22  1  0  0  0  0
  1 23  1  0  0  0  0
  2  3  2  0  0  0  0
  2 20  1  0  0  0  0
  3  4  1  0  0  0  0
  4  5  1  0  0  0  0
  4 14  1  0  0  0  0
  5  6  2  0  0  0  0
  5  7  1  0  0  0  0
  7  8  2  0  0  0  0
  7 12  1  0  0  0  0
  8  9  1  0  0  0  0
  8 24  1  0  0  0  0
  9 10  1  0  0  0  0
 10 11  1  0  0  0  0
 10 12  2  0  0  0  0
 11 25  1  0  0  0  0
 11 26  1  0  0  0  0
 11 27  1  0  0  0  0
 12 13  1  0  0  0  0
 13 28  1  0  0  0  0
 13 29  1  0  0  0  0
 13 30  1  0  0  0  0
 14 15  1  1  0  0  0
 14 16  1  0  0  0  0
 14 20  1  0  0  0  0
 15 31  1  0  0  0  0
 16 17  1  0  0  0  0
 16 18  1  0  0  0  0
 16 19  1  0  0  0  0
 20 32  1  0  0  0  0
 20 33  1  0  0  0  0
M  END
$$$$
