
 OpenBabel09162610133D

 32 33  0  0  0  0  0  0  0  0999 V2000
    1.0062    0.3886   -0.0044 C   0  0  0  0  0  0  0  0  0  0  0  0
    2.4617   -0.0435   -0.1872 C   0  0  0  0  0  0  0  0  0  0  0  0
    3.2948    1.0986   -0.7833 C   0  0  0  0  0  0  0  0  0  0  0  0
    2.9994   -0.6064    1.0755 N   0  0  0  0  0  0  0  0  0  0  0  0
    2.8762   -1.9807    1.2788 C   0  0  0  0  0  0  0  0  0  0  0  0
    3.2140   -2.5695    2.4430 C   0  0  0  0  0  0  0  0  0  0  0  0
    2.9925   -4.0153    2.6028 C   0  0  0  0  0  0  0  0  0  0  0  0
    4.0019   -4.9289    2.2747 C   0  0  0  0  0  0  0  0  0  0  0  0
    3.7940   -6.2996    2.4533 C   0  0  0  0  0  0  0  0  0  0  0  0
    2.5804   -6.7571    2.9643 C   0  0  0  0  0  0  0  0  0  0  0  0
    2.3247   -8.4446    3.1785 Cl  0  0  0  0  0  0  0  0  0  0  0  0
    1.5734   -5.8562    3.3055 C   0  0  0  0  0  0  0  0  0  0  0  0
    1.7798   -4.4856    3.1271 C   0  0  0  0  0  0  0  0  0  0  0  0
    3.7509   -1.7493    3.5068 C   0  0  0  0  0  0  0  0  0  0  0  0
    3.8633   -0.4228    3.3602 C   0  0  0  0  0  0  0  0  0  0  0  0
    4.4136    0.4449    4.4803 C   0  0  0  0  0  0  0  0  0  0  0  0
    4.8701    1.1648    5.4095 N   0  0  0  0  0  0  0  0  0  0  0  0
    3.4172    0.2464    2.1073 C   0  0  0  0  0  0  0  0  0  0  0  0
    3.4292    1.4711    2.0395 O   0  0  0  0  0  0  0  0  0  0  0  0
    0.5985    0.7962   -0.9348 H   0  0  0  0  0  0  0  0  0  0  0  0
    0.9072    1.1503    0.7761 H   0  0  0  0  0  0  0  0  0  0  0  0
    0.3858   -0.4657    0.2892 H   0  0  0  0  0  0  0  0  0  0  0  0
    2.4858   -0.8473   -0.9340 H   0  0  0  0  0  0  0  0  0  0  0  0
    3.1674    2.0388   -0.2378 H   0  0  0  0  0  0  0  0  0  0  0  0
    2.9798    1.2957   -1.8141 H   0  0  0  0  0  0  0  0  0  0  0  0
    4.3606    0.8499   -0.7954 H   0  0  0  0  0  0  0  0  0  0  0  0
    2.4658   -2.5596    0.4559 H   0  0  0  0  0  0  0  0  0  0  0  0
    4.9556   -4.5813    1.8834 H   0  0  0  0  0  0  0  0  0  0  0  0
    4.5818   -7.0028    2.1960 H   0  0  0  0  0  0  0  0  0  0  0  0
    0.6305   -6.2121    3.7121 H   0  0  0  0  0  0  0  0  0  0  0  0
    0.9905   -3.7895    3.4042 H   0  0  0  0  0  0  0  0  0  0  0  0
    4.0536   -2.2412    4.4277 H   0  0  0  0  0  0  0  0  0  0  0  0
  1  2  1  0  0  0  0
  1 20  1  0  0  0  0
  1 21  1  0  0  0  0
  1 22  1  0  0  0  0
  2  3  1  0  0  0  0
  2  4  1  0  0  0  0
  2 23  1  0  0  0  0
  3 24  1  0  0  0  0
  3 25  1  0  0  0  0
  3 26  1  0  0  0  0
  4  5  1  0  0  0  0
  4 18  1  0  0  0  0
  5  6  2  0  0  0  0
  5 27  1  0  0  0  0
  6  7  1  0  0  0  0
  6 14  1  0  0  0  0
  7  8  2  0  0  0  0
  7 13  1  0  0  0  0
  8  9  1  0  0  0  0
  8 28  1  0  0  0  0
  9 10  2  0  0  0  0
  9 29  1  0  0  0  0
 10 11  1  0  0  0  0
 10 12  1  0  0  0  0
 12 13  2  0  0  0  0
 12 30  1  0  0  0  0
 13 31  1  0  0  0  0
 14 15  2  0  0  0  0
 14 32  1  0  0  0  0
 15 16  1  0  0  0  0
 15 18  1  0  0  0  0
 16 17  3  0  0  0  0
 18 19  2  0  0  0  0
M  END
$$$$
