
 OpenBabel09162610133D

 28 30  0  0  1  0  0  0  0  0999 V2000
    0.7992   -0.1266   -0.0451 C   0  0  0  0  0  0  0  0  0  0  0  0
    2.3057    0.0010   -0.1113 C   0  0  0  0  0  0  0  0  0  0  0  0
    2.8472    1.2231   -0.1806 C   0  0  0  0  0  0  0  0  0  0  0  0
    4.5161    1.5762   -0.3589 S   0  0  0  0  0  0  0  0  0  0  0  0
    5.3498   -0.0323   -0.1197 C   0  0  1  0  0  0  0  0  0  0  0  0
    6.2140   -0.1762   -1.2504 O   0  0  0  0  0  0  0  0  0  0  0  0
    6.2012    0.0005    1.1550 C   0  0  0  0  0  0  0  0  0  0  0  0
    5.6130    0.2223    2.4162 C   0  0  0  0  0  0  0  0  0  0  0  0
    6.3991    0.3183    3.5696 C   0  0  0  0  0  0  0  0  0  0  0  0
    7.7815    0.1782    3.4825 C   0  0  0  0  0  0  0  0  0  0  0  0
    8.7483    0.3230    4.8971 Cl  0  0  0  0  0  0  0  0  0  0  0  0
    8.3848   -0.0717    2.2551 C   0  0  0  0  0  0  0  0  0  0  0  0
    7.6000   -0.1640    1.1028 C   0  0  0  0  0  0  0  0  0  0  0  0
    4.4052   -1.2407   -0.1322 C   0  0  0  0  0  0  0  0  0  0  0  0
    4.8471   -2.4611   -0.1336 N   0  0  0  0  0  0  0  0  0  0  0  0
    3.6937   -3.2851   -0.1242 O   0  0  0  0  0  0  0  0  0  0  0  0
    2.6123   -2.4384   -0.1091 C   0  0  0  0  0  0  0  0  0  0  0  0
    1.4604   -2.8422   -0.0869 O   0  0  0  0  0  0  0  0  0  0  0  0
    3.0648   -1.1533   -0.1228 N   0  0  0  0  0  0  0  0  0  0  0  0
    0.3040    0.8512   -0.0301 H   0  0  0  0  0  0  0  0  0  0  0  0
    0.4910   -0.6519    0.8650 H   0  0  0  0  0  0  0  0  0  0  0  0
    0.4167   -0.6593   -0.9220 H   0  0  0  0  0  0  0  0  0  0  0  0
    2.1951    2.0939   -0.1656 H   0  0  0  0  0  0  0  0  0  0  0  0
    6.0837    0.6466   -1.7512 H   0  0  0  0  0  0  0  0  0  0  0  0
    4.5365    0.3467    2.5156 H   0  0  0  0  0  0  0  0  0  0  0  0
    5.9279    0.5123    4.5293 H   0  0  0  0  0  0  0  0  0  0  0  0
    9.4626   -0.1904    2.1814 H   0  0  0  0  0  0  0  0  0  0  0  0
    8.0997   -0.3622    0.1548 H   0  0  0  0  0  0  0  0  0  0  0  0
  1  2  1  0  0  0  0
  1 20  1  0  0  0  0
  1 21  1  0  0  0  0
  1 22  1  0  0  0  0
  2  3  2  0  0  0  0
  2 19  1  0  0  0  0
  3  4  1  0  0  0  0
  3 23  1  0  0  0  0
  4  5  1  0  0  0  0
  5  6  1  6  0  0  0
  5  7  1  0  0  0  0
  5 14  1  0  0  0  0
  6 24  1  0  0  0  0
  7  8  2  0  0  0  0
  7 13  1  0  0  0  0
  8  9  1  0  0  0  0
  8 25  1  0  0  0  0
  9 10  2  0  0  0  0
  9 26  1  0  0  0  0
 10 11  1  0  0  0  0
 10 12  1  0  0  0  0
 12 13  2  0  0  0  0
 12 27  1  0  0  0  0
 13 28  1  0  0  0  0
 14 15  2  0  0  0  0
 14 19  1  0  0  0  0
 15 16  1  0  0  0  0
 16 17  1  0  0  0  0
 17 18  2  0  0  0  0
 17 19  1  0  0  0  0
M  END
$$$$
