
 OpenBabel09162610133D

 46 48  0  0  1  0  0  0  0  0999 V2000
    1.5593    0.8611   -0.1924 O   0  0  0  0  0  0  0  0  0  0  0  0
    2.4982    0.0729   -0.0269 C   0  0  0  0  0  0  0  0  0  0  0  0
    2.9248   -0.1779    1.3744 C   0  0  0  0  0  0  0  0  0  0  0  0
    1.9455   -0.2849    2.3739 C   0  0  0  0  0  0  0  0  0  0  0  0
    2.3086   -0.5587    3.6978 C   0  0  0  0  0  0  0  0  0  0  0  0
    3.6525   -0.7370    4.0255 C   0  0  0  0  0  0  0  0  0  0  0  0
    4.6190   -0.5755    3.0431 C   0  0  0  0  0  0  0  0  0  0  0  0
    5.9119   -0.7426    3.3517 F   0  0  0  0  0  0  0  0  0  0  0  0
    4.2712   -0.2513    1.7391 C   0  0  0  0  0  0  0  0  0  0  0  0
    3.1316   -0.5648   -1.0964 N   0  0  0  0  0  0  0  0  0  0  0  0
    4.1758   -1.5906   -1.0340 C   0  0  0  0  0  0  0  0  0  0  0  0
    5.4640   -1.0173   -1.6236 C   0  0  0  0  0  0  0  0  0  0  0  0
    5.2303   -0.5712   -3.0690 C   0  0  0  0  0  0  0  0  0  0  0  0
    4.0352    0.4003   -3.1784 C   0  0  1  0  0  0  0  0  0  0  0  0
    3.6569    0.6595   -4.6342 C   0  0  0  0  0  0  0  0  0  0  0  0
    3.9583   -0.1606   -5.5051 O   0  0  0  0  0  0  0  0  0  0  0  0
    2.8816    1.7746   -4.9243 N   0  0  0  0  0  0  0  0  0  0  0  0
    2.2850    1.8975   -6.2543 C   0  0  0  0  0  0  0  0  0  0  0  0
    2.8110    3.1290   -6.9863 C   0  0  0  0  0  0  0  0  0  0  0  0
    2.6464    4.3868   -6.1341 C   0  0  0  0  0  0  0  0  0  0  0  0
    3.2701    4.1928   -4.7523 C   0  0  0  0  0  0  0  0  0  0  0  0
    2.7050    2.9481   -4.0656 C   0  0  0  0  0  0  0  0  0  0  0  0
    2.7982   -0.1690   -2.4654 C   0  0  0  0  0  0  0  0  0  0  0  0
    0.8942   -0.1544    2.1217 H   0  0  0  0  0  0  0  0  0  0  0  0
    1.5461   -0.6399    4.4674 H   0  0  0  0  0  0  0  0  0  0  0  0
    3.9526   -0.9843    5.0385 H   0  0  0  0  0  0  0  0  0  0  0  0
    5.0650   -0.0783    1.0255 H   0  0  0  0  0  0  0  0  0  0  0  0
    3.8378   -2.4451   -1.6324 H   0  0  0  0  0  0  0  0  0  0  0  0
    4.3266   -1.9751   -0.0262 H   0  0  0  0  0  0  0  0  0  0  0  0
    6.2656   -1.7615   -1.5827 H   0  0  0  0  0  0  0  0  0  0  0  0
    5.7971   -0.1488   -1.0424 H   0  0  0  0  0  0  0  0  0  0  0  0
    5.0694   -1.4614   -3.6894 H   0  0  0  0  0  0  0  0  0  0  0  0
    6.1345   -0.0820   -3.4526 H   0  0  0  0  0  0  0  0  0  0  0  0
    4.3586    1.3236   -2.6911 H   0  0  0  0  0  0  0  0  0  0  0  0
    1.2006    1.9789   -6.1119 H   0  0  0  0  0  0  0  0  0  0  0  0
    2.4609    1.0027   -6.8590 H   0  0  0  0  0  0  0  0  0  0  0  0
    2.2805    3.2513   -7.9367 H   0  0  0  0  0  0  0  0  0  0  0  0
    3.8731    2.9886   -7.2212 H   0  0  0  0  0  0  0  0  0  0  0  0
    1.5795    4.6171   -6.0233 H   0  0  0  0  0  0  0  0  0  0  0  0
    3.1100    5.2417   -6.6385 H   0  0  0  0  0  0  0  0  0  0  0  0
    3.0882    5.0778   -4.1335 H   0  0  0  0  0  0  0  0  0  0  0  0
    4.3572    4.0892   -4.8618 H   0  0  0  0  0  0  0  0  0  0  0  0
    1.6304    3.0648   -3.8838 H   0  0  0  0  0  0  0  0  0  0  0  0
    3.1851    2.8326   -3.0947 H   0  0  0  0  0  0  0  0  0  0  0  0
    2.4304   -1.0640   -2.9845 H   0  0  0  0  0  0  0  0  0  0  0  0
    1.9755    0.5539   -2.4781 H   0  0  0  0  0  0  0  0  0  0  0  0
  1  2  2  0  0  0  0
  2  3  1  0  0  0  0
  2 10  1  0  0  0  0
  3  4  2  0  0  0  0
  3  9  1  0  0  0  0
  4  5  1  0  0  0  0
  4 24  1  0  0  0  0
  5  6  2  0  0  0  0
  5 25  1  0  0  0  0
  6  7  1  0  0  0  0
  6 26  1  0  0  0  0
  7  8  1  0  0  0  0
  7  9  2  0  0  0  0
  9 27  1  0  0  0  0
 10 11  1  0  0  0  0
 10 23  1  0  0  0  0
 11 12  1  0  0  0  0
 11 28  1  0  0  0  0
 11 29  1  0  0  0  0
 12 13  1  0  0  0  0
 12 30  1  0  0  0  0
 12 31  1  0  0  0  0
 13 14  1  0  0  0  0
 13 32  1  0  0  0  0
 13 33  1  0  0  0  0
 14 15  1  0  0  0  0
 14 23  1  0  0  0  0
 14 34  1  1  0  0  0
 15 16  2  0  0  0  0
 15 17  1  0  0  0  0
 17 18  1  0  0  0  0
 17 22  1  0  0  0  0
 18 19  1  0  0  0  0
 18 35  1  0  0  0  0
 18 36  1  0  0  0  0
 19 20  1  0  0  0  0
 19 37  1  0  0  0  0
 19 38  1  0  0  0  0
 20 21  1  0  0  0  0
 20 39  1  0  0  0  0
 20 40  1  0  0  0  0
 21 22  1  0  0  0  0
 21 41  1  0  0  0  0
 21 42  1  0  0  0  0
 22 43  1  0  0  0  0
 22 44  1  0  0  0  0
 23 45  1  0  0  0  0
 23 46  1  0  0  0  0
M  END
$$$$
