
 OpenBabel09162610133D

 36 39  0  0  0  0  0  0  0  0999 V2000
    2.7085    2.6401   -1.0796 O   0  0  0  0  0  0  0  0  0  0  0  0
    1.8478    1.7936   -1.2376 C   0  0  0  0  0  0  0  0  0  0  0  0
    2.0257    0.6032   -2.0715 C   0  0  0  0  0  0  0  0  0  0  0  0
    0.9699   -0.1823   -1.8688 C   0  0  0  0  0  0  0  0  0  0  0  0
    0.1059    0.4820   -0.8869 C   0  0  0  0  0  0  0  0  0  0  0  0
   -0.8476   -0.0734   -0.3799 O   0  0  0  0  0  0  0  0  0  0  0  0
    0.6113    1.7255   -0.6788 N   0  0  0  0  0  0  0  0  0  0  0  0
    0.1887    2.6428    0.3675 C   0  0  0  0  0  0  0  0  0  0  0  0
   -1.3137    2.9388    0.3717 C   0  0  0  0  0  0  0  0  0  0  0  0
   -2.0143    2.1308    1.0025 O   0  0  0  0  0  0  0  0  0  0  0  0
   -1.8494    4.0992   -0.2127 N   0  0  0  0  0  0  0  0  0  0  0  0
   -1.1189    5.1458   -0.8897 C   0  0  0  0  0  0  0  0  0  0  0  0
   -0.0891    4.8469   -1.7917 C   0  0  0  0  0  0  0  0  0  0  0  0
    0.5801    5.8500   -2.5080 C   0  0  0  0  0  0  0  0  0  0  0  0
    0.2145    7.1800   -2.3600 C   0  0  0  0  0  0  0  0  0  0  0  0
   -0.8168    7.5076   -1.4891 C   0  0  0  0  0  0  0  0  0  0  0  0
   -1.4820    6.5044   -0.7632 C   0  0  0  0  0  0  0  0  0  0  0  0
   -2.7832    7.0310    0.3258 S   0  0  0  0  0  0  0  0  0  0  0  0
   -3.8201    5.6026    0.1547 C   0  0  0  0  0  0  0  0  0  0  0  0
   -5.2042    5.7741    0.3152 C   0  0  0  0  0  0  0  0  0  0  0  0
   -6.0699    4.6876    0.2205 C   0  0  0  0  0  0  0  0  0  0  0  0
   -5.5579    3.4263   -0.0487 C   0  0  0  0  0  0  0  0  0  0  0  0
   -4.1800    3.2522   -0.2040 C   0  0  0  0  0  0  0  0  0  0  0  0
   -3.2788    4.3287   -0.0830 C   0  0  0  0  0  0  0  0  0  0  0  0
    2.8875    0.4276   -2.6900 H   0  0  0  0  0  0  0  0  0  0  0  0
    0.7588   -1.1518   -2.2842 H   0  0  0  0  0  0  0  0  0  0  0  0
    0.7797    3.5612    0.3583 H   0  0  0  0  0  0  0  0  0  0  0  0
    0.4191    2.1559    1.3259 H   0  0  0  0  0  0  0  0  0  0  0  0
    0.1782    3.8260   -2.0275 H   0  0  0  0  0  0  0  0  0  0  0  0
    1.3747    5.5823   -3.2030 H   0  0  0  0  0  0  0  0  0  0  0  0
    0.7159    7.9579   -2.9302 H   0  0  0  0  0  0  0  0  0  0  0  0
   -1.1135    8.5494   -1.3879 H   0  0  0  0  0  0  0  0  0  0  0  0
   -5.6162    6.7593    0.5232 H   0  0  0  0  0  0  0  0  0  0  0  0
   -7.1393    4.8253    0.3557 H   0  0  0  0  0  0  0  0  0  0  0  0
   -6.2213    2.5690   -0.1332 H   0  0  0  0  0  0  0  0  0  0  0  0
   -3.8243    2.2498   -0.4357 H   0  0  0  0  0  0  0  0  0  0  0  0
  1  2  2  0  0  0  0
  2  3  1  0  0  0  0
  2  7  1  0  0  0  0
  3  4  2  0  0  0  0
  3 25  1  0  0  0  0
  4  5  1  0  0  0  0
  4 26  1  0  0  0  0
  5  6  2  0  0  0  0
  5  7  1  0  0  0  0
  7  8  1  0  0  0  0
  8  9  1  0  0  0  0
  8 27  1  0  0  0  0
  8 28  1  0  0  0  0
  9 10  2  0  0  0  0
  9 11  1  0  0  0  0
 11 12  1  0  0  0  0
 11 24  1  0  0  0  0
 12 13  2  0  0  0  0
 12 17  1  0  0  0  0
 13 14  1  0  0  0  0
 13 29  1  0  0  0  0
 14 15  2  0  0  0  0
 14 30  1  0  0  0  0
 15 16  1  0  0  0  0
 15 31  1  0  0  0  0
 16 17  2  0  0  0  0
 16 32  1  0  0  0  0
 17 18  1  0  0  0  0
 18 19  1  0  0  0  0
 19 20  2  0  0  0  0
 19 24  1  0  0  0  0
 20 21  1  0  0  0  0
 20 33  1  0  0  0  0
 21 22  2  0  0  0  0
 21 34  1  0  0  0  0
 22 23  1  0  0  0  0
 22 35  1  0  0  0  0
 23 24  2  0  0  0  0
 23 36  1  0  0  0  0
M  END
$$$$
