
 OpenBabel09162610133D

 34 36  0  0  0  0  0  0  0  0999 V2000
    1.8178    1.4630    0.0571 C   0  0  0  0  0  0  0  0  0  0  0  0
    0.5448    0.6597    0.0496 C   0  0  0  0  0  0  0  0  0  0  0  0
   -0.6843    1.3235    0.1584 C   0  0  0  0  0  0  0  0  0  0  0  0
   -1.8865    0.6137    0.1608 C   0  0  0  0  0  0  0  0  0  0  0  0
   -1.8802   -0.7778    0.0243 C   0  0  0  0  0  0  0  0  0  0  0  0
   -3.1024   -1.5096    0.0357 N   0  0  0  0  0  0  0  0  0  0  0  0
   -4.3044   -1.1811   -0.5786 C   0  0  0  0  0  0  0  0  0  0  0  0
   -4.5897    0.1372   -1.6741 S   0  0  0  0  0  0  0  0  0  0  0  0
   -5.2030   -2.1110   -0.3610 N   0  0  0  0  0  0  0  0  0  0  0  0
   -4.6153   -3.0911    0.3832 N   0  0  0  0  0  0  0  0  0  0  0  0
   -3.3677   -2.7416    0.6522 C   0  0  0  0  0  0  0  0  0  0  0  0
   -2.4947   -3.5499    1.5135 C   0  0  0  0  0  0  0  0  0  0  0  0
   -2.5651   -4.9450    1.4187 C   0  0  0  0  0  0  0  0  0  0  0  0
   -1.7449   -5.7137    2.2262 C   0  0  0  0  0  0  0  0  0  0  0  0
   -0.8668   -5.1941    3.1074 N   0  0  0  0  0  0  0  0  0  0  0  0
   -0.8376   -3.8497    3.2141 C   0  0  0  0  0  0  0  0  0  0  0  0
   -1.6343   -2.9983    2.4636 C   0  0  0  0  0  0  0  0  0  0  0  0
   -0.6541   -1.4497   -0.0916 C   0  0  0  0  0  0  0  0  0  0  0  0
    0.5624   -0.7440   -0.0448 C   0  0  0  0  0  0  0  0  0  0  0  0
    1.8581   -1.5116   -0.0905 C   0  0  0  0  0  0  0  0  0  0  0  0
    1.6129    2.5396    0.0519 H   0  0  0  0  0  0  0  0  0  0  0  0
    2.4118    1.2424   -0.8350 H   0  0  0  0  0  0  0  0  0  0  0  0
    2.4029    1.2390    0.9528 H   0  0  0  0  0  0  0  0  0  0  0  0
   -0.7142    2.4072    0.2586 H   0  0  0  0  0  0  0  0  0  0  0  0
   -2.8058    1.1743    0.3152 H   0  0  0  0  0  0  0  0  0  0  0  0
   -3.3268    0.3949   -2.0410 H   0  0  0  0  0  0  0  0  0  0  0  0
   -3.2543   -5.4281    0.7312 H   0  0  0  0  0  0  0  0  0  0  0  0
   -1.7756   -6.7986    2.1838 H   0  0  0  0  0  0  0  0  0  0  0  0
   -0.1346   -3.4589    3.9443 H   0  0  0  0  0  0  0  0  0  0  0  0
   -1.5661   -1.9286    2.6313 H   0  0  0  0  0  0  0  0  0  0  0  0
   -0.6213   -2.5281   -0.2292 H   0  0  0  0  0  0  0  0  0  0  0  0
    1.6869   -2.5917   -0.0698 H   0  0  0  0  0  0  0  0  0  0  0  0
    2.4709   -1.2659    0.7826 H   0  0  0  0  0  0  0  0  0  0  0  0
    2.4114   -1.2742   -1.0049 H   0  0  0  0  0  0  0  0  0  0  0  0
  1  2  1  0  0  0  0
  1 21  1  0  0  0  0
  1 22  1  0  0  0  0
  1 23  1  0  0  0  0
  2  3  2  0  0  0  0
  2 19  1  0  0  0  0
  3  4  1  0  0  0  0
  3 24  1  0  0  0  0
  4  5  2  0  0  0  0
  4 25  1  0  0  0  0
  5  6  1  0  0  0  0
  5 18  1  0  0  0  0
  6  7  1  0  0  0  0
  6 11  1  0  0  0  0
  7  8  1  0  0  0  0
  7  9  2  0  0  0  0
  8 26  1  0  0  0  0
  9 10  1  0  0  0  0
 10 11  2  0  0  0  0
 11 12  1  0  0  0  0
 12 13  2  0  0  0  0
 12 17  1  0  0  0  0
 13 14  1  0  0  0  0
 13 27  1  0  0  0  0
 14 15  2  0  0  0  0
 14 28  1  0  0  0  0
 15 16  1  0  0  0  0
 16 17  2  0  0  0  0
 16 29  1  0  0  0  0
 17 30  1  0  0  0  0
 18 19  2  0  0  0  0
 18 31  1  0  0  0  0
 19 20  1  0  0  0  0
 20 32  1  0  0  0  0
 20 33  1  0  0  0  0
 20 34  1  0  0  0  0
M  END
$$$$
