
 OpenBabel09162610133D

 33 34  0  0  0  0  0  0  0  0999 V2000
    1.2780   -1.1786    2.3448 C   0  0  0  0  0  0  0  0  0  0  0  0
    2.7660   -1.1645    2.0329 C   0  0  0  0  0  0  0  0  0  0  0  0
    3.0326   -1.8092    0.3498 S   0  0  0  0  0  0  0  0  0  0  0  0
    4.8189   -1.7473    0.2315 C   0  0  0  0  0  0  0  0  0  0  0  0
    5.5018   -1.8160    1.4028 N   0  0  0  0  0  0  0  0  0  0  0  0
    6.8604   -1.8397    1.3788 C   0  0  0  0  0  0  0  0  0  0  0  0
    7.5296   -1.8817    2.6948 C   0  0  0  0  0  0  0  0  0  0  0  0
    6.8997   -2.4665    3.8075 C   0  0  0  0  0  0  0  0  0  0  0  0
    7.5178   -2.5105    5.0643 C   0  0  0  0  0  0  0  0  0  0  0  0
    8.7853   -1.9616    5.2406 C   0  0  0  0  0  0  0  0  0  0  0  0
    9.4934   -1.9256    6.4088 O   0  0  0  0  0  0  0  0  0  0  0  0
    8.8756   -2.5151    7.5454 C   0  0  0  0  0  0  0  0  0  0  0  0
    9.4264   -1.3751    4.1515 C   0  0  0  0  0  0  0  0  0  0  0  0
    8.8077   -1.3326    2.8980 C   0  0  0  0  0  0  0  0  0  0  0  0
    7.5631   -1.8224    0.1772 C   0  0  0  0  0  0  0  0  0  0  0  0
    6.8601   -1.7392   -1.0207 C   0  0  0  0  0  0  0  0  0  0  0  0
    5.4647   -1.6963   -1.0020 C   0  0  0  0  0  0  0  0  0  0  0  0
    4.7606   -1.5975   -2.2420 C   0  0  0  0  0  0  0  0  0  0  0  0
    4.2357   -1.5043   -3.2739 N   0  0  0  0  0  0  0  0  0  0  0  0
    1.1029   -0.7876    3.3524 H   0  0  0  0  0  0  0  0  0  0  0  0
    0.8706   -2.1953    2.3107 H   0  0  0  0  0  0  0  0  0  0  0  0
    0.7123   -0.5538    1.6451 H   0  0  0  0  0  0  0  0  0  0  0  0
    3.2928   -1.7813    2.7672 H   0  0  0  0  0  0  0  0  0  0  0  0
    3.1480   -0.1404    2.0933 H   0  0  0  0  0  0  0  0  0  0  0  0
    5.9060   -2.9006    3.7008 H   0  0  0  0  0  0  0  0  0  0  0  0
    6.9751   -2.9773    5.8793 H   0  0  0  0  0  0  0  0  0  0  0  0
    9.5384   -2.3643    8.4026 H   0  0  0  0  0  0  0  0  0  0  0  0
    8.7487   -3.5934    7.4036 H   0  0  0  0  0  0  0  0  0  0  0  0
    7.9209   -2.0305    7.7756 H   0  0  0  0  0  0  0  0  0  0  0  0
   10.4142   -0.9384    4.2783 H   0  0  0  0  0  0  0  0  0  0  0  0
    9.3409   -0.8408    2.0880 H   0  0  0  0  0  0  0  0  0  0  0  0
    8.6468   -1.8825    0.1552 H   0  0  0  0  0  0  0  0  0  0  0  0
    7.4057   -1.7134   -1.9621 H   0  0  0  0  0  0  0  0  0  0  0  0
  1  2  1  0  0  0  0
  1 20  1  0  0  0  0
  1 21  1  0  0  0  0
  1 22  1  0  0  0  0
  2  3  1  0  0  0  0
  2 23  1  0  0  0  0
  2 24  1  0  0  0  0
  3  4  1  0  0  0  0
  4  5  2  0  0  0  0
  4 17  1  0  0  0  0
  5  6  1  0  0  0  0
  6  7  1  0  0  0  0
  6 15  2  0  0  0  0
  7  8  2  0  0  0  0
  7 14  1  0  0  0  0
  8  9  1  0  0  0  0
  8 25  1  0  0  0  0
  9 10  2  0  0  0  0
  9 26  1  0  0  0  0
 10 11  1  0  0  0  0
 10 13  1  0  0  0  0
 11 12  1  0  0  0  0
 12 27  1  0  0  0  0
 12 28  1  0  0  0  0
 12 29  1  0  0  0  0
 13 14  2  0  0  0  0
 13 30  1  0  0  0  0
 14 31  1  0  0  0  0
 15 16  1  0  0  0  0
 15 32  1  0  0  0  0
 16 17  2  0  0  0  0
 16 33  1  0  0  0  0
 17 18  1  0  0  0  0
 18 19  3  0  0  0  0
M  END
$$$$
