
 OpenBabel09162610133D

 36 38  0  0  0  0  0  0  0  0999 V2000
    1.4191   -0.2799    0.0518 C   0  0  0  0  0  0  0  0  0  0  0  0
    0.8113   -0.0729   -1.1825 C   0  0  0  0  0  0  0  0  0  0  0  0
   -0.5652    0.1686   -1.2560 C   0  0  0  0  0  0  0  0  0  0  0  0
   -1.3662    0.2195   -0.0997 C   0  0  0  0  0  0  0  0  0  0  0  0
   -2.8200    0.5022   -0.1697 C   0  0  0  0  0  0  0  0  0  0  0  0
   -3.7282   -0.0809    0.7335 C   0  0  0  0  0  0  0  0  0  0  0  0
   -5.0951    0.2105    0.6857 C   0  0  0  0  0  0  0  0  0  0  0  0
   -5.5896    1.0966   -0.2676 C   0  0  0  0  0  0  0  0  0  0  0  0
   -4.7128    1.7041   -1.1617 C   0  0  0  0  0  0  0  0  0  0  0  0
   -5.0755    2.6154   -2.1171 O   0  0  0  0  0  0  0  0  0  0  0  0
   -6.2119    3.4182   -1.7862 C   0  0  0  0  0  0  0  0  0  0  0  0
   -6.0859    4.7450   -2.5224 C   0  0  0  0  0  0  0  0  0  0  0  0
   -7.1750    5.6398   -2.2010 N   0  0  0  0  0  0  0  0  0  0  0  0
   -8.3614    5.7401   -2.8650 C   0  0  0  0  0  0  0  0  0  0  0  0
   -9.0800    6.6786   -2.1587 C   0  0  0  0  0  0  0  0  0  0  0  0
   -8.3534    7.1496   -1.0965 N   0  0  0  0  0  0  0  0  0  0  0  0
   -7.2051    6.5113   -1.1496 C   0  0  0  0  0  0  0  0  0  0  0  0
   -3.3496    1.3893   -1.1241 C   0  0  0  0  0  0  0  0  0  0  0  0
   -0.7208    0.0082    1.1346 C   0  0  0  0  0  0  0  0  0  0  0  0
    0.6518   -0.2460    1.2108 C   0  0  0  0  0  0  0  0  0  0  0  0
    2.4877   -0.4687    0.1093 H   0  0  0  0  0  0  0  0  0  0  0  0
    1.4058   -0.0958   -2.0917 H   0  0  0  0  0  0  0  0  0  0  0  0
   -1.0068    0.3092   -2.2401 H   0  0  0  0  0  0  0  0  0  0  0  0
   -3.3814   -0.7843    1.4863 H   0  0  0  0  0  0  0  0  0  0  0  0
   -5.7717   -0.2571    1.3969 H   0  0  0  0  0  0  0  0  0  0  0  0
   -6.6572    1.2915   -0.2928 H   0  0  0  0  0  0  0  0  0  0  0  0
   -6.2604    3.6189   -0.7081 H   0  0  0  0  0  0  0  0  0  0  0  0
   -7.1249    2.8934   -2.0918 H   0  0  0  0  0  0  0  0  0  0  0  0
   -6.0711    4.5922   -3.6095 H   0  0  0  0  0  0  0  0  0  0  0  0
   -5.1445    5.2447   -2.2629 H   0  0  0  0  0  0  0  0  0  0  0  0
   -8.5978    5.1574   -3.7445 H   0  0  0  0  0  0  0  0  0  0  0  0
  -10.0801    7.0392   -2.3601 H   0  0  0  0  0  0  0  0  0  0  0  0
   -6.3813    6.6377   -0.4581 H   0  0  0  0  0  0  0  0  0  0  0  0
   -2.6935    1.8812   -1.8399 H   0  0  0  0  0  0  0  0  0  0  0  0
   -1.2824    0.0549    2.0647 H   0  0  0  0  0  0  0  0  0  0  0  0
    1.1199   -0.4059    2.1784 H   0  0  0  0  0  0  0  0  0  0  0  0
  1  2  2  0  0  0  0
  1 20  1  0  0  0  0
  1 21  1  0  0  0  0
  2  3  1  0  0  0  0
  2 22  1  0  0  0  0
  3  4  2  0  0  0  0
  3 23  1  0  0  0  0
  4  5  1  0  0  0  0
  4 19  1  0  0  0  0
  5  6  2  0  0  0  0
  5 18  1  0  0  0  0
  6  7  1  0  0  0  0
  6 24  1  0  0  0  0
  7  8  2  0  0  0  0
  7 25  1  0  0  0  0
  8  9  1  0  0  0  0
  8 26  1  0  0  0  0
  9 10  1  0  0  0  0
  9 18  2  0  0  0  0
 10 11  1  0  0  0  0
 11 12  1  0  0  0  0
 11 27  1  0  0  0  0
 11 28  1  0  0  0  0
 12 13  1  0  0  0  0
 12 29  1  0  0  0  0
 12 30  1  0  0  0  0
 13 14  1  0  0  0  0
 13 17  1  0  0  0  0
 14 15  2  0  0  0  0
 14 31  1  0  0  0  0
 15 16  1  0  0  0  0
 15 32  1  0  0  0  0
 16 17  2  0  0  0  0
 17 33  1  0  0  0  0
 18 34  1  0  0  0  0
 19 20  2  0  0  0  0
 19 35  1  0  0  0  0
 20 36  1  0  0  0  0
M  END
$$$$
