
 OpenBabel09162610133D

 32 34  0  0  0  0  0  0  0  0999 V2000
   -1.1258    1.8631   -2.3779 C   0  0  0  0  0  0  0  0  0  0  0  0
   -0.7481    0.8988   -1.2918 C   0  0  0  0  0  0  0  0  0  0  0  0
    0.3714    1.1151   -0.4817 C   0  0  0  0  0  0  0  0  0  0  0  0
    0.7236    0.1877    0.5029 C   0  0  0  0  0  0  0  0  0  0  0  0
   -0.0387   -0.9670    0.6877 C   0  0  0  0  0  0  0  0  0  0  0  0
   -1.1701   -1.1834   -0.1019 C   0  0  0  0  0  0  0  0  0  0  0  0
   -1.9389   -2.4524    0.0308 C   0  0  0  0  0  0  0  0  0  0  0  0
   -1.3235   -3.4871    0.2826 O   0  0  0  0  0  0  0  0  0  0  0  0
   -3.3330   -2.5198   -0.1478 N   0  0  0  0  0  0  0  0  0  0  0  0
   -4.0968   -1.4031    0.0766 N   0  0  0  0  0  0  0  0  0  0  0  0
   -5.3610   -1.7850   -0.1894 C   0  0  0  0  0  0  0  0  0  0  0  0
   -6.5376   -0.8590   -0.0621 C   0  0  0  0  0  0  0  0  0  0  0  0
   -6.2349    0.3283    0.5238 F   0  0  0  0  0  0  0  0  0  0  0  0
   -7.0744   -0.5695   -1.2784 F   0  0  0  0  0  0  0  0  0  0  0  0
   -7.5370   -1.4143    0.6754 F   0  0  0  0  0  0  0  0  0  0  0  0
   -5.4093   -3.1260   -0.6495 C   0  0  0  0  0  0  0  0  0  0  0  0
   -6.3931   -4.0021   -1.1381 C   0  0  0  0  0  0  0  0  0  0  0  0
   -5.9816   -5.2690   -1.5496 C   0  0  0  0  0  0  0  0  0  0  0  0
   -4.6418   -5.6097   -1.4418 C   0  0  0  0  0  0  0  0  0  0  0  0
   -3.6661   -4.8061   -0.9687 N   0  0  0  0  0  0  0  0  0  0  0  0
   -4.0993   -3.5856   -0.5848 C   0  0  0  0  0  0  0  0  0  0  0  0
   -1.5175   -0.2537   -1.0939 C   0  0  0  0  0  0  0  0  0  0  0  0
   -0.4269    2.7038   -2.4315 H   0  0  0  0  0  0  0  0  0  0  0  0
   -2.1270    2.2650   -2.1948 H   0  0  0  0  0  0  0  0  0  0  0  0
   -1.1155    1.3560   -3.3486 H   0  0  0  0  0  0  0  0  0  0  0  0
    0.9864    2.0022   -0.6195 H   0  0  0  0  0  0  0  0  0  0  0  0
    1.6044    0.3604    1.1175 H   0  0  0  0  0  0  0  0  0  0  0  0
    0.2565   -1.6964    1.4387 H   0  0  0  0  0  0  0  0  0  0  0  0
   -7.4336   -3.7032   -1.2242 H   0  0  0  0  0  0  0  0  0  0  0  0
   -6.6948   -5.9778   -1.9578 H   0  0  0  0  0  0  0  0  0  0  0  0
   -4.2989   -6.5913   -1.7618 H   0  0  0  0  0  0  0  0  0  0  0  0
   -2.3755   -0.4282   -1.7396 H   0  0  0  0  0  0  0  0  0  0  0  0
  1  2  1  0  0  0  0
  1 23  1  0  0  0  0
  1 24  1  0  0  0  0
  1 25  1  0  0  0  0
  2  3  2  0  0  0  0
  2 22  1  0  0  0  0
  3  4  1  0  0  0  0
  3 26  1  0  0  0  0
  4  5  2  0  0  0  0
  4 27  1  0  0  0  0
  5  6  1  0  0  0  0
  5 28  1  0  0  0  0
  6  7  1  0  0  0  0
  6 22  2  0  0  0  0
  7  8  2  0  0  0  0
  7  9  1  0  0  0  0
  9 10  1  0  0  0  0
  9 21  1  0  0  0  0
 10 11  2  0  0  0  0
 11 12  1  0  0  0  0
 11 16  1  0  0  0  0
 12 13  1  0  0  0  0
 12 14  1  0  0  0  0
 12 15  1  0  0  0  0
 16 17  2  0  0  0  0
 16 21  1  0  0  0  0
 17 18  1  0  0  0  0
 17 29  1  0  0  0  0
 18 19  2  0  0  0  0
 18 30  1  0  0  0  0
 19 20  1  0  0  0  0
 19 31  1  0  0  0  0
 20 21  2  0  0  0  0
 22 32  1  0  0  0  0
M  END
$$$$
