
 OpenBabel09162610133D

 37 39  0  0  0  0  0  0  0  0999 V2000
    3.5289   -1.0876   -0.0290 C   0  0  0  0  0  0  0  0  0  0  0  0
    2.6975    0.1924   -0.0598 C   0  0  0  0  0  0  0  0  0  0  0  0
    1.2078   -0.1682   -0.0059 C   0  0  0  0  0  0  0  0  0  0  0  0
    3.0494    1.1194    1.1101 C   0  0  0  0  0  0  0  0  0  0  0  0
    2.1890    1.4539    1.9193 O   0  0  0  0  0  0  0  0  0  0  0  0
    4.3689    1.5536    1.1284 N   0  0  0  0  0  0  0  0  0  0  0  0
    4.9738    2.3067    2.1664 C   0  0  0  0  0  0  0  0  0  0  0  0
    4.3726    2.4759    3.4180 C   0  0  0  0  0  0  0  0  0  0  0  0
    4.9845    3.2380    4.4163 C   0  0  0  0  0  0  0  0  0  0  0  0
    6.2230    3.8224    4.1786 C   0  0  0  0  0  0  0  0  0  0  0  0
    6.8735    3.6433    2.9501 C   0  0  0  0  0  0  0  0  0  0  0  0
    8.1951    4.2425    2.7624 C   0  0  0  0  0  0  0  0  0  0  0  0
    8.9578    4.8655    3.6476 N   0  0  0  0  0  0  0  0  0  0  0  0
   10.0770    5.2133    2.9323 C   0  0  0  0  0  0  0  0  0  0  0  0
   11.2462    5.8882    3.3092 C   0  0  0  0  0  0  0  0  0  0  0  0
   12.2251    6.1120    2.3278 C   0  0  0  0  0  0  0  0  0  0  0  0
   12.0463    5.6669    1.0114 C   0  0  0  0  0  0  0  0  0  0  0  0
   10.8894    4.9795    0.6252 C   0  0  0  0  0  0  0  0  0  0  0  0
    9.9430    4.7844    1.6230 C   0  0  0  0  0  0  0  0  0  0  0  0
    8.7391    4.1551    1.5054 O   0  0  0  0  0  0  0  0  0  0  0  0
    6.2348    2.8832    1.9472 C   0  0  0  0  0  0  0  0  0  0  0  0
    3.2235   -1.7686   -0.8310 H   0  0  0  0  0  0  0  0  0  0  0  0
    3.4097   -1.6123    0.9255 H   0  0  0  0  0  0  0  0  0  0  0  0
    4.5948   -0.8776   -0.1612 H   0  0  0  0  0  0  0  0  0  0  0  0
    2.8899    0.7332   -0.9945 H   0  0  0  0  0  0  0  0  0  0  0  0
    0.9491   -0.6464    0.9469 H   0  0  0  0  0  0  0  0  0  0  0  0
    0.9319   -0.8553   -0.8121 H   0  0  0  0  0  0  0  0  0  0  0  0
    0.5858    0.7291   -0.1003 H   0  0  0  0  0  0  0  0  0  0  0  0
    4.9221    1.4001    0.2920 H   0  0  0  0  0  0  0  0  0  0  0  0
    3.4227    2.0124    3.6646 H   0  0  0  0  0  0  0  0  0  0  0  0
    4.4887    3.3646    5.3731 H   0  0  0  0  0  0  0  0  0  0  0  0
    6.6854    4.4169    4.9653 H   0  0  0  0  0  0  0  0  0  0  0  0
   11.3850    6.2300    4.3289 H   0  0  0  0  0  0  0  0  0  0  0  0
   13.1378    6.6421    2.5947 H   0  0  0  0  0  0  0  0  0  0  0  0
   12.8221    5.8590    0.2721 H   0  0  0  0  0  0  0  0  0  0  0  0
   10.7339    4.6246   -0.3852 H   0  0  0  0  0  0  0  0  0  0  0  0
    6.7283    2.7523    0.9874 H   0  0  0  0  0  0  0  0  0  0  0  0
  1  2  1  0  0  0  0
  1 22  1  0  0  0  0
  1 23  1  0  0  0  0
  1 24  1  0  0  0  0
  2  3  1  0  0  0  0
  2  4  1  0  0  0  0
  2 25  1  0  0  0  0
  3 26  1  0  0  0  0
  3 27  1  0  0  0  0
  3 28  1  0  0  0  0
  4  5  2  0  0  0  0
  4  6  1  0  0  0  0
  6  7  1  0  0  0  0
  6 29  1  0  0  0  0
  7  8  2  0  0  0  0
  7 21  1  0  0  0  0
  8  9  1  0  0  0  0
  8 30  1  0  0  0  0
  9 10  2  0  0  0  0
  9 31  1  0  0  0  0
 10 11  1  0  0  0  0
 10 32  1  0  0  0  0
 11 12  1  0  0  0  0
 11 21  2  0  0  0  0
 12 13  2  0  0  0  0
 12 20  1  0  0  0  0
 13 14  1  0  0  0  0
 14 15  2  0  0  0  0
 14 19  1  0  0  0  0
 15 16  1  0  0  0  0
 15 33  1  0  0  0  0
 16 17  2  0  0  0  0
 16 34  1  0  0  0  0
 17 18  1  0  0  0  0
 17 35  1  0  0  0  0
 18 19  2  0  0  0  0
 18 36  1  0  0  0  0
 19 20  1  0  0  0  0
 21 37  1  0  0  0  0
M  END
$$$$
