
 OpenBabel09162610133D

 32 35  0  0  1  0  0  0  0  0999 V2000
    1.3199    0.4504    0.3506 C   0  0  0  0  0  0  0  0  0  0  0  0
    2.8103    0.1417    0.1643 C   0  0  1  0  0  0  0  0  0  0  0  0
    3.6697    1.0367    1.0590 C   0  0  0  0  0  0  0  0  0  0  0  0
    4.8205   -0.0371    1.9485 S   0  0  0  0  0  0  0  0  0  0  0  0
    4.1298   -1.5064    1.3344 C   0  0  0  0  0  0  0  0  0  0  0  0
    4.5644   -2.6681    1.6977 N   0  0  0  0  0  0  0  0  0  0  0  0
    3.8917   -3.6996    1.1241 C   0  0  0  0  0  0  0  0  0  0  0  0
    4.2157   -5.3277    1.5244 S   0  0  0  0  0  0  0  0  0  0  0  0
    2.9897   -5.8898    0.4839 C   0  0  0  0  0  0  0  0  0  0  0  0
    2.3427   -4.8661   -0.1821 C   0  0  0  0  0  0  0  0  0  0  0  0
    2.8887   -3.5986    0.1818 C   0  0  0  0  0  0  0  0  0  0  0  0
    2.5151   -2.2752   -0.2757 C   0  0  0  0  0  0  0  0  0  0  0  0
    1.7559   -2.0929   -1.2196 O   0  0  0  0  0  0  0  0  0  0  0  0
    3.1107   -1.2521    0.4441 N   0  0  0  0  0  0  0  0  0  0  0  0
    1.1913   -5.1199   -1.1102 C   0  0  0  0  0  0  0  0  0  0  0  0
    1.1337   -6.5899   -1.5470 C   0  0  0  0  0  0  0  0  0  0  0  0
    1.3146   -7.5343   -0.3501 C   0  0  0  0  0  0  0  0  0  0  0  0
    2.6899   -7.3469    0.3125 C   0  0  0  0  0  0  0  0  0  0  0  0
    1.1190    1.5196    0.2354 H   0  0  0  0  0  0  0  0  0  0  0  0
    0.9711    0.1319    1.3394 H   0  0  0  0  0  0  0  0  0  0  0  0
    0.7059   -0.0714   -0.3902 H   0  0  0  0  0  0  0  0  0  0  0  0
    3.0662    0.3257   -0.8873 H   0  0  0  0  0  0  0  0  0  0  0  0
    3.0758    1.6000    1.7859 H   0  0  0  0  0  0  0  0  0  0  0  0
    4.2347    1.7564    0.4582 H   0  0  0  0  0  0  0  0  0  0  0  0
    1.2556   -4.4841   -1.9989 H   0  0  0  0  0  0  0  0  0  0  0  0
    0.2626   -4.8608   -0.5852 H   0  0  0  0  0  0  0  0  0  0  0  0
    1.9258   -6.7834   -2.2817 H   0  0  0  0  0  0  0  0  0  0  0  0
    0.1776   -6.7866   -2.0442 H   0  0  0  0  0  0  0  0  0  0  0  0
    1.2010   -8.5747   -0.6732 H   0  0  0  0  0  0  0  0  0  0  0  0
    0.5223   -7.3369    0.3841 H   0  0  0  0  0  0  0  0  0  0  0  0
    3.4616   -7.7928   -0.3270 H   0  0  0  0  0  0  0  0  0  0  0  0
    2.7076   -7.8721    1.2736 H   0  0  0  0  0  0  0  0  0  0  0  0
  1  2  1  0  0  0  0
  1 19  1  0  0  0  0
  1 20  1  0  0  0  0
  1 21  1  0  0  0  0
  2  3  1  0  0  0  0
  2 14  1  0  0  0  0
  2 22  1  6  0  0  0
  3  4  1  0  0  0  0
  3 23  1  0  0  0  0
  3 24  1  0  0  0  0
  4  5  1  0  0  0  0
  5  6  2  0  0  0  0
  5 14  1  0  0  0  0
  6  7  1  0  0  0  0
  7  8  1  0  0  0  0
  7 11  2  0  0  0  0
  8  9  1  0  0  0  0
  9 10  2  0  0  0  0
  9 18  1  0  0  0  0
 10 11  1  0  0  0  0
 10 15  1  0  0  0  0
 11 12  1  0  0  0  0
 12 13  2  0  0  0  0
 12 14  1  0  0  0  0
 15 16  1  0  0  0  0
 15 25  1  0  0  0  0
 15 26  1  0  0  0  0
 16 17  1  0  0  0  0
 16 27  1  0  0  0  0
 16 28  1  0  0  0  0
 17 18  1  0  0  0  0
 17 29  1  0  0  0  0
 17 30  1  0  0  0  0
 18 31  1  0  0  0  0
 18 32  1  0  0  0  0
M  END
$$$$
