
 OpenBabel09162610133D

 40 43  0  0  0  0  0  0  0  0999 V2000
    1.9876    1.4075    0.3547 C   0  0  0  0  0  0  0  0  0  0  0  0
    3.2571    0.6249    0.5888 C   0  0  0  0  0  0  0  0  0  0  0  0
    3.5215    0.1743    1.6976 O   0  0  0  0  0  0  0  0  0  0  0  0
    4.0082    0.4928   -0.5651 N   0  0  0  0  0  0  0  0  0  0  0  0
    5.2260   -0.2036   -0.7215 C   0  0  0  0  0  0  0  0  0  0  0  0
    5.8050   -1.0006    0.2601 C   0  0  0  0  0  0  0  0  0  0  0  0
    7.0130   -1.6544    0.0070 C   0  0  0  0  0  0  0  0  0  0  0  0
    7.6653   -1.4965   -1.2202 C   0  0  0  0  0  0  0  0  0  0  0  0
    7.1222   -0.6876   -2.2294 C   0  0  0  0  0  0  0  0  0  0  0  0
    7.8088   -0.4816   -3.5246 C   0  0  0  0  0  0  0  0  0  0  0  0
    7.6476    0.6896   -4.2579 C   0  0  0  0  0  0  0  0  0  0  0  0
    8.1942    0.8048   -5.5365 C   0  0  0  0  0  0  0  0  0  0  0  0
    8.0090    2.0919   -6.2922 C   0  0  0  0  0  0  0  0  0  0  0  0
    8.9049   -0.2866   -6.0659 C   0  0  0  0  0  0  0  0  0  0  0  0
    9.4037   -0.2878   -7.3866 C   0  0  0  0  0  0  0  0  0  0  0  0
   10.1884   -1.3389   -7.7892 C   0  0  0  0  0  0  0  0  0  0  0  0
   10.4810   -2.3736   -6.9426 C   0  0  0  0  0  0  0  0  0  0  0  0
    9.9530   -2.4360   -5.6678 C   0  0  0  0  0  0  0  0  0  0  0  0
    9.1333   -1.4055   -5.2133 C   0  0  0  0  0  0  0  0  0  0  0  0
    8.5874   -1.4989   -3.9828 N   0  0  0  0  0  0  0  0  0  0  0  0
   11.3202   -3.2790   -7.5155 O   0  0  0  0  0  0  0  0  0  0  0  0
   11.5826   -2.6412   -8.7850 C   0  0  0  0  0  0  0  0  0  0  0  0
   10.7717   -1.4705   -9.0082 O   0  0  0  0  0  0  0  0  0  0  0  0
    5.8781   -0.0742   -1.9573 C   0  0  0  0  0  0  0  0  0  0  0  0
    1.6231    1.8049    1.3064 H   0  0  0  0  0  0  0  0  0  0  0  0
    1.2295    0.7476   -0.0752 H   0  0  0  0  0  0  0  0  0  0  0  0
    2.1653    2.2517   -0.3184 H   0  0  0  0  0  0  0  0  0  0  0  0
    3.6712    0.9865   -1.3799 H   0  0  0  0  0  0  0  0  0  0  0  0
    5.3326   -1.1532    1.2250 H   0  0  0  0  0  0  0  0  0  0  0  0
    7.4511   -2.2894    0.7743 H   0  0  0  0  0  0  0  0  0  0  0  0
    8.6096   -2.0110   -1.3872 H   0  0  0  0  0  0  0  0  0  0  0  0
    7.0956    1.5248   -3.8374 H   0  0  0  0  0  0  0  0  0  0  0  0
    7.6185    2.8833   -5.6435 H   0  0  0  0  0  0  0  0  0  0  0  0
    7.3088    1.9509   -7.1199 H   0  0  0  0  0  0  0  0  0  0  0  0
    8.9707    2.4491   -6.6770 H   0  0  0  0  0  0  0  0  0  0  0  0
    9.1966    0.5152   -8.0846 H   0  0  0  0  0  0  0  0  0  0  0  0
   10.1827   -3.2752   -5.0198 H   0  0  0  0  0  0  0  0  0  0  0  0
   11.3988   -3.3609   -9.5900 H   0  0  0  0  0  0  0  0  0  0  0  0
   12.6362   -2.3371   -8.8178 H   0  0  0  0  0  0  0  0  0  0  0  0
    5.4036    0.5210   -2.7332 H   0  0  0  0  0  0  0  0  0  0  0  0
  1  2  1  0  0  0  0
  1 25  1  0  0  0  0
  1 26  1  0  0  0  0
  1 27  1  0  0  0  0
  2  3  2  0  0  0  0
  2  4  1  0  0  0  0
  4  5  1  0  0  0  0
  4 28  1  0  0  0  0
  5  6  2  0  0  0  0
  5 24  1  0  0  0  0
  6  7  1  0  0  0  0
  6 29  1  0  0  0  0
  7  8  2  0  0  0  0
  7 30  1  0  0  0  0
  8  9  1  0  0  0  0
  8 31  1  0  0  0  0
  9 10  1  0  0  0  0
  9 24  2  0  0  0  0
 10 11  2  0  0  0  0
 10 20  1  0  0  0  0
 11 12  1  0  0  0  0
 11 32  1  0  0  0  0
 12 13  1  0  0  0  0
 12 14  2  0  0  0  0
 13 33  1  0  0  0  0
 13 34  1  0  0  0  0
 13 35  1  0  0  0  0
 14 15  1  0  0  0  0
 14 19  1  0  0  0  0
 15 16  2  0  0  0  0
 15 36  1  0  0  0  0
 16 17  1  0  0  0  0
 16 23  1  0  0  0  0
 17 18  2  0  0  0  0
 17 21  1  0  0  0  0
 18 19  1  0  0  0  0
 18 37  1  0  0  0  0
 19 20  2  0  0  0  0
 21 22  1  0  0  0  0
 22 23  1  0  0  0  0
 22 38  1  0  0  0  0
 22 39  1  0  0  0  0
 24 40  1  0  0  0  0
M  END
$$$$
