
 OpenBabel09162610133D

 38 41  0  0  1  0  0  0  0  0999 V2000
    7.1187    1.1477    2.4945 C   0  0  0  0  0  0  0  0  0  0  0  0
    6.9445    0.1607    1.4734 O   0  0  0  0  0  0  0  0  0  0  0  0
    5.6483    0.0380    1.1004 C   0  0  0  0  0  0  0  0  0  0  0  0
    4.7294    0.7081    1.5717 O   0  0  0  0  0  0  0  0  0  0  0  0
    5.3940   -1.0102    0.0248 C   0  0  1  0  0  0  0  0  0  0  0  0
    4.6296   -0.3568   -1.1285 C   0  0  0  0  0  0  0  0  0  0  0  0
    5.8197   -0.2484   -2.4640 S   0  0  0  0  0  0  0  0  0  0  0  0
    6.6363   -1.8139   -1.9817 C   0  0  2  0  0  0  0  0  0  0  0  0
    8.0881   -1.8551   -2.4975 C   0  0  0  0  0  0  0  0  0  0  0  0
    9.1958   -2.0730   -1.6628 C   0  0  0  0  0  0  0  0  0  0  0  0
   10.4988   -2.1198   -2.1924 C   0  0  0  0  0  0  0  0  0  0  0  0
   10.7183   -1.9536   -3.5581 C   0  0  0  0  0  0  0  0  0  0  0  0
    9.6392   -1.7418   -4.4058 C   0  0  0  0  0  0  0  0  0  0  0  0
    8.3437   -1.6956   -3.8812 C   0  0  0  0  0  0  0  0  0  0  0  0
    5.8626   -3.0412   -2.4218 C   0  0  0  0  0  0  0  0  0  0  0  0
    5.2377   -3.3380   -3.6262 C   0  0  0  0  0  0  0  0  0  0  0  0
    4.4085   -4.4636   -3.6867 C   0  0  0  0  0  0  0  0  0  0  0  0
    4.2243   -5.2875   -2.5626 C   0  0  0  0  0  0  0  0  0  0  0  0
    4.8861   -5.0126   -1.3660 C   0  0  0  0  0  0  0  0  0  0  0  0
    5.7033   -3.8975   -1.3353 C   0  0  0  0  0  0  0  0  0  0  0  0
    6.2383   -3.2236   -0.1425 C   0  0  0  0  0  0  0  0  0  0  0  0
    6.1983   -3.6806    0.9814 O   0  0  0  0  0  0  0  0  0  0  0  0
    6.4722   -1.8838   -0.5107 N   0  0  0  0  0  0  0  0  0  0  0  0
    8.1711    1.1706    2.7847 H   0  0  0  0  0  0  0  0  0  0  0  0
    6.5215    0.8991    3.3800 H   0  0  0  0  0  0  0  0  0  0  0  0
    6.8393    2.1381    2.1172 H   0  0  0  0  0  0  0  0  0  0  0  0
    4.6722   -1.6689    0.5331 H   0  0  0  0  0  0  0  0  0  0  0  0
    4.2078    0.6264   -0.9036 H   0  0  0  0  0  0  0  0  0  0  0  0
    3.8125   -1.0084   -1.4602 H   0  0  0  0  0  0  0  0  0  0  0  0
    9.0740   -2.2134   -0.5922 H   0  0  0  0  0  0  0  0  0  0  0  0
   11.3463   -2.2947   -1.5319 H   0  0  0  0  0  0  0  0  0  0  0  0
   11.7280   -1.9894   -3.9619 H   0  0  0  0  0  0  0  0  0  0  0  0
    9.7981   -1.6072   -5.4731 H   0  0  0  0  0  0  0  0  0  0  0  0
    7.5258   -1.5223   -4.5772 H   0  0  0  0  0  0  0  0  0  0  0  0
    5.3305   -2.6846   -4.4887 H   0  0  0  0  0  0  0  0  0  0  0  0
    3.8665   -4.6813   -4.6049 H   0  0  0  0  0  0  0  0  0  0  0  0
    3.5283   -6.1223   -2.6166 H   0  0  0  0  0  0  0  0  0  0  0  0
    4.7022   -5.5977   -0.4701 H   0  0  0  0  0  0  0  0  0  0  0  0
  1  2  1  0  0  0  0
  1 24  1  0  0  0  0
  1 25  1  0  0  0  0
  1 26  1  0  0  0  0
  2  3  1  0  0  0  0
  3  4  2  0  0  0  0
  5  6  1  0  0  0  0
  5 23  1  0  0  0  0
  5  3  1  0  0  0  0
  5 27  1  1  0  0  0
  6  7  1  0  0  0  0
  6 28  1  0  0  0  0
  6 29  1  0  0  0  0
  7  8  1  0  0  0  0
  8  9  1  6  0  0  0
  8 15  1  0  0  0  0
  8 23  1  0  0  0  0
  9 10  2  0  0  0  0
  9 14  1  0  0  0  0
 10 11  1  0  0  0  0
 10 30  1  0  0  0  0
 11 12  2  0  0  0  0
 11 31  1  0  0  0  0
 12 13  1  0  0  0  0
 12 32  1  0  0  0  0
 13 14  2  0  0  0  0
 13 33  1  0  0  0  0
 14 34  1  0  0  0  0
 15 16  1  0  0  0  0
 15 20  2  0  0  0  0
 16 17  2  0  0  0  0
 16 35  1  0  0  0  0
 17 18  1  0  0  0  0
 17 36  1  0  0  0  0
 18 19  2  0  0  0  0
 18 37  1  0  0  0  0
 19 20  1  0  0  0  0
 19 38  1  0  0  0  0
 20 21  1  0  0  0  0
 21 22  2  0  0  0  0
 21 23  1  0  0  0  0
M  END
$$$$
