
 OpenBabel09162610133D

 34 36  0  0  0  0  0  0  0  0999 V2000
    2.3013   -0.0972   -1.1255 C   0  0  0  0  0  0  0  0  0  0  0  0
    0.8752   -0.0532   -0.6629 C   0  0  0  0  0  0  0  0  0  0  0  0
    0.2411    1.1518   -0.3477 C   0  0  0  0  0  0  0  0  0  0  0  0
   -1.0867    1.1606    0.0947 C   0  0  0  0  0  0  0  0  0  0  0  0
   -1.7999   -0.0354    0.2285 C   0  0  0  0  0  0  0  0  0  0  0  0
   -1.1743   -1.2451   -0.0813 C   0  0  0  0  0  0  0  0  0  0  0  0
   -1.8231   -2.5644    0.1359 C   0  0  0  0  0  0  0  0  0  0  0  0
   -1.0918   -3.4941    0.4707 O   0  0  0  0  0  0  0  0  0  0  0  0
   -3.1808   -2.6499   -0.1112 N   0  0  0  0  0  0  0  0  0  0  0  0
   -3.9669   -3.8351   -0.0147 C   0  0  0  0  0  0  0  0  0  0  0  0
   -3.5155   -4.9755    0.6653 C   0  0  0  0  0  0  0  0  0  0  0  0
   -4.2739   -6.1413    0.6862 C   0  0  0  0  0  0  0  0  0  0  0  0
   -5.4961   -6.1761    0.0301 C   0  0  0  0  0  0  0  0  0  0  0  0
   -5.9761   -5.0343   -0.6297 C   0  0  0  0  0  0  0  0  0  0  0  0
   -7.2073   -5.0654   -1.2937 C   0  0  0  0  0  0  0  0  0  0  0  0
   -7.6713   -3.9304   -1.9395 C   0  0  0  0  0  0  0  0  0  0  0  0
   -6.8853   -2.7941   -1.8968 C   0  0  0  0  0  0  0  0  0  0  0  0
   -5.6845   -2.7240   -1.2755 N   0  0  0  0  0  0  0  0  0  0  0  0
   -5.2231   -3.8343   -0.6472 C   0  0  0  0  0  0  0  0  0  0  0  0
    0.1581   -1.2468   -0.5253 C   0  0  0  0  0  0  0  0  0  0  0  0
    2.7512    0.9003   -1.1431 H   0  0  0  0  0  0  0  0  0  0  0  0
    2.3560   -0.5118   -2.1375 H   0  0  0  0  0  0  0  0  0  0  0  0
    2.8975   -0.7216   -0.4513 H   0  0  0  0  0  0  0  0  0  0  0  0
    0.7815    2.0927   -0.4304 H   0  0  0  0  0  0  0  0  0  0  0  0
   -1.5572    2.1058    0.3561 H   0  0  0  0  0  0  0  0  0  0  0  0
   -2.8145   -0.0095    0.6153 H   0  0  0  0  0  0  0  0  0  0  0  0
   -3.6527   -1.8857   -0.5890 H   0  0  0  0  0  0  0  0  0  0  0  0
   -2.5696   -4.9825    1.1979 H   0  0  0  0  0  0  0  0  0  0  0  0
   -3.9007   -7.0193    1.2071 H   0  0  0  0  0  0  0  0  0  0  0  0
   -6.0719   -7.0986    0.0386 H   0  0  0  0  0  0  0  0  0  0  0  0
   -7.8038   -5.9746   -1.3155 H   0  0  0  0  0  0  0  0  0  0  0  0
   -8.6207   -3.9342   -2.4630 H   0  0  0  0  0  0  0  0  0  0  0  0
   -7.2111   -1.8781   -2.3818 H   0  0  0  0  0  0  0  0  0  0  0  0
    0.6450   -2.1957   -0.7487 H   0  0  0  0  0  0  0  0  0  0  0  0
  1  2  1  0  0  0  0
  1 21  1  0  0  0  0
  1 22  1  0  0  0  0
  1 23  1  0  0  0  0
  2  3  2  0  0  0  0
  2 20  1  0  0  0  0
  3  4  1  0  0  0  0
  3 24  1  0  0  0  0
  4  5  2  0  0  0  0
  4 25  1  0  0  0  0
  5  6  1  0  0  0  0
  5 26  1  0  0  0  0
  6  7  1  0  0  0  0
  6 20  2  0  0  0  0
  7  8  2  0  0  0  0
  7  9  1  0  0  0  0
  9 10  1  0  0  0  0
  9 27  1  0  0  0  0
 10 11  2  0  0  0  0
 10 19  1  0  0  0  0
 11 12  1  0  0  0  0
 11 28  1  0  0  0  0
 12 13  2  0  0  0  0
 12 29  1  0  0  0  0
 13 14  1  0  0  0  0
 13 30  1  0  0  0  0
 14 15  1  0  0  0  0
 14 19  2  0  0  0  0
 15 16  2  0  0  0  0
 15 31  1  0  0  0  0
 16 17  1  0  0  0  0
 16 32  1  0  0  0  0
 17 18  2  0  0  0  0
 17 33  1  0  0  0  0
 18 19  1  0  0  0  0
 20 34  1  0  0  0  0
M  END
$$$$
