
 OpenBabel09162610133D

 31 34  0  0  0  0  0  0  0  0999 V2000
    1.4352    0.1350    0.6166 O   0  0  0  0  0  0  0  0  0  0  0  0
    2.6060   -0.0057    0.3301 C   0  0  0  0  0  0  0  0  0  0  0  0
    3.5587    0.9959    0.2832 N   0  0  0  0  0  0  0  0  0  0  0  0
    4.7879    0.5217   -0.1420 C   0  0  0  0  0  0  0  0  0  0  0  0
    5.9074    1.2542   -0.1518 N   0  0  0  0  0  0  0  0  0  0  0  0
    7.0273    0.5625   -0.4742 C   0  0  0  0  0  0  0  0  0  0  0  0
    7.0507   -0.7927   -0.8107 C   0  0  0  0  0  0  0  0  0  0  0  0
    5.8523   -1.5089   -0.8130 C   0  0  0  0  0  0  0  0  0  0  0  0
    4.7027   -0.8283   -0.4588 C   0  0  0  0  0  0  0  0  0  0  0  0
    3.3338   -1.2514   -0.1101 C   0  0  0  0  0  0  0  0  0  0  0  0
    3.0513   -2.5552    0.0124 C   0  0  0  0  0  0  0  0  0  0  0  0
    2.1317   -3.2315    0.8724 C   0  0  0  0  0  0  0  0  0  0  0  0
    1.2292   -2.6886    1.7559 C   0  0  0  0  0  0  0  0  0  0  0  0
    0.8205   -3.6826    2.6094 N   0  0  0  0  0  0  0  0  0  0  0  0
    1.4549   -4.8638    2.3052 C   0  0  0  0  0  0  0  0  0  0  0  0
    1.4491   -6.0934    2.9739 C   0  0  0  0  0  0  0  0  0  0  0  0
    2.2034   -7.1349    2.4238 C   0  0  0  0  0  0  0  0  0  0  0  0
    2.9117   -6.9611    1.2383 C   0  0  0  0  0  0  0  0  0  0  0  0
    2.9233   -5.7199    0.5957 C   0  0  0  0  0  0  0  0  0  0  0  0
    2.2026   -4.6378    1.1502 C   0  0  0  0  0  0  0  0  0  0  0  0
    3.3972    1.9511    0.5543 H   0  0  0  0  0  0  0  0  0  0  0  0
    7.9494    1.1355   -0.4340 H   0  0  0  0  0  0  0  0  0  0  0  0
    7.9907   -1.2877   -1.0316 H   0  0  0  0  0  0  0  0  0  0  0  0
    5.8564   -2.5700   -1.0250 H   0  0  0  0  0  0  0  0  0  0  0  0
    3.7648   -3.2387   -0.4418 H   0  0  0  0  0  0  0  0  0  0  0  0
    0.8843   -1.6799    1.9271 H   0  0  0  0  0  0  0  0  0  0  0  0
    0.2081   -3.5448    3.4007 H   0  0  0  0  0  0  0  0  0  0  0  0
    0.9036   -6.2321    3.9011 H   0  0  0  0  0  0  0  0  0  0  0  0
    2.2372   -8.0961    2.9314 H   0  0  0  0  0  0  0  0  0  0  0  0
    3.4793   -7.7873    0.8186 H   0  0  0  0  0  0  0  0  0  0  0  0
    3.5012   -5.5921   -0.3142 H   0  0  0  0  0  0  0  0  0  0  0  0
  1  2  2  0  0  0  0
  2  3  1  0  0  0  0
  2 10  1  0  0  0  0
  3  4  1  0  0  0  0
  3 21  1  0  0  0  0
  4  5  2  0  0  0  0
  4  9  1  0  0  0  0
  5  6  1  0  0  0  0
  6  7  2  0  0  0  0
  6 22  1  0  0  0  0
  7  8  1  0  0  0  0
  7 23  1  0  0  0  0
  8  9  2  0  0  0  0
  8 24  1  0  0  0  0
  9 10  1  0  0  0  0
 10 11  2  0  0  0  0
 11 12  1  0  0  0  0
 11 25  1  0  0  0  0
 12 13  2  0  0  0  0
 12 20  1  0  0  0  0
 13 14  1  0  0  0  0
 13 26  1  0  0  0  0
 14 15  1  0  0  0  0
 14 27  1  0  0  0  0
 15 16  2  0  0  0  0
 15 20  1  0  0  0  0
 16 17  1  0  0  0  0
 16 28  1  0  0  0  0
 17 18  2  0  0  0  0
 17 29  1  0  0  0  0
 18 19  1  0  0  0  0
 18 30  1  0  0  0  0
 19 20  2  0  0  0  0
 19 31  1  0  0  0  0
M  END
$$$$
