
 OpenBabel09162610133D

 33 34  0  0  1  0  0  0  0  0999 V2000
   -2.4332   -0.2628    0.8073 C   0  0  0  0  0  0  0  0  0  0  0  0
   -1.1072   -0.1468    0.0558 C   0  0  0  0  0  0  0  0  0  0  0  0
   -1.3156   -0.6032   -1.4050 C   0  0  0  0  0  0  0  0  0  0  0  0
   -0.5615    1.2750    0.0904 C   0  0  0  0  0  0  0  0  0  0  0  0
    0.8309    1.1518   -0.2082 O   0  0  0  0  0  0  0  0  0  0  0  0
    1.2330   -0.1222    0.0880 C   0  0  0  0  0  0  0  0  0  0  0  0
    2.3597   -0.5471   -0.1163 O   0  0  0  0  0  0  0  0  0  0  0  0
    0.0680   -0.9067    0.6930 C   0  0  1  0  0  0  0  0  0  0  0  0
    0.0051   -0.8124    2.1197 O   0  0  0  0  0  0  0  0  0  0  0  0
    1.1059   -1.2598    2.7980 C   0  0  0  0  0  0  0  0  0  0  0  0
    1.9051   -2.3213    2.3866 C   0  0  0  0  0  0  0  0  0  0  0  0
    3.0627   -2.6361    3.0981 C   0  0  0  0  0  0  0  0  0  0  0  0
    3.4318   -1.9098    4.2409 C   0  0  0  0  0  0  0  0  0  0  0  0
    4.6642   -2.2645    4.8750 C   0  0  0  0  0  0  0  0  0  0  0  0
    5.6639   -2.5834    5.3678 N   0  0  0  0  0  0  0  0  0  0  0  0
    2.6022   -0.8695    4.6986 C   0  0  0  0  0  0  0  0  0  0  0  0
    2.9203   -0.0239    5.9089 C   0  0  0  0  0  0  0  0  0  0  0  0
    4.0710   -0.3420    6.5534 F   0  0  0  0  0  0  0  0  0  0  0  0
    3.0309    1.2958    5.5892 F   0  0  0  0  0  0  0  0  0  0  0  0
    1.9398   -0.0939    6.8519 F   0  0  0  0  0  0  0  0  0  0  0  0
    1.4275   -0.5712    3.9708 C   0  0  0  0  0  0  0  0  0  0  0  0
   -3.2173    0.3151    0.3040 H   0  0  0  0  0  0  0  0  0  0  0  0
   -2.3616    0.1147    1.8324 H   0  0  0  0  0  0  0  0  0  0  0  0
   -2.7650   -1.3058    0.8547 H   0  0  0  0  0  0  0  0  0  0  0  0
   -2.1101   -0.0221   -1.8866 H   0  0  0  0  0  0  0  0  0  0  0  0
   -1.6008   -1.6602   -1.4469 H   0  0  0  0  0  0  0  0  0  0  0  0
   -0.4124   -0.4814   -2.0133 H   0  0  0  0  0  0  0  0  0  0  0  0
   -0.6606    1.7482    1.0741 H   0  0  0  0  0  0  0  0  0  0  0  0
   -1.0305    1.9241   -0.6553 H   0  0  0  0  0  0  0  0  0  0  0  0
    0.0610   -1.9500    0.3596 H   0  0  0  0  0  0  0  0  0  0  0  0
    1.6763   -2.9014    1.4991 H   0  0  0  0  0  0  0  0  0  0  0  0
    3.6972   -3.4439    2.7334 H   0  0  0  0  0  0  0  0  0  0  0  0
    0.7798    0.2404    4.3040 H   0  0  0  0  0  0  0  0  0  0  0  0
  1  2  1  0  0  0  0
  1 22  1  0  0  0  0
  1 23  1  0  0  0  0
  1 24  1  0  0  0  0
  2  3  1  0  0  0  0
  2  4  1  0  0  0  0
  2  8  1  0  0  0  0
  3 25  1  0  0  0  0
  3 26  1  0  0  0  0
  3 27  1  0  0  0  0
  4  5  1  0  0  0  0
  4 28  1  0  0  0  0
  4 29  1  0  0  0  0
  5  6  1  0  0  0  0
  6  7  2  0  0  0  0
  6  8  1  0  0  0  0
  8  9  1  0  0  0  0
  8 30  1  6  0  0  0
  9 10  1  0  0  0  0
 10 11  2  0  0  0  0
 10 21  1  0  0  0  0
 11 12  1  0  0  0  0
 11 31  1  0  0  0  0
 12 13  2  0  0  0  0
 12 32  1  0  0  0  0
 13 14  1  0  0  0  0
 13 16  1  0  0  0  0
 14 15  3  0  0  0  0
 16 17  1  0  0  0  0
 16 21  2  0  0  0  0
 17 18  1  0  0  0  0
 17 19  1  0  0  0  0
 17 20  1  0  0  0  0
 21 33  1  0  0  0  0
M  END
$$$$
