
 OpenBabel09162610133D

 36 39  0  0  1  0  0  0  0  0999 V2000
    1.1022   -0.0520    0.1417 C   0  0  0  0  0  0  0  0  0  0  0  0
    2.6091   -0.0514    0.0665 C   0  0  0  0  0  0  0  0  0  0  0  0
    3.3449   -0.0588    1.2634 C   0  0  0  0  0  0  0  0  0  0  0  0
    4.7226   -0.0530    1.1953 C   0  0  0  0  0  0  0  0  0  0  0  0
    5.3752   -0.0269   -0.0253 C   0  0  0  0  0  0  0  0  0  0  0  0
    4.7009   -0.0359   -1.2447 C   0  0  0  0  0  0  0  0  0  0  0  0
    5.4348   -0.0459   -2.5551 C   0  0  0  0  0  0  0  0  0  0  0  0
    3.2824   -0.0477   -1.1938 C   0  0  0  0  0  0  0  0  0  0  0  0
    2.4534   -0.0573   -2.4595 C   0  0  0  0  0  0  0  0  0  0  0  0
    6.7855   -0.0088    0.3060 C   0  0  0  0  0  0  0  0  0  0  0  0
    7.7093    0.0402   -0.4887 O   0  0  0  0  0  0  0  0  0  0  0  0
    6.8719   -0.0737    1.8219 C   0  0  2  0  0  0  0  0  0  0  0  0
    7.6114    1.0476    2.3270 O   0  0  0  0  0  0  0  0  0  0  0  0
    8.7762    0.6515    2.9158 C   0  0  0  0  0  0  0  0  0  0  0  0
    9.6330    1.3753    3.3818 O   0  0  0  0  0  0  0  0  0  0  0  0
    8.7871   -0.8046    2.9155 C   0  0  0  0  0  0  0  0  0  0  0  0
    9.7478   -1.6619    3.4225 C   0  0  0  0  0  0  0  0  0  0  0  0
    9.5267   -3.0326    3.2828 C   0  0  0  0  0  0  0  0  0  0  0  0
    8.3648   -3.5052    2.6483 C   0  0  0  0  0  0  0  0  0  0  0  0
    7.4100   -2.6141    2.1478 C   0  0  0  0  0  0  0  0  0  0  0  0
    7.6422   -1.2547    2.2934 C   0  0  0  0  0  0  0  0  0  0  0  0
    5.5189   -0.0906    2.3143 O   0  0  0  0  0  0  0  0  0  0  0  0
    0.7484   -0.0467    1.1780 H   0  0  0  0  0  0  0  0  0  0  0  0
    0.6978   -0.9485   -0.3389 H   0  0  0  0  0  0  0  0  0  0  0  0
    0.6969    0.8398   -0.3470 H   0  0  0  0  0  0  0  0  0  0  0  0
    2.8483   -0.0677    2.2300 H   0  0  0  0  0  0  0  0  0  0  0  0
    6.5194   -0.0530   -2.4499 H   0  0  0  0  0  0  0  0  0  0  0  0
    5.1787    0.8452   -3.1369 H   0  0  0  0  0  0  0  0  0  0  0  0
    5.1725   -0.9453   -3.1223 H   0  0  0  0  0  0  0  0  0  0  0  0
    3.0542   -0.0624   -3.3715 H   0  0  0  0  0  0  0  0  0  0  0  0
    1.8207    0.8350   -2.5009 H   0  0  0  0  0  0  0  0  0  0  0  0
    1.8256   -0.9537   -2.4896 H   0  0  0  0  0  0  0  0  0  0  0  0
   10.6429   -1.2784    3.9024 H   0  0  0  0  0  0  0  0  0  0  0  0
   10.2606   -3.7412    3.6611 H   0  0  0  0  0  0  0  0  0  0  0  0
    8.2135   -4.5774    2.5374 H   0  0  0  0  0  0  0  0  0  0  0  0
    6.5221   -2.9869    1.6451 H   0  0  0  0  0  0  0  0  0  0  0  0
  1  2  1  0  0  0  0
  1 23  1  0  0  0  0
  1 24  1  0  0  0  0
  1 25  1  0  0  0  0
  2  3  2  0  0  0  0
  2  8  1  0  0  0  0
  3  4  1  0  0  0  0
  3 26  1  0  0  0  0
  4  5  2  0  0  0  0
  4 22  1  0  0  0  0
  5  6  1  0  0  0  0
  5 10  1  0  0  0  0
  6  7  1  0  0  0  0
  6  8  2  0  0  0  0
  7 27  1  0  0  0  0
  7 28  1  0  0  0  0
  7 29  1  0  0  0  0
  8  9  1  0  0  0  0
  9 30  1  0  0  0  0
  9 31  1  0  0  0  0
  9 32  1  0  0  0  0
 10 11  2  0  0  0  0
 12 10  1  6  0  0  0
 12 13  1  0  0  0  0
 12 21  1  0  0  0  0
 12 22  1  0  0  0  0
 13 14  1  0  0  0  0
 14 15  2  0  0  0  0
 14 16  1  0  0  0  0
 16 17  1  0  0  0  0
 16 21  2  0  0  0  0
 17 18  2  0  0  0  0
 17 33  1  0  0  0  0
 18 19  1  0  0  0  0
 18 34  1  0  0  0  0
 19 20  2  0  0  0  0
 19 35  1  0  0  0  0
 20 21  1  0  0  0  0
 20 36  1  0  0  0  0
M  END
$$$$
