
 OpenBabel09162610133D

 39 41  0  0  0  0  0  0  0  0999 V2000
    4.8461   -7.6028   -2.3065 C   0  0  0  0  0  0  0  0  0  0  0  0
    4.3683   -6.1898   -2.5958 C   0  0  0  0  0  0  0  0  0  0  0  0
    4.9055   -5.1985   -1.5633 C   0  0  0  0  0  0  0  0  0  0  0  0
    4.4298   -3.7786   -1.8739 C   0  0  0  0  0  0  0  0  0  0  0  0
    5.0240   -2.7065   -0.9482 C   0  0  0  0  0  0  0  0  0  0  0  0
    6.5315   -2.6826   -0.8776 C   0  0  0  0  0  0  0  0  0  0  0  0
    7.3667   -2.2821   -2.0684 C   0  0  0  0  0  0  0  0  0  0  0  0
    6.6965   -1.8562   -3.3588 C   0  0  0  0  0  0  0  0  0  0  0  0
    8.6642   -2.2765   -2.0988 N   0  0  0  0  0  0  0  0  0  0  0  0
    9.3273   -2.6204   -0.9653 C   0  0  0  0  0  0  0  0  0  0  0  0
   10.6266   -2.6690   -0.7985 N   0  0  0  0  0  0  0  0  0  0  0  0
   10.8239   -3.0243    0.5002 C   0  0  0  0  0  0  0  0  0  0  0  0
   12.0454   -3.1955    1.1717 C   0  0  0  0  0  0  0  0  0  0  0  0
   12.0388   -3.5521    2.5186 C   0  0  0  0  0  0  0  0  0  0  0  0
   10.8340   -3.7470    3.1861 C   0  0  0  0  0  0  0  0  0  0  0  0
    9.6025   -3.5945    2.5307 C   0  0  0  0  0  0  0  0  0  0  0  0
    9.6145   -3.2190    1.1740 C   0  0  0  0  0  0  0  0  0  0  0  0
    8.6456   -2.9579    0.2057 N   0  0  0  0  0  0  0  0  0  0  0  0
    7.2352   -2.9872    0.2350 C   0  0  0  0  0  0  0  0  0  0  0  0
    6.5361   -3.3337    1.3827 O   0  0  0  0  0  0  0  0  0  0  0  0
    4.4607   -8.2948   -3.0616 H   0  0  0  0  0  0  0  0  0  0  0  0
    4.4991   -7.9395   -1.3248 H   0  0  0  0  0  0  0  0  0  0  0  0
    5.9395   -7.6571   -2.3226 H   0  0  0  0  0  0  0  0  0  0  0  0
    3.2728   -6.1691   -2.6010 H   0  0  0  0  0  0  0  0  0  0  0  0
    4.7032   -5.8985   -3.5980 H   0  0  0  0  0  0  0  0  0  0  0  0
    6.0002   -5.2456   -1.5727 H   0  0  0  0  0  0  0  0  0  0  0  0
    4.5760   -5.4857   -0.5581 H   0  0  0  0  0  0  0  0  0  0  0  0
    3.3364   -3.7400   -1.7851 H   0  0  0  0  0  0  0  0  0  0  0  0
    4.6527   -3.5448   -2.9192 H   0  0  0  0  0  0  0  0  0  0  0  0
    4.5934   -2.8568    0.0493 H   0  0  0  0  0  0  0  0  0  0  0  0
    4.6617   -1.7186   -1.2570 H   0  0  0  0  0  0  0  0  0  0  0  0
    5.6557   -1.5647   -3.2283 H   0  0  0  0  0  0  0  0  0  0  0  0
    6.7598   -2.6791   -4.0776 H   0  0  0  0  0  0  0  0  0  0  0  0
    7.2274   -0.9923   -3.7720 H   0  0  0  0  0  0  0  0  0  0  0  0
   12.9782   -3.0446    0.6359 H   0  0  0  0  0  0  0  0  0  0  0  0
   12.9819   -3.6792    3.0469 H   0  0  0  0  0  0  0  0  0  0  0  0
   10.8481   -4.0262    4.2387 H   0  0  0  0  0  0  0  0  0  0  0  0
    8.6985   -3.7743    3.0970 H   0  0  0  0  0  0  0  0  0  0  0  0
    7.1274   -3.2784    2.1457 H   0  0  0  0  0  0  0  0  0  0  0  0
  1  2  1  0  0  0  0
  1 21  1  0  0  0  0
  1 22  1  0  0  0  0
  1 23  1  0  0  0  0
  2  3  1  0  0  0  0
  2 24  1  0  0  0  0
  2 25  1  0  0  0  0
  3  4  1  0  0  0  0
  3 26  1  0  0  0  0
  3 27  1  0  0  0  0
  4  5  1  0  0  0  0
  4 28  1  0  0  0  0
  4 29  1  0  0  0  0
  5  6  1  0  0  0  0
  5 30  1  0  0  0  0
  5 31  1  0  0  0  0
  6  7  1  0  0  0  0
  6 19  2  0  0  0  0
  7  8  1  0  0  0  0
  7  9  2  0  0  0  0
  8 32  1  0  0  0  0
  8 33  1  0  0  0  0
  8 34  1  0  0  0  0
  9 10  1  0  0  0  0
 10 11  2  0  0  0  0
 10 18  1  0  0  0  0
 11 12  1  0  0  0  0
 12 13  1  0  0  0  0
 12 17  2  0  0  0  0
 13 14  2  0  0  0  0
 13 35  1  0  0  0  0
 14 15  1  0  0  0  0
 14 36  1  0  0  0  0
 15 16  2  0  0  0  0
 15 37  1  0  0  0  0
 16 17  1  0  0  0  0
 16 38  1  0  0  0  0
 17 18  1  0  0  0  0
 18 19  1  0  0  0  0
 19 20  1  0  0  0  0
 20 39  1  0  0  0  0
M  END
$$$$
