
 OpenBabel09162610133D

 40 42  0  0  0  0  0  0  0  0999 V2000
    1.2039   -0.1212    0.1839 C   0  0  0  0  0  0  0  0  0  0  0  0
    2.6422   -0.1068   -0.0559 N   0  0  0  0  0  0  0  0  0  0  0  0
    3.4552   -1.0185    0.7421 C   0  0  0  0  0  0  0  0  0  0  0  0
    3.2457    1.0051   -0.6452 C   0  0  0  0  0  0  0  0  0  0  0  0
    2.5255    2.1605   -0.9830 C   0  0  0  0  0  0  0  0  0  0  0  0
    3.1226    3.2629   -1.6168 C   0  0  0  0  0  0  0  0  0  0  0  0
    4.4765    3.2482   -1.9506 C   0  0  0  0  0  0  0  0  0  0  0  0
    5.1065    4.3167   -2.7598 C   0  0  0  0  0  0  0  0  0  0  0  0
    4.6749    5.5812   -2.8552 C   0  0  0  0  0  0  0  0  0  0  0  0
    5.3316    6.5746   -3.7378 C   0  0  0  0  0  0  0  0  0  0  0  0
    5.5805    7.8386   -3.1972 C   0  0  0  0  0  0  0  0  0  0  0  0
    6.2719    8.8024   -3.9308 C   0  0  0  0  0  0  0  0  0  0  0  0
    6.8109    8.4680   -5.1724 C   0  0  0  0  0  0  0  0  0  0  0  0
    6.5394    7.2292   -5.7539 C   0  0  0  0  0  0  0  0  0  0  0  0
    7.0501    6.9331   -7.0257 C   0  0  0  0  0  0  0  0  0  0  0  0
    6.5250    5.8918   -7.7699 C   0  0  0  0  0  0  0  0  0  0  0  0
    5.5650    5.0570   -7.2108 C   0  0  0  0  0  0  0  0  0  0  0  0
    5.2038    5.2245   -5.8752 C   0  0  0  0  0  0  0  0  0  0  0  0
    5.6798    6.3093   -5.1036 C   0  0  0  0  0  0  0  0  0  0  0  0
    5.2127    2.1129   -1.6221 C   0  0  0  0  0  0  0  0  0  0  0  0
    4.6093    1.0165   -0.9791 C   0  0  0  0  0  0  0  0  0  0  0  0
    0.8781   -1.0740    0.6164 H   0  0  0  0  0  0  0  0  0  0  0  0
    0.6540   -0.0076   -0.7575 H   0  0  0  0  0  0  0  0  0  0  0  0
    0.9079    0.6718    0.8788 H   0  0  0  0  0  0  0  0  0  0  0  0
    2.8374   -1.7538    1.2700 H   0  0  0  0  0  0  0  0  0  0  0  0
    4.0287   -0.4746    1.5011 H   0  0  0  0  0  0  0  0  0  0  0  0
    4.1402   -1.5910    0.1078 H   0  0  0  0  0  0  0  0  0  0  0  0
    1.4627    2.2399   -0.7667 H   0  0  0  0  0  0  0  0  0  0  0  0
    2.4936    4.1105   -1.8733 H   0  0  0  0  0  0  0  0  0  0  0  0
    5.9750    3.9928   -3.3236 H   0  0  0  0  0  0  0  0  0  0  0  0
    3.8534    5.9593   -2.2518 H   0  0  0  0  0  0  0  0  0  0  0  0
    5.2343    8.0930   -2.1986 H   0  0  0  0  0  0  0  0  0  0  0  0
    6.4021    9.8074   -3.5390 H   0  0  0  0  0  0  0  0  0  0  0  0
    7.3763    9.2235   -5.7214 H   0  0  0  0  0  0  0  0  0  0  0  0
    7.8416    7.5502   -7.4539 H   0  0  0  0  0  0  0  0  0  0  0  0
    6.8403    5.7499   -8.8037 H   0  0  0  0  0  0  0  0  0  0  0  0
    5.0924    4.2903   -7.8112 H   0  0  0  0  0  0  0  0  0  0  0  0
    4.4777    4.5288   -5.4484 H   0  0  0  0  0  0  0  0  0  0  0  0
    6.2702    2.0429   -1.8759 H   0  0  0  0  0  0  0  0  0  0  0  0
    5.2340    0.1491   -0.7838 H   0  0  0  0  0  0  0  0  0  0  0  0
  1  2  1  0  0  0  0
  1 22  1  0  0  0  0
  1 23  1  0  0  0  0
  1 24  1  0  0  0  0
  2  3  1  0  0  0  0
  2  4  1  0  0  0  0
  3 25  1  0  0  0  0
  3 26  1  0  0  0  0
  3 27  1  0  0  0  0
  4  5  2  0  0  0  0
  4 21  1  0  0  0  0
  5  6  1  0  0  0  0
  5 28  1  0  0  0  0
  6  7  2  0  0  0  0
  6 29  1  0  0  0  0
  7  8  1  0  0  0  0
  7 20  1  0  0  0  0
  8  9  2  0  0  0  0
  8 30  1  0  0  0  0
  9 10  1  0  0  0  0
  9 31  1  0  0  0  0
 10 11  2  0  0  0  0
 10 19  1  0  0  0  0
 11 12  1  0  0  0  0
 11 32  1  0  0  0  0
 12 13  2  0  0  0  0
 12 33  1  0  0  0  0
 13 14  1  0  0  0  0
 13 34  1  0  0  0  0
 14 15  1  0  0  0  0
 14 19  2  0  0  0  0
 15 16  2  0  0  0  0
 15 35  1  0  0  0  0
 16 17  1  0  0  0  0
 16 36  1  0  0  0  0
 17 18  2  0  0  0  0
 17 37  1  0  0  0  0
 18 19  1  0  0  0  0
 18 38  1  0  0  0  0
 20 21  2  0  0  0  0
 20 39  1  0  0  0  0
 21 40  1  0  0  0  0
M  END
$$$$
