
 OpenBabel09162610133D

 34 37  0  0  0  0  0  0  0  0999 V2000
    1.9381   -0.0666    0.7240 F   0  0  0  0  0  0  0  0  0  0  0  0
    0.6658   -0.1337    0.3091 C   0  0  0  0  0  0  0  0  0  0  0  0
   -0.0793    1.0447    0.3503 C   0  0  0  0  0  0  0  0  0  0  0  0
   -1.3782    1.0595   -0.1441 C   0  0  0  0  0  0  0  0  0  0  0  0
   -1.9206   -0.1063   -0.6790 C   0  0  0  0  0  0  0  0  0  0  0  0
   -1.1812   -1.2964   -0.6864 C   0  0  0  0  0  0  0  0  0  0  0  0
    0.1246   -1.3294   -0.1757 C   0  0  0  0  0  0  0  0  0  0  0  0
    0.8739   -2.5463   -0.1394 N   0  0  0  0  0  0  0  0  0  0  0  0
    1.7354   -3.0048    0.8607 C   0  0  0  0  0  0  0  0  0  0  0  0
    1.9652   -2.3637    2.4630 S   0  0  0  0  0  0  0  0  0  0  0  0
    2.2089   -4.1896    0.5575 N   0  0  0  0  0  0  0  0  0  0  0  0
    1.6375   -4.5835   -0.6058 N   0  0  0  0  0  0  0  0  0  0  0  0
    0.8300   -3.6280   -1.0354 C   0  0  0  0  0  0  0  0  0  0  0  0
    0.0752   -3.7686   -2.2808 C   0  0  0  0  0  0  0  0  0  0  0  0
   -0.4747   -5.0038   -2.6109 C   0  0  0  0  0  0  0  0  0  0  0  0
   -1.1500   -5.1338   -3.8174 C   0  0  0  0  0  0  0  0  0  0  0  0
   -1.2456   -4.0353   -4.6733 C   0  0  0  0  0  0  0  0  0  0  0  0
   -1.9109   -4.1269   -5.9069 C   0  0  0  0  0  0  0  0  0  0  0  0
   -1.9861   -3.0192   -6.7472 C   0  0  0  0  0  0  0  0  0  0  0  0
   -1.3995   -1.8203   -6.3559 C   0  0  0  0  0  0  0  0  0  0  0  0
   -0.7413   -1.7345   -5.1240 C   0  0  0  0  0  0  0  0  0  0  0  0
   -0.6477   -2.8201   -4.2649 C   0  0  0  0  0  0  0  0  0  0  0  0
   -0.0008   -2.6884   -3.0888 N   0  0  0  0  0  0  0  0  0  0  0  0
    0.3665    1.9469    0.7596 H   0  0  0  0  0  0  0  0  0  0  0  0
   -1.9619    1.9766   -0.1226 H   0  0  0  0  0  0  0  0  0  0  0  0
   -2.9290   -0.0953   -1.0876 H   0  0  0  0  0  0  0  0  0  0  0  0
   -1.6718   -2.1831   -1.0772 H   0  0  0  0  0  0  0  0  0  0  0  0
    1.6128   -1.0890    2.2781 H   0  0  0  0  0  0  0  0  0  0  0  0
   -0.3715   -5.8560   -1.9448 H   0  0  0  0  0  0  0  0  0  0  0  0
   -1.5820   -6.0941   -4.0867 H   0  0  0  0  0  0  0  0  0  0  0  0
   -2.3657   -5.0605   -6.2214 H   0  0  0  0  0  0  0  0  0  0  0  0
   -2.4958   -3.0931   -7.7045 H   0  0  0  0  0  0  0  0  0  0  0  0
   -1.4483   -0.9519   -7.0065 H   0  0  0  0  0  0  0  0  0  0  0  0
   -0.2824   -0.7922   -4.8302 H   0  0  0  0  0  0  0  0  0  0  0  0
  1  2  1  0  0  0  0
  2  3  2  0  0  0  0
  2  7  1  0  0  0  0
  3  4  1  0  0  0  0
  3 24  1  0  0  0  0
  4  5  2  0  0  0  0
  4 25  1  0  0  0  0
  5  6  1  0  0  0  0
  5 26  1  0  0  0  0
  6  7  2  0  0  0  0
  6 27  1  0  0  0  0
  7  8  1  0  0  0  0
  8  9  1  0  0  0  0
  8 13  1  0  0  0  0
  9 10  1  0  0  0  0
  9 11  2  0  0  0  0
 10 28  1  0  0  0  0
 11 12  1  0  0  0  0
 12 13  2  0  0  0  0
 13 14  1  0  0  0  0
 14 15  2  0  0  0  0
 14 23  1  0  0  0  0
 15 16  1  0  0  0  0
 15 29  1  0  0  0  0
 16 17  2  0  0  0  0
 16 30  1  0  0  0  0
 17 18  1  0  0  0  0
 17 22  1  0  0  0  0
 18 19  2  0  0  0  0
 18 31  1  0  0  0  0
 19 20  1  0  0  0  0
 19 32  1  0  0  0  0
 20 21  2  0  0  0  0
 20 33  1  0  0  0  0
 21 22  1  0  0  0  0
 21 34  1  0  0  0  0
 22 23  2  0  0  0  0
M  END
$$$$
