
 OpenBabel09162610133D

 35 38  0  0  0  0  0  0  0  0999 V2000
    0.9318   -0.1078    0.0319 C   0  0  0  0  0  0  0  0  0  0  0  0
    2.4638   -0.1171   -0.0135 C   0  0  0  0  0  0  0  0  0  0  0  0
    2.9750   -0.1070   -1.4579 C   0  0  0  0  0  0  0  0  0  0  0  0
    3.0199   -1.3050    0.7570 C   0  0  0  0  0  0  0  0  0  0  0  0
    2.8559   -2.6632    0.5239 C   0  0  0  0  0  0  0  0  0  0  0  0
    3.4729   -3.5654    1.3952 C   0  0  0  0  0  0  0  0  0  0  0  0
    4.2391   -3.1081    2.4782 C   0  0  0  0  0  0  0  0  0  0  0  0
    4.4020   -1.7409    2.7076 C   0  0  0  0  0  0  0  0  0  0  0  0
    3.7879   -0.8530    1.8410 C   0  0  0  0  0  0  0  0  0  0  0  0
    3.7939    0.5556    1.8511 N   0  0  0  0  0  0  0  0  0  0  0  0
    3.0433    1.0501    0.7918 C   0  0  0  0  0  0  0  0  0  0  0  0
    2.9118    2.3677    0.6019 C   0  0  0  0  0  0  0  0  0  0  0  0
    3.5629    3.2671    1.5202 C   0  0  0  0  0  0  0  0  0  0  0  0
    3.3589    4.6314    1.2321 O   0  0  0  0  0  0  0  0  0  0  0  0
    3.9176    5.5921    2.0259 C   0  0  0  0  0  0  0  0  0  0  0  0
    3.7663    6.7903    1.8144 O   0  0  0  0  0  0  0  0  0  0  0  0
    4.7266    5.1438    3.1700 C   0  0  0  0  0  0  0  0  0  0  0  0
    4.9019    3.8423    3.4162 C   0  0  0  0  0  0  0  0  0  0  0  0
    5.6515    3.3909    4.4750 O   0  0  0  0  0  0  0  0  0  0  0  0
    4.2993    2.8408    2.5635 C   0  0  0  0  0  0  0  0  0  0  0  0
    4.4522    1.3528    2.7822 C   0  0  0  0  0  0  0  0  0  0  0  0
    5.1132    0.9111    3.7207 O   0  0  0  0  0  0  0  0  0  0  0  0
    0.5125   -0.9805   -0.4813 H   0  0  0  0  0  0  0  0  0  0  0  0
    0.5250    0.7878   -0.4516 H   0  0  0  0  0  0  0  0  0  0  0  0
    0.5586   -0.1257    1.0634 H   0  0  0  0  0  0  0  0  0  0  0  0
    2.6211   -0.9839   -2.0121 H   0  0  0  0  0  0  0  0  0  0  0  0
    4.0712   -0.1161   -1.4992 H   0  0  0  0  0  0  0  0  0  0  0  0
    2.6307    0.7839   -1.9956 H   0  0  0  0  0  0  0  0  0  0  0  0
    2.2638   -3.0255   -0.3099 H   0  0  0  0  0  0  0  0  0  0  0  0
    3.3599   -4.6354    1.2370 H   0  0  0  0  0  0  0  0  0  0  0  0
    4.7122   -3.8220    3.1488 H   0  0  0  0  0  0  0  0  0  0  0  0
    4.9973   -1.4054    3.5499 H   0  0  0  0  0  0  0  0  0  0  0  0
    2.3298    2.7766   -0.2173 H   0  0  0  0  0  0  0  0  0  0  0  0
    5.1585    5.9243    3.7812 H   0  0  0  0  0  0  0  0  0  0  0  0
    6.0115    4.1325    4.9862 H   0  0  0  0  0  0  0  0  0  0  0  0
  1  2  1  0  0  0  0
  1 23  1  0  0  0  0
  1 24  1  0  0  0  0
  1 25  1  0  0  0  0
  2  3  1  0  0  0  0
  2  4  1  0  0  0  0
  2 11  1  0  0  0  0
  3 26  1  0  0  0  0
  3 27  1  0  0  0  0
  3 28  1  0  0  0  0
  4  5  2  0  0  0  0
  4  9  1  0  0  0  0
  5  6  1  0  0  0  0
  5 29  1  0  0  0  0
  6  7  2  0  0  0  0
  6 30  1  0  0  0  0
  7  8  1  0  0  0  0
  7 31  1  0  0  0  0
  8  9  2  0  0  0  0
  8 32  1  0  0  0  0
  9 10  1  0  0  0  0
 10 11  1  0  0  0  0
 10 21  1  0  0  0  0
 11 12  2  0  0  0  0
 12 13  1  0  0  0  0
 12 33  1  0  0  0  0
 13 14  1  0  0  0  0
 13 20  2  0  0  0  0
 14 15  1  0  0  0  0
 15 16  2  0  0  0  0
 15 17  1  0  0  0  0
 17 18  2  0  0  0  0
 17 34  1  0  0  0  0
 18 19  1  0  0  0  0
 18 20  1  0  0  0  0
 19 35  1  0  0  0  0
 20 21  1  0  0  0  0
 21 22  2  0  0  0  0
M  END
$$$$
