
 OpenBabel09162610133D

 27 28  0  0  0  0  0  0  0  0999 V2000
    0.8518    2.1626    0.2276 C   0  0  0  0  0  0  0  0  0  0  0  0
   -0.1258    1.0201    0.1350 C   0  0  0  0  0  0  0  0  0  0  0  0
    0.3270   -0.3057   -0.0400 C   0  0  0  0  0  0  0  0  0  0  0  0
    2.0088   -0.6975   -0.1644 Cl  0  0  0  0  0  0  0  0  0  0  0  0
   -0.5714   -1.3753   -0.1162 C   0  0  0  0  0  0  0  0  0  0  0  0
   -1.9378   -1.1427   -0.0444 C   0  0  0  0  0  0  0  0  0  0  0  0
   -2.4017    0.1622    0.1004 C   0  0  0  0  0  0  0  0  0  0  0  0
   -1.5194    1.2515    0.1802 C   0  0  0  0  0  0  0  0  0  0  0  0
   -2.1223    2.5041    0.4062 N   0  0  0  0  0  0  0  0  0  0  0  0
   -1.8772    3.4867   -0.3970 C   0  0  0  0  0  0  0  0  0  0  0  0
   -2.5296    4.7586   -0.1905 C   0  0  0  0  0  0  0  0  0  0  0  0
   -3.6575    5.0394    0.5578 C   0  0  0  0  0  0  0  0  0  0  0  0
   -4.0140    6.4229    0.5040 C   0  0  0  0  0  0  0  0  0  0  0  0
   -3.1199    7.1373   -0.2609 C   0  0  0  0  0  0  0  0  0  0  0  0
   -3.1561    8.5565   -0.5191 N   0  3  0  0  0  0  0  0  0  0  0  0
   -4.1277    9.1731   -0.0604 O   0  0  0  0  0  0  0  0  0  0  0  0
   -2.2308    9.0575   -1.1697 O   0  5  0  0  0  0  0  0  0  0  0  0
   -1.8982    6.1653   -0.9327 S   0  0  0  0  0  0  0  0  0  0  0  0
    1.8234    1.8549    0.6235 H   0  0  0  0  0  0  0  0  0  0  0  0
    0.4907    2.9360    0.9123 H   0  0  0  0  0  0  0  0  0  0  0  0
    1.0081    2.6005   -0.7635 H   0  0  0  0  0  0  0  0  0  0  0  0
   -0.2065   -2.3937   -0.2259 H   0  0  0  0  0  0  0  0  0  0  0  0
   -2.6399   -1.9711   -0.0927 H   0  0  0  0  0  0  0  0  0  0  0  0
   -3.4731    0.3409    0.1689 H   0  0  0  0  0  0  0  0  0  0  0  0
   -1.1766    3.3954   -1.2467 H   0  0  0  0  0  0  0  0  0  0  0  0
   -4.2107    4.2821    1.1029 H   0  0  0  0  0  0  0  0  0  0  0  0
   -4.8742    6.8551    1.0011 H   0  0  0  0  0  0  0  0  0  0  0  0
  1  2  1  0  0  0  0
  1 19  1  0  0  0  0
  1 20  1  0  0  0  0
  1 21  1  0  0  0  0
  2  3  2  0  0  0  0
  2  8  1  0  0  0  0
  3  4  1  0  0  0  0
  3  5  1  0  0  0  0
  5  6  2  0  0  0  0
  5 22  1  0  0  0  0
  6  7  1  0  0  0  0
  6 23  1  0  0  0  0
  7  8  2  0  0  0  0
  7 24  1  0  0  0  0
  8  9  1  0  0  0  0
  9 10  2  0  0  0  0
 10 11  1  0  0  0  0
 10 25  1  0  0  0  0
 11 12  2  0  0  0  0
 11 18  1  0  0  0  0
 12 13  1  0  0  0  0
 12 26  1  0  0  0  0
 13 14  2  0  0  0  0
 13 27  1  0  0  0  0
 14 15  1  0  0  0  0
 14 18  1  0  0  0  0
 15 16  2  0  0  0  0
 15 17  1  0  0  0  0
M  CHG  2  15   1  17  -1
M  END
$$$$
