
 OpenBabel09162610133D

 36 38  0  0  0  0  0  0  0  0999 V2000
    1.4193   -0.2918    0.0062 C   0  0  0  0  0  0  0  0  0  0  0  0
    0.5112   -1.2107    0.5208 C   0  0  0  0  0  0  0  0  0  0  0  0
   -0.8631   -0.9554    0.4506 C   0  0  0  0  0  0  0  0  0  0  0  0
   -1.3655    0.2289   -0.1225 C   0  0  0  0  0  0  0  0  0  0  0  0
   -2.8225    0.5069   -0.1941 C   0  0  0  0  0  0  0  0  0  0  0  0
   -3.7122    0.0290    0.7821 C   0  0  0  0  0  0  0  0  0  0  0  0
   -5.0867    0.2968    0.7213 C   0  0  0  0  0  0  0  0  0  0  0  0
   -5.6103    1.0664   -0.3147 C   0  0  0  0  0  0  0  0  0  0  0  0
   -6.9266    1.4104   -0.4742 O   0  0  0  0  0  0  0  0  0  0  0  0
   -7.8249    0.8894    0.5045 C   0  0  0  0  0  0  0  0  0  0  0  0
   -9.2387    1.3574    0.1913 C   0  0  0  0  0  0  0  0  0  0  0  0
  -10.1750    0.8327    1.1613 N   0  0  0  0  0  0  0  0  0  0  0  0
  -10.8341   -0.3609    1.0850 C   0  0  0  0  0  0  0  0  0  0  0  0
  -11.5136   -0.4650    2.2761 C   0  0  0  0  0  0  0  0  0  0  0  0
  -11.2889    0.6368    3.0612 N   0  0  0  0  0  0  0  0  0  0  0  0
  -10.4859    1.4057    2.3615 C   0  0  0  0  0  0  0  0  0  0  0  0
   -4.7487    1.5507   -1.2942 C   0  0  0  0  0  0  0  0  0  0  0  0
   -3.3772    1.2661   -1.2404 C   0  0  0  0  0  0  0  0  0  0  0  0
   -0.4197    1.1454   -0.6179 C   0  0  0  0  0  0  0  0  0  0  0  0
    0.9546    0.8873   -0.5655 C   0  0  0  0  0  0  0  0  0  0  0  0
    2.4858   -0.4922    0.0521 H   0  0  0  0  0  0  0  0  0  0  0  0
    0.8685   -2.1317    0.9747 H   0  0  0  0  0  0  0  0  0  0  0  0
   -1.5383   -1.7108    0.8442 H   0  0  0  0  0  0  0  0  0  0  0  0
   -3.3482   -0.5533    1.6253 H   0  0  0  0  0  0  0  0  0  0  0  0
   -5.7081   -0.1111    1.5104 H   0  0  0  0  0  0  0  0  0  0  0  0
   -7.5409    1.2489    1.5021 H   0  0  0  0  0  0  0  0  0  0  0  0
   -7.7957   -0.2078    0.4890 H   0  0  0  0  0  0  0  0  0  0  0  0
   -9.5522    1.0276   -0.8060 H   0  0  0  0  0  0  0  0  0  0  0  0
   -9.3053    2.4511    0.2007 H   0  0  0  0  0  0  0  0  0  0  0  0
  -10.7577   -1.0234    0.2329 H   0  0  0  0  0  0  0  0  0  0  0  0
  -12.1462   -1.2757    2.6128 H   0  0  0  0  0  0  0  0  0  0  0  0
  -10.0924    2.3618    2.6811 H   0  0  0  0  0  0  0  0  0  0  0  0
   -5.1376    2.1523   -2.1112 H   0  0  0  0  0  0  0  0  0  0  0  0
   -2.7498    1.6471   -2.0422 H   0  0  0  0  0  0  0  0  0  0  0  0
   -0.7399    2.0926   -1.0488 H   0  0  0  0  0  0  0  0  0  0  0  0
    1.6563    1.6116   -0.9682 H   0  0  0  0  0  0  0  0  0  0  0  0
  1  2  2  0  0  0  0
  1 20  1  0  0  0  0
  1 21  1  0  0  0  0
  2  3  1  0  0  0  0
  2 22  1  0  0  0  0
  3  4  2  0  0  0  0
  3 23  1  0  0  0  0
  4  5  1  0  0  0  0
  4 19  1  0  0  0  0
  5  6  2  0  0  0  0
  5 18  1  0  0  0  0
  6  7  1  0  0  0  0
  6 24  1  0  0  0  0
  7  8  2  0  0  0  0
  7 25  1  0  0  0  0
  8  9  1  0  0  0  0
  8 17  1  0  0  0  0
  9 10  1  0  0  0  0
 10 11  1  0  0  0  0
 10 26  1  0  0  0  0
 10 27  1  0  0  0  0
 11 12  1  0  0  0  0
 11 28  1  0  0  0  0
 11 29  1  0  0  0  0
 12 13  1  0  0  0  0
 12 16  1  0  0  0  0
 13 14  2  0  0  0  0
 13 30  1  0  0  0  0
 14 15  1  0  0  0  0
 14 31  1  0  0  0  0
 15 16  2  0  0  0  0
 16 32  1  0  0  0  0
 17 18  2  0  0  0  0
 17 33  1  0  0  0  0
 18 34  1  0  0  0  0
 19 20  2  0  0  0  0
 19 35  1  0  0  0  0
 20 36  1  0  0  0  0
M  END
$$$$
