
 OpenBabel09162610133D

 33 35  0  0  0  0  0  0  0  0999 V2000
    0.9108    0.0210   -0.0400 N   0  0  0  0  0  0  0  0  0  0  0  0
    2.1717    0.0210   -0.0400 C   0  0  0  0  0  0  0  0  0  0  0  0
    3.6917    0.0210   -0.0400 C   0  0  0  0  0  0  0  0  0  0  0  0
    4.3726   -0.7065   -0.9462 C   0  0  0  0  0  0  0  0  0  0  0  0
    3.7562   -1.4842   -1.9711 C   0  0  0  0  0  0  0  0  0  0  0  0
    3.2494   -2.7502   -1.7879 C   0  0  0  0  0  0  0  0  0  0  0  0
    2.6667   -3.1367   -2.9674 N   0  0  0  0  0  0  0  0  0  0  0  0
    2.7912   -2.1414   -3.9115 C   0  0  0  0  0  0  0  0  0  0  0  0
    2.3299   -2.0914   -5.2328 C   0  0  0  0  0  0  0  0  0  0  0  0
    2.5940   -0.9326   -5.9681 C   0  0  0  0  0  0  0  0  0  0  0  0
    3.2932    0.1318   -5.4035 C   0  0  0  0  0  0  0  0  0  0  0  0
    3.7448    0.0678   -4.0796 C   0  0  0  0  0  0  0  0  0  0  0  0
    3.4898   -1.0901   -3.3149 C   0  0  0  0  0  0  0  0  0  0  0  0
    4.4417    0.8373    0.9536 C   0  0  0  0  0  0  0  0  0  0  0  0
    5.5849    0.5407    1.2918 O   0  0  0  0  0  0  0  0  0  0  0  0
    3.7859    2.0255    1.5618 C   0  0  0  0  0  0  0  0  0  0  0  0
    4.0582    2.3170    2.9049 C   0  0  0  0  0  0  0  0  0  0  0  0
    3.4554    3.4166    3.5186 C   0  0  0  0  0  0  0  0  0  0  0  0
    2.5873    4.2318    2.7947 C   0  0  0  0  0  0  0  0  0  0  0  0
    2.3362    3.9646    1.4496 C   0  0  0  0  0  0  0  0  0  0  0  0
    2.9457    2.8730    0.8273 C   0  0  0  0  0  0  0  0  0  0  0  0
    5.4614   -0.6896   -0.9417 H   0  0  0  0  0  0  0  0  0  0  0  0
    3.2262   -3.4029   -0.9251 H   0  0  0  0  0  0  0  0  0  0  0  0
    2.1903   -4.0149   -3.1226 H   0  0  0  0  0  0  0  0  0  0  0  0
    1.7793   -2.9159   -5.6749 H   0  0  0  0  0  0  0  0  0  0  0  0
    2.2452   -0.8609   -6.9961 H   0  0  0  0  0  0  0  0  0  0  0  0
    3.4862    1.0235   -5.9944 H   0  0  0  0  0  0  0  0  0  0  0  0
    4.2836    0.9068   -3.6499 H   0  0  0  0  0  0  0  0  0  0  0  0
    4.7369    1.6881    3.4772 H   0  0  0  0  0  0  0  0  0  0  0  0
    3.6625    3.6362    4.5640 H   0  0  0  0  0  0  0  0  0  0  0  0
    2.1106    5.0827    3.2764 H   0  0  0  0  0  0  0  0  0  0  0  0
    1.6656    4.6073    0.8843 H   0  0  0  0  0  0  0  0  0  0  0  0
    2.7528    2.7119   -0.2303 H   0  0  0  0  0  0  0  0  0  0  0  0
  1  2  3  0  0  0  0
  2  3  1  0  0  0  0
  3  4  2  0  0  0  0
  3 14  1  0  0  0  0
  4  5  1  0  0  0  0
  4 22  1  0  0  0  0
  5  6  2  0  0  0  0
  5 13  1  0  0  0  0
  6  7  1  0  0  0  0
  6 23  1  0  0  0  0
  7  8  1  0  0  0  0
  7 24  1  0  0  0  0
  8  9  2  0  0  0  0
  8 13  1  0  0  0  0
  9 10  1  0  0  0  0
  9 25  1  0  0  0  0
 10 11  2  0  0  0  0
 10 26  1  0  0  0  0
 11 12  1  0  0  0  0
 11 27  1  0  0  0  0
 12 13  2  0  0  0  0
 12 28  1  0  0  0  0
 14 15  2  0  0  0  0
 14 16  1  0  0  0  0
 16 17  2  0  0  0  0
 16 21  1  0  0  0  0
 17 18  1  0  0  0  0
 17 29  1  0  0  0  0
 18 19  2  0  0  0  0
 18 30  1  0  0  0  0
 19 20  1  0  0  0  0
 19 31  1  0  0  0  0
 20 21  2  0  0  0  0
 20 32  1  0  0  0  0
 21 33  1  0  0  0  0
M  END
$$$$
