
 OpenBabel09162610133D

 33 36  0  0  0  0  0  0  0  0999 V2000
   -2.0674    0.0196   -0.1890 Cl  0  0  0  0  0  0  0  0  0  0  0  0
   -0.3491    0.0190   -0.1123 C   0  0  0  0  0  0  0  0  0  0  0  0
    0.3153   -1.0187    0.5387 C   0  0  0  0  0  0  0  0  0  0  0  0
    1.7123   -1.0232    0.5941 C   0  0  0  0  0  0  0  0  0  0  0  0
    2.4465    0.0111   -0.0019 C   0  0  0  0  0  0  0  0  0  0  0  0
    3.9069   -0.0075    0.0361 C   0  0  0  0  0  0  0  0  0  0  0  0
    4.6872    0.6065    1.1536 C   0  0  0  0  0  0  0  0  0  0  0  0
    5.9807    0.6061    1.2807 N   0  0  0  0  0  0  0  0  0  0  0  0
    6.6894   -0.0164    0.2828 C   0  0  0  0  0  0  0  0  0  0  0  0
    8.0438   -0.2351    0.0879 C   0  0  0  0  0  0  0  0  0  0  0  0
    9.1161    0.1661    0.9855 C   0  0  0  0  0  0  0  0  0  0  0  0
    8.9177    0.2646    2.3643 C   0  0  0  0  0  0  0  0  0  0  0  0
    9.9866    0.6217    3.1672 C   0  0  0  0  0  0  0  0  0  0  0  0
   11.2252    0.8831    2.6992 N   0  0  0  0  0  0  0  0  0  0  0  0
   11.3971    0.7856    1.3649 C   0  0  0  0  0  0  0  0  0  0  0  0
   10.3911    0.4333    0.4799 C   0  0  0  0  0  0  0  0  0  0  0  0
    8.1130   -0.9126   -1.1488 C   0  0  0  0  0  0  0  0  0  0  0  0
    6.9202   -1.1268   -1.7021 N   0  0  0  0  0  0  0  0  0  0  0  0
    6.0425   -0.5899   -0.8215 N   0  0  0  0  0  0  0  0  0  0  0  0
    4.6556   -0.5779   -0.9214 C   0  0  0  0  0  0  0  0  0  0  0  0
    1.7685    1.0506   -0.6506 C   0  0  0  0  0  0  0  0  0  0  0  0
    0.3715    1.0545   -0.7048 C   0  0  0  0  0  0  0  0  0  0  0  0
   -0.2468   -1.8270    0.9999 H   0  0  0  0  0  0  0  0  0  0  0  0
    2.2183   -1.8430    1.1008 H   0  0  0  0  0  0  0  0  0  0  0  0
    4.0853    1.1036    1.9338 H   0  0  0  0  0  0  0  0  0  0  0  0
    7.9545    0.0627    2.8195 H   0  0  0  0  0  0  0  0  0  0  0  0
    9.8697    0.7047    4.2442 H   0  0  0  0  0  0  0  0  0  0  0  0
   12.4006    1.0055    1.0113 H   0  0  0  0  0  0  0  0  0  0  0  0
   10.6115    0.3825   -0.5808 H   0  0  0  0  0  0  0  0  0  0  0  0
    8.9934   -1.2700   -1.6682 H   0  0  0  0  0  0  0  0  0  0  0  0
    4.2483   -1.0602   -1.8006 H   0  0  0  0  0  0  0  0  0  0  0  0
    2.3189    1.8625   -1.1222 H   0  0  0  0  0  0  0  0  0  0  0  0
   -0.1470    1.8636   -1.2130 H   0  0  0  0  0  0  0  0  0  0  0  0
  1  2  1  0  0  0  0
  2  3  2  0  0  0  0
  2 22  1  0  0  0  0
  3  4  1  0  0  0  0
  3 23  1  0  0  0  0
  4  5  2  0  0  0  0
  4 24  1  0  0  0  0
  5  6  1  0  0  0  0
  5 21  1  0  0  0  0
  6  7  1  0  0  0  0
  6 20  2  0  0  0  0
  7  8  2  0  0  0  0
  7 25  1  0  0  0  0
  8  9  1  0  0  0  0
  9 10  2  0  0  0  0
  9 19  1  0  0  0  0
 10 11  1  0  0  0  0
 10 17  1  0  0  0  0
 11 12  2  0  0  0  0
 11 16  1  0  0  0  0
 12 13  1  0  0  0  0
 12 26  1  0  0  0  0
 13 14  2  0  0  0  0
 13 27  1  0  0  0  0
 14 15  1  0  0  0  0
 15 16  2  0  0  0  0
 15 28  1  0  0  0  0
 16 29  1  0  0  0  0
 17 18  2  0  0  0  0
 17 30  1  0  0  0  0
 18 19  1  0  0  0  0
 19 20  1  0  0  0  0
 20 31  1  0  0  0  0
 21 22  2  0  0  0  0
 21 32  1  0  0  0  0
 22 33  1  0  0  0  0
M  END
$$$$
