
 OpenBabel09162610133D

 36 38  0  0  0  0  0  0  0  0999 V2000
    4.3574    1.5198   -4.8890 C   0  0  0  0  0  0  0  0  0  0  0  0
    5.3097    0.6090   -4.3475 O   0  0  0  0  0  0  0  0  0  0  0  0
    4.9099   -0.1216   -3.2600 C   0  0  0  0  0  0  0  0  0  0  0  0
    3.6241   -0.1150   -2.7109 C   0  0  0  0  0  0  0  0  0  0  0  0
    3.3354   -0.8909   -1.5891 C   0  0  0  0  0  0  0  0  0  0  0  0
    4.3328   -1.6725   -1.0125 C   0  0  0  0  0  0  0  0  0  0  0  0
    5.6265   -1.6927   -1.5558 C   0  0  0  0  0  0  0  0  0  0  0  0
    6.6550   -2.4971   -0.8404 C   0  0  0  0  0  0  0  0  0  0  0  0
    6.5052   -2.6189    0.3733 O   0  0  0  0  0  0  0  0  0  0  0  0
    7.6484   -3.0820   -1.6122 N   0  0  0  0  0  0  0  0  0  0  0  0
    8.6611   -3.9767   -1.1446 C   0  0  0  0  0  0  0  0  0  0  0  0
    8.8879   -4.1467    0.2299 C   0  0  0  0  0  0  0  0  0  0  0  0
    9.7849   -5.0961    0.7083 C   0  0  0  0  0  0  0  0  0  0  0  0
   10.4842   -5.8953   -0.1828 C   0  0  0  0  0  0  0  0  0  0  0  0
   10.3319   -5.7252   -1.5629 C   0  0  0  0  0  0  0  0  0  0  0  0
   11.0762   -6.5412   -2.4295 C   0  0  0  0  0  0  0  0  0  0  0  0
   10.9861   -6.3924   -3.8093 C   0  0  0  0  0  0  0  0  0  0  0  0
   10.1508   -5.4202   -4.3385 C   0  0  0  0  0  0  0  0  0  0  0  0
    9.3850   -4.6130   -3.4881 C   0  0  0  0  0  0  0  0  0  0  0  0
    9.4365   -4.7422   -2.0750 C   0  0  0  0  0  0  0  0  0  0  0  0
    5.9113   -0.9161   -2.6833 C   0  0  0  0  0  0  0  0  0  0  0  0
    4.8337    2.0497   -5.7193 H   0  0  0  0  0  0  0  0  0  0  0  0
    4.0566    2.2666   -4.1464 H   0  0  0  0  0  0  0  0  0  0  0  0
    3.4877    0.9887   -5.2899 H   0  0  0  0  0  0  0  0  0  0  0  0
    2.8242    0.4900   -3.1252 H   0  0  0  0  0  0  0  0  0  0  0  0
    2.3388   -0.8771   -1.1549 H   0  0  0  0  0  0  0  0  0  0  0  0
    4.1038   -2.2613   -0.1252 H   0  0  0  0  0  0  0  0  0  0  0  0
    7.5437   -3.0068   -2.6125 H   0  0  0  0  0  0  0  0  0  0  0  0
    8.3750   -3.5470    0.9746 H   0  0  0  0  0  0  0  0  0  0  0  0
    9.9239   -5.2159    1.7795 H   0  0  0  0  0  0  0  0  0  0  0  0
   11.1635   -6.6464    0.2142 H   0  0  0  0  0  0  0  0  0  0  0  0
   11.7410   -7.3053   -2.0305 H   0  0  0  0  0  0  0  0  0  0  0  0
   11.5734   -7.0306   -4.4645 H   0  0  0  0  0  0  0  0  0  0  0  0
   10.0909   -5.2871   -5.4155 H   0  0  0  0  0  0  0  0  0  0  0  0
    8.7574   -3.8642   -3.9611 H   0  0  0  0  0  0  0  0  0  0  0  0
    6.9137   -0.8774   -3.0990 H   0  0  0  0  0  0  0  0  0  0  0  0
  1  2  1  0  0  0  0
  1 22  1  0  0  0  0
  1 23  1  0  0  0  0
  1 24  1  0  0  0  0
  2  3  1  0  0  0  0
  3  4  2  0  0  0  0
  3 21  1  0  0  0  0
  4  5  1  0  0  0  0
  4 25  1  0  0  0  0
  5  6  2  0  0  0  0
  5 26  1  0  0  0  0
  6  7  1  0  0  0  0
  6 27  1  0  0  0  0
  7  8  1  0  0  0  0
  7 21  2  0  0  0  0
  8  9  2  0  0  0  0
  8 10  1  0  0  0  0
 10 11  1  0  0  0  0
 10 28  1  0  0  0  0
 11 12  2  0  0  0  0
 11 20  1  0  0  0  0
 12 13  1  0  0  0  0
 12 29  1  0  0  0  0
 13 14  2  0  0  0  0
 13 30  1  0  0  0  0
 14 15  1  0  0  0  0
 14 31  1  0  0  0  0
 15 16  1  0  0  0  0
 15 20  2  0  0  0  0
 16 17  2  0  0  0  0
 16 32  1  0  0  0  0
 17 18  1  0  0  0  0
 17 33  1  0  0  0  0
 18 19  2  0  0  0  0
 18 34  1  0  0  0  0
 19 20  1  0  0  0  0
 19 35  1  0  0  0  0
 21 36  1  0  0  0  0
M  END
$$$$
