
 OpenBabel09162610133D

 37 40  0  0  1  0  0  0  0  0999 V2000
    2.7820    0.0727    1.7609 C   0  0  0  0  0  0  0  0  0  0  0  0
    2.8396   -1.3682    2.1175 C   0  0  0  0  0  0  0  0  0  0  0  0
    3.2611   -1.8396    3.2743 N   0  0  0  0  0  0  0  0  0  0  0  0
    3.2070   -3.2007    3.1725 C   0  0  0  0  0  0  0  0  0  0  0  0
    2.7396   -3.5741    1.9390 C   0  0  0  0  0  0  0  0  0  0  0  0
    2.4939   -2.4019    1.2667 N   0  0  0  0  0  0  0  0  0  0  0  0
    2.1044   -2.2784   -0.1431 C   0  0  1  0  0  0  0  0  0  0  0  0
    2.9760   -3.1567   -1.0518 C   0  0  0  0  0  0  0  0  0  0  0  0
    0.6138   -2.4843   -0.4238 C   0  0  0  0  0  0  0  0  0  0  0  0
    0.1039   -1.9394   -1.6230 C   0  0  0  0  0  0  0  0  0  0  0  0
   -1.2282   -2.1031   -2.0177 C   0  0  0  0  0  0  0  0  0  0  0  0
   -2.0417   -2.8327   -1.1610 C   0  0  0  0  0  0  0  0  0  0  0  0
   -3.3569   -3.0981   -1.3782 O   0  0  0  0  0  0  0  0  0  0  0  0
   -3.7966   -3.8223   -0.3143 C   0  0  0  0  0  0  0  0  0  0  0  0
   -5.0985   -4.2884   -0.1479 C   0  0  0  0  0  0  0  0  0  0  0  0
   -5.3614   -5.0069    1.0211 C   0  0  0  0  0  0  0  0  0  0  0  0
   -4.3553   -5.2409    1.9633 C   0  0  0  0  0  0  0  0  0  0  0  0
   -3.0500   -4.7628    1.7645 C   0  0  0  0  0  0  0  0  0  0  0  0
   -2.7633   -4.0312    0.5950 C   0  0  0  0  0  0  0  0  0  0  0  0
   -1.6140   -3.3892    0.0384 C   0  0  0  0  0  0  0  0  0  0  0  0
   -0.2595   -3.2140    0.4137 C   0  0  0  0  0  0  0  0  0  0  0  0
    2.8962    0.6913    2.6566 H   0  0  0  0  0  0  0  0  0  0  0  0
    1.8271    0.3314    1.2949 H   0  0  0  0  0  0  0  0  0  0  0  0
    3.5951    0.3260    1.0724 H   0  0  0  0  0  0  0  0  0  0  0  0
    3.5189   -3.8394    3.9898 H   0  0  0  0  0  0  0  0  0  0  0  0
    2.5764   -4.5477    1.4968 H   0  0  0  0  0  0  0  0  0  0  0  0
    2.3305   -1.2389   -0.4128 H   0  0  0  0  0  0  0  0  0  0  0  0
    2.7860   -4.2235   -0.8930 H   0  0  0  0  0  0  0  0  0  0  0  0
    4.0400   -2.9709   -0.8658 H   0  0  0  0  0  0  0  0  0  0  0  0
    2.7845   -2.9455   -2.1097 H   0  0  0  0  0  0  0  0  0  0  0  0
    0.7590   -1.3738   -2.2850 H   0  0  0  0  0  0  0  0  0  0  0  0
   -1.6115   -1.6893   -2.9421 H   0  0  0  0  0  0  0  0  0  0  0  0
   -5.8642   -4.0958   -0.8901 H   0  0  0  0  0  0  0  0  0  0  0  0
   -6.3656   -5.3870    1.2004 H   0  0  0  0  0  0  0  0  0  0  0  0
   -4.5887   -5.7994    2.8665 H   0  0  0  0  0  0  0  0  0  0  0  0
   -2.2801   -4.9498    2.5065 H   0  0  0  0  0  0  0  0  0  0  0  0
    0.0770   -3.6516    1.3481 H   0  0  0  0  0  0  0  0  0  0  0  0
  1  2  1  0  0  0  0
  1 22  1  0  0  0  0
  1 23  1  0  0  0  0
  1 24  1  0  0  0  0
  2  3  2  0  0  0  0
  2  6  1  0  0  0  0
  3  4  1  0  0  0  0
  4  5  2  0  0  0  0
  4 25  1  0  0  0  0
  5  6  1  0  0  0  0
  5 26  1  0  0  0  0
  6  7  1  0  0  0  0
  7  8  1  0  0  0  0
  7  9  1  0  0  0  0
  7 27  1  6  0  0  0
  8 28  1  0  0  0  0
  8 29  1  0  0  0  0
  8 30  1  0  0  0  0
  9 10  2  0  0  0  0
  9 21  1  0  0  0  0
 10 11  1  0  0  0  0
 10 31  1  0  0  0  0
 11 12  2  0  0  0  0
 11 32  1  0  0  0  0
 12 13  1  0  0  0  0
 12 20  1  0  0  0  0
 13 14  1  0  0  0  0
 14 15  1  0  0  0  0
 14 19  2  0  0  0  0
 15 16  2  0  0  0  0
 15 33  1  0  0  0  0
 16 17  1  0  0  0  0
 16 34  1  0  0  0  0
 17 18  2  0  0  0  0
 17 35  1  0  0  0  0
 18 19  1  0  0  0  0
 18 36  1  0  0  0  0
 19 20  1  0  0  0  0
 20 21  2  0  0  0  0
 21 37  1  0  0  0  0
M  END
$$$$
