
 OpenBabel09162610133D

 38 40  0  0  0  0  0  0  0  0999 V2000
    1.8822    1.4427   -0.0229 C   0  0  0  0  0  0  0  0  0  0  0  0
    0.5890    0.6712   -0.0324 C   0  0  0  0  0  0  0  0  0  0  0  0
   -0.6172    1.3839   -0.0699 C   0  0  0  0  0  0  0  0  0  0  0  0
   -1.8338    0.7122   -0.0890 C   0  0  0  0  0  0  0  0  0  0  0  0
   -1.8621   -0.6803   -0.0696 C   0  0  0  0  0  0  0  0  0  0  0  0
   -0.6730   -1.4216   -0.0251 C   0  0  0  0  0  0  0  0  0  0  0  0
   -0.6301   -2.7964    0.0114 O   0  0  0  0  0  0  0  0  0  0  0  0
   -1.8795   -3.4800   -0.0658 C   0  0  0  0  0  0  0  0  0  0  0  0
   -1.6126   -4.9320    0.0352 C   0  0  0  0  0  0  0  0  0  0  0  0
   -1.4899   -5.8069    1.0849 C   0  0  0  0  0  0  0  0  0  0  0  0
   -1.3764   -7.0894    0.4835 C   0  0  0  0  0  0  0  0  0  0  0  0
   -1.2851   -8.3876    1.1524 C   0  0  0  0  0  0  0  0  0  0  0  0
   -1.7386   -9.5532    0.5177 C   0  0  0  0  0  0  0  0  0  0  0  0
   -1.6865  -10.7875    1.1718 C   0  0  0  0  0  0  0  0  0  0  0  0
   -1.1734  -10.8713    2.4644 C   0  0  0  0  0  0  0  0  0  0  0  0
   -0.7101   -9.7236    3.1032 C   0  0  0  0  0  0  0  0  0  0  0  0
   -0.7654   -8.4888    2.4524 C   0  0  0  0  0  0  0  0  0  0  0  0
   -1.4038   -6.9738   -0.8549 N   0  0  0  0  0  0  0  0  0  0  0  0
   -1.5420   -5.6269   -1.1291 O   0  0  0  0  0  0  0  0  0  0  0  0
    0.5660   -0.7462   -0.0079 C   0  0  0  0  0  0  0  0  0  0  0  0
    1.8680   -1.5088    0.0325 C   0  0  0  0  0  0  0  0  0  0  0  0
    1.7051    2.5241   -0.0405 H   0  0  0  0  0  0  0  0  0  0  0  0
    2.4798    1.1953   -0.9055 H   0  0  0  0  0  0  0  0  0  0  0  0
    2.4532    1.2201    0.8834 H   0  0  0  0  0  0  0  0  0  0  0  0
   -0.6160    2.4715   -0.0867 H   0  0  0  0  0  0  0  0  0  0  0  0
   -2.7632    1.2745   -0.1198 H   0  0  0  0  0  0  0  0  0  0  0  0
   -2.8390   -1.1512   -0.0886 H   0  0  0  0  0  0  0  0  0  0  0  0
   -2.3810   -3.2580   -1.0149 H   0  0  0  0  0  0  0  0  0  0  0  0
   -2.5230   -3.1908    0.7743 H   0  0  0  0  0  0  0  0  0  0  0  0
   -1.5317   -5.5612    2.1354 H   0  0  0  0  0  0  0  0  0  0  0  0
   -2.1491   -9.5074   -0.4898 H   0  0  0  0  0  0  0  0  0  0  0  0
   -2.0484  -11.6818    0.6707 H   0  0  0  0  0  0  0  0  0  0  0  0
   -1.1317  -11.8315    2.9723 H   0  0  0  0  0  0  0  0  0  0  0  0
   -0.3026   -9.7886    4.1092 H   0  0  0  0  0  0  0  0  0  0  0  0
   -0.3884   -7.6110    2.9714 H   0  0  0  0  0  0  0  0  0  0  0  0
    1.7286   -2.5934    0.0472 H   0  0  0  0  0  0  0  0  0  0  0  0
    2.4304   -1.2443    0.9338 H   0  0  0  0  0  0  0  0  0  0  0  0
    2.4690   -1.2738   -0.8524 H   0  0  0  0  0  0  0  0  0  0  0  0
  1  2  1  0  0  0  0
  1 22  1  0  0  0  0
  1 23  1  0  0  0  0
  1 24  1  0  0  0  0
  2  3  2  0  0  0  0
  2 20  1  0  0  0  0
  3  4  1  0  0  0  0
  3 25  1  0  0  0  0
  4  5  2  0  0  0  0
  4 26  1  0  0  0  0
  5  6  1  0  0  0  0
  5 27  1  0  0  0  0
  6  7  1  0  0  0  0
  6 20  2  0  0  0  0
  7  8  1  0  0  0  0
  8  9  1  0  0  0  0
  8 28  1  0  0  0  0
  8 29  1  0  0  0  0
  9 10  2  0  0  0  0
  9 19  1  0  0  0  0
 10 11  1  0  0  0  0
 10 30  1  0  0  0  0
 11 12  1  0  0  0  0
 11 18  2  0  0  0  0
 12 13  2  0  0  0  0
 12 17  1  0  0  0  0
 13 14  1  0  0  0  0
 13 31  1  0  0  0  0
 14 15  2  0  0  0  0
 14 32  1  0  0  0  0
 15 16  1  0  0  0  0
 15 33  1  0  0  0  0
 16 17  2  0  0  0  0
 16 34  1  0  0  0  0
 17 35  1  0  0  0  0
 18 19  1  0  0  0  0
 20 21  1  0  0  0  0
 21 36  1  0  0  0  0
 21 37  1  0  0  0  0
 21 38  1  0  0  0  0
M  END
$$$$
