
 OpenBabel09162610133D

 34 37  0  0  0  0  0  0  0  0999 V2000
   -2.3283    1.8678   -0.0394 O   0  0  0  0  0  0  0  0  0  0  0  0
   -1.8622    0.7376   -0.0038 C   0  0  0  0  0  0  0  0  0  0  0  0
   -2.7145   -0.4809   -0.0027 C   0  0  0  0  0  0  0  0  0  0  0  0
   -4.1801   -0.4066   -0.0293 C   0  0  0  0  0  0  0  0  0  0  0  0
   -4.8619   -0.3764   -1.2547 C   0  0  0  0  0  0  0  0  0  0  0  0
   -6.2581   -0.3206   -1.2863 C   0  0  0  0  0  0  0  0  0  0  0  0
   -6.9808   -0.2896   -0.0961 C   0  0  0  0  0  0  0  0  0  0  0  0
   -6.3090   -0.3420    1.1294 C   0  0  0  0  0  0  0  0  0  0  0  0
   -4.9144   -0.3916    1.1641 C   0  0  0  0  0  0  0  0  0  0  0  0
   -6.9549   -0.3385    2.3394 O   0  0  0  0  0  0  0  0  0  0  0  0
   -8.3521   -0.6161    2.1944 C   0  0  0  0  0  0  0  0  0  0  0  0
   -8.9498    0.1652    1.0358 C   0  0  0  0  0  0  0  0  0  0  0  0
   -8.3454   -0.2177   -0.2048 O   0  0  0  0  0  0  0  0  0  0  0  0
   -2.0975   -1.6721    0.0047 C   0  0  0  0  0  0  0  0  0  0  0  0
   -0.7402   -1.8916    0.0012 O   0  0  0  0  0  0  0  0  0  0  0  0
    0.0837   -0.7929    0.0063 C   0  0  0  0  0  0  0  0  0  0  0  0
    1.4598   -1.0312   -0.0129 C   0  0  0  0  0  0  0  0  0  0  0  0
    2.3364    0.0506   -0.0001 C   0  0  0  0  0  0  0  0  0  0  0  0
    3.6878   -0.1276   -0.0349 O   0  0  0  0  0  0  0  0  0  0  0  0
    1.8606    1.3582    0.0460 C   0  0  0  0  0  0  0  0  0  0  0  0
    0.4845    1.5948    0.0586 C   0  0  0  0  0  0  0  0  0  0  0  0
   -0.4029    0.5139    0.0274 C   0  0  0  0  0  0  0  0  0  0  0  0
   -4.3107   -0.3836   -2.1926 H   0  0  0  0  0  0  0  0  0  0  0  0
   -6.7802   -0.2845   -2.2393 H   0  0  0  0  0  0  0  0  0  0  0  0
   -4.4085   -0.4194    2.1258 H   0  0  0  0  0  0  0  0  0  0  0  0
   -8.8441   -0.3336    3.1307 H   0  0  0  0  0  0  0  0  0  0  0  0
   -8.4786   -1.6968    2.0558 H   0  0  0  0  0  0  0  0  0  0  0  0
   -8.8208    1.2461    1.1696 H   0  0  0  0  0  0  0  0  0  0  0  0
  -10.0222   -0.0418    0.9584 H   0  0  0  0  0  0  0  0  0  0  0  0
   -2.6212   -2.6209    0.0056 H   0  0  0  0  0  0  0  0  0  0  0  0
    1.8264   -2.0523   -0.0408 H   0  0  0  0  0  0  0  0  0  0  0  0
    3.8831   -1.0772   -0.0983 H   0  0  0  0  0  0  0  0  0  0  0  0
    2.5591    2.1910    0.0645 H   0  0  0  0  0  0  0  0  0  0  0  0
    0.1102    2.6157    0.0882 H   0  0  0  0  0  0  0  0  0  0  0  0
  1  2  2  0  0  0  0
  2  3  1  0  0  0  0
  2 22  1  0  0  0  0
  3  4  1  0  0  0  0
  3 14  2  0  0  0  0
  4  5  2  0  0  0  0
  4  9  1  0  0  0  0
  5  6  1  0  0  0  0
  5 23  1  0  0  0  0
  6  7  2  0  0  0  0
  6 24  1  0  0  0  0
  7  8  1  0  0  0  0
  7 13  1  0  0  0  0
  8  9  2  0  0  0  0
  8 10  1  0  0  0  0
  9 25  1  0  0  0  0
 10 11  1  0  0  0  0
 11 12  1  0  0  0  0
 11 26  1  0  0  0  0
 11 27  1  0  0  0  0
 12 13  1  0  0  0  0
 12 28  1  0  0  0  0
 12 29  1  0  0  0  0
 14 15  1  0  0  0  0
 14 30  1  0  0  0  0
 15 16  1  0  0  0  0
 16 17  1  0  0  0  0
 16 22  2  0  0  0  0
 17 18  2  0  0  0  0
 17 31  1  0  0  0  0
 18 19  1  0  0  0  0
 18 20  1  0  0  0  0
 19 32  1  0  0  0  0
 20 21  2  0  0  0  0
 20 33  1  0  0  0  0
 21 22  1  0  0  0  0
 21 34  1  0  0  0  0
M  END
$$$$
