
 OpenBabel09162610133D

 34 36  0  0  0  0  0  0  0  0999 V2000
    1.1657   -0.2803    0.4043 N   0  0  0  0  0  0  0  0  0  0  0  0
    2.4682   -0.0093    0.0902 C   0  0  0  0  0  0  0  0  0  0  0  0
    3.0000   -0.5114   -0.8911 O   0  0  0  0  0  0  0  0  0  0  0  0
    3.1823    0.9611    0.9577 C   0  0  0  0  0  0  0  0  0  0  0  0
    2.8525    1.1285    2.3057 C   0  0  0  0  0  0  0  0  0  0  0  0
    3.5486    2.0589    3.0823 C   0  0  0  0  0  0  0  0  0  0  0  0
    4.5857    2.8259    2.5277 C   0  0  0  0  0  0  0  0  0  0  0  0
    5.3046    3.7568    3.2998 C   0  0  0  0  0  0  0  0  0  0  0  0
    6.3766    4.5024    2.7718 C   0  0  0  0  0  0  0  0  0  0  0  0
    7.1727    5.4189    3.6229 C   0  0  0  0  0  0  0  0  0  0  0  0
    7.7210    6.6162    3.1130 C   0  0  0  0  0  0  0  0  0  0  0  0
    8.5147    7.4602    3.9026 C   0  0  0  0  0  0  0  0  0  0  0  0
    8.7564    7.1194    5.2243 C   0  0  0  0  0  0  0  0  0  0  0  0
    9.5284    7.8929    6.0449 O   0  0  0  0  0  0  0  0  0  0  0  0
    8.2118    5.9565    5.7539 C   0  0  0  0  0  0  0  0  0  0  0  0
    8.4447    5.6247    7.0582 O   0  0  0  0  0  0  0  0  0  0  0  0
    7.4362    5.1105    4.9707 C   0  0  0  0  0  0  0  0  0  0  0  0
    6.6845    4.3104    1.4154 C   0  0  0  0  0  0  0  0  0  0  0  0
    5.9703    3.4029    0.6245 C   0  0  0  0  0  0  0  0  0  0  0  0
    4.9275    2.6466    1.1705 C   0  0  0  0  0  0  0  0  0  0  0  0
    4.2240    1.7095    0.3974 C   0  0  0  0  0  0  0  0  0  0  0  0
    0.6552   -0.8445   -0.2644 H   0  0  0  0  0  0  0  0  0  0  0  0
    0.6302    0.3024    1.0294 H   0  0  0  0  0  0  0  0  0  0  0  0
    2.0805    0.5249    2.7739 H   0  0  0  0  0  0  0  0  0  0  0  0
    3.2867    2.1695    4.1326 H   0  0  0  0  0  0  0  0  0  0  0  0
    5.0220    3.8943    4.3423 H   0  0  0  0  0  0  0  0  0  0  0  0
    7.5309    6.9096    2.0822 H   0  0  0  0  0  0  0  0  0  0  0  0
    8.9262    8.3640    3.4654 H   0  0  0  0  0  0  0  0  0  0  0  0
    9.8719    8.6378    5.5223 H   0  0  0  0  0  0  0  0  0  0  0  0
    9.0076    6.3491    7.3979 H   0  0  0  0  0  0  0  0  0  0  0  0
    7.0600    4.1965    5.4223 H   0  0  0  0  0  0  0  0  0  0  0  0
    7.5108    4.8464    0.9535 H   0  0  0  0  0  0  0  0  0  0  0  0
    6.2517    3.2821   -0.4196 H   0  0  0  0  0  0  0  0  0  0  0  0
    4.4841    1.5569   -0.6487 H   0  0  0  0  0  0  0  0  0  0  0  0
  1  2  1  0  0  0  0
  1 22  1  0  0  0  0
  1 23  1  0  0  0  0
  2  3  2  0  0  0  0
  2  4  1  0  0  0  0
  4  5  2  0  0  0  0
  4 21  1  0  0  0  0
  5  6  1  0  0  0  0
  5 24  1  0  0  0  0
  6  7  2  0  0  0  0
  6 25  1  0  0  0  0
  7  8  1  0  0  0  0
  7 20  1  0  0  0  0
  8  9  2  0  0  0  0
  8 26  1  0  0  0  0
  9 10  1  0  0  0  0
  9 18  1  0  0  0  0
 10 11  2  0  0  0  0
 10 17  1  0  0  0  0
 11 12  1  0  0  0  0
 11 27  1  0  0  0  0
 12 13  2  0  0  0  0
 12 28  1  0  0  0  0
 13 14  1  0  0  0  0
 13 15  1  0  0  0  0
 14 29  1  0  0  0  0
 15 16  1  0  0  0  0
 15 17  2  0  0  0  0
 16 30  1  0  0  0  0
 17 31  1  0  0  0  0
 18 19  2  0  0  0  0
 18 32  1  0  0  0  0
 19 20  1  0  0  0  0
 19 33  1  0  0  0  0
 20 21  2  0  0  0  0
 21 34  1  0  0  0  0
M  END
$$$$
