
 OpenBabel09162610133D

 35 38  0  0  1  0  0  0  0  0999 V2000
   -1.6320   -2.0946   -0.4423 O   0  0  0  0  0  0  0  0  0  0  0  0
   -1.3509   -0.9092   -0.2815 C   0  0  0  0  0  0  0  0  0  0  0  0
    0.0634   -0.5102   -0.1352 C   0  0  0  0  0  0  0  0  0  0  0  0
    1.0677   -1.4774   -0.0301 C   0  0  0  0  0  0  0  0  0  0  0  0
    2.4030   -1.0812    0.0267 C   0  0  0  0  0  0  0  0  0  0  0  0
    2.7320    0.2740   -0.0361 C   0  0  0  0  0  0  0  0  0  0  0  0
    1.7262    1.2390   -0.1356 C   0  0  0  0  0  0  0  0  0  0  0  0
    0.3899    0.8477   -0.1615 C   0  0  0  0  0  0  0  0  0  0  0  0
   -0.5501    1.8428   -0.2432 O   0  0  0  0  0  0  0  0  0  0  0  0
   -1.7994    1.4436    0.3559 C   0  0  1  0  0  0  0  0  0  0  0  0
   -2.7487    2.6322    0.2805 C   0  0  0  0  0  0  0  0  0  0  0  0
   -3.0683    3.2492   -0.9401 C   0  0  0  0  0  0  0  0  0  0  0  0
   -4.0227    4.2690   -0.9912 C   0  0  0  0  0  0  0  0  0  0  0  0
   -4.6579    4.6943    0.1753 C   0  0  0  0  0  0  0  0  0  0  0  0
   -4.3299    4.1055    1.3931 C   0  0  0  0  0  0  0  0  0  0  0  0
   -5.1080    4.6296    2.8352 Cl  0  0  0  0  0  0  0  0  0  0  0  0
   -3.3839    3.0826    1.4505 C   0  0  0  0  0  0  0  0  0  0  0  0
   -2.3602    0.2102   -0.3590 C   0  0  2  0  0  0  0  0  0  0  0  0
   -3.6374   -0.2103    0.1793 N   0  0  0  0  0  0  0  0  0  0  0  0
   -4.8182   -0.3123   -0.4883 C   0  0  0  0  0  0  0  0  0  0  0  0
   -5.7641   -0.6660    0.3494 N   0  0  0  0  0  0  0  0  0  0  0  0
   -5.1033   -0.7563    1.5398 C   0  0  0  0  0  0  0  0  0  0  0  0
   -3.8042   -0.4509    1.4958 N   0  0  0  0  0  0  0  0  0  0  0  0
    0.8140   -2.5359   -0.0010 H   0  0  0  0  0  0  0  0  0  0  0  0
    3.1882   -1.8299    0.1090 H   0  0  0  0  0  0  0  0  0  0  0  0
    3.7753    0.5800   -0.0035 H   0  0  0  0  0  0  0  0  0  0  0  0
    1.9894    2.2927   -0.1796 H   0  0  0  0  0  0  0  0  0  0  0  0
   -1.5984    1.2300    1.4171 H   0  0  0  0  0  0  0  0  0  0  0  0
   -2.5851    2.9367   -1.8640 H   0  0  0  0  0  0  0  0  0  0  0  0
   -4.2779    4.7303   -1.9426 H   0  0  0  0  0  0  0  0  0  0  0  0
   -5.4068    5.4806    0.1294 H   0  0  0  0  0  0  0  0  0  0  0  0
   -3.1617    2.6176    2.4095 H   0  0  0  0  0  0  0  0  0  0  0  0
   -2.5018    0.4149   -1.4289 H   0  0  0  0  0  0  0  0  0  0  0  0
   -4.9336   -0.1191   -1.5455 H   0  0  0  0  0  0  0  0  0  0  0  0
   -5.5860   -1.0446    2.4649 H   0  0  0  0  0  0  0  0  0  0  0  0
  1  2  2  0  0  0  0
  2  3  1  0  0  0  0
  2 18  1  0  0  0  0
  3  4  1  0  0  0  0
  3  8  2  0  0  0  0
  4  5  2  0  0  0  0
  4 24  1  0  0  0  0
  5  6  1  0  0  0  0
  5 25  1  0  0  0  0
  6  7  2  0  0  0  0
  6 26  1  0  0  0  0
  7  8  1  0  0  0  0
  7 27  1  0  0  0  0
  8  9  1  0  0  0  0
  9 10  1  0  0  0  0
 10 18  1  0  0  0  0
 10 11  1  0  0  0  0
 10 28  1  1  0  0  0
 11 12  2  0  0  0  0
 11 17  1  0  0  0  0
 12 13  1  0  0  0  0
 12 29  1  0  0  0  0
 13 14  2  0  0  0  0
 13 30  1  0  0  0  0
 14 15  1  0  0  0  0
 14 31  1  0  0  0  0
 15 16  1  0  0  0  0
 15 17  2  0  0  0  0
 17 32  1  0  0  0  0
 18 19  1  0  0  0  0
 18 33  1  6  0  0  0
 19 20  1  0  0  0  0
 19 23  1  0  0  0  0
 20 21  2  0  0  0  0
 20 34  1  0  0  0  0
 21 22  1  0  0  0  0
 22 23  2  0  0  0  0
 22 35  1  0  0  0  0
M  END
$$$$
