
 OpenBabel09162610133D

 41 43  0  0  0  0  0  0  0  0999 V2000
    0.9942    0.4263    0.3989 S   0  0  0  0  0  0  0  0  0  0  0  0
    2.6559    0.2313    0.1318 C   0  0  0  0  0  0  0  0  0  0  0  0
    3.4745   -0.6150    0.9246 N   0  0  0  0  0  0  0  0  0  0  0  0
    4.8311   -0.1742    1.2736 C   0  0  0  0  0  0  0  0  0  0  0  0
    5.9310   -1.0674    0.7025 C   0  0  0  0  0  0  0  0  0  0  0  0
    6.1132   -2.4000    1.4171 C   0  0  0  0  0  0  0  0  0  0  0  0
    4.8509   -3.2543    1.4875 C   0  0  0  0  0  0  0  0  0  0  0  0
    3.8051   -2.6621    2.4257 C   0  0  0  0  0  0  0  0  0  0  0  0
    2.8663   -1.6510    1.7685 C   0  0  0  0  0  0  0  0  0  0  0  0
    3.3166    0.9330   -0.8867 N   0  0  0  0  0  0  0  0  0  0  0  0
    2.7886    2.0815   -1.6208 C   0  0  0  0  0  0  0  0  0  0  0  0
    3.8858    2.4184   -2.6044 C   0  0  0  0  0  0  0  0  0  0  0  0
    4.6468    1.1233   -2.5782 C   0  0  0  0  0  0  0  0  0  0  0  0
    5.6728    0.7964   -3.5955 C   0  0  0  0  0  0  0  0  0  0  0  0
    6.0826    1.7386   -4.5461 C   0  0  0  0  0  0  0  0  0  0  0  0
    7.0414    1.3948   -5.5039 C   0  0  0  0  0  0  0  0  0  0  0  0
    7.5916    0.1156   -5.5184 C   0  0  0  0  0  0  0  0  0  0  0  0
    7.1898   -0.8263   -4.5714 C   0  0  0  0  0  0  0  0  0  0  0  0
    6.2316   -0.4871   -3.6132 C   0  0  0  0  0  0  0  0  0  0  0  0
    4.3463    0.3376   -1.5873 N   0  0  0  0  0  0  0  0  0  0  0  0
    4.9025   -0.1067    2.3659 H   0  0  0  0  0  0  0  0  0  0  0  0
    4.9884    0.8510    0.9195 H   0  0  0  0  0  0  0  0  0  0  0  0
    6.8806   -0.5213    0.7646 H   0  0  0  0  0  0  0  0  0  0  0  0
    5.7565   -1.2692   -0.3576 H   0  0  0  0  0  0  0  0  0  0  0  0
    6.4992   -2.2228    2.4287 H   0  0  0  0  0  0  0  0  0  0  0  0
    6.8899   -2.9662    0.8881 H   0  0  0  0  0  0  0  0  0  0  0  0
    5.1404   -4.2386    1.8759 H   0  0  0  0  0  0  0  0  0  0  0  0
    4.4350   -3.4204    0.4869 H   0  0  0  0  0  0  0  0  0  0  0  0
    4.2929   -2.2101    3.2980 H   0  0  0  0  0  0  0  0  0  0  0  0
    3.1855   -3.4770    2.8219 H   0  0  0  0  0  0  0  0  0  0  0  0
    2.3047   -1.1468    2.5647 H   0  0  0  0  0  0  0  0  0  0  0  0
    2.1402   -2.1967    1.1533 H   0  0  0  0  0  0  0  0  0  0  0  0
    2.5751    2.9025   -0.9304 H   0  0  0  0  0  0  0  0  0  0  0  0
    1.8678    1.7922   -2.1380 H   0  0  0  0  0  0  0  0  0  0  0  0
    4.5314    3.2194   -2.2294 H   0  0  0  0  0  0  0  0  0  0  0  0
    3.4940    2.6715   -3.5920 H   0  0  0  0  0  0  0  0  0  0  0  0
    5.6743    2.7442   -4.5616 H   0  0  0  0  0  0  0  0  0  0  0  0
    7.3567    2.1272   -6.2436 H   0  0  0  0  0  0  0  0  0  0  0  0
    8.3358   -0.1507   -6.2653 H   0  0  0  0  0  0  0  0  0  0  0  0
    7.6158   -1.8263   -4.5810 H   0  0  0  0  0  0  0  0  0  0  0  0
    5.9182   -1.2350   -2.8867 H   0  0  0  0  0  0  0  0  0  0  0  0
  1  2  2  0  0  0  0
  2  3  1  0  0  0  0
  2 10  1  0  0  0  0
  3  4  1  0  0  0  0
  3  9  1  0  0  0  0
  4  5  1  0  0  0  0
  4 21  1  0  0  0  0
  4 22  1  0  0  0  0
  5  6  1  0  0  0  0
  5 23  1  0  0  0  0
  5 24  1  0  0  0  0
  6  7  1  0  0  0  0
  6 25  1  0  0  0  0
  6 26  1  0  0  0  0
  7  8  1  0  0  0  0
  7 27  1  0  0  0  0
  7 28  1  0  0  0  0
  8  9  1  0  0  0  0
  8 29  1  0  0  0  0
  8 30  1  0  0  0  0
  9 31  1  0  0  0  0
  9 32  1  0  0  0  0
 10 11  1  0  0  0  0
 10 20  1  0  0  0  0
 11 12  1  0  0  0  0
 11 33  1  0  0  0  0
 11 34  1  0  0  0  0
 12 13  1  0  0  0  0
 12 35  1  0  0  0  0
 12 36  1  0  0  0  0
 13 14  1  0  0  0  0
 13 20  2  0  0  0  0
 14 15  2  0  0  0  0
 14 19  1  0  0  0  0
 15 16  1  0  0  0  0
 15 37  1  0  0  0  0
 16 17  2  0  0  0  0
 16 38  1  0  0  0  0
 17 18  1  0  0  0  0
 17 39  1  0  0  0  0
 18 19  2  0  0  0  0
 18 40  1  0  0  0  0
 19 41  1  0  0  0  0
M  END
$$$$
