
 OpenBabel09162610133D

 26 28  0  0  1  0  0  0  0  0999 V2000
    1.4883   -0.2766   -1.0530 O   0  0  0  0  0  0  0  0  0  0  0  0
    2.4884   -0.0772   -0.3679 C   0  0  0  0  0  0  0  0  0  0  0  0
    3.1349    1.2967   -0.2802 C   0  0  0  0  0  0  0  0  0  0  0  0
    3.7747    1.5810    1.0817 C   0  0  1  0  0  0  0  0  0  0  0  0
    2.7798    2.1245    2.0997 C   0  0  0  0  0  0  0  0  0  0  0  0
    1.6498    1.3974    2.5135 C   0  0  0  0  0  0  0  0  0  0  0  0
    0.7330    1.9483    3.4123 C   0  0  0  0  0  0  0  0  0  0  0  0
    0.9309    3.2311    3.9175 C   0  0  0  0  0  0  0  0  0  0  0  0
    2.0517    3.9566    3.5265 C   0  0  0  0  0  0  0  0  0  0  0  0
    2.3241    5.6986    4.2091 Br  0  0  0  0  0  0  0  0  0  0  0  0
    2.9726    3.4137    2.6277 C   0  0  0  0  0  0  0  0  0  0  0  0
    4.4451    0.3887    1.5691 N   0  0  0  0  0  0  0  0  0  0  0  0
    5.4575    0.3850    2.4501 N   0  0  0  0  0  0  0  0  0  0  0  0
    5.6569   -0.9307    2.5901 C   0  0  0  0  0  0  0  0  0  0  0  0
    4.8517   -1.7375    1.8244 N   0  0  0  0  0  0  0  0  0  0  0  0
    4.1188   -0.8733    1.1709 C   0  0  0  0  0  0  0  0  0  0  0  0
    3.1266   -1.1096    0.2668 N   0  0  0  0  0  0  0  0  0  0  0  0
    2.3925    2.0618   -0.5353 H   0  0  0  0  0  0  0  0  0  0  0  0
    3.9076    1.3153   -1.0605 H   0  0  0  0  0  0  0  0  0  0  0  0
    4.5687    2.3245    0.9272 H   0  0  0  0  0  0  0  0  0  0  0  0
    1.4547    0.3914    2.1490 H   0  0  0  0  0  0  0  0  0  0  0  0
   -0.1395    1.3740    3.7163 H   0  0  0  0  0  0  0  0  0  0  0  0
    0.2091    3.6518    4.6124 H   0  0  0  0  0  0  0  0  0  0  0  0
    3.8414    4.0006    2.3374 H   0  0  0  0  0  0  0  0  0  0  0  0
    6.4091   -1.3190    3.2668 H   0  0  0  0  0  0  0  0  0  0  0  0
    2.8082   -2.0597    0.1280 H   0  0  0  0  0  0  0  0  0  0  0  0
  1  2  2  0  0  0  0
  2  3  1  0  0  0  0
  2 17  1  0  0  0  0
  3  4  1  0  0  0  0
  3 18  1  0  0  0  0
  3 19  1  0  0  0  0
  4  5  1  0  0  0  0
  4 12  1  0  0  0  0
  4 20  1  6  0  0  0
  5  6  2  0  0  0  0
  5 11  1  0  0  0  0
  6  7  1  0  0  0  0
  6 21  1  0  0  0  0
  7  8  2  0  0  0  0
  7 22  1  0  0  0  0
  8  9  1  0  0  0  0
  8 23  1  0  0  0  0
  9 10  1  0  0  0  0
  9 11  2  0  0  0  0
 11 24  1  0  0  0  0
 12 13  1  0  0  0  0
 12 16  1  0  0  0  0
 13 14  2  0  0  0  0
 14 15  1  0  0  0  0
 14 25  1  0  0  0  0
 15 16  2  0  0  0  0
 16 17  1  0  0  0  0
 17 26  1  0  0  0  0
M  END
$$$$
