
 OpenBabel09162610133D

 29 32  0  0  0  0  0  0  0  0999 V2000
    1.4336    0.4362   -0.0385 N   0  0  0  0  0  0  0  0  0  0  0  0
    2.7633    0.2418   -0.0270 C   0  0  0  0  0  0  0  0  0  0  0  0
    3.4465   -1.3401   -0.0148 S   0  0  0  0  0  0  0  0  0  0  0  0
    5.0861   -0.7657    0.0334 C   0  0  0  0  0  0  0  0  0  0  0  0
    6.1920   -1.7148    0.1159 C   0  0  0  0  0  0  0  0  0  0  0  0
    7.3487   -1.5791   -0.6284 C   0  0  0  0  0  0  0  0  0  0  0  0
    8.4669   -2.3161   -0.4492 N   0  0  0  0  0  0  0  0  0  0  0  0
    8.3859   -3.2690    0.4901 C   0  0  0  0  0  0  0  0  0  0  0  0
    7.2985   -3.5625    1.2169 N   0  0  0  0  0  0  0  0  0  0  0  0
    6.2202   -2.7737    1.0058 C   0  0  0  0  0  0  0  0  0  0  0  0
    5.0708    0.6051    0.0074 C   0  0  0  0  0  0  0  0  0  0  0  0
    3.7633    1.1707   -0.0228 C   0  0  0  0  0  0  0  0  0  0  0  0
    3.8465    2.6153   -0.0244 C   0  0  0  0  0  0  0  0  0  0  0  0
    2.9385    3.4317   -0.0322 O   0  0  0  0  0  0  0  0  0  0  0  0
    5.3171    2.8985    0.0016 C   0  0  0  0  0  0  0  0  0  0  0  0
    5.9521    4.1276   -0.0019 C   0  0  0  0  0  0  0  0  0  0  0  0
    7.3494    4.1274    0.0218 C   0  0  0  0  0  0  0  0  0  0  0  0
    8.0698    2.9205    0.0748 C   0  0  0  0  0  0  0  0  0  0  0  0
    7.4137    1.6834    0.1051 C   0  0  0  0  0  0  0  0  0  0  0  0
    6.0344    1.6774    0.0412 C   0  0  0  0  0  0  0  0  0  0  0  0
    0.7803   -0.3368    0.0397 H   0  0  0  0  0  0  0  0  0  0  0  0
    1.0279    1.3677    0.0325 H   0  0  0  0  0  0  0  0  0  0  0  0
    7.4357   -0.8218   -1.4034 H   0  0  0  0  0  0  0  0  0  0  0  0
    9.2815   -3.8485    0.6850 H   0  0  0  0  0  0  0  0  0  0  0  0
    5.3610   -3.0213    1.6241 H   0  0  0  0  0  0  0  0  0  0  0  0
    5.3867    5.0528   -0.0266 H   0  0  0  0  0  0  0  0  0  0  0  0
    7.8923    5.0699    0.0073 H   0  0  0  0  0  0  0  0  0  0  0  0
    9.1583    2.9449    0.0964 H   0  0  0  0  0  0  0  0  0  0  0  0
    8.0065    0.7819    0.1837 H   0  0  0  0  0  0  0  0  0  0  0  0
  1  2  1  0  0  0  0
  1 21  1  0  0  0  0
  1 22  1  0  0  0  0
  2  3  1  0  0  0  0
  2 12  2  0  0  0  0
  3  4  1  0  0  0  0
  4  5  1  0  0  0  0
  4 11  2  0  0  0  0
  5  6  2  0  0  0  0
  5 10  1  0  0  0  0
  6  7  1  0  0  0  0
  6 23  1  0  0  0  0
  7  8  2  0  0  0  0
  8  9  1  0  0  0  0
  8 24  1  0  0  0  0
  9 10  2  0  0  0  0
 10 25  1  0  0  0  0
 11 12  1  0  0  0  0
 11 20  1  0  0  0  0
 12 13  1  0  0  0  0
 13 14  2  0  0  0  0
 13 15  1  0  0  0  0
 15 16  1  0  0  0  0
 15 20  2  0  0  0  0
 16 17  2  0  0  0  0
 16 26  1  0  0  0  0
 17 18  1  0  0  0  0
 17 27  1  0  0  0  0
 18 19  2  0  0  0  0
 18 28  1  0  0  0  0
 19 20  1  0  0  0  0
 19 29  1  0  0  0  0
M  END
$$$$
