
 OpenBabel09162610133D

 33 36  0  0  0  0  0  0  0  0999 V2000
    1.2642    0.6004    0.4434 C   0  0  0  0  0  0  0  0  0  0  0  0
    2.3658   -0.1525   -0.0565 O   0  0  0  0  0  0  0  0  0  0  0  0
    3.0195    0.3643   -1.1529 C   0  0  0  0  0  0  0  0  0  0  0  0
    2.6346    1.5211   -1.8231 C   0  0  0  0  0  0  0  0  0  0  0  0
    3.3752    1.9688   -2.9189 C   0  0  0  0  0  0  0  0  0  0  0  0
    4.5114    1.2783   -3.3660 C   0  0  0  0  0  0  0  0  0  0  0  0
    5.2515    1.7297   -4.4682 C   0  0  0  0  0  0  0  0  0  0  0  0
    6.3534    1.0852   -4.9283 N   0  0  0  0  0  0  0  0  0  0  0  0
    6.7239   -0.0414   -4.2914 C   0  0  0  0  0  0  0  0  0  0  0  0
    6.0504   -0.5674   -3.2037 C   0  0  0  0  0  0  0  0  0  0  0  0
    4.9171    0.0983   -2.7004 C   0  0  0  0  0  0  0  0  0  0  0  0
    4.1721   -0.3459   -1.5709 C   0  0  0  0  0  0  0  0  0  0  0  0
    4.4392   -1.6020   -0.9662 N   0  0  0  0  0  0  0  0  0  0  0  0
    4.8499    2.9476   -5.1962 C   0  0  0  0  0  0  0  0  0  0  0  0
    5.5617    3.4343   -6.3076 C   0  0  0  0  0  0  0  0  0  0  0  0
    5.1547    4.5903   -6.9816 C   0  0  0  0  0  0  0  0  0  0  0  0
    4.0247    5.2857   -6.5587 C   0  0  0  0  0  0  0  0  0  0  0  0
    3.3021    4.8268   -5.4618 C   0  0  0  0  0  0  0  0  0  0  0  0
    3.7155    3.6678   -4.7898 C   0  0  0  0  0  0  0  0  0  0  0  0
    2.9338    3.1962   -3.6233 C   0  0  0  0  0  0  0  0  0  0  0  0
    1.9398    3.8068   -3.2448 O   0  0  0  0  0  0  0  0  0  0  0  0
    0.8800    0.0887    1.3302 H   0  0  0  0  0  0  0  0  0  0  0  0
    0.4544    0.6471   -0.2921 H   0  0  0  0  0  0  0  0  0  0  0  0
    1.5784    1.6042    0.7508 H   0  0  0  0  0  0  0  0  0  0  0  0
    1.7603    2.0911   -1.5245 H   0  0  0  0  0  0  0  0  0  0  0  0
    7.6086   -0.5302   -4.6898 H   0  0  0  0  0  0  0  0  0  0  0  0
    6.4156   -1.4859   -2.7584 H   0  0  0  0  0  0  0  0  0  0  0  0
    5.4207   -1.8360   -0.8931 H   0  0  0  0  0  0  0  0  0  0  0  0
    3.9529   -1.6744   -0.0715 H   0  0  0  0  0  0  0  0  0  0  0  0
    6.4477    2.9075   -6.6598 H   0  0  0  0  0  0  0  0  0  0  0  0
    5.7230    4.9448   -7.8376 H   0  0  0  0  0  0  0  0  0  0  0  0
    3.7070    6.1842   -7.0828 H   0  0  0  0  0  0  0  0  0  0  0  0
    2.4175    5.3681   -5.1319 H   0  0  0  0  0  0  0  0  0  0  0  0
  1  2  1  0  0  0  0
  1 22  1  0  0  0  0
  1 23  1  0  0  0  0
  1 24  1  0  0  0  0
  2  3  1  0  0  0  0
  3  4  2  0  0  0  0
  3 12  1  0  0  0  0
  4  5  1  0  0  0  0
  4 25  1  0  0  0  0
  5  6  2  0  0  0  0
  5 20  1  0  0  0  0
  6  7  1  0  0  0  0
  6 11  1  0  0  0  0
  7  8  2  0  0  0  0
  7 14  1  0  0  0  0
  8  9  1  0  0  0  0
  9 10  2  0  0  0  0
  9 26  1  0  0  0  0
 10 11  1  0  0  0  0
 10 27  1  0  0  0  0
 11 12  2  0  0  0  0
 12 13  1  0  0  0  0
 13 28  1  0  0  0  0
 13 29  1  0  0  0  0
 14 15  2  0  0  0  0
 14 19  1  0  0  0  0
 15 16  1  0  0  0  0
 15 30  1  0  0  0  0
 16 17  2  0  0  0  0
 16 31  1  0  0  0  0
 17 18  1  0  0  0  0
 17 32  1  0  0  0  0
 18 19  2  0  0  0  0
 18 33  1  0  0  0  0
 19 20  1  0  0  0  0
 20 21  2  0  0  0  0
M  END
$$$$
