
 OpenBabel09162610133D

 33 36  0  0  0  0  0  0  0  0999 V2000
    0.9645    0.0875   -0.0857 C   0  0  0  0  0  0  0  0  0  0  0  0
    2.4155   -0.0012   -0.1032 N   0  0  0  0  0  0  0  0  0  0  0  0
    2.9865   -1.2995   -0.1540 C   0  0  0  0  0  0  0  0  0  0  0  0
    2.3128   -2.3293   -0.2064 O   0  0  0  0  0  0  0  0  0  0  0  0
    4.4360   -1.3369   -0.1281 C   0  0  0  0  0  0  0  0  0  0  0  0
    5.2801   -2.4149   -0.1255 N   0  0  0  0  0  0  0  0  0  0  0  0
    6.4851   -1.8716   -0.0415 C   0  0  0  0  0  0  0  0  0  0  0  0
    7.7655   -2.5694    0.0527 C   0  0  0  0  0  0  0  0  0  0  0  0
    7.7758   -3.9692   -0.0820 C   0  0  0  0  0  0  0  0  0  0  0  0
    8.9584   -4.6990    0.0443 C   0  0  0  0  0  0  0  0  0  0  0  0
   10.1529   -4.0366    0.3085 C   0  0  0  0  0  0  0  0  0  0  0  0
   10.1643   -2.6475    0.4367 C   0  0  0  0  0  0  0  0  0  0  0  0
    8.9774   -1.9153    0.3067 C   0  0  0  0  0  0  0  0  0  0  0  0
    6.4897   -0.4877   -0.0147 O   0  0  0  0  0  0  0  0  0  0  0  0
    5.1652   -0.1856   -0.0750 C   0  0  0  0  0  0  0  0  0  0  0  0
    4.6263    1.1439   -0.0546 C   0  0  0  0  0  0  0  0  0  0  0  0
    5.4081    2.3006   -0.0279 C   0  0  0  0  0  0  0  0  0  0  0  0
    4.7877    3.5493   -0.0112 C   0  0  0  0  0  0  0  0  0  0  0  0
    3.3955    3.6399   -0.0187 C   0  0  0  0  0  0  0  0  0  0  0  0
    2.6098    2.4826   -0.0462 C   0  0  0  0  0  0  0  0  0  0  0  0
    3.2080    1.2159   -0.0666 C   0  0  0  0  0  0  0  0  0  0  0  0
    0.4913   -0.8982   -0.0827 H   0  0  0  0  0  0  0  0  0  0  0  0
    0.6226    0.6210   -0.9779 H   0  0  0  0  0  0  0  0  0  0  0  0
    0.6439    0.6104    0.8207 H   0  0  0  0  0  0  0  0  0  0  0  0
    6.8454   -4.5014   -0.2796 H   0  0  0  0  0  0  0  0  0  0  0  0
    8.9394   -5.7812   -0.0565 H   0  0  0  0  0  0  0  0  0  0  0  0
   11.0735   -4.6043    0.4181 H   0  0  0  0  0  0  0  0  0  0  0  0
   11.0996   -2.1342    0.6462 H   0  0  0  0  0  0  0  0  0  0  0  0
    9.0103   -0.8345    0.4209 H   0  0  0  0  0  0  0  0  0  0  0  0
    6.4933    2.2375   -0.0231 H   0  0  0  0  0  0  0  0  0  0  0  0
    5.3879    4.4563    0.0067 H   0  0  0  0  0  0  0  0  0  0  0  0
    2.9161    4.6167   -0.0056 H   0  0  0  0  0  0  0  0  0  0  0  0
    1.5315    2.6071   -0.0542 H   0  0  0  0  0  0  0  0  0  0  0  0
  1  2  1  0  0  0  0
  1 22  1  0  0  0  0
  1 23  1  0  0  0  0
  1 24  1  0  0  0  0
  2  3  1  0  0  0  0
  2 21  1  0  0  0  0
  3  4  2  0  0  0  0
  3  5  1  0  0  0  0
  5  6  1  0  0  0  0
  5 15  2  0  0  0  0
  6  7  2  0  0  0  0
  7  8  1  0  0  0  0
  7 14  1  0  0  0  0
  8  9  2  0  0  0  0
  8 13  1  0  0  0  0
  9 10  1  0  0  0  0
  9 25  1  0  0  0  0
 10 11  2  0  0  0  0
 10 26  1  0  0  0  0
 11 12  1  0  0  0  0
 11 27  1  0  0  0  0
 12 13  2  0  0  0  0
 12 28  1  0  0  0  0
 13 29  1  0  0  0  0
 14 15  1  0  0  0  0
 15 16  1  0  0  0  0
 16 17  1  0  0  0  0
 16 21  2  0  0  0  0
 17 18  2  0  0  0  0
 17 30  1  0  0  0  0
 18 19  1  0  0  0  0
 18 31  1  0  0  0  0
 19 20  2  0  0  0  0
 19 32  1  0  0  0  0
 20 21  1  0  0  0  0
 20 33  1  0  0  0  0
M  END
$$$$
