
 OpenBabel09162610133D

 45 48  0  0  0  0  0  0  0  0999 V2000
    1.0357   -0.1245   -0.0119 C   0  0  0  0  0  0  0  0  0  0  0  0
    2.5421   -0.1084    0.0047 C   0  0  0  0  0  0  0  0  0  0  0  0
    3.2058    1.2231   -0.0097 C   0  0  0  0  0  0  0  0  0  0  0  0
    4.5483    1.2455   -0.0859 C   0  0  0  0  0  0  0  0  0  0  0  0
    5.2988    2.4337   -0.1856 N   0  0  0  0  0  0  0  0  0  0  0  0
    6.1693    2.6557   -1.3529 C   0  0  0  0  0  0  0  0  0  0  0  0
    7.4845    3.2868   -0.9131 C   0  0  0  0  0  0  0  0  0  0  0  0
    7.2361    4.5711   -0.1271 C   0  0  0  0  0  0  0  0  0  0  0  0
    6.2719    4.3234    1.0316 C   0  0  0  0  0  0  0  0  0  0  0  0
    4.9782    3.6525    0.5632 C   0  0  0  0  0  0  0  0  0  0  0  0
    5.2349   -0.0069   -0.0729 N   0  0  0  0  0  0  0  0  0  0  0  0
    6.5820   -0.2119   -0.0896 N   0  0  0  0  0  0  0  0  0  0  0  0
    6.7364   -1.5363   -0.0674 C   0  0  0  0  0  0  0  0  0  0  0  0
    8.1162   -2.0867   -0.1226 C   0  0  0  0  0  0  0  0  0  0  0  0
    5.4925   -2.2280   -0.0270 C   0  0  0  0  0  0  0  0  0  0  0  0
    5.2231   -3.6637   -0.0428 C   0  0  0  0  0  0  0  0  0  0  0  0
    6.0836   -4.5587    0.6143 C   0  0  0  0  0  0  0  0  0  0  0  0
    5.9056   -5.9411    0.5082 C   0  0  0  0  0  0  0  0  0  0  0  0
    4.8454   -6.4518   -0.2329 C   0  0  0  0  0  0  0  0  0  0  0  0
    3.9561   -5.5790   -0.8563 C   0  0  0  0  0  0  0  0  0  0  0  0
    4.1464   -4.1966   -0.7646 C   0  0  0  0  0  0  0  0  0  0  0  0
    4.5324   -1.2212   -0.0238 C   0  0  0  0  0  0  0  0  0  0  0  0
    3.1616   -1.2522    0.0021 N   0  0  0  0  0  0  0  0  0  0  0  0
    0.6238    0.8889   -0.0116 H   0  0  0  0  0  0  0  0  0  0  0  0
    0.6671   -0.6574    0.8693 H   0  0  0  0  0  0  0  0  0  0  0  0
    0.6928   -0.6407   -0.9121 H   0  0  0  0  0  0  0  0  0  0  0  0
    2.6008    2.1192   -0.0181 H   0  0  0  0  0  0  0  0  0  0  0  0
    5.6513    3.3182   -2.0585 H   0  0  0  0  0  0  0  0  0  0  0  0
    6.3731    1.7275   -1.8983 H   0  0  0  0  0  0  0  0  0  0  0  0
    8.1037    3.5023   -1.7911 H   0  0  0  0  0  0  0  0  0  0  0  0
    8.0422    2.5785   -0.2884 H   0  0  0  0  0  0  0  0  0  0  0  0
    6.8181    5.3343   -0.7946 H   0  0  0  0  0  0  0  0  0  0  0  0
    8.1863    4.9616    0.2540 H   0  0  0  0  0  0  0  0  0  0  0  0
    6.0400    5.2715    1.5292 H   0  0  0  0  0  0  0  0  0  0  0  0
    6.7649    3.6824    1.7737 H   0  0  0  0  0  0  0  0  0  0  0  0
    4.3975    4.3355   -0.0679 H   0  0  0  0  0  0  0  0  0  0  0  0
    4.3709    3.4206    1.4461 H   0  0  0  0  0  0  0  0  0  0  0  0
    8.8580   -1.2961   -0.2776 H   0  0  0  0  0  0  0  0  0  0  0  0
    8.2139   -2.8025   -0.9444 H   0  0  0  0  0  0  0  0  0  0  0  0
    8.3716   -2.5866    0.8165 H   0  0  0  0  0  0  0  0  0  0  0  0
    6.9054   -4.1966    1.2226 H   0  0  0  0  0  0  0  0  0  0  0  0
    6.5999   -6.6155    1.0034 H   0  0  0  0  0  0  0  0  0  0  0  0
    4.7093   -7.5262   -0.3212 H   0  0  0  0  0  0  0  0  0  0  0  0
    3.1176   -5.9726   -1.4245 H   0  0  0  0  0  0  0  0  0  0  0  0
    3.4481   -3.5395   -1.2790 H   0  0  0  0  0  0  0  0  0  0  0  0
  1  2  1  0  0  0  0
  1 24  1  0  0  0  0
  1 25  1  0  0  0  0
  1 26  1  0  0  0  0
  2  3  1  0  0  0  0
  2 23  2  0  0  0  0
  3  4  2  0  0  0  0
  3 27  1  0  0  0  0
  4  5  1  0  0  0  0
  4 11  1  0  0  0  0
  5  6  1  0  0  0  0
  5 10  1  0  0  0  0
  6  7  1  0  0  0  0
  6 28  1  0  0  0  0
  6 29  1  0  0  0  0
  7  8  1  0  0  0  0
  7 30  1  0  0  0  0
  7 31  1  0  0  0  0
  8  9  1  0  0  0  0
  8 32  1  0  0  0  0
  8 33  1  0  0  0  0
  9 10  1  0  0  0  0
  9 34  1  0  0  0  0
  9 35  1  0  0  0  0
 10 36  1  0  0  0  0
 10 37  1  0  0  0  0
 11 12  1  0  0  0  0
 11 22  1  0  0  0  0
 12 13  2  0  0  0  0
 13 14  1  0  0  0  0
 13 15  1  0  0  0  0
 14 38  1  0  0  0  0
 14 39  1  0  0  0  0
 14 40  1  0  0  0  0
 15 16  1  0  0  0  0
 15 22  2  0  0  0  0
 16 17  2  0  0  0  0
 16 21  1  0  0  0  0
 17 18  1  0  0  0  0
 17 41  1  0  0  0  0
 18 19  2  0  0  0  0
 18 42  1  0  0  0  0
 19 20  1  0  0  0  0
 19 43  1  0  0  0  0
 20 21  2  0  0  0  0
 20 44  1  0  0  0  0
 21 45  1  0  0  0  0
 22 23  1  0  0  0  0
M  END
$$$$
