
 OpenBabel09162610133D

 30 33  0  0  0  0  0  0  0  0999 V2000
   -2.3767    0.6365   -0.0788 C   0  0  0  0  0  0  0  0  0  0  0  0
   -2.3471   -0.7520   -0.0751 C   0  0  0  0  0  0  0  0  0  0  0  0
   -1.1189   -1.4140   -0.0501 C   0  0  0  0  0  0  0  0  0  0  0  0
    0.0811   -0.7134   -0.0185 C   0  0  0  0  0  0  0  0  0  0  0  0
    1.2419   -1.3901    0.0312 N   0  0  0  0  0  0  0  0  0  0  0  0
    2.3890   -0.6547    0.0998 C   0  0  0  0  0  0  0  0  0  0  0  0
    3.5761   -1.4771    0.2843 C   0  0  0  0  0  0  0  0  0  0  0  0
    3.9452   -2.7341   -0.1586 C   0  0  0  0  0  0  0  0  0  0  0  0
    5.2228   -3.0003    0.3923 C   0  0  0  0  0  0  0  0  0  0  0  0
    5.5426   -1.9069    1.1609 C   0  0  0  0  0  0  0  0  0  0  0  0
    4.5412   -0.9931    1.1234 O   0  0  0  0  0  0  0  0  0  0  0  0
    2.3626    0.7411    0.0615 C   0  0  0  0  0  0  0  0  0  0  0  0
    3.5273    1.6146    0.0679 C   0  0  0  0  0  0  0  0  0  0  0  0
    3.7659    2.8751    0.5835 C   0  0  0  0  0  0  0  0  0  0  0  0
    5.1146    3.1885    0.2862 C   0  0  0  0  0  0  0  0  0  0  0  0
    5.6041    2.1218   -0.4287 C   0  0  0  0  0  0  0  0  0  0  0  0
    4.6426    1.1775   -0.5923 O   0  0  0  0  0  0  0  0  0  0  0  0
    1.1836    1.4270    0.0112 N   0  0  0  0  0  0  0  0  0  0  0  0
    0.0508    0.7018   -0.0230 C   0  0  0  0  0  0  0  0  0  0  0  0
   -1.1778    1.3505   -0.0554 C   0  0  0  0  0  0  0  0  0  0  0  0
   -3.3263    1.1659   -0.0963 H   0  0  0  0  0  0  0  0  0  0  0  0
   -3.2729   -1.3215   -0.0902 H   0  0  0  0  0  0  0  0  0  0  0  0
   -1.0942   -2.5012   -0.0425 H   0  0  0  0  0  0  0  0  0  0  0  0
    3.3574   -3.3687   -0.8058 H   0  0  0  0  0  0  0  0  0  0  0  0
    5.8320   -3.8832    0.2518 H   0  0  0  0  0  0  0  0  0  0  0  0
    6.3945   -1.6401    1.7698 H   0  0  0  0  0  0  0  0  0  0  0  0
    3.0504    3.4746    1.1281 H   0  0  0  0  0  0  0  0  0  0  0  0
    5.6609    4.0801    0.5584 H   0  0  0  0  0  0  0  0  0  0  0  0
    6.5633    1.8905   -0.8704 H   0  0  0  0  0  0  0  0  0  0  0  0
   -1.1997    2.4378   -0.0584 H   0  0  0  0  0  0  0  0  0  0  0  0
  1  2  2  0  0  0  0
  1 20  1  0  0  0  0
  1 21  1  0  0  0  0
  2  3  1  0  0  0  0
  2 22  1  0  0  0  0
  3  4  2  0  0  0  0
  3 23  1  0  0  0  0
  4  5  1  0  0  0  0
  4 19  1  0  0  0  0
  5  6  2  0  0  0  0
  6  7  1  0  0  0  0
  6 12  1  0  0  0  0
  7  8  2  0  0  0  0
  7 11  1  0  0  0  0
  8  9  1  0  0  0  0
  8 24  1  0  0  0  0
  9 10  2  0  0  0  0
  9 25  1  0  0  0  0
 10 11  1  0  0  0  0
 10 26  1  0  0  0  0
 12 13  1  0  0  0  0
 12 18  2  0  0  0  0
 13 14  2  0  0  0  0
 13 17  1  0  0  0  0
 14 15  1  0  0  0  0
 14 27  1  0  0  0  0
 15 16  2  0  0  0  0
 15 28  1  0  0  0  0
 16 17  1  0  0  0  0
 16 29  1  0  0  0  0
 18 19  1  0  0  0  0
 19 20  2  0  0  0  0
 20 30  1  0  0  0  0
M  END
$$$$
