
 OpenBabel09162610133D

 24 25  0  0  0  0  0  0  0  0999 V2000
    2.8664    2.0432    2.6747 N   0  0  0  0  0  0  0  0  0  0  0  0
    3.5044    1.3228    2.0243 C   0  0  0  0  0  0  0  0  0  0  0  0
    4.2888    0.4341    1.2438 C   0  0  0  0  0  0  0  0  0  0  0  0
    5.9493    0.1590    1.5175 S   0  0  0  0  0  0  0  0  0  0  0  0
    5.9817   -1.0199    0.2434 C   0  0  0  0  0  0  0  0  0  0  0  0
    7.1148   -1.7056   -0.1034 N   0  0  0  0  0  0  0  0  0  0  0  0
    8.0343   -2.1580    0.9483 C   0  0  0  0  0  0  0  0  0  0  0  0
    9.4314   -2.3551    0.3636 C   0  0  0  0  0  0  0  0  0  0  0  0
    9.4116   -3.2932   -0.8392 C   0  0  0  0  0  0  0  0  0  0  0  0
    8.3780   -2.8436   -1.8673 C   0  0  0  0  0  0  0  0  0  0  0  0
    7.0020   -2.6399   -1.2330 C   0  0  0  0  0  0  0  0  0  0  0  0
    4.8306   -1.1395   -0.3845 N   0  0  0  0  0  0  0  0  0  0  0  0
    3.8698   -0.3299    0.1834 C   0  0  0  0  0  0  0  0  0  0  0  0
    2.1006   -0.3449   -0.5104 Br  0  0  0  0  0  0  0  0  0  0  0  0
    7.6663   -3.0985    1.3787 H   0  0  0  0  0  0  0  0  0  0  0  0
    8.1237   -1.4416    1.7709 H   0  0  0  0  0  0  0  0  0  0  0  0
   10.1008   -2.7536    1.1339 H   0  0  0  0  0  0  0  0  0  0  0  0
    9.8350   -1.3824    0.0568 H   0  0  0  0  0  0  0  0  0  0  0  0
    9.1791   -4.3116   -0.5059 H   0  0  0  0  0  0  0  0  0  0  0  0
   10.4054   -3.3232   -1.2999 H   0  0  0  0  0  0  0  0  0  0  0  0
    8.3103   -3.5829   -2.6732 H   0  0  0  0  0  0  0  0  0  0  0  0
    8.7093   -1.9007   -2.3218 H   0  0  0  0  0  0  0  0  0  0  0  0
    6.5985   -3.6004   -0.8844 H   0  0  0  0  0  0  0  0  0  0  0  0
    6.3278   -2.2607   -2.0103 H   0  0  0  0  0  0  0  0  0  0  0  0
  1  2  3  0  0  0  0
  2  3  1  0  0  0  0
  3  4  1  0  0  0  0
  3 13  2  0  0  0  0
  4  5  1  0  0  0  0
  5  6  1  0  0  0  0
  5 12  2  0  0  0  0
  6  7  1  0  0  0  0
  6 11  1  0  0  0  0
  7  8  1  0  0  0  0
  7 15  1  0  0  0  0
  7 16  1  0  0  0  0
  8  9  1  0  0  0  0
  8 17  1  0  0  0  0
  8 18  1  0  0  0  0
  9 10  1  0  0  0  0
  9 19  1  0  0  0  0
  9 20  1  0  0  0  0
 10 11  1  0  0  0  0
 10 21  1  0  0  0  0
 10 22  1  0  0  0  0
 11 23  1  0  0  0  0
 11 24  1  0  0  0  0
 12 13  1  0  0  0  0
 13 14  1  0  0  0  0
M  END
$$$$
