
 OpenBabel09162610133D

 42 44  0  0  0  0  0  0  0  0999 V2000
    5.9728    1.6476   -2.5791 N   0  0  0  0  0  0  0  0  0  0  0  0
    4.8202    0.9588   -2.1939 C   0  0  0  0  0  0  0  0  0  0  0  0
    4.6734   -0.3885   -2.5036 C   0  0  0  0  0  0  0  0  0  0  0  0
    3.4710   -1.0513   -2.2378 C   0  0  0  0  0  0  0  0  0  0  0  0
    2.3755   -0.3908   -1.7038 C   0  0  0  0  0  0  0  0  0  0  0  0
    1.2590   -1.0920   -1.4868 N   0  0  0  0  0  0  0  0  0  0  0  0
    0.2119   -0.4095   -1.0168 C   0  0  0  0  0  0  0  0  0  0  0  0
    0.1795    0.8962   -0.7412 N   0  0  0  0  0  0  0  0  0  0  0  0
    1.3107    1.5940   -0.9525 C   0  0  0  0  0  0  0  0  0  0  0  0
    1.3010    2.9882   -0.7016 N   0  0  0  0  0  0  0  0  0  0  0  0
   -0.0096    3.5056   -0.3088 C   0  0  0  0  0  0  0  0  0  0  0  0
    0.0108    5.0357   -0.2780 C   0  0  0  0  0  0  0  0  0  0  0  0
   -1.4085    5.6387   -0.2083 C   0  0  0  0  0  0  0  0  0  0  0  0
   -1.3422    7.1729   -0.2807 C   0  0  0  0  0  0  0  0  0  0  0  0
   -2.7298    7.8060   -0.1951 C   0  0  0  0  0  0  0  0  0  0  0  0
   -3.4775    7.3529    1.0540 C   0  0  0  0  0  0  0  0  0  0  0  0
   -3.5577    5.8334    1.1320 C   0  0  0  0  0  0  0  0  0  0  0  0
   -2.1758    5.1893    1.0465 C   0  0  0  0  0  0  0  0  0  0  0  0
    2.4789    0.9825   -1.4446 C   0  0  0  0  0  0  0  0  0  0  0  0
    3.7045    1.6491   -1.7166 C   0  0  0  0  0  0  0  0  0  0  0  0
    6.8055    1.0697   -2.6306 H   0  0  0  0  0  0  0  0  0  0  0  0
    6.1337    2.5104   -2.0684 H   0  0  0  0  0  0  0  0  0  0  0  0
    5.4889   -0.9422   -2.9615 H   0  0  0  0  0  0  0  0  0  0  0  0
    3.3836   -2.1086   -2.4759 H   0  0  0  0  0  0  0  0  0  0  0  0
   -0.7010   -0.9682   -0.8458 H   0  0  0  0  0  0  0  0  0  0  0  0
    2.0211    3.1994   -0.0164 H   0  0  0  0  0  0  0  0  0  0  0  0
   -0.2806    3.1163    0.6794 H   0  0  0  0  0  0  0  0  0  0  0  0
   -0.7708    3.1893   -1.0346 H   0  0  0  0  0  0  0  0  0  0  0  0
    0.5095    5.4096   -1.1819 H   0  0  0  0  0  0  0  0  0  0  0  0
    0.6140    5.3782    0.5722 H   0  0  0  0  0  0  0  0  0  0  0  0
   -1.9658    5.2888   -1.0887 H   0  0  0  0  0  0  0  0  0  0  0  0
   -0.8657    7.4821   -1.2189 H   0  0  0  0  0  0  0  0  0  0  0  0
   -0.7182    7.5583    0.5355 H   0  0  0  0  0  0  0  0  0  0  0  0
   -3.3101    7.5355   -1.0861 H   0  0  0  0  0  0  0  0  0  0  0  0
   -2.6381    8.8978   -0.1937 H   0  0  0  0  0  0  0  0  0  0  0  0
   -4.4883    7.7760    1.0544 H   0  0  0  0  0  0  0  0  0  0  0  0
   -2.9682    7.7383    1.9458 H   0  0  0  0  0  0  0  0  0  0  0  0
   -4.1849    5.4579    0.3137 H   0  0  0  0  0  0  0  0  0  0  0  0
   -4.0443    5.5363    2.0678 H   0  0  0  0  0  0  0  0  0  0  0  0
   -2.3065    4.1016    1.0469 H   0  0  0  0  0  0  0  0  0  0  0  0
   -1.5993    5.4431    1.9448 H   0  0  0  0  0  0  0  0  0  0  0  0
    3.7700    2.7239   -1.5656 H   0  0  0  0  0  0  0  0  0  0  0  0
  1  2  1  0  0  0  0
  1 21  1  0  0  0  0
  1 22  1  0  0  0  0
  2  3  2  0  0  0  0
  2 20  1  0  0  0  0
  3  4  1  0  0  0  0
  3 23  1  0  0  0  0
  4  5  2  0  0  0  0
  4 24  1  0  0  0  0
  5  6  1  0  0  0  0
  5 19  1  0  0  0  0
  6  7  2  0  0  0  0
  7  8  1  0  0  0  0
  7 25  1  0  0  0  0
  8  9  2  0  0  0  0
  9 10  1  0  0  0  0
  9 19  1  0  0  0  0
 10 11  1  0  0  0  0
 10 26  1  0  0  0  0
 11 12  1  0  0  0  0
 11 27  1  0  0  0  0
 11 28  1  0  0  0  0
 12 13  1  0  0  0  0
 12 29  1  0  0  0  0
 12 30  1  0  0  0  0
 13 14  1  0  0  0  0
 13 18  1  0  0  0  0
 13 31  1  0  0  0  0
 14 15  1  0  0  0  0
 14 32  1  0  0  0  0
 14 33  1  0  0  0  0
 15 16  1  0  0  0  0
 15 34  1  0  0  0  0
 15 35  1  0  0  0  0
 16 17  1  0  0  0  0
 16 36  1  0  0  0  0
 16 37  1  0  0  0  0
 17 18  1  0  0  0  0
 17 38  1  0  0  0  0
 17 39  1  0  0  0  0
 18 40  1  0  0  0  0
 18 41  1  0  0  0  0
 19 20  2  0  0  0  0
 20 42  1  0  0  0  0
M  END
$$$$
