
 OpenBabel09162610133D

 32 34  0  0  0  0  0  0  0  0999 V2000
    2.1750    0.4269   -1.2788 O   0  0  0  0  0  0  0  0  0  0  0  0
    2.8025   -0.0859   -0.3414 C   0  0  0  0  0  0  0  0  0  0  0  0
    2.3362   -1.4236    0.2194 C   0  0  0  0  0  0  0  0  0  0  0  0
    2.8862   -2.6439   -0.3632 N   0  0  0  0  0  0  0  0  0  0  0  0
    4.0192   -2.5378   -1.1350 N   0  0  0  0  0  0  0  0  0  0  0  0
    4.6117   -3.6362   -1.4695 C   0  0  0  0  0  0  0  0  0  0  0  0
    4.1812   -4.9874   -1.0940 C   0  0  0  0  0  0  0  0  0  0  0  0
    5.1667   -6.2932   -1.6093 Cl  0  0  0  0  0  0  0  0  0  0  0  0
    3.0657   -5.0888   -0.3704 C   0  0  0  0  0  0  0  0  0  0  0  0
    2.4237   -6.6015    0.1620 Cl  0  0  0  0  0  0  0  0  0  0  0  0
    2.3460   -3.8567    0.0638 C   0  0  0  0  0  0  0  0  0  0  0  0
    1.3597   -3.9238    0.7955 O   0  0  0  0  0  0  0  0  0  0  0  0
    3.8652    0.5771    0.2363 N   0  0  0  0  0  0  0  0  0  0  0  0
    4.1658    1.9572   -0.1714 C   0  0  0  0  0  0  0  0  0  0  0  0
    5.1582    2.4971    0.8576 C   0  0  0  0  0  0  0  0  0  0  0  0
    5.7891    1.2185    1.3041 C   0  0  0  0  0  0  0  0  0  0  0  0
    7.0095    1.0636    1.9451 C   0  0  0  0  0  0  0  0  0  0  0  0
    7.4036   -0.2223    2.3064 C   0  0  0  0  0  0  0  0  0  0  0  0
    6.5554   -1.3112    2.0753 C   0  0  0  0  0  0  0  0  0  0  0  0
    5.3160   -1.1367    1.4443 C   0  0  0  0  0  0  0  0  0  0  0  0
    4.9503    0.1304    1.0270 C   0  0  0  0  0  0  0  0  0  0  0  0
    1.2466   -1.4578    0.0822 H   0  0  0  0  0  0  0  0  0  0  0  0
    2.4853   -1.4472    1.3045 H   0  0  0  0  0  0  0  0  0  0  0  0
    5.5300   -3.5677   -2.0766 H   0  0  0  0  0  0  0  0  0  0  0  0
    3.2542    2.5613   -0.2390 H   0  0  0  0  0  0  0  0  0  0  0  0
    4.6207    1.9098   -1.1704 H   0  0  0  0  0  0  0  0  0  0  0  0
    5.8601    3.2125    0.4228 H   0  0  0  0  0  0  0  0  0  0  0  0
    4.6294    2.9541    1.7008 H   0  0  0  0  0  0  0  0  0  0  0  0
    7.6511    1.9153    2.1417 H   0  0  0  0  0  0  0  0  0  0  0  0
    8.3724   -0.3816    2.7734 H   0  0  0  0  0  0  0  0  0  0  0  0
    6.8727   -2.3096    2.3661 H   0  0  0  0  0  0  0  0  0  0  0  0
    4.7103   -2.0101    1.2811 H   0  0  0  0  0  0  0  0  0  0  0  0
  1  2  2  0  0  0  0
  2  3  1  0  0  0  0
  2 13  1  0  0  0  0
  3  4  1  0  0  0  0
  3 22  1  0  0  0  0
  3 23  1  0  0  0  0
  4  5  1  0  0  0  0
  4 11  1  0  0  0  0
  5  6  2  0  0  0  0
  6  7  1  0  0  0  0
  6 24  1  0  0  0  0
  7  8  1  0  0  0  0
  7  9  2  0  0  0  0
  9 10  1  0  0  0  0
  9 11  1  0  0  0  0
 11 12  2  0  0  0  0
 13 14  1  0  0  0  0
 13 21  1  0  0  0  0
 14 15  1  0  0  0  0
 14 25  1  0  0  0  0
 14 26  1  0  0  0  0
 15 16  1  0  0  0  0
 15 27  1  0  0  0  0
 15 28  1  0  0  0  0
 16 17  1  0  0  0  0
 16 21  2  0  0  0  0
 17 18  2  0  0  0  0
 17 29  1  0  0  0  0
 18 19  1  0  0  0  0
 18 30  1  0  0  0  0
 19 20  2  0  0  0  0
 19 31  1  0  0  0  0
 20 21  1  0  0  0  0
 20 32  1  0  0  0  0
M  END
$$$$
