
 OpenBabel09162610133D

 43 46  0  0  0  0  0  0  0  0999 V2000
    1.0160    0.2557   -0.1438 C   0  0  0  0  0  0  0  0  0  0  0  0
    2.3842   -0.0059    0.2304 N   0  0  0  0  0  0  0  0  0  0  0  0
    3.2819   -0.7679   -0.5999 C   0  0  0  0  0  0  0  0  0  0  0  0
    4.5262   -0.9334    0.2831 C   0  0  0  0  0  0  0  0  0  0  0  0
    5.8372   -0.9896   -0.5299 C   0  0  0  0  0  0  0  0  0  0  0  0
    6.0818   -2.3341   -1.2188 C   0  0  0  0  0  0  0  0  0  0  0  0
    5.9580   -3.3895   -0.2096 N   0  0  0  0  0  0  0  0  0  0  0  0
    6.8400   -4.4657   -0.1760 C   0  0  0  0  0  0  0  0  0  0  0  0
    7.5218   -4.8892   -1.3297 C   0  0  0  0  0  0  0  0  0  0  0  0
    8.4269   -5.8924   -1.4134 N   0  0  0  0  0  0  0  0  0  0  0  0
    8.6771   -6.5514   -0.2679 C   0  0  0  0  0  0  0  0  0  0  0  0
    8.0817   -6.2669    0.9567 C   0  0  0  0  0  0  0  0  0  0  0  0
    8.4046   -7.0242    2.1004 C   0  0  0  0  0  0  0  0  0  0  0  0
    7.8334   -6.7379    3.3362 C   0  0  0  0  0  0  0  0  0  0  0  0
    6.9617   -5.6647    3.4467 C   0  0  0  0  0  0  0  0  0  0  0  0
    6.6622   -4.8972    2.3199 C   0  0  0  0  0  0  0  0  0  0  0  0
    7.1611   -5.1906    1.0265 C   0  0  0  0  0  0  0  0  0  0  0  0
    4.6207   -3.4874    0.3753 C   0  0  0  0  0  0  0  0  0  0  0  0
    4.3826   -2.1966    1.1724 C   0  0  0  0  0  0  0  0  0  0  0  0
    4.5052    0.3490    1.1495 C   0  0  0  0  0  0  0  0  0  0  0  0
    3.0695    0.8013    1.1227 C   0  0  0  0  0  0  0  0  0  0  0  0
    2.6153    1.7420    1.7553 O   0  0  0  0  0  0  0  0  0  0  0  0
    0.6230   -0.5847   -0.7209 H   0  0  0  0  0  0  0  0  0  0  0  0
    0.9689    1.1788   -0.7267 H   0  0  0  0  0  0  0  0  0  0  0  0
    0.4222    0.3812    0.7670 H   0  0  0  0  0  0  0  0  0  0  0  0
    3.4849   -0.1921   -1.5090 H   0  0  0  0  0  0  0  0  0  0  0  0
    2.8040   -1.7129   -0.8716 H   0  0  0  0  0  0  0  0  0  0  0  0
    6.6793   -0.8049    0.1518 H   0  0  0  0  0  0  0  0  0  0  0  0
    5.8636   -0.1874   -1.2776 H   0  0  0  0  0  0  0  0  0  0  0  0
    7.0813   -2.2947   -1.6654 H   0  0  0  0  0  0  0  0  0  0  0  0
    5.3603   -2.4936   -2.0299 H   0  0  0  0  0  0  0  0  0  0  0  0
    7.3380   -4.4133   -2.2903 H   0  0  0  0  0  0  0  0  0  0  0  0
    9.4127   -7.3461   -0.3634 H   0  0  0  0  0  0  0  0  0  0  0  0
    9.1097   -7.8491    2.0327 H   0  0  0  0  0  0  0  0  0  0  0  0
    8.0769   -7.3357    4.2087 H   0  0  0  0  0  0  0  0  0  0  0  0
    6.5187   -5.4145    4.4072 H   0  0  0  0  0  0  0  0  0  0  0  0
    6.0158   -4.0414    2.4793 H   0  0  0  0  0  0  0  0  0  0  0  0
    4.4751   -4.3652    1.0108 H   0  0  0  0  0  0  0  0  0  0  0  0
    3.8774   -3.5945   -0.4245 H   0  0  0  0  0  0  0  0  0  0  0  0
    5.1202   -2.1345    1.9824 H   0  0  0  0  0  0  0  0  0  0  0  0
    3.3972   -2.2361    1.6512 H   0  0  0  0  0  0  0  0  0  0  0  0
    5.1272    1.1446    0.7251 H   0  0  0  0  0  0  0  0  0  0  0  0
    4.8118    0.1606    2.1832 H   0  0  0  0  0  0  0  0  0  0  0  0
  1  2  1  0  0  0  0
  1 23  1  0  0  0  0
  1 24  1  0  0  0  0
  1 25  1  0  0  0  0
  2  3  1  0  0  0  0
  2 21  1  0  0  0  0
  3  4  1  0  0  0  0
  3 26  1  0  0  0  0
  3 27  1  0  0  0  0
  4  5  1  0  0  0  0
  4 19  1  0  0  0  0
  4 20  1  0  0  0  0
  5  6  1  0  0  0  0
  5 28  1  0  0  0  0
  5 29  1  0  0  0  0
  6  7  1  0  0  0  0
  6 30  1  0  0  0  0
  6 31  1  0  0  0  0
  7  8  1  0  0  0  0
  7 18  1  0  0  0  0
  8  9  2  0  0  0  0
  8 17  1  0  0  0  0
  9 10  1  0  0  0  0
  9 32  1  0  0  0  0
 10 11  2  0  0  0  0
 11 12  1  0  0  0  0
 11 33  1  0  0  0  0
 12 13  1  0  0  0  0
 12 17  2  0  0  0  0
 13 14  2  0  0  0  0
 13 34  1  0  0  0  0
 14 15  1  0  0  0  0
 14 35  1  0  0  0  0
 15 16  2  0  0  0  0
 15 36  1  0  0  0  0
 16 17  1  0  0  0  0
 16 37  1  0  0  0  0
 18 19  1  0  0  0  0
 18 38  1  0  0  0  0
 18 39  1  0  0  0  0
 19 40  1  0  0  0  0
 19 41  1  0  0  0  0
 20 21  1  0  0  0  0
 20 42  1  0  0  0  0
 20 43  1  0  0  0  0
 21 22  2  0  0  0  0
M  END
$$$$
