
 OpenBabel09162610133D

 27 28  0  0  0  0  0  0  0  0999 V2000
    1.0686   -0.0716   -0.0126 O   0  0  0  0  0  0  0  0  0  0  0  0
    2.6170   -0.0716   -0.0126 P   0  0  0  0  0  0  0  0  0  0  0  0
    2.7378   -0.6709   -1.9836 Cl  0  0  0  0  0  0  0  0  0  0  0  0
    2.6947    1.5777   -0.2627 O   0  0  0  0  0  0  0  0  0  0  0  0
    2.4670    2.4986    0.7326 C   0  0  0  0  0  0  0  0  0  0  0  0
    2.1010    2.1676    2.0409 C   0  0  0  0  0  0  0  0  0  0  0  0
    2.0324    3.1623    3.0215 C   0  0  0  0  0  0  0  0  0  0  0  0
    2.2633    4.4926    2.6844 C   0  0  0  0  0  0  0  0  0  0  0  0
    2.5566    4.8320    1.3604 C   0  0  0  0  0  0  0  0  0  0  0  0
    2.6651    3.8333    0.3914 C   0  0  0  0  0  0  0  0  0  0  0  0
    4.3470   -0.0716   -0.0126 O   0  0  0  0  0  0  0  0  0  0  0  0
    5.1574    0.5498    0.8893 C   0  0  0  0  0  0  0  0  0  0  0  0
    4.9064    0.6329    2.2487 C   0  0  0  0  0  0  0  0  0  0  0  0
    5.7704    1.3751    3.0607 C   0  0  0  0  0  0  0  0  0  0  0  0
    6.9131    1.9701    2.5194 C   0  0  0  0  0  0  0  0  0  0  0  0
    7.2010    1.8147    1.1664 C   0  0  0  0  0  0  0  0  0  0  0  0
    6.3247    1.1026    0.3533 C   0  0  0  0  0  0  0  0  0  0  0  0
    1.8849    1.1503    2.3366 H   0  0  0  0  0  0  0  0  0  0  0  0
    1.7955    2.8976    4.0465 H   0  0  0  0  0  0  0  0  0  0  0  0
    2.2077    5.2672    3.4456 H   0  0  0  0  0  0  0  0  0  0  0  0
    2.7123    5.8732    1.0910 H   0  0  0  0  0  0  0  0  0  0  0  0
    2.9146    4.1014   -0.6311 H   0  0  0  0  0  0  0  0  0  0  0  0
    4.0447    0.1565    2.6994 H   0  0  0  0  0  0  0  0  0  0  0  0
    5.5547    1.4915    4.1208 H   0  0  0  0  0  0  0  0  0  0  0  0
    7.5755    2.5506    3.1530 H   0  0  0  0  0  0  0  0  0  0  0  0
    8.0984    2.2581    0.7430 H   0  0  0  0  0  0  0  0  0  0  0  0
    6.5392    0.9972   -0.7076 H   0  0  0  0  0  0  0  0  0  0  0  0
  1  2  2  0  0  0  0
  2  3  1  0  0  0  0
  2  4  1  0  0  0  0
  2 11  1  0  0  0  0
  4  5  1  0  0  0  0
  5  6  2  0  0  0  0
  5 10  1  0  0  0  0
  6  7  1  0  0  0  0
  6 18  1  0  0  0  0
  7  8  2  0  0  0  0
  7 19  1  0  0  0  0
  8  9  1  0  0  0  0
  8 20  1  0  0  0  0
  9 10  2  0  0  0  0
  9 21  1  0  0  0  0
 10 22  1  0  0  0  0
 11 12  1  0  0  0  0
 12 13  2  0  0  0  0
 12 17  1  0  0  0  0
 13 14  1  0  0  0  0
 13 23  1  0  0  0  0
 14 15  2  0  0  0  0
 14 24  1  0  0  0  0
 15 16  1  0  0  0  0
 15 25  1  0  0  0  0
 16 17  2  0  0  0  0
 16 26  1  0  0  0  0
 17 27  1  0  0  0  0
M  END
$$$$
