
 OpenBabel09162610133D

 29 30  0  0  0  0  0  0  0  0999 V2000
    1.1766    0.1676   -0.2567 C   0  0  0  0  0  0  0  0  0  0  0  0
    2.4988    0.0848   -0.0768 C   0  0  0  0  0  0  0  0  0  0  0  0
    3.2814   -1.1128    0.1332 C   0  0  0  0  0  0  0  0  0  0  0  0
    2.7868   -2.5093   -0.0498 C   0  0  0  0  0  0  0  0  0  0  0  0
    4.5455   -0.7706    0.4316 C   0  0  0  0  0  0  0  0  0  0  0  0
    5.7143   -1.7320    0.5729 C   0  0  0  0  0  0  0  0  0  0  0  0
    6.6839   -2.5296    0.6900 N   0  0  0  0  0  0  0  0  0  0  0  0
    4.6521    0.6989    0.3959 C   0  0  0  0  0  0  0  0  0  0  0  0
    5.6862    1.3199    0.5824 O   0  0  0  0  0  0  0  0  0  0  0  0
    3.3748    1.1533    0.0319 N   0  0  0  0  0  0  0  0  0  0  0  0
    3.1715    2.4991   -0.3661 C   0  0  0  0  0  0  0  0  0  0  0  0
    3.6277    3.5515    0.4329 C   0  0  0  0  0  0  0  0  0  0  0  0
    3.4957    4.8733    0.0036 C   0  0  0  0  0  0  0  0  0  0  0  0
    2.9584    5.1517   -1.2533 C   0  0  0  0  0  0  0  0  0  0  0  0
    2.5249    4.1109   -2.0859 C   0  0  0  0  0  0  0  0  0  0  0  0
    2.0367    4.3823   -3.4868 C   0  0  0  0  0  0  0  0  0  0  0  0
    2.0524    5.7008   -3.8272 F   0  0  0  0  0  0  0  0  0  0  0  0
    2.7899    3.7467   -4.4282 F   0  0  0  0  0  0  0  0  0  0  0  0
    0.7584    3.9584   -3.6857 F   0  0  0  0  0  0  0  0  0  0  0  0
    2.6026    2.7874   -1.6148 C   0  0  0  0  0  0  0  0  0  0  0  0
    0.5367   -0.7071   -0.2772 H   0  0  0  0  0  0  0  0  0  0  0  0
    0.6668    1.1230   -0.3337 H   0  0  0  0  0  0  0  0  0  0  0  0
    1.7274   -2.5579   -0.3139 H   0  0  0  0  0  0  0  0  0  0  0  0
    2.9211   -3.0895    0.8690 H   0  0  0  0  0  0  0  0  0  0  0  0
    3.3379   -3.0042   -0.8573 H   0  0  0  0  0  0  0  0  0  0  0  0
    4.0774    3.3536    1.4035 H   0  0  0  0  0  0  0  0  0  0  0  0
    3.8386    5.6854    0.6407 H   0  0  0  0  0  0  0  0  0  0  0  0
    2.9039    6.1859   -1.5908 H   0  0  0  0  0  0  0  0  0  0  0  0
    2.2936    1.9771   -2.2744 H   0  0  0  0  0  0  0  0  0  0  0  0
  1  2  2  0  0  0  0
  1 21  1  0  0  0  0
  1 22  1  0  0  0  0
  2  3  1  0  0  0  0
  2 10  1  0  0  0  0
  3  4  1  0  0  0  0
  3  5  2  0  0  0  0
  4 23  1  0  0  0  0
  4 24  1  0  0  0  0
  4 25  1  0  0  0  0
  5  6  1  0  0  0  0
  5  8  1  0  0  0  0
  6  7  3  0  0  0  0
  8  9  2  0  0  0  0
  8 10  1  0  0  0  0
 10 11  1  0  0  0  0
 11 12  2  0  0  0  0
 11 20  1  0  0  0  0
 12 13  1  0  0  0  0
 12 26  1  0  0  0  0
 13 14  2  0  0  0  0
 13 27  1  0  0  0  0
 14 15  1  0  0  0  0
 14 28  1  0  0  0  0
 15 16  1  0  0  0  0
 15 20  2  0  0  0  0
 16 17  1  0  0  0  0
 16 18  1  0  0  0  0
 16 19  1  0  0  0  0
 20 29  1  0  0  0  0
M  END
$$$$
