
 OpenBabel09162610133D

 38 41  0  0  0  0  0  0  0  0999 V2000
    1.2575    0.7408    0.2030 C   0  0  0  0  0  0  0  0  0  0  0  0
    2.3435   -0.1723    0.1099 O   0  0  0  0  0  0  0  0  0  0  0  0
    2.9641   -0.2652   -1.1042 C   0  0  0  0  0  0  0  0  0  0  0  0
    2.5917    0.3885   -2.2716 C   0  0  0  0  0  0  0  0  0  0  0  0
    3.3245    0.1952   -3.4520 C   0  0  0  0  0  0  0  0  0  0  0  0
    4.4553   -0.6405   -3.5034 C   0  0  0  0  0  0  0  0  0  0  0  0
    4.8184   -1.2993   -2.3114 C   0  0  0  0  0  0  0  0  0  0  0  0
    4.0687   -1.1132   -1.1340 C   0  0  0  0  0  0  0  0  0  0  0  0
    5.9963   -2.2303   -2.2498 C   0  0  0  0  0  0  0  0  0  0  0  0
    6.9408   -1.9941   -3.4078 C   0  0  0  0  0  0  0  0  0  0  0  0
    6.1552   -1.9192   -4.7034 C   0  0  0  0  0  0  0  0  0  0  0  0
    5.1842   -0.8080   -4.7189 N   0  0  0  0  0  0  0  0  0  0  0  0
    5.3603    0.1955   -5.7116 C   0  0  0  0  0  0  0  0  0  0  0  0
    5.2267    1.4728   -5.3100 N   0  0  0  0  0  0  0  0  0  0  0  0
    5.4610    2.4182   -6.2111 C   0  0  0  0  0  0  0  0  0  0  0  0
    5.2014    4.0277   -5.6990 Cl  0  0  0  0  0  0  0  0  0  0  0  0
    5.8579    2.2573   -7.4632 N   0  0  0  0  0  0  0  0  0  0  0  0
    5.9655    1.0152   -7.8766 C   0  0  0  0  0  0  0  0  0  0  0  0
    6.3833    0.8651   -9.1338 N   0  0  0  0  0  0  0  0  0  0  0  0
    6.5027   -0.3686   -9.6615 C   0  0  0  0  0  0  0  0  0  0  0  0
    6.1661   -1.5175   -8.9865 C   0  0  0  0  0  0  0  0  0  0  0  0
    5.7189   -1.3706   -7.6805 C   0  0  0  0  0  0  0  0  0  0  0  0
    5.6796   -0.0936   -7.0614 C   0  0  0  0  0  0  0  0  0  0  0  0
    0.8905    0.7200    1.2337 H   0  0  0  0  0  0  0  0  0  0  0  0
    0.4324    0.4384   -0.4501 H   0  0  0  0  0  0  0  0  0  0  0  0
    1.5814    1.7639   -0.0151 H   0  0  0  0  0  0  0  0  0  0  0  0
    1.7377    1.0559   -2.3090 H   0  0  0  0  0  0  0  0  0  0  0  0
    2.9880    0.7162   -4.3453 H   0  0  0  0  0  0  0  0  0  0  0  0
    4.3584   -1.6286   -0.2201 H   0  0  0  0  0  0  0  0  0  0  0  0
    5.6258   -3.2626   -2.2678 H   0  0  0  0  0  0  0  0  0  0  0  0
    6.5477   -2.0892   -1.3126 H   0  0  0  0  0  0  0  0  0  0  0  0
    7.6670   -2.8142   -3.4611 H   0  0  0  0  0  0  0  0  0  0  0  0
    7.5059   -1.0666   -3.2619 H   0  0  0  0  0  0  0  0  0  0  0  0
    5.6120   -2.8594   -4.8688 H   0  0  0  0  0  0  0  0  0  0  0  0
    6.9044   -1.8375   -5.4968 H   0  0  0  0  0  0  0  0  0  0  0  0
    6.8718   -0.4004  -10.6837 H   0  0  0  0  0  0  0  0  0  0  0  0
    6.2510   -2.4865   -9.4540 H   0  0  0  0  0  0  0  0  0  0  0  0
    5.4034   -2.2614   -7.1485 H   0  0  0  0  0  0  0  0  0  0  0  0
  1  2  1  0  0  0  0
  1 24  1  0  0  0  0
  1 25  1  0  0  0  0
  1 26  1  0  0  0  0
  2  3  1  0  0  0  0
  3  4  2  0  0  0  0
  3  8  1  0  0  0  0
  4  5  1  0  0  0  0
  4 27  1  0  0  0  0
  5  6  2  0  0  0  0
  5 28  1  0  0  0  0
  6  7  1  0  0  0  0
  6 12  1  0  0  0  0
  7  8  2  0  0  0  0
  7  9  1  0  0  0  0
  8 29  1  0  0  0  0
  9 10  1  0  0  0  0
  9 30  1  0  0  0  0
  9 31  1  0  0  0  0
 10 11  1  0  0  0  0
 10 32  1  0  0  0  0
 10 33  1  0  0  0  0
 11 12  1  0  0  0  0
 11 34  1  0  0  0  0
 11 35  1  0  0  0  0
 12 13  1  0  0  0  0
 13 14  2  0  0  0  0
 13 23  1  0  0  0  0
 14 15  1  0  0  0  0
 15 16  1  0  0  0  0
 15 17  2  0  0  0  0
 17 18  1  0  0  0  0
 18 19  1  0  0  0  0
 18 23  2  0  0  0  0
 19 20  2  0  0  0  0
 20 21  1  0  0  0  0
 20 36  1  0  0  0  0
 21 22  2  0  0  0  0
 21 37  1  0  0  0  0
 22 23  1  0  0  0  0
 22 38  1  0  0  0  0
M  END
$$$$
