
 OpenBabel09162610133D

 38 42  0  0  1  0  0  0  0  0999 V2000
    1.2010    0.0172   -0.0561 C   0  0  0  0  0  0  0  0  0  0  0  0
    2.6376    0.0201   -0.3276 N   0  0  0  0  0  0  0  0  0  0  0  0
    3.3686    1.1177    0.1634 C   0  0  0  0  0  0  0  0  0  0  0  0
    2.9698    2.4333   -0.1246 C   0  0  0  0  0  0  0  0  0  0  0  0
    3.7209    3.5335    0.3015 C   0  0  0  0  0  0  0  0  0  0  0  0
    4.8924    3.3403    1.0257 C   0  0  0  0  0  0  0  0  0  0  0  0
    5.3023    2.0470    1.3398 C   0  0  0  0  0  0  0  0  0  0  0  0
    4.5481    0.9423    0.9183 C   0  0  0  0  0  0  0  0  0  0  0  0
    4.9610   -0.4100    1.2714 C   0  0  0  0  0  0  0  0  0  0  0  0
    5.9155   -0.7727    2.1030 N   0  0  0  0  0  0  0  0  0  0  0  0
    5.9434   -2.1413    2.0466 C   0  0  0  0  0  0  0  0  0  0  0  0
    6.7874   -3.0275    2.7369 C   0  0  0  0  0  0  0  0  0  0  0  0
    6.6634   -4.4005    2.5036 C   0  0  0  0  0  0  0  0  0  0  0  0
    5.7265   -4.8795    1.5915 C   0  0  0  0  0  0  0  0  0  0  0  0
    4.8797   -4.0110    0.8910 C   0  0  0  0  0  0  0  0  0  0  0  0
    4.9954   -2.6357    1.1495 C   0  0  0  0  0  0  0  0  0  0  0  0
    4.3482   -1.5056    0.7005 N   0  0  0  0  0  0  0  0  0  0  0  0
    3.3555   -1.2973   -0.3711 C   0  0  1  0  0  0  0  0  0  0  0  0
    2.4842   -2.5030   -0.6143 C   0  0  0  0  0  0  0  0  0  0  0  0
    2.2431   -3.2699   -1.7398 C   0  0  0  0  0  0  0  0  0  0  0  0
    1.3124   -4.2654   -1.3583 C   0  0  0  0  0  0  0  0  0  0  0  0
    1.0321   -4.0412   -0.0314 C   0  0  0  0  0  0  0  0  0  0  0  0
    1.7330   -2.9733    0.4290 O   0  0  0  0  0  0  0  0  0  0  0  0
    0.7786    1.0151    0.1009 H   0  0  0  0  0  0  0  0  0  0  0  0
    0.9648   -0.5667    0.8394 H   0  0  0  0  0  0  0  0  0  0  0  0
    0.6669   -0.4101   -0.9118 H   0  0  0  0  0  0  0  0  0  0  0  0
    2.0801    2.6190   -0.7215 H   0  0  0  0  0  0  0  0  0  0  0  0
    3.3945    4.5400    0.0534 H   0  0  0  0  0  0  0  0  0  0  0  0
    5.4865    4.1923    1.3452 H   0  0  0  0  0  0  0  0  0  0  0  0
    6.2161    1.8933    1.9114 H   0  0  0  0  0  0  0  0  0  0  0  0
    7.5190   -2.6393    3.4337 H   0  0  0  0  0  0  0  0  0  0  0  0
    7.3071   -5.0952    3.0376 H   0  0  0  0  0  0  0  0  0  0  0  0
    5.6458   -5.9521    1.4220 H   0  0  0  0  0  0  0  0  0  0  0  0
    4.1583   -4.4186    0.1949 H   0  0  0  0  0  0  0  0  0  0  0  0
    3.9993   -1.2278   -1.2640 H   0  0  0  0  0  0  0  0  0  0  0  0
    2.6907   -3.1251   -2.7139 H   0  0  0  0  0  0  0  0  0  0  0  0
    0.8945   -5.0496   -1.9745 H   0  0  0  0  0  0  0  0  0  0  0  0
    0.3916   -4.5268    0.6922 H   0  0  0  0  0  0  0  0  0  0  0  0
  1  2  1  0  0  0  0
  1 24  1  0  0  0  0
  1 25  1  0  0  0  0
  1 26  1  0  0  0  0
  2  3  1  0  0  0  0
  2 18  1  0  0  0  0
  3  4  1  0  0  0  0
  3  8  2  0  0  0  0
  4  5  2  0  0  0  0
  4 27  1  0  0  0  0
  5  6  1  0  0  0  0
  5 28  1  0  0  0  0
  6  7  2  0  0  0  0
  6 29  1  0  0  0  0
  7  8  1  0  0  0  0
  7 30  1  0  0  0  0
  8  9  1  0  0  0  0
  9 10  2  0  0  0  0
  9 17  1  0  0  0  0
 10 11  1  0  0  0  0
 11 12  1  0  0  0  0
 11 16  2  0  0  0  0
 12 13  2  0  0  0  0
 12 31  1  0  0  0  0
 13 14  1  0  0  0  0
 13 32  1  0  0  0  0
 14 15  2  0  0  0  0
 14 33  1  0  0  0  0
 15 16  1  0  0  0  0
 15 34  1  0  0  0  0
 16 17  1  0  0  0  0
 17 18  1  0  0  0  0
 18 19  1  0  0  0  0
 18 35  1  6  0  0  0
 19 20  2  0  0  0  0
 19 23  1  0  0  0  0
 20 21  1  0  0  0  0
 20 36  1  0  0  0  0
 21 22  2  0  0  0  0
 21 37  1  0  0  0  0
 22 23  1  0  0  0  0
 22 38  1  0  0  0  0
M  END
$$$$
