
 OpenBabel09162610133D

 33 36  0  0  0  0  0  0  0  0999 V2000
    0.8929   -0.0074   -0.0352 C   0  0  0  0  0  0  0  0  0  0  0  0
    2.3371    0.0633   -0.0829 N   0  0  0  0  0  0  0  0  0  0  0  0
    3.0609    1.2354   -0.0741 C   0  0  0  0  0  0  0  0  0  0  0  0
    2.6721    2.5798   -0.0630 C   0  0  0  0  0  0  0  0  0  0  0  0
    3.6811    3.5453   -0.0603 C   0  0  0  0  0  0  0  0  0  0  0  0
    5.0333    3.1918   -0.0632 C   0  0  0  0  0  0  0  0  0  0  0  0
    6.0319    4.1781   -0.0625 C   0  0  0  0  0  0  0  0  0  0  0  0
    7.3812    3.8255   -0.0667 C   0  0  0  0  0  0  0  0  0  0  0  0
    7.7561    2.4837   -0.0753 C   0  0  0  0  0  0  0  0  0  0  0  0
    6.7792    1.4819   -0.0801 C   0  0  0  0  0  0  0  0  0  0  0  0
    5.4139    1.8254   -0.0740 C   0  0  0  0  0  0  0  0  0  0  0  0
    4.3876    0.8296   -0.0852 C   0  0  0  0  0  0  0  0  0  0  0  0
    4.4663   -0.5531   -0.1167 N   0  0  0  0  0  0  0  0  0  0  0  0
    3.2162   -1.0072   -0.1507 C   0  0  0  0  0  0  0  0  0  0  0  0
    2.8157   -2.4248   -0.2734 C   0  0  0  0  0  0  0  0  0  0  0  0
    3.7532   -3.4512   -0.2802 C   0  0  0  0  0  0  0  0  0  0  0  0
    3.3129   -4.7656   -0.4583 C   0  0  0  0  0  0  0  0  0  0  0  0
    1.9566   -5.0197   -0.6228 C   0  0  0  0  0  0  0  0  0  0  0  0
    1.0893   -3.9455   -0.5923 C   0  0  0  0  0  0  0  0  0  0  0  0
    1.4875   -2.6665   -0.4221 N   0  0  0  0  0  0  0  0  0  0  0  0
    0.4657    0.9873    0.0931 H   0  0  0  0  0  0  0  0  0  0  0  0
    0.6003   -0.6186    0.8227 H   0  0  0  0  0  0  0  0  0  0  0  0
    0.5304   -0.4221   -0.9787 H   0  0  0  0  0  0  0  0  0  0  0  0
    1.6305    2.8823   -0.0629 H   0  0  0  0  0  0  0  0  0  0  0  0
    3.3902    4.5954   -0.0571 H   0  0  0  0  0  0  0  0  0  0  0  0
    5.7639    5.2334   -0.0559 H   0  0  0  0  0  0  0  0  0  0  0  0
    8.1414    4.6023   -0.0657 H   0  0  0  0  0  0  0  0  0  0  0  0
    8.8087    2.2145   -0.0799 H   0  0  0  0  0  0  0  0  0  0  0  0
    7.0777    0.4341   -0.0880 H   0  0  0  0  0  0  0  0  0  0  0  0
    4.8098   -3.2360   -0.1603 H   0  0  0  0  0  0  0  0  0  0  0  0
    4.0268   -5.5848   -0.4774 H   0  0  0  0  0  0  0  0  0  0  0  0
    1.5836   -6.0261   -0.7740 H   0  0  0  0  0  0  0  0  0  0  0  0
    0.0182   -4.0836   -0.7128 H   0  0  0  0  0  0  0  0  0  0  0  0
  1  2  1  0  0  0  0
  1 21  1  0  0  0  0
  1 22  1  0  0  0  0
  1 23  1  0  0  0  0
  2  3  1  0  0  0  0
  2 14  1  0  0  0  0
  3  4  2  0  0  0  0
  3 12  1  0  0  0  0
  4  5  1  0  0  0  0
  4 24  1  0  0  0  0
  5  6  2  0  0  0  0
  5 25  1  0  0  0  0
  6  7  1  0  0  0  0
  6 11  1  0  0  0  0
  7  8  2  0  0  0  0
  7 26  1  0  0  0  0
  8  9  1  0  0  0  0
  8 27  1  0  0  0  0
  9 10  2  0  0  0  0
  9 28  1  0  0  0  0
 10 11  1  0  0  0  0
 10 29  1  0  0  0  0
 11 12  2  0  0  0  0
 12 13  1  0  0  0  0
 13 14  2  0  0  0  0
 14 15  1  0  0  0  0
 15 16  2  0  0  0  0
 15 20  1  0  0  0  0
 16 17  1  0  0  0  0
 16 30  1  0  0  0  0
 17 18  2  0  0  0  0
 17 31  1  0  0  0  0
 18 19  1  0  0  0  0
 18 32  1  0  0  0  0
 19 20  2  0  0  0  0
 19 33  1  0  0  0  0
M  END
$$$$
