
 OpenBabel09162610133D

 40 42  0  0  1  0  0  0  0  0999 V2000
    1.1210    0.2014    0.3182 C   0  0  0  0  0  0  0  0  0  0  0  0
    2.6029    0.1679    0.2561 C   0  0  0  0  0  0  0  0  0  0  0  0
    3.2310   -1.0065    0.4415 N   0  0  0  0  0  0  0  0  0  0  0  0
    4.5348   -0.7095    0.2812 N   0  0  0  0  0  0  0  0  0  0  0  0
    5.5192   -1.7640    0.3127 C   0  0  0  0  0  0  0  0  0  0  0  0
    4.7440    0.6211    0.1154 C   0  0  0  0  0  0  0  0  0  0  0  0
    6.3295    1.2457    0.0271 Cl  0  0  0  0  0  0  0  0  0  0  0  0
    3.5162    1.2451    0.0497 C   0  0  0  0  0  0  0  0  0  0  0  0
    3.3145    2.7049   -0.1380 C   0  0  2  0  0  0  0  0  0  0  0  0
    2.6956    3.4088    1.0687 C   0  0  0  0  0  0  0  0  0  0  0  0
    2.4772    4.8091    0.5213 C   0  0  0  0  0  0  0  0  0  0  0  0
    2.0811    4.5628   -0.9324 C   0  0  0  0  0  0  0  0  0  0  0  0
    2.4972    3.1969   -1.2542 N   0  0  0  0  0  0  0  0  0  0  0  0
    2.5891    2.6439   -2.5325 C   0  0  0  0  0  0  0  0  0  0  0  0
    3.0293    1.5120   -2.7293 O   0  0  0  0  0  0  0  0  0  0  0  0
    2.2473    3.4365   -3.7618 C   0  0  0  0  0  0  0  0  0  0  0  0
    3.0041    3.1576   -4.9142 C   0  0  0  0  0  0  0  0  0  0  0  0
    2.8596    3.9181   -6.0763 C   0  0  0  0  0  0  0  0  0  0  0  0
    1.9612    4.9815   -6.1000 C   0  0  0  0  0  0  0  0  0  0  0  0
    1.1605    5.2380   -4.9850 C   0  0  0  0  0  0  0  0  0  0  0  0
    0.2515    6.3509   -4.9929 C   0  0  0  0  0  0  0  0  0  0  0  0
   -0.4623    7.2616   -4.9755 N   0  0  0  0  0  0  0  0  0  0  0  0
    1.2727    4.4360   -3.8378 C   0  0  0  0  0  0  0  0  0  0  0  0
    0.6975   -0.7995    0.1753 H   0  0  0  0  0  0  0  0  0  0  0  0
    0.7088    0.8508   -0.4587 H   0  0  0  0  0  0  0  0  0  0  0  0
    0.7913    0.5670    1.2952 H   0  0  0  0  0  0  0  0  0  0  0  0
    5.0193   -2.7334    0.2487 H   0  0  0  0  0  0  0  0  0  0  0  0
    6.0772   -1.6889    1.2491 H   0  0  0  0  0  0  0  0  0  0  0  0
    6.1879   -1.6469   -0.5448 H   0  0  0  0  0  0  0  0  0  0  0  0
    4.3005    3.1589   -0.3176 H   0  0  0  0  0  0  0  0  0  0  0  0
    3.3386    3.3975    1.9540 H   0  0  0  0  0  0  0  0  0  0  0  0
    1.7295    2.9649    1.3403 H   0  0  0  0  0  0  0  0  0  0  0  0
    3.4129    5.3790    0.5642 H   0  0  0  0  0  0  0  0  0  0  0  0
    1.7158    5.3720    1.0691 H   0  0  0  0  0  0  0  0  0  0  0  0
    2.5799    5.2797   -1.5930 H   0  0  0  0  0  0  0  0  0  0  0  0
    0.9968    4.6356   -1.0335 H   0  0  0  0  0  0  0  0  0  0  0  0
    3.7296    2.3439   -4.9045 H   0  0  0  0  0  0  0  0  0  0  0  0
    3.4657    3.6912   -6.9508 H   0  0  0  0  0  0  0  0  0  0  0  0
    1.8884    5.6018   -6.9921 H   0  0  0  0  0  0  0  0  0  0  0  0
    0.5891    4.6166   -3.0178 H   0  0  0  0  0  0  0  0  0  0  0  0
  1  2  1  0  0  0  0
  1 24  1  0  0  0  0
  1 25  1  0  0  0  0
  1 26  1  0  0  0  0
  2  3  2  0  0  0  0
  2  8  1  0  0  0  0
  3  4  1  0  0  0  0
  4  5  1  0  0  0  0
  4  6  1  0  0  0  0
  5 27  1  0  0  0  0
  5 28  1  0  0  0  0
  5 29  1  0  0  0  0
  6  7  1  0  0  0  0
  6  8  2  0  0  0  0
  8  9  1  0  0  0  0
  9 10  1  0  0  0  0
  9 13  1  0  0  0  0
  9 30  1  6  0  0  0
 10 11  1  0  0  0  0
 10 31  1  0  0  0  0
 10 32  1  0  0  0  0
 11 12  1  0  0  0  0
 11 33  1  0  0  0  0
 11 34  1  0  0  0  0
 12 13  1  0  0  0  0
 12 35  1  0  0  0  0
 12 36  1  0  0  0  0
 13 14  1  0  0  0  0
 14 15  2  0  0  0  0
 14 16  1  0  0  0  0
 16 17  2  0  0  0  0
 16 23  1  0  0  0  0
 17 18  1  0  0  0  0
 17 37  1  0  0  0  0
 18 19  2  0  0  0  0
 18 38  1  0  0  0  0
 19 20  1  0  0  0  0
 19 39  1  0  0  0  0
 20 21  1  0  0  0  0
 20 23  2  0  0  0  0
 21 22  3  0  0  0  0
 23 40  1  0  0  0  0
M  END
$$$$
