
 OpenBabel09162610133D

 31 32  0  0  0  0  0  0  0  0999 V2000
    3.2571   -0.4206    1.2361 C   0  0  0  0  0  0  0  0  0  0  0  0
    2.4588    0.0134    0.0200 C   0  0  0  0  0  0  0  0  0  0  0  0
    2.9730    1.2347   -0.5786 N   0  0  0  0  0  0  0  0  0  0  0  0
    2.4356    2.4019   -0.1668 N   0  0  0  0  0  0  0  0  0  0  0  0
    3.0308    3.3284   -0.9169 C   0  0  0  0  0  0  0  0  0  0  0  0
    2.7066    4.7645   -0.7453 C   0  0  0  0  0  0  0  0  0  0  0  0
    3.9532    2.7463   -1.8104 C   0  0  0  0  0  0  0  0  0  0  0  0
    3.9456    1.3836   -1.5465 C   0  0  0  0  0  0  0  0  0  0  0  0
    4.7311    0.3000   -2.0974 C   0  0  0  0  0  0  0  0  0  0  0  0
    4.6092   -0.8765   -1.7710 O   0  0  0  0  0  0  0  0  0  0  0  0
    5.8685    0.7624   -3.3603 S   0  0  0  0  0  0  0  0  0  0  0  0
    7.4765    0.3050   -2.7272 C   0  0  0  0  0  0  0  0  0  0  0  0
    7.7112   -0.7790   -1.8740 C   0  0  0  0  0  0  0  0  0  0  0  0
    9.0094   -1.0995   -1.4592 C   0  0  0  0  0  0  0  0  0  0  0  0
   10.0932   -0.3488   -1.9069 C   0  0  0  0  0  0  0  0  0  0  0  0
    9.8736    0.7214   -2.7678 C   0  0  0  0  0  0  0  0  0  0  0  0
   11.2114    1.6378   -3.3457 Cl  0  0  0  0  0  0  0  0  0  0  0  0
    8.5786    1.0499   -3.1765 C   0  0  0  0  0  0  0  0  0  0  0  0
    2.8045   -1.3088    1.6883 H   0  0  0  0  0  0  0  0  0  0  0  0
    3.2835    0.3703    1.9934 H   0  0  0  0  0  0  0  0  0  0  0  0
    4.2909   -0.6619    0.9707 H   0  0  0  0  0  0  0  0  0  0  0  0
    1.4183    0.2061    0.3093 H   0  0  0  0  0  0  0  0  0  0  0  0
    2.4279   -0.7668   -0.7452 H   0  0  0  0  0  0  0  0  0  0  0  0
    1.9922    4.9225    0.0694 H   0  0  0  0  0  0  0  0  0  0  0  0
    2.2722    5.1724   -1.6632 H   0  0  0  0  0  0  0  0  0  0  0  0
    3.6140    5.3306   -0.5108 H   0  0  0  0  0  0  0  0  0  0  0  0
    4.5636    3.2718   -2.5326 H   0  0  0  0  0  0  0  0  0  0  0  0
    6.9006   -1.4142   -1.5274 H   0  0  0  0  0  0  0  0  0  0  0  0
    9.1722   -1.9472   -0.7971 H   0  0  0  0  0  0  0  0  0  0  0  0
   11.1007   -0.6082   -1.5908 H   0  0  0  0  0  0  0  0  0  0  0  0
    8.4363    1.8851   -3.8588 H   0  0  0  0  0  0  0  0  0  0  0  0
  1  2  1  0  0  0  0
  1 19  1  0  0  0  0
  1 20  1  0  0  0  0
  1 21  1  0  0  0  0
  2  3  1  0  0  0  0
  2 22  1  0  0  0  0
  2 23  1  0  0  0  0
  3  4  1  0  0  0  0
  3  8  1  0  0  0  0
  4  5  2  0  0  0  0
  5  6  1  0  0  0  0
  5  7  1  0  0  0  0
  6 24  1  0  0  0  0
  6 25  1  0  0  0  0
  6 26  1  0  0  0  0
  7  8  2  0  0  0  0
  7 27  1  0  0  0  0
  8  9  1  0  0  0  0
  9 10  2  0  0  0  0
  9 11  1  0  0  0  0
 11 12  1  0  0  0  0
 12 13  2  0  0  0  0
 12 18  1  0  0  0  0
 13 14  1  0  0  0  0
 13 28  1  0  0  0  0
 14 15  2  0  0  0  0
 14 29  1  0  0  0  0
 15 16  1  0  0  0  0
 15 30  1  0  0  0  0
 16 17  1  0  0  0  0
 16 18  2  0  0  0  0
 18 31  1  0  0  0  0
M  END
$$$$
