
 OpenBabel09162610133D

 29 31  0  0  0  0  0  0  0  0999 V2000
    1.0047   -0.2134   -0.0593 O   0  5  0  0  0  0  0  0  0  0  0  0
    2.2606   -0.0061    0.0162 N   0  3  0  0  0  0  0  0  0  0  0  0
    2.8100    0.7010    0.9805 C   0  0  0  0  0  0  0  0  0  0  0  0
    2.0692    1.2918    2.1106 C   0  0  0  0  0  0  0  0  0  0  0  0
    0.8845    0.7341    2.6316 C   0  0  0  0  0  0  0  0  0  0  0  0
    0.2039    1.3559    3.6841 C   0  0  0  0  0  0  0  0  0  0  0  0
    0.7375    2.5176    4.1942 C   0  0  0  0  0  0  0  0  0  0  0  0
    1.9107    3.0467    3.7102 C   0  0  0  0  0  0  0  0  0  0  0  0
    2.6097    2.4529    2.6787 C   0  0  0  0  0  0  0  0  0  0  0  0
    2.2626    4.1937    4.3520 O   0  0  0  0  0  0  0  0  0  0  0  0
    1.1440    4.3562    5.2505 C   0  0  0  0  0  0  0  0  0  0  0  0
    0.2025    3.2652    5.1951 O   0  0  0  0  0  0  0  0  0  0  0  0
    3.1146   -0.5185   -1.0537 C   0  0  0  0  0  0  0  0  0  0  0  0
    2.6159   -0.4939   -2.3638 C   0  0  0  0  0  0  0  0  0  0  0  0
    3.3680   -1.0320   -3.4101 C   0  0  0  0  0  0  0  0  0  0  0  0
    4.6150   -1.5943   -3.1434 C   0  0  0  0  0  0  0  0  0  0  0  0
    5.5353   -2.2736   -4.4286 Cl  0  0  0  0  0  0  0  0  0  0  0  0
    5.1152   -1.6257   -1.8408 C   0  0  0  0  0  0  0  0  0  0  0  0
    4.3643   -1.0938   -0.7876 C   0  0  0  0  0  0  0  0  0  0  0  0
    3.8914    0.9037    0.9184 H   0  0  0  0  0  0  0  0  0  0  0  0
    0.4694   -0.1861    2.2273 H   0  0  0  0  0  0  0  0  0  0  0  0
   -0.7184    0.9420    4.0760 H   0  0  0  0  0  0  0  0  0  0  0  0
    3.5279    2.9001    2.3153 H   0  0  0  0  0  0  0  0  0  0  0  0
    0.6200    5.2843    4.9921 H   0  0  0  0  0  0  0  0  0  0  0  0
    1.5235    4.4403    6.2748 H   0  0  0  0  0  0  0  0  0  0  0  0
    1.6324   -0.0737   -2.5710 H   0  0  0  0  0  0  0  0  0  0  0  0
    2.9699   -1.0207   -4.4210 H   0  0  0  0  0  0  0  0  0  0  0  0
    6.0837   -2.0773   -1.6381 H   0  0  0  0  0  0  0  0  0  0  0  0
    4.7553   -1.1585    0.2245 H   0  0  0  0  0  0  0  0  0  0  0  0
  1  2  1  0  0  0  0
  2  3  2  0  0  0  0
  2 13  1  0  0  0  0
  3  4  1  0  0  0  0
  3 20  1  0  0  0  0
  4  5  2  0  0  0  0
  4  9  1  0  0  0  0
  5  6  1  0  0  0  0
  5 21  1  0  0  0  0
  6  7  2  0  0  0  0
  6 22  1  0  0  0  0
  7  8  1  0  0  0  0
  7 12  1  0  0  0  0
  8  9  2  0  0  0  0
  8 10  1  0  0  0  0
  9 23  1  0  0  0  0
 10 11  1  0  0  0  0
 11 12  1  0  0  0  0
 11 24  1  0  0  0  0
 11 25  1  0  0  0  0
 13 14  2  0  0  0  0
 13 19  1  0  0  0  0
 14 15  1  0  0  0  0
 14 26  1  0  0  0  0
 15 16  2  0  0  0  0
 15 27  1  0  0  0  0
 16 17  1  0  0  0  0
 16 18  1  0  0  0  0
 18 19  2  0  0  0  0
 18 28  1  0  0  0  0
 19 29  1  0  0  0  0
M  CHG  2   1  -1   2   1
M  END
$$$$
