
 OpenBabel09162610133D

 35 38  0  0  0  0  0  0  0  0999 V2000
    7.1091   -2.2246   -2.1803 C   0  0  0  0  0  0  0  0  0  0  0  0
    6.1514   -2.4277   -1.1490 O   0  0  0  0  0  0  0  0  0  0  0  0
    4.8864   -1.9450   -1.3888 C   0  0  0  0  0  0  0  0  0  0  0  0
    4.3272   -1.9385   -2.6756 C   0  0  0  0  0  0  0  0  0  0  0  0
    3.0179   -1.5019   -2.8750 C   0  0  0  0  0  0  0  0  0  0  0  0
    2.2545   -1.0848   -1.7919 C   0  0  0  0  0  0  0  0  0  0  0  0
    2.8009   -1.1035   -0.5034 C   0  0  0  0  0  0  0  0  0  0  0  0
    4.1240   -1.5270   -0.2701 C   0  0  0  0  0  0  0  0  0  0  0  0
    4.6611   -1.5317    1.1110 C   0  0  0  0  0  0  0  0  0  0  0  0
    5.9624   -1.1378    1.4042 C   0  0  0  0  0  0  0  0  0  0  0  0
    6.4314   -1.2922    2.6990 C   0  0  0  0  0  0  0  0  0  0  0  0
    7.7266   -0.9572    2.9971 O   0  0  0  0  0  0  0  0  0  0  0  0
    5.6011   -1.7971    3.7033 C   0  0  0  0  0  0  0  0  0  0  0  0
    6.0544   -2.0082    5.0226 C   0  0  0  0  0  0  0  0  0  0  0  0
    5.1590   -2.4873    5.9467 C   0  0  0  0  0  0  0  0  0  0  0  0
    3.8571   -2.7471    5.6068 C   0  0  0  0  0  0  0  0  0  0  0  0
    3.3917   -2.5625    4.3208 C   0  0  0  0  0  0  0  0  0  0  0  0
    4.2612   -2.0975    3.3404 C   0  0  0  0  0  0  0  0  0  0  0  0
    3.8096   -1.9622    2.0803 N   0  0  0  0  0  0  0  0  0  0  0  0
    3.1284   -3.1982    6.6635 O   0  0  0  0  0  0  0  0  0  0  0  0
    4.1238   -3.1798    7.7086 C   0  0  0  0  0  0  0  0  0  0  0  0
    5.4229   -2.7513    7.2524 O   0  0  0  0  0  0  0  0  0  0  0  0
    8.1021   -2.3416   -1.7349 H   0  0  0  0  0  0  0  0  0  0  0  0
    7.0504   -1.2132   -2.5971 H   0  0  0  0  0  0  0  0  0  0  0  0
    7.0007   -2.9824   -2.9614 H   0  0  0  0  0  0  0  0  0  0  0  0
    4.8846   -2.2969   -3.5346 H   0  0  0  0  0  0  0  0  0  0  0  0
    2.5899   -1.5057   -3.8740 H   0  0  0  0  0  0  0  0  0  0  0  0
    1.2293   -0.7579   -1.9408 H   0  0  0  0  0  0  0  0  0  0  0  0
    2.1803   -0.7866    0.3333 H   0  0  0  0  0  0  0  0  0  0  0  0
    6.6009   -0.7428    0.6247 H   0  0  0  0  0  0  0  0  0  0  0  0
    8.1773   -0.6792    2.1829 H   0  0  0  0  0  0  0  0  0  0  0  0
    7.0821   -1.8055    5.3056 H   0  0  0  0  0  0  0  0  0  0  0  0
    2.3593   -2.7836    4.0714 H   0  0  0  0  0  0  0  0  0  0  0  0
    4.2123   -4.1885    8.1280 H   0  0  0  0  0  0  0  0  0  0  0  0
    3.7914   -2.4974    8.4994 H   0  0  0  0  0  0  0  0  0  0  0  0
  1  2  1  0  0  0  0
  1 23  1  0  0  0  0
  1 24  1  0  0  0  0
  1 25  1  0  0  0  0
  2  3  1  0  0  0  0
  3  4  2  0  0  0  0
  3  8  1  0  0  0  0
  4  5  1  0  0  0  0
  4 26  1  0  0  0  0
  5  6  2  0  0  0  0
  5 27  1  0  0  0  0
  6  7  1  0  0  0  0
  6 28  1  0  0  0  0
  7  8  2  0  0  0  0
  7 29  1  0  0  0  0
  8  9  1  0  0  0  0
  9 10  2  0  0  0  0
  9 19  1  0  0  0  0
 10 11  1  0  0  0  0
 10 30  1  0  0  0  0
 11 12  1  0  0  0  0
 11 13  2  0  0  0  0
 12 31  1  0  0  0  0
 13 14  1  0  0  0  0
 13 18  1  0  0  0  0
 14 15  2  0  0  0  0
 14 32  1  0  0  0  0
 15 16  1  0  0  0  0
 15 22  1  0  0  0  0
 16 17  2  0  0  0  0
 16 20  1  0  0  0  0
 17 18  1  0  0  0  0
 17 33  1  0  0  0  0
 18 19  2  0  0  0  0
 20 21  1  0  0  0  0
 21 22  1  0  0  0  0
 21 34  1  0  0  0  0
 21 35  1  0  0  0  0
M  END
$$$$
