
 OpenBabel09162610133D

 30 32  0  0  0  0  0  0  0  0999 V2000
   -3.0546   -0.2678   -0.0697 N   0  0  0  0  0  0  0  0  0  0  0  0
   -1.8933   -0.3117   -0.0644 C   0  0  0  0  0  0  0  0  0  0  0  0
   -0.4649   -0.3410   -0.0012 C   0  0  0  0  0  0  0  0  0  0  0  0
    0.2260    0.8759   -0.0354 C   0  0  0  0  0  0  0  0  0  0  0  0
   -0.4239    2.1037   -0.1339 N   0  0  0  0  0  0  0  0  0  0  0  0
    1.5695    0.9529   -0.0633 N   0  0  0  0  0  0  0  0  0  0  0  0
    2.2905   -0.1990   -0.0494 C   0  0  0  0  0  0  0  0  0  0  0  0
    3.7601   -0.0738   -0.2249 C   0  0  0  0  0  0  0  0  0  0  0  0
    4.3877    1.1597   -0.4099 C   0  0  0  0  0  0  0  0  0  0  0  0
    5.7588    1.2038   -0.6594 C   0  0  0  0  0  0  0  0  0  0  0  0
    6.4786    0.0188   -0.7165 C   0  0  0  0  0  0  0  0  0  0  0  0
    5.7962   -1.1655   -0.5099 C   0  0  0  0  0  0  0  0  0  0  0  0
    4.4687   -1.2369   -0.2648 N   0  0  0  0  0  0  0  0  0  0  0  0
    1.6643   -1.4423    0.0569 C   0  0  0  0  0  0  0  0  0  0  0  0
    0.2636   -1.5414    0.0713 C   0  0  0  0  0  0  0  0  0  0  0  0
   -0.3834   -2.8764    0.1459 C   0  0  0  0  0  0  0  0  0  0  0  0
   -1.5552   -3.2638    0.7786 C   0  0  0  0  0  0  0  0  0  0  0  0
   -1.8697   -4.6423    0.5919 C   0  0  0  0  0  0  0  0  0  0  0  0
   -0.9094   -5.2917   -0.1445 C   0  0  0  0  0  0  0  0  0  0  0  0
    0.3267   -4.2332   -0.6532 S   0  0  0  0  0  0  0  0  0  0  0  0
   -1.1960    2.2298    0.5118 H   0  0  0  0  0  0  0  0  0  0  0  0
    0.2681    2.8456   -0.0644 H   0  0  0  0  0  0  0  0  0  0  0  0
    3.8144    2.0819   -0.3835 H   0  0  0  0  0  0  0  0  0  0  0  0
    6.2545    2.1569   -0.8211 H   0  0  0  0  0  0  0  0  0  0  0  0
    7.5432    0.0172   -0.9216 H   0  0  0  0  0  0  0  0  0  0  0  0
    6.3117   -2.1213   -0.5449 H   0  0  0  0  0  0  0  0  0  0  0  0
    2.2854   -2.3346    0.0972 H   0  0  0  0  0  0  0  0  0  0  0  0
   -2.1881   -2.5978    1.3528 H   0  0  0  0  0  0  0  0  0  0  0  0
   -2.7524   -5.1296    0.9879 H   0  0  0  0  0  0  0  0  0  0  0  0
   -0.8801   -6.3373   -0.4191 H   0  0  0  0  0  0  0  0  0  0  0  0
  1  2  3  0  0  0  0
  2  3  1  0  0  0  0
  3  4  2  0  0  0  0
  3 15  1  0  0  0  0
  4  5  1  0  0  0  0
  4  6  1  0  0  0  0
  5 21  1  0  0  0  0
  5 22  1  0  0  0  0
  6  7  2  0  0  0  0
  7  8  1  0  0  0  0
  7 14  1  0  0  0  0
  8  9  2  0  0  0  0
  8 13  1  0  0  0  0
  9 10  1  0  0  0  0
  9 23  1  0  0  0  0
 10 11  2  0  0  0  0
 10 24  1  0  0  0  0
 11 12  1  0  0  0  0
 11 25  1  0  0  0  0
 12 13  2  0  0  0  0
 12 26  1  0  0  0  0
 14 15  2  0  0  0  0
 14 27  1  0  0  0  0
 15 16  1  0  0  0  0
 16 17  2  0  0  0  0
 16 20  1  0  0  0  0
 17 18  1  0  0  0  0
 17 28  1  0  0  0  0
 18 19  2  0  0  0  0
 18 29  1  0  0  0  0
 19 20  1  0  0  0  0
 19 30  1  0  0  0  0
M  END
$$$$
