
 OpenBabel09162610133D

 27 28  0  0  0  0  0  0  0  0999 V2000
    1.2919    0.3305   -0.7041 O   0  0  0  0  0  0  0  0  0  0  0  0
    2.4064    0.0199   -0.3038 C   0  0  0  0  0  0  0  0  0  0  0  0
    3.1385    0.7193    0.6582 O   0  0  0  0  0  0  0  0  0  0  0  0
    2.5969    1.8710    1.2746 C   0  0  0  0  0  0  0  0  0  0  0  0
    1.2383    1.9798    1.5889 C   0  0  0  0  0  0  0  0  0  0  0  0
    0.7503    3.1543    2.1639 C   0  0  0  0  0  0  0  0  0  0  0  0
    1.6259    4.1979    2.4594 C   0  0  0  0  0  0  0  0  0  0  0  0
    1.0134    5.6519    3.1463 Cl  0  0  0  0  0  0  0  0  0  0  0  0
    2.9909    4.0719    2.2065 C   0  0  0  0  0  0  0  0  0  0  0  0
    3.4774    2.9037    1.6179 C   0  0  0  0  0  0  0  0  0  0  0  0
    5.1751    2.7688    1.3305 Cl  0  0  0  0  0  0  0  0  0  0  0  0
    3.0646   -1.1016   -0.7427 N   0  0  0  0  0  0  0  0  0  0  0  0
    2.4083   -2.0957   -1.5654 C   0  0  0  0  0  0  0  0  0  0  0  0
    3.2766   -3.3305   -1.3878 C   0  0  0  0  0  0  0  0  0  0  0  0
    4.6763   -2.7348   -1.2708 C   0  0  0  0  0  0  0  0  0  0  0  0
    4.4460   -1.4555   -0.4698 C   0  0  0  0  0  0  0  0  0  0  0  0
    0.5419    1.1718    1.3794 H   0  0  0  0  0  0  0  0  0  0  0  0
   -0.3135    3.2482    2.3714 H   0  0  0  0  0  0  0  0  0  0  0  0
    3.6690    4.8824    2.4620 H   0  0  0  0  0  0  0  0  0  0  0  0
    2.4216   -1.7397   -2.6015 H   0  0  0  0  0  0  0  0  0  0  0  0
    1.3718   -2.2516   -1.2519 H   0  0  0  0  0  0  0  0  0  0  0  0
    3.1756   -4.0426   -2.2123 H   0  0  0  0  0  0  0  0  0  0  0  0
    3.0146   -3.8422   -0.4539 H   0  0  0  0  0  0  0  0  0  0  0  0
    5.0538   -2.4907   -2.2699 H   0  0  0  0  0  0  0  0  0  0  0  0
    5.3888   -3.4094   -0.7918 H   0  0  0  0  0  0  0  0  0  0  0  0
    5.1122   -0.6427   -0.7829 H   0  0  0  0  0  0  0  0  0  0  0  0
    4.5602   -1.6195    0.6084 H   0  0  0  0  0  0  0  0  0  0  0  0
  1  2  2  0  0  0  0
  2  3  1  0  0  0  0
  2 12  1  0  0  0  0
  3  4  1  0  0  0  0
  4  5  2  0  0  0  0
  4 10  1  0  0  0  0
  5  6  1  0  0  0  0
  5 17  1  0  0  0  0
  6  7  2  0  0  0  0
  6 18  1  0  0  0  0
  7  8  1  0  0  0  0
  7  9  1  0  0  0  0
  9 10  2  0  0  0  0
  9 19  1  0  0  0  0
 10 11  1  0  0  0  0
 12 13  1  0  0  0  0
 12 16  1  0  0  0  0
 13 14  1  0  0  0  0
 13 20  1  0  0  0  0
 13 21  1  0  0  0  0
 14 15  1  0  0  0  0
 14 22  1  0  0  0  0
 14 23  1  0  0  0  0
 15 16  1  0  0  0  0
 15 24  1  0  0  0  0
 15 25  1  0  0  0  0
 16 26  1  0  0  0  0
 16 27  1  0  0  0  0
M  END
$$$$
