
 OpenBabel09162610133D

 32 34  0  0  0  0  0  0  0  0999 V2000
    1.0985   -0.0960   -0.7292 N   0  0  0  0  0  0  0  0  0  0  0  0
    2.2426   -0.0575   -0.5363 C   0  0  0  0  0  0  0  0  0  0  0  0
    3.6484   -0.0630   -0.2959 C   0  0  0  0  0  0  0  0  0  0  0  0
    4.3433   -1.2751   -0.2597 C   0  0  0  0  0  0  0  0  0  0  0  0
    5.7147   -1.2693   -0.0354 C   0  0  0  0  0  0  0  0  0  0  0  0
    6.5462   -2.4870   -0.0268 C   0  0  0  0  0  0  0  0  0  0  0  0
    6.2168   -3.6170   -0.7999 C   0  0  0  0  0  0  0  0  0  0  0  0
    6.9922   -4.7796   -0.7580 C   0  0  0  0  0  0  0  0  0  0  0  0
    8.1231   -4.8346    0.0499 C   0  0  0  0  0  0  0  0  0  0  0  0
    8.4896   -3.7226    0.8013 C   0  0  0  0  0  0  0  0  0  0  0  0
    7.7121   -2.5614    0.7585 C   0  0  0  0  0  0  0  0  0  0  0  0
    6.3533   -0.1019    0.1966 N   0  0  0  0  0  0  0  0  0  0  0  0
    5.6722    1.0910    0.1728 N   0  0  0  0  0  0  0  0  0  0  0  0
    4.3539    1.1087   -0.1104 C   0  0  0  0  0  0  0  0  0  0  0  0
    3.6849    2.3206   -0.2024 O   0  0  0  0  0  0  0  0  0  0  0  0
    4.4301    3.4313   -0.5285 C   0  0  0  0  0  0  0  0  0  0  0  0
    5.3919    3.4356   -1.5439 C   0  0  0  0  0  0  0  0  0  0  0  0
    6.1272    4.5918   -1.8016 C   0  0  0  0  0  0  0  0  0  0  0  0
    5.8743    5.7540   -1.0749 C   0  0  0  0  0  0  0  0  0  0  0  0
    4.8749    5.7659   -0.1012 C   0  0  0  0  0  0  0  0  0  0  0  0
    4.1465    4.6065    0.1680 C   0  0  0  0  0  0  0  0  0  0  0  0
    3.8089   -2.2087   -0.4018 H   0  0  0  0  0  0  0  0  0  0  0  0
    5.3550   -3.6068   -1.4634 H   0  0  0  0  0  0  0  0  0  0  0  0
    6.7118   -5.6403   -1.3601 H   0  0  0  0  0  0  0  0  0  0  0  0
    8.7222   -5.7405    0.0885 H   0  0  0  0  0  0  0  0  0  0  0  0
    9.3800   -3.7551    1.4243 H   0  0  0  0  0  0  0  0  0  0  0  0
    8.0241   -1.7056    1.3571 H   0  0  0  0  0  0  0  0  0  0  0  0
    5.5997    2.5402   -2.1229 H   0  0  0  0  0  0  0  0  0  0  0  0
    6.9041    4.5806   -2.5622 H   0  0  0  0  0  0  0  0  0  0  0  0
    6.4563    6.6510   -1.2689 H   0  0  0  0  0  0  0  0  0  0  0  0
    4.6697    6.6775    0.4543 H   0  0  0  0  0  0  0  0  0  0  0  0
    3.3721    4.6184    0.9297 H   0  0  0  0  0  0  0  0  0  0  0  0
  1  2  3  0  0  0  0
  2  3  1  0  0  0  0
  3  4  2  0  0  0  0
  3 14  1  0  0  0  0
  4  5  1  0  0  0  0
  4 22  1  0  0  0  0
  5  6  1  0  0  0  0
  5 12  2  0  0  0  0
  6  7  2  0  0  0  0
  6 11  1  0  0  0  0
  7  8  1  0  0  0  0
  7 23  1  0  0  0  0
  8  9  2  0  0  0  0
  8 24  1  0  0  0  0
  9 10  1  0  0  0  0
  9 25  1  0  0  0  0
 10 11  2  0  0  0  0
 10 26  1  0  0  0  0
 11 27  1  0  0  0  0
 12 13  1  0  0  0  0
 13 14  2  0  0  0  0
 14 15  1  0  0  0  0
 15 16  1  0  0  0  0
 16 17  2  0  0  0  0
 16 21  1  0  0  0  0
 17 18  1  0  0  0  0
 17 28  1  0  0  0  0
 18 19  2  0  0  0  0
 18 29  1  0  0  0  0
 19 20  1  0  0  0  0
 19 30  1  0  0  0  0
 20 21  2  0  0  0  0
 20 31  1  0  0  0  0
 21 32  1  0  0  0  0
M  END
$$$$
