
 OpenBabel09162610133D

 27 28  0  0  0  0  0  0  0  0999 V2000
    1.3444   -0.4703   -0.3315 C   0  0  0  0  0  0  0  0  0  0  0  0
    2.7224   -0.0112    0.0893 C   0  0  0  0  0  0  0  0  0  0  0  0
    3.2124    0.9878   -0.4373 O   0  0  0  0  0  0  0  0  0  0  0  0
    3.3844   -0.7866    1.1359 C   0  0  0  0  0  0  0  0  0  0  0  0
    2.9637   -1.9270    1.7876 C   0  0  0  0  0  0  0  0  0  0  0  0
    3.8757   -2.3697    2.8174 C   0  0  0  0  0  0  0  0  0  0  0  0
    3.5866   -3.5180    3.6540 N   0  3  0  0  0  0  0  0  0  0  0  0
    2.5005   -4.0783    3.4516 O   0  0  0  0  0  0  0  0  0  0  0  0
    4.4168   -3.8703    4.4972 O   0  5  0  0  0  0  0  0  0  0  0  0
    4.9873   -1.5435    2.8984 C   0  0  0  0  0  0  0  0  0  0  0  0
    6.3238   -1.5297    4.0551 S   0  0  0  0  0  0  0  0  0  0  0  0
    7.5026   -2.5416    3.1790 C   0  0  0  0  0  0  0  0  0  0  0  0
    8.3812   -1.9775    2.2457 C   0  0  0  0  0  0  0  0  0  0  0  0
    9.3606   -2.7649    1.6320 C   0  0  0  0  0  0  0  0  0  0  0  0
    9.4725   -4.1177    1.9505 C   0  0  0  0  0  0  0  0  0  0  0  0
    8.6097   -4.6837    2.8864 C   0  0  0  0  0  0  0  0  0  0  0  0
    7.6340   -3.8966    3.5023 C   0  0  0  0  0  0  0  0  0  0  0  0
    4.9073   -0.2836    1.7257 S   0  0  0  0  0  0  0  0  0  0  0  0
    0.9901    0.1497   -1.1610 H   0  0  0  0  0  0  0  0  0  0  0  0
    0.6444   -0.3656    0.5022 H   0  0  0  0  0  0  0  0  0  0  0  0
    1.3768   -1.5082   -0.6733 H   0  0  0  0  0  0  0  0  0  0  0  0
    2.0238   -2.4263    1.5720 H   0  0  0  0  0  0  0  0  0  0  0  0
    8.3285   -0.9182    2.0049 H   0  0  0  0  0  0  0  0  0  0  0  0
   10.0480   -2.3186    0.9174 H   0  0  0  0  0  0  0  0  0  0  0  0
   10.2417   -4.7268    1.4822 H   0  0  0  0  0  0  0  0  0  0  0  0
    8.7067   -5.7334    3.1528 H   0  0  0  0  0  0  0  0  0  0  0  0
    6.9935   -4.3492    4.2557 H   0  0  0  0  0  0  0  0  0  0  0  0
  1  2  1  0  0  0  0
  1 19  1  0  0  0  0
  1 20  1  0  0  0  0
  1 21  1  0  0  0  0
  2  3  2  0  0  0  0
  2  4  1  0  0  0  0
  4  5  2  0  0  0  0
  4 18  1  0  0  0  0
  5  6  1  0  0  0  0
  5 22  1  0  0  0  0
  6  7  1  0  0  0  0
  6 10  2  0  0  0  0
  7  8  2  0  0  0  0
  7  9  1  0  0  0  0
 10 11  1  0  0  0  0
 10 18  1  0  0  0  0
 11 12  1  0  0  0  0
 12 13  2  0  0  0  0
 12 17  1  0  0  0  0
 13 14  1  0  0  0  0
 13 23  1  0  0  0  0
 14 15  2  0  0  0  0
 14 24  1  0  0  0  0
 15 16  1  0  0  0  0
 15 25  1  0  0  0  0
 16 17  2  0  0  0  0
 16 26  1  0  0  0  0
 17 27  1  0  0  0  0
M  CHG  2   7   1   9  -1
M  END
$$$$
