
 OpenBabel09162610133D

 34 36  0  0  0  0  0  0  0  0999 V2000
   -3.4760   -0.7062    0.0140 C   0  0  0  0  0  0  0  0  0  0  0  0
   -2.0815   -0.1571   -0.0081 C   0  0  0  0  0  0  0  0  0  0  0  0
   -1.8636    1.2132   -0.0033 C   0  0  0  0  0  0  0  0  0  0  0  0
   -0.5540    1.6742   -0.0072 C   0  0  0  0  0  0  0  0  0  0  0  0
    0.5047    0.7603   -0.0107 C   0  0  0  0  0  0  0  0  0  0  0  0
    1.8412    1.1944    0.0072 C   0  0  0  0  0  0  0  0  0  0  0  0
    2.8998    0.2843    0.0293 C   0  0  0  0  0  0  0  0  0  0  0  0
    4.2577    0.6811    0.0937 N   0  0  0  0  0  0  0  0  0  0  0  0
    4.6980    1.9513    0.4381 C   0  0  0  0  0  0  0  0  0  0  0  0
    3.9873    2.8735    0.8226 O   0  0  0  0  0  0  0  0  0  0  0  0
    6.1646    2.2043    0.3836 C   0  0  0  0  0  0  0  0  0  0  0  0
    7.0200    1.5551   -0.5136 C   0  0  0  0  0  0  0  0  0  0  0  0
    8.3672    1.9301   -0.5816 C   0  0  0  0  0  0  0  0  0  0  0  0
    8.8606    2.9470    0.2389 C   0  0  0  0  0  0  0  0  0  0  0  0
    8.0147    3.5890    1.1387 C   0  0  0  0  0  0  0  0  0  0  0  0
    6.6732    3.2198    1.2106 C   0  0  0  0  0  0  0  0  0  0  0  0
    2.6002   -1.0771   -0.0203 C   0  0  0  0  0  0  0  0  0  0  0  0
    1.2628   -1.5073   -0.0380 C   0  0  0  0  0  0  0  0  0  0  0  0
    0.2000   -0.6114   -0.0240 C   0  0  0  0  0  0  0  0  0  0  0  0
   -1.0694   -1.0619   -0.0236 N   0  0  0  0  0  0  0  0  0  0  0  0
   -4.2271    0.0910    0.0061 H   0  0  0  0  0  0  0  0  0  0  0  0
   -3.6248   -1.3046    0.9180 H   0  0  0  0  0  0  0  0  0  0  0  0
   -3.6411   -1.3378   -0.8640 H   0  0  0  0  0  0  0  0  0  0  0  0
   -2.6892    1.9168    0.0088 H   0  0  0  0  0  0  0  0  0  0  0  0
   -0.3627    2.7446    0.0029 H   0  0  0  0  0  0  0  0  0  0  0  0
    2.0271    2.2639   -0.0038 H   0  0  0  0  0  0  0  0  0  0  0  0
    4.9491   -0.0528    0.0133 H   0  0  0  0  0  0  0  0  0  0  0  0
    6.6539    0.7971   -1.1989 H   0  0  0  0  0  0  0  0  0  0  0  0
    9.0327    1.4469   -1.2933 H   0  0  0  0  0  0  0  0  0  0  0  0
    9.9017    3.2516    0.1666 H   0  0  0  0  0  0  0  0  0  0  0  0
    8.3891    4.3904    1.7712 H   0  0  0  0  0  0  0  0  0  0  0  0
    6.0131    3.7432    1.8999 H   0  0  0  0  0  0  0  0  0  0  0  0
    3.3860   -1.8273   -0.0167 H   0  0  0  0  0  0  0  0  0  0  0  0
    1.0422   -2.5722   -0.0513 H   0  0  0  0  0  0  0  0  0  0  0  0
  1  2  1  0  0  0  0
  1 21  1  0  0  0  0
  1 22  1  0  0  0  0
  1 23  1  0  0  0  0
  2  3  2  0  0  0  0
  2 20  1  0  0  0  0
  3  4  1  0  0  0  0
  3 24  1  0  0  0  0
  4  5  2  0  0  0  0
  4 25  1  0  0  0  0
  5  6  1  0  0  0  0
  5 19  1  0  0  0  0
  6  7  2  0  0  0  0
  6 26  1  0  0  0  0
  7  8  1  0  0  0  0
  7 17  1  0  0  0  0
  8  9  1  0  0  0  0
  8 27  1  0  0  0  0
  9 10  2  0  0  0  0
  9 11  1  0  0  0  0
 11 12  2  0  0  0  0
 11 16  1  0  0  0  0
 12 13  1  0  0  0  0
 12 28  1  0  0  0  0
 13 14  2  0  0  0  0
 13 29  1  0  0  0  0
 14 15  1  0  0  0  0
 14 30  1  0  0  0  0
 15 16  2  0  0  0  0
 15 31  1  0  0  0  0
 16 32  1  0  0  0  0
 17 18  2  0  0  0  0
 17 33  1  0  0  0  0
 18 19  1  0  0  0  0
 18 34  1  0  0  0  0
 19 20  2  0  0  0  0
M  END
$$$$
