
 OpenBabel09162610133D

 36 38  0  0  0  0  0  0  0  0999 V2000
    2.8842    0.0246    0.1348 C   0  0  0  0  0  0  0  0  0  0  0  0
    1.3877    0.0704    0.0512 C   0  0  0  0  0  0  0  0  0  0  0  0
    0.7013    1.2853    0.0113 C   0  0  0  0  0  0  0  0  0  0  0  0
   -0.6956    1.3051   -0.0081 C   0  0  0  0  0  0  0  0  0  0  0  0
   -1.4428    0.1149    0.0047 C   0  0  0  0  0  0  0  0  0  0  0  0
   -2.9389    0.2081    0.1236 C   0  0  0  0  0  0  0  0  0  0  0  0
   -0.7543   -1.1167   -0.0148 C   0  0  0  0  0  0  0  0  0  0  0  0
   -1.4289   -2.3751   -0.0519 N   0  0  0  0  0  0  0  0  0  0  0  0
   -2.1962   -2.7732   -1.1370 C   0  0  0  0  0  0  0  0  0  0  0  0
   -2.3015   -1.9155   -2.3838 C   0  0  0  0  0  0  0  0  0  0  0  0
   -2.8210   -3.9085   -1.1979 N   0  0  0  0  0  0  0  0  0  0  0  0
   -2.6682   -4.8233   -0.1544 C   0  0  0  0  0  0  0  0  0  0  0  0
   -3.2947   -6.0682   -0.2534 C   0  0  0  0  0  0  0  0  0  0  0  0
   -3.1084   -7.0411    0.7327 C   0  0  0  0  0  0  0  0  0  0  0  0
   -2.2968   -6.7711    1.8332 C   0  0  0  0  0  0  0  0  0  0  0  0
   -1.6762   -5.5280    1.9478 C   0  0  0  0  0  0  0  0  0  0  0  0
   -1.8645   -4.5629    0.9494 C   0  0  0  0  0  0  0  0  0  0  0  0
   -1.2013   -3.2467    1.0223 C   0  0  0  0  0  0  0  0  0  0  0  0
   -0.5076   -3.0053    2.0095 O   0  0  0  0  0  0  0  0  0  0  0  0
    0.6536   -1.1199    0.0332 C   0  0  0  0  0  0  0  0  0  0  0  0
    3.3200    1.0282    0.1158 H   0  0  0  0  0  0  0  0  0  0  0  0
    3.2949   -0.5361   -0.7128 H   0  0  0  0  0  0  0  0  0  0  0  0
    3.1930   -0.4587    1.0673 H   0  0  0  0  0  0  0  0  0  0  0  0
    1.2456    2.2258    0.0209 H   0  0  0  0  0  0  0  0  0  0  0  0
   -1.1992    2.2688   -0.0010 H   0  0  0  0  0  0  0  0  0  0  0  0
   -3.2593    1.2400    0.3057 H   0  0  0  0  0  0  0  0  0  0  0  0
   -3.2932   -0.3915    0.9681 H   0  0  0  0  0  0  0  0  0  0  0  0
   -3.4349   -0.1200   -0.7905 H   0  0  0  0  0  0  0  0  0  0  0  0
   -1.6562   -1.0395   -2.3909 H   0  0  0  0  0  0  0  0  0  0  0  0
   -3.3420   -1.6047   -2.5171 H   0  0  0  0  0  0  0  0  0  0  0  0
   -2.0256   -2.5301   -3.2491 H   0  0  0  0  0  0  0  0  0  0  0  0
   -3.9175   -6.2854   -1.1177 H   0  0  0  0  0  0  0  0  0  0  0  0
   -3.5896   -8.0109    0.6339 H   0  0  0  0  0  0  0  0  0  0  0  0
   -2.1431   -7.5294    2.5975 H   0  0  0  0  0  0  0  0  0  0  0  0
   -1.0400   -5.3156    2.8045 H   0  0  0  0  0  0  0  0  0  0  0  0
    1.1883   -2.0689    0.0621 H   0  0  0  0  0  0  0  0  0  0  0  0
  1  2  1  0  0  0  0
  1 21  1  0  0  0  0
  1 22  1  0  0  0  0
  1 23  1  0  0  0  0
  2  3  2  0  0  0  0
  2 20  1  0  0  0  0
  3  4  1  0  0  0  0
  3 24  1  0  0  0  0
  4  5  2  0  0  0  0
  4 25  1  0  0  0  0
  5  6  1  0  0  0  0
  5  7  1  0  0  0  0
  6 26  1  0  0  0  0
  6 27  1  0  0  0  0
  6 28  1  0  0  0  0
  7  8  1  0  0  0  0
  7 20  2  0  0  0  0
  8  9  1  0  0  0  0
  8 18  1  0  0  0  0
  9 10  1  0  0  0  0
  9 11  2  0  0  0  0
 10 29  1  0  0  0  0
 10 30  1  0  0  0  0
 10 31  1  0  0  0  0
 11 12  1  0  0  0  0
 12 13  2  0  0  0  0
 12 17  1  0  0  0  0
 13 14  1  0  0  0  0
 13 32  1  0  0  0  0
 14 15  2  0  0  0  0
 14 33  1  0  0  0  0
 15 16  1  0  0  0  0
 15 34  1  0  0  0  0
 16 17  2  0  0  0  0
 16 35  1  0  0  0  0
 17 18  1  0  0  0  0
 18 19  2  0  0  0  0
 20 36  1  0  0  0  0
M  END
$$$$
