
 OpenBabel09162610133D

 26 28  0  0  0  0  0  0  0  0999 V2000
    1.7305    1.8744    0.0360 O   0  0  0  0  0  0  0  0  0  0  0  0
    1.3137    0.7223    0.0187 C   0  0  0  0  0  0  0  0  0  0  0  0
    2.1564   -0.3381    0.0144 O   0  0  0  0  0  0  0  0  0  0  0  0
    1.6568   -1.5922   -0.0074 C   0  0  0  0  0  0  0  0  0  0  0  0
    2.7473   -2.6033   -0.0007 C   0  0  0  0  0  0  0  0  0  0  0  0
    4.1023   -2.2411    0.0156 C   0  0  0  0  0  0  0  0  0  0  0  0
    5.0941   -3.2278    0.0351 C   0  0  0  0  0  0  0  0  0  0  0  0
    4.7360   -4.5750    0.0374 C   0  0  0  0  0  0  0  0  0  0  0  0
    5.9577   -5.7850    0.0688 Cl  0  0  0  0  0  0  0  0  0  0  0  0
    3.3940   -4.9474    0.0166 C   0  0  0  0  0  0  0  0  0  0  0  0
    2.4017   -3.9636   -0.0028 C   0  0  0  0  0  0  0  0  0  0  0  0
    0.4070   -1.9195   -0.0261 N   0  0  0  0  0  0  0  0  0  0  0  0
   -0.5227   -0.8851   -0.0186 C   0  0  0  0  0  0  0  0  0  0  0  0
   -1.8853   -1.1880   -0.0286 C   0  0  0  0  0  0  0  0  0  0  0  0
   -2.8377   -0.1662   -0.0153 C   0  0  0  0  0  0  0  0  0  0  0  0
   -2.4300    1.1676    0.0066 C   0  0  0  0  0  0  0  0  0  0  0  0
   -1.0702    1.4772    0.0160 C   0  0  0  0  0  0  0  0  0  0  0  0
   -0.1270    0.4429    0.0044 C   0  0  0  0  0  0  0  0  0  0  0  0
    4.4072   -1.1969    0.0159 H   0  0  0  0  0  0  0  0  0  0  0  0
    6.1419   -2.9377    0.0505 H   0  0  0  0  0  0  0  0  0  0  0  0
    3.1115   -5.9970    0.0175 H   0  0  0  0  0  0  0  0  0  0  0  0
    1.3564   -4.2678   -0.0167 H   0  0  0  0  0  0  0  0  0  0  0  0
   -2.2036   -2.2273   -0.0449 H   0  0  0  0  0  0  0  0  0  0  0  0
   -3.8967   -0.4133   -0.0212 H   0  0  0  0  0  0  0  0  0  0  0  0
   -3.1706    1.9638    0.0171 H   0  0  0  0  0  0  0  0  0  0  0  0
   -0.7484    2.5162    0.0341 H   0  0  0  0  0  0  0  0  0  0  0  0
  1  2  2  0  0  0  0
  2  3  1  0  0  0  0
  2 18  1  0  0  0  0
  3  4  1  0  0  0  0
  4  5  1  0  0  0  0
  4 12  2  0  0  0  0
  5  6  2  0  0  0  0
  5 11  1  0  0  0  0
  6  7  1  0  0  0  0
  6 19  1  0  0  0  0
  7  8  2  0  0  0  0
  7 20  1  0  0  0  0
  8  9  1  0  0  0  0
  8 10  1  0  0  0  0
 10 11  2  0  0  0  0
 10 21  1  0  0  0  0
 11 22  1  0  0  0  0
 12 13  1  0  0  0  0
 13 14  1  0  0  0  0
 13 18  2  0  0  0  0
 14 15  2  0  0  0  0
 14 23  1  0  0  0  0
 15 16  1  0  0  0  0
 15 24  1  0  0  0  0
 16 17  2  0  0  0  0
 16 25  1  0  0  0  0
 17 18  1  0  0  0  0
 17 26  1  0  0  0  0
M  END
$$$$
