
 OpenBabel09162610133D

 33 37  0  0  0  0  0  0  0  0999 V2000
    1.0547    0.1400    0.1203 O   0  0  0  0  0  0  0  0  0  0  0  0
    2.2594    0.0853    0.0660 C   0  0  0  0  0  0  0  0  0  0  0  0
    3.0982   -1.1108    0.0460 C   0  0  0  0  0  0  0  0  0  0  0  0
    2.7157   -2.4341    0.1213 C   0  0  0  0  0  0  0  0  0  0  0  0
    3.7268   -3.4005    0.0973 C   0  0  0  0  0  0  0  0  0  0  0  0
    3.4072   -4.7611    0.2022 C   0  0  0  0  0  0  0  0  0  0  0  0
    4.4092   -5.7303    0.1733 C   0  0  0  0  0  0  0  0  0  0  0  0
    5.7408   -5.3517    0.0277 C   0  0  0  0  0  0  0  0  0  0  0  0
    6.0815   -4.0002   -0.0728 C   0  0  0  0  0  0  0  0  0  0  0  0
    5.0946   -3.0039   -0.0280 C   0  0  0  0  0  0  0  0  0  0  0  0
    5.4373   -1.6349   -0.0944 C   0  0  0  0  0  0  0  0  0  0  0  0
    4.4262   -0.6923   -0.0412 C   0  0  0  0  0  0  0  0  0  0  0  0
    4.4998    0.7154   -0.0471 N   0  0  0  0  0  0  0  0  0  0  0  0
    3.2285    1.2507    0.0118 C   0  0  0  0  0  0  0  0  0  0  0  0
    2.9194    2.5011    0.0312 N   0  0  0  0  0  0  0  0  0  0  0  0
    4.0039    3.3950    0.0052 C   0  0  0  0  0  0  0  0  0  0  0  0
    3.7307    4.7643    0.0265 C   0  0  0  0  0  0  0  0  0  0  0  0
    4.7701    5.6969    0.0298 C   0  0  0  0  0  0  0  0  0  0  0  0
    6.0970    5.2658    0.0139 C   0  0  0  0  0  0  0  0  0  0  0  0
    6.3879    3.9010   -0.0154 C   0  0  0  0  0  0  0  0  0  0  0  0
    5.3424    2.9698   -0.0252 C   0  0  0  0  0  0  0  0  0  0  0  0
    5.6261    1.5088   -0.0591 C   0  0  0  0  0  0  0  0  0  0  0  0
    6.7848    1.1066   -0.0827 O   0  0  0  0  0  0  0  0  0  0  0  0
    1.6654   -2.6972    0.2062 H   0  0  0  0  0  0  0  0  0  0  0  0
    2.3727   -5.0801    0.3148 H   0  0  0  0  0  0  0  0  0  0  0  0
    4.1483   -6.7820    0.2638 H   0  0  0  0  0  0  0  0  0  0  0  0
    6.5187   -6.1111   -0.0029 H   0  0  0  0  0  0  0  0  0  0  0  0
    7.1310   -3.7334   -0.1824 H   0  0  0  0  0  0  0  0  0  0  0  0
    6.4782   -1.3332   -0.1776 H   0  0  0  0  0  0  0  0  0  0  0  0
    2.6974    5.1033    0.0453 H   0  0  0  0  0  0  0  0  0  0  0  0
    4.5415    6.7601    0.0499 H   0  0  0  0  0  0  0  0  0  0  0  0
    6.9041    5.9948    0.0247 H   0  0  0  0  0  0  0  0  0  0  0  0
    7.4235    3.5683   -0.0260 H   0  0  0  0  0  0  0  0  0  0  0  0
  1  2  2  0  0  0  0
  2  3  1  0  0  0  0
  2 14  1  0  0  0  0
  3  4  2  0  0  0  0
  3 12  1  0  0  0  0
  4  5  1  0  0  0  0
  4 24  1  0  0  0  0
  5  6  2  0  0  0  0
  5 10  1  0  0  0  0
  6  7  1  0  0  0  0
  6 25  1  0  0  0  0
  7  8  2  0  0  0  0
  7 26  1  0  0  0  0
  8  9  1  0  0  0  0
  8 27  1  0  0  0  0
  9 10  2  0  0  0  0
  9 28  1  0  0  0  0
 10 11  1  0  0  0  0
 11 12  2  0  0  0  0
 11 29  1  0  0  0  0
 12 13  1  0  0  0  0
 13 14  1  0  0  0  0
 13 22  1  0  0  0  0
 14 15  2  0  0  0  0
 15 16  1  0  0  0  0
 16 17  1  0  0  0  0
 16 21  2  0  0  0  0
 17 18  2  0  0  0  0
 17 30  1  0  0  0  0
 18 19  1  0  0  0  0
 18 31  1  0  0  0  0
 19 20  2  0  0  0  0
 19 32  1  0  0  0  0
 20 21  1  0  0  0  0
 20 33  1  0  0  0  0
 21 22  1  0  0  0  0
 22 23  2  0  0  0  0
M  END
$$$$
