
 OpenBabel09162610133D

 32 35  0  0  0  0  0  0  0  0999 V2000
   -3.5819    0.0275    0.0031 C   0  0  0  0  0  0  0  0  0  0  0  0
   -3.0302    1.3003    0.0236 C   0  0  0  0  0  0  0  0  0  0  0  0
   -1.6421    1.4632    0.0588 C   0  0  0  0  0  0  0  0  0  0  0  0
   -0.7805    0.3370    0.0659 C   0  0  0  0  0  0  0  0  0  0  0  0
   -1.3632   -0.9303    0.0254 C   0  0  0  0  0  0  0  0  0  0  0  0
   -2.7613   -1.1015    0.0053 C   0  0  0  0  0  0  0  0  0  0  0  0
   -0.1743   -2.1637   -0.0130 S   0  0  0  0  0  0  0  0  0  0  0  0
    1.1325   -1.0479    0.0430 C   0  0  0  0  0  0  0  0  0  0  0  0
    2.5211   -1.2821   -0.0024 C   0  0  0  0  0  0  0  0  0  0  0  0
    3.0641   -2.5540   -0.1999 N   0  0  0  0  0  0  0  0  0  0  0  0
    4.4138   -2.5538   -0.7953 C   0  0  0  0  0  0  0  0  0  0  0  0
    4.7626   -3.9939   -1.2018 C   0  0  0  0  0  0  0  0  0  0  0  0
    4.7109   -4.8844   -0.0714 O   0  0  0  0  0  0  0  0  0  0  0  0
    3.4017   -4.8636    0.5271 C   0  0  0  0  0  0  0  0  0  0  0  0
    3.0063   -3.4437    0.9762 C   0  0  0  0  0  0  0  0  0  0  0  0
    3.3294   -0.1956    0.0174 N   0  0  0  0  0  0  0  0  0  0  0  0
    2.7831    1.0249    0.0940 C   0  0  0  0  0  0  0  0  0  0  0  0
    1.4875    1.3340    0.1349 N   0  0  0  0  0  0  0  0  0  0  0  0
    0.6593    0.2572    0.0949 C   0  0  0  0  0  0  0  0  0  0  0  0
   -4.6626   -0.0934   -0.0213 H   0  0  0  0  0  0  0  0  0  0  0  0
   -3.6750    2.1751    0.0096 H   0  0  0  0  0  0  0  0  0  0  0  0
   -1.2129    2.4636    0.0707 H   0  0  0  0  0  0  0  0  0  0  0  0
   -3.1969   -2.0971   -0.0189 H   0  0  0  0  0  0  0  0  0  0  0  0
    5.1505   -2.1903   -0.0670 H   0  0  0  0  0  0  0  0  0  0  0  0
    4.4511   -1.9148   -1.6877 H   0  0  0  0  0  0  0  0  0  0  0  0
    5.7768   -4.0328   -1.6108 H   0  0  0  0  0  0  0  0  0  0  0  0
    4.0743   -4.3602   -1.9731 H   0  0  0  0  0  0  0  0  0  0  0  0
    3.4213   -5.5387    1.3881 H   0  0  0  0  0  0  0  0  0  0  0  0
    2.6772   -5.2604   -0.1946 H   0  0  0  0  0  0  0  0  0  0  0  0
    3.7122   -3.0923    1.7402 H   0  0  0  0  0  0  0  0  0  0  0  0
    2.0103   -3.4795    1.4272 H   0  0  0  0  0  0  0  0  0  0  0  0
    3.4775    1.8595    0.1129 H   0  0  0  0  0  0  0  0  0  0  0  0
  1  2  2  0  0  0  0
  1  6  1  0  0  0  0
  1 20  1  0  0  0  0
  2  3  1  0  0  0  0
  2 21  1  0  0  0  0
  3  4  2  0  0  0  0
  3 22  1  0  0  0  0
  4  5  1  0  0  0  0
  4 19  1  0  0  0  0
  5  6  2  0  0  0  0
  5  7  1  0  0  0  0
  6 23  1  0  0  0  0
  7  8  1  0  0  0  0
  8  9  2  0  0  0  0
  8 19  1  0  0  0  0
  9 10  1  0  0  0  0
  9 16  1  0  0  0  0
 10 11  1  0  0  0  0
 10 15  1  0  0  0  0
 11 12  1  0  0  0  0
 11 24  1  0  0  0  0
 11 25  1  0  0  0  0
 12 13  1  0  0  0  0
 12 26  1  0  0  0  0
 12 27  1  0  0  0  0
 13 14  1  0  0  0  0
 14 15  1  0  0  0  0
 14 28  1  0  0  0  0
 14 29  1  0  0  0  0
 15 30  1  0  0  0  0
 15 31  1  0  0  0  0
 16 17  2  0  0  0  0
 17 18  1  0  0  0  0
 17 32  1  0  0  0  0
 18 19  2  0  0  0  0
M  END
$$$$
