
 OpenBabel09162610133D

 34 36  0  0  0  0  0  0  0  0999 V2000
    2.8518    1.1521   -0.0362 O   0  0  0  0  0  0  0  0  0  0  0  0
    2.2380    0.0928    0.0246 C   0  0  0  0  0  0  0  0  0  0  0  0
    0.7750    0.0204   -0.2234 C   0  0  0  0  0  0  0  0  0  0  0  0
    0.1658    0.9156   -1.0138 C   0  0  0  0  0  0  0  0  0  0  0  0
   -1.2417    0.7835   -1.4075 C   0  0  0  0  0  0  0  0  0  0  0  0
   -2.0348    1.9149   -1.5925 C   0  0  0  0  0  0  0  0  0  0  0  0
   -3.3594    1.7735   -2.0045 C   0  0  0  0  0  0  0  0  0  0  0  0
   -3.8493    0.4970   -2.2331 C   0  0  0  0  0  0  0  0  0  0  0  0
   -3.1133   -0.6228   -2.0884 N   0  0  0  0  0  0  0  0  0  0  0  0
   -1.8293   -0.4512   -1.6909 C   0  0  0  0  0  0  0  0  0  0  0  0
    2.9296   -1.1712    0.4140 C   0  0  0  0  0  0  0  0  0  0  0  0
    3.9958   -1.0600    1.3094 C   0  0  0  0  0  0  0  0  0  0  0  0
    4.6768   -2.2002    1.7341 C   0  0  0  0  0  0  0  0  0  0  0  0
    4.3222   -3.4735    1.2636 C   0  0  0  0  0  0  0  0  0  0  0  0
    5.0222   -4.6052    1.7133 C   0  0  0  0  0  0  0  0  0  0  0  0
    4.7010   -5.8814    1.2537 C   0  0  0  0  0  0  0  0  0  0  0  0
    3.6803   -6.0417    0.3293 C   0  0  0  0  0  0  0  0  0  0  0  0
    2.9751   -4.9274   -0.1304 C   0  0  0  0  0  0  0  0  0  0  0  0
    3.2642   -3.6167    0.3298 C   0  0  0  0  0  0  0  0  0  0  0  0
    2.5768   -2.4410   -0.0842 C   0  0  0  0  0  0  0  0  0  0  0  0
    1.5603   -2.5103   -1.0077 O   0  0  0  0  0  0  0  0  0  0  0  0
    0.2458   -0.8195    0.2102 H   0  0  0  0  0  0  0  0  0  0  0  0
    0.7183    1.7561   -1.4295 H   0  0  0  0  0  0  0  0  0  0  0  0
   -1.6328    2.9095   -1.4134 H   0  0  0  0  0  0  0  0  0  0  0  0
   -3.9949    2.6408   -2.1473 H   0  0  0  0  0  0  0  0  0  0  0  0
   -4.8752    0.3388   -2.5524 H   0  0  0  0  0  0  0  0  0  0  0  0
   -1.2636   -1.3758   -1.6172 H   0  0  0  0  0  0  0  0  0  0  0  0
    4.2965   -0.0837    1.6861 H   0  0  0  0  0  0  0  0  0  0  0  0
    5.4989   -2.0826    2.4392 H   0  0  0  0  0  0  0  0  0  0  0  0
    5.8332   -4.5013    2.4314 H   0  0  0  0  0  0  0  0  0  0  0  0
    5.2527   -6.7456    1.6138 H   0  0  0  0  0  0  0  0  0  0  0  0
    3.4306   -7.0333   -0.0404 H   0  0  0  0  0  0  0  0  0  0  0  0
    2.1980   -5.1176   -0.8640 H   0  0  0  0  0  0  0  0  0  0  0  0
    1.3037   -3.4306   -1.1620 H   0  0  0  0  0  0  0  0  0  0  0  0
  1  2  2  0  0  0  0
  2  3  1  0  0  0  0
  2 11  1  0  0  0  0
  3  4  2  0  0  0  0
  3 22  1  0  0  0  0
  4  5  1  0  0  0  0
  4 23  1  0  0  0  0
  5  6  2  0  0  0  0
  5 10  1  0  0  0  0
  6  7  1  0  0  0  0
  6 24  1  0  0  0  0
  7  8  2  0  0  0  0
  7 25  1  0  0  0  0
  8  9  1  0  0  0  0
  8 26  1  0  0  0  0
  9 10  2  0  0  0  0
 10 27  1  0  0  0  0
 11 12  2  0  0  0  0
 11 20  1  0  0  0  0
 12 13  1  0  0  0  0
 12 28  1  0  0  0  0
 13 14  2  0  0  0  0
 13 29  1  0  0  0  0
 14 15  1  0  0  0  0
 14 19  1  0  0  0  0
 15 16  2  0  0  0  0
 15 30  1  0  0  0  0
 16 17  1  0  0  0  0
 16 31  1  0  0  0  0
 17 18  2  0  0  0  0
 17 32  1  0  0  0  0
 18 19  1  0  0  0  0
 18 33  1  0  0  0  0
 19 20  2  0  0  0  0
 20 21  1  0  0  0  0
 21 34  1  0  0  0  0
M  END
$$$$
