
 OpenBabel09162610133D

 31 34  0  0  0  0  0  0  0  0999 V2000
    0.8463   -0.1604    0.0602 O   0  0  0  0  0  0  0  0  0  0  0  0
    2.0710   -0.0293    0.0642 C   0  0  0  0  0  0  0  0  0  0  0  0
    2.8627   -1.2694    0.0529 C   0  0  0  0  0  0  0  0  0  0  0  0
    2.2335   -2.5172    0.0136 C   0  0  0  0  0  0  0  0  0  0  0  0
    2.9996   -3.6814   -0.0327 C   0  0  0  0  0  0  0  0  0  0  0  0
    4.3914   -3.5913   -0.0354 C   0  0  0  0  0  0  0  0  0  0  0  0
    5.0180   -2.3427    0.0052 C   0  0  0  0  0  0  0  0  0  0  0  0
    4.2441   -1.1808    0.0412 C   0  0  0  0  0  0  0  0  0  0  0  0
    4.8563    0.0672    0.0684 N   0  0  0  0  0  0  0  0  0  0  0  0
    4.1784    1.2630    0.0811 C   0  0  0  0  0  0  0  0  0  0  0  0
    5.1510    2.6276    0.2350 S   0  0  0  0  0  0  0  0  0  0  0  0
    2.7768    1.1951    0.0312 N   0  0  0  0  0  0  0  0  0  0  0  0
    1.9600    2.3700   -0.1625 C   0  0  0  0  0  0  0  0  0  0  0  0
    0.8064    2.5575    0.6221 C   0  0  0  0  0  0  0  0  0  0  0  0
   -0.1546    3.5299    0.3222 C   0  0  0  0  0  0  0  0  0  0  0  0
    0.0956    4.3176   -0.7974 C   0  0  0  0  0  0  0  0  0  0  0  0
   -0.6466    5.2791   -1.4332 N   0  0  0  0  0  0  0  0  0  0  0  0
    0.0911    5.7565   -2.4789 C   0  0  0  0  0  0  0  0  0  0  0  0
    1.2419    5.1329   -2.5854 N   0  0  0  0  0  0  0  0  0  0  0  0
    1.2542    4.2190   -1.5585 C   0  0  0  0  0  0  0  0  0  0  0  0
    2.2085    3.2391   -1.2410 C   0  0  0  0  0  0  0  0  0  0  0  0
    1.1465   -2.5882    0.0081 H   0  0  0  0  0  0  0  0  0  0  0  0
    2.5106   -4.6517   -0.0718 H   0  0  0  0  0  0  0  0  0  0  0  0
    4.9895   -4.5000   -0.0736 H   0  0  0  0  0  0  0  0  0  0  0  0
    6.1033   -2.2934   -0.0018 H   0  0  0  0  0  0  0  0  0  0  0  0
    5.8685    0.1282    0.0976 H   0  0  0  0  0  0  0  0  0  0  0  0
    0.6184    1.9017    1.4716 H   0  0  0  0  0  0  0  0  0  0  0  0
   -1.0621    3.6207    0.9082 H   0  0  0  0  0  0  0  0  0  0  0  0
   -1.5843    5.5618   -1.1887 H   0  0  0  0  0  0  0  0  0  0  0  0
   -0.2658    6.5444   -3.1284 H   0  0  0  0  0  0  0  0  0  0  0  0
    3.0631    3.1251   -1.8969 H   0  0  0  0  0  0  0  0  0  0  0  0
  1  2  2  0  0  0  0
  2  3  1  0  0  0  0
  2 12  1  0  0  0  0
  3  4  2  0  0  0  0
  3  8  1  0  0  0  0
  4  5  1  0  0  0  0
  4 22  1  0  0  0  0
  5  6  2  0  0  0  0
  5 23  1  0  0  0  0
  6  7  1  0  0  0  0
  6 24  1  0  0  0  0
  7  8  2  0  0  0  0
  7 25  1  0  0  0  0
  8  9  1  0  0  0  0
  9 10  1  0  0  0  0
  9 26  1  0  0  0  0
 10 11  2  0  0  0  0
 10 12  1  0  0  0  0
 12 13  1  0  0  0  0
 13 14  2  0  0  0  0
 13 21  1  0  0  0  0
 14 15  1  0  0  0  0
 14 27  1  0  0  0  0
 15 16  2  0  0  0  0
 15 28  1  0  0  0  0
 16 17  1  0  0  0  0
 16 20  1  0  0  0  0
 17 18  1  0  0  0  0
 17 29  1  0  0  0  0
 18 19  2  0  0  0  0
 18 30  1  0  0  0  0
 19 20  1  0  0  0  0
 20 21  2  0  0  0  0
 21 31  1  0  0  0  0
M  END
$$$$
