
 OpenBabel09162610133D

 28 30  0  0  0  0  0  0  0  0999 V2000
    3.2166    1.3942   -0.0383 C   0  0  0  0  0  0  0  0  0  0  0  0
    2.6528    0.0031    0.1552 C   0  0  0  0  0  0  0  0  0  0  0  0
    1.5882   -0.2875   -0.4019 O   0  0  0  0  0  0  0  0  0  0  0  0
    3.3900   -0.9495    0.9814 C   0  0  0  0  0  0  0  0  0  0  0  0
    4.8673   -0.5202    1.7351 S   0  0  0  0  0  0  0  0  0  0  0  0
    5.0894   -2.0805    2.3668 C   0  0  0  0  0  0  0  0  0  0  0  0
    6.2076   -2.3758    3.0600 N   0  0  0  0  0  0  0  0  0  0  0  0
    6.2783   -3.6558    3.4878 C   0  0  0  0  0  0  0  0  0  0  0  0
    7.5396   -3.9913    4.1394 C   0  0  0  0  0  0  0  0  0  0  0  0
    8.6776   -3.2685    4.4457 C   0  0  0  0  0  0  0  0  0  0  0  0
    9.5949   -4.1779    5.0258 C   0  0  0  0  0  0  0  0  0  0  0  0
    8.9605   -5.3963    5.0487 C   0  0  0  0  0  0  0  0  0  0  0  0
    7.7145   -5.2949    4.5191 O   0  0  0  0  0  0  0  0  0  0  0  0
    5.2771   -4.6014    3.2933 C   0  0  0  0  0  0  0  0  0  0  0  0
    4.1322   -4.2474    2.5800 C   0  0  0  0  0  0  0  0  0  0  0  0
    4.0368   -2.9355    2.0713 C   0  0  0  0  0  0  0  0  0  0  0  0
    3.0590   -2.2660    1.2630 C   0  0  0  0  0  0  0  0  0  0  0  0
    1.9404   -2.8686    0.8041 N   0  0  0  0  0  0  0  0  0  0  0  0
    2.5692    1.9586   -0.7164 H   0  0  0  0  0  0  0  0  0  0  0  0
    4.2102    1.3432   -0.4915 H   0  0  0  0  0  0  0  0  0  0  0  0
    3.2532    1.9249    0.9168 H   0  0  0  0  0  0  0  0  0  0  0  0
    8.8220   -2.2156    4.2499 H   0  0  0  0  0  0  0  0  0  0  0  0
   10.5966   -3.9716    5.3757 H   0  0  0  0  0  0  0  0  0  0  0  0
    9.2453   -6.3837    5.3845 H   0  0  0  0  0  0  0  0  0  0  0  0
    5.3871   -5.6147    3.6685 H   0  0  0  0  0  0  0  0  0  0  0  0
    3.3478   -4.9756    2.4019 H   0  0  0  0  0  0  0  0  0  0  0  0
    1.7650   -3.8644    0.8854 H   0  0  0  0  0  0  0  0  0  0  0  0
    1.3234   -2.3891    0.1421 H   0  0  0  0  0  0  0  0  0  0  0  0
  1  2  1  0  0  0  0
  1 19  1  0  0  0  0
  1 20  1  0  0  0  0
  1 21  1  0  0  0  0
  2  3  2  0  0  0  0
  2  4  1  0  0  0  0
  4  5  1  0  0  0  0
  4 17  2  0  0  0  0
  5  6  1  0  0  0  0
  6  7  1  0  0  0  0
  6 16  2  0  0  0  0
  7  8  2  0  0  0  0
  8  9  1  0  0  0  0
  8 14  1  0  0  0  0
  9 10  2  0  0  0  0
  9 13  1  0  0  0  0
 10 11  1  0  0  0  0
 10 22  1  0  0  0  0
 11 12  2  0  0  0  0
 11 23  1  0  0  0  0
 12 13  1  0  0  0  0
 12 24  1  0  0  0  0
 14 15  2  0  0  0  0
 14 25  1  0  0  0  0
 15 16  1  0  0  0  0
 15 26  1  0  0  0  0
 16 17  1  0  0  0  0
 17 18  1  0  0  0  0
 18 27  1  0  0  0  0
 18 28  1  0  0  0  0
M  END
$$$$
