
 OpenBabel09162610133D

 29 32  0  0  0  0  0  0  0  0999 V2000
    1.5939   -0.7936   -1.2967 O   0  0  0  0  0  0  0  0  0  0  0  0
    2.7589   -0.6711   -1.6557 C   0  0  0  0  0  0  0  0  0  0  0  0
    3.5671   -1.8564   -2.0137 C   0  0  0  0  0  0  0  0  0  0  0  0
    4.8907   -1.7566   -2.1658 C   0  0  0  0  0  0  0  0  0  0  0  0
    5.5472   -0.4544   -1.9559 C   0  0  0  0  0  0  0  0  0  0  0  0
    6.6723   -0.3906   -1.4784 O   0  0  0  0  0  0  0  0  0  0  0  0
    4.7325    0.7526   -2.1861 C   0  0  0  0  0  0  0  0  0  0  0  0
    3.3832    0.6550   -1.8393 C   0  0  0  0  0  0  0  0  0  0  0  0
    2.5982    1.8020   -1.7616 C   0  0  0  0  0  0  0  0  0  0  0  0
    3.1478    3.0397   -2.0972 C   0  0  0  0  0  0  0  0  0  0  0  0
    4.4645    3.1520   -2.5908 C   0  0  0  0  0  0  0  0  0  0  0  0
    5.2540    1.9794   -2.6458 C   0  0  0  0  0  0  0  0  0  0  0  0
    6.5483    1.9993   -3.3888 C   0  0  0  0  0  0  0  0  0  0  0  0
    7.1347    0.9805   -3.7235 O   0  0  0  0  0  0  0  0  0  0  0  0
    7.0038    3.2341   -3.8284 O   0  0  0  0  0  0  0  0  0  0  0  0
    6.2243    4.4023   -3.7808 C   0  0  0  0  0  0  0  0  0  0  0  0
    6.7448    5.5109   -4.4492 C   0  0  0  0  0  0  0  0  0  0  0  0
    6.0178    6.6879   -4.4465 C   0  0  0  0  0  0  0  0  0  0  0  0
    6.4764    7.7545   -5.1127 F   0  0  0  0  0  0  0  0  0  0  0  0
    4.8129    6.7721   -3.7630 C   0  0  0  0  0  0  0  0  0  0  0  0
    4.3051    5.6446   -3.1042 C   0  0  0  0  0  0  0  0  0  0  0  0
    4.9884    4.4152   -3.1323 C   0  0  0  0  0  0  0  0  0  0  0  0
    3.0432   -2.7993   -2.1020 H   0  0  0  0  0  0  0  0  0  0  0  0
    5.5287   -2.6086   -2.3596 H   0  0  0  0  0  0  0  0  0  0  0  0
    1.5509    1.7355   -1.4680 H   0  0  0  0  0  0  0  0  0  0  0  0
    2.4885    3.9020   -2.0335 H   0  0  0  0  0  0  0  0  0  0  0  0
    7.6875    5.4524   -4.9824 H   0  0  0  0  0  0  0  0  0  0  0  0
    4.2645    7.7097   -3.7585 H   0  0  0  0  0  0  0  0  0  0  0  0
    3.3561    5.7595   -2.5880 H   0  0  0  0  0  0  0  0  0  0  0  0
  1  2  2  0  0  0  0
  2  3  1  0  0  0  0
  2  8  1  0  0  0  0
  3  4  2  0  0  0  0
  3 23  1  0  0  0  0
  4  5  1  0  0  0  0
  4 24  1  0  0  0  0
  5  6  2  0  0  0  0
  5  7  1  0  0  0  0
  7  8  2  0  0  0  0
  7 12  1  0  0  0  0
  8  9  1  0  0  0  0
  9 10  2  0  0  0  0
  9 25  1  0  0  0  0
 10 11  1  0  0  0  0
 10 26  1  0  0  0  0
 11 12  2  0  0  0  0
 11 22  1  0  0  0  0
 12 13  1  0  0  0  0
 13 14  2  0  0  0  0
 13 15  1  0  0  0  0
 15 16  1  0  0  0  0
 16 17  1  0  0  0  0
 16 22  2  0  0  0  0
 17 18  2  0  0  0  0
 17 27  1  0  0  0  0
 18 19  1  0  0  0  0
 18 20  1  0  0  0  0
 20 21  2  0  0  0  0
 20 28  1  0  0  0  0
 21 22  1  0  0  0  0
 21 29  1  0  0  0  0
M  END
$$$$
