
 OpenBabel09162610133D

 29 31  0  0  0  0  0  0  0  0999 V2000
    1.4490    0.2748    0.7113 C   0  0  0  0  0  0  0  0  0  0  0  0
    2.5483   -0.0654   -0.1253 O   0  0  0  0  0  0  0  0  0  0  0  0
    3.1047    0.9542   -0.8468 C   0  0  0  0  0  0  0  0  0  0  0  0
    2.6950    2.2861   -0.8263 C   0  0  0  0  0  0  0  0  0  0  0  0
    3.3472    3.2392   -1.6178 C   0  0  0  0  0  0  0  0  0  0  0  0
    4.4061    2.8766   -2.4581 C   0  0  0  0  0  0  0  0  0  0  0  0
    5.0886    3.8427   -3.3052 C   0  0  0  0  0  0  0  0  0  0  0  0
    6.4224    3.7114   -3.6406 N   0  0  0  0  0  0  0  0  0  0  0  0
    6.7011    4.7426   -4.4104 C   0  0  0  0  0  0  0  0  0  0  0  0
    7.9165    5.1345   -5.0428 C   0  0  0  0  0  0  0  0  0  0  0  0
    7.9552    6.2565   -5.7874 C   0  0  0  0  0  0  0  0  0  0  0  0
    6.7770    7.0889   -5.9663 C   0  0  0  0  0  0  0  0  0  0  0  0
    5.6251    6.7226   -5.3802 C   0  0  0  0  0  0  0  0  0  0  0  0
    5.5854    5.5564   -4.6093 N   0  0  0  0  0  0  0  0  0  0  0  0
    4.5593    4.9587   -3.9185 C   0  0  0  0  0  0  0  0  0  0  0  0
    2.9868    5.6193   -3.9885 Cl  0  0  0  0  0  0  0  0  0  0  0  0
    4.8289    1.5408   -2.4544 C   0  0  0  0  0  0  0  0  0  0  0  0
    4.1808    0.5894   -1.6585 C   0  0  0  0  0  0  0  0  0  0  0  0
    1.1122   -0.6380    1.2126 H   0  0  0  0  0  0  0  0  0  0  0  0
    0.6088    0.6608    0.1244 H   0  0  0  0  0  0  0  0  0  0  0  0
    1.7502    0.9876    1.4862 H   0  0  0  0  0  0  0  0  0  0  0  0
    1.8729    2.6238   -0.2041 H   0  0  0  0  0  0  0  0  0  0  0  0
    3.0152    4.2712   -1.5471 H   0  0  0  0  0  0  0  0  0  0  0  0
    8.7936    4.5117   -4.9078 H   0  0  0  0  0  0  0  0  0  0  0  0
    8.8745    6.5669   -6.2748 H   0  0  0  0  0  0  0  0  0  0  0  0
    6.8526    7.9872   -6.5700 H   0  0  0  0  0  0  0  0  0  0  0  0
    4.7143    7.2998   -5.4764 H   0  0  0  0  0  0  0  0  0  0  0  0
    5.6669    1.2311   -3.0755 H   0  0  0  0  0  0  0  0  0  0  0  0
    4.5194   -0.4436   -1.6738 H   0  0  0  0  0  0  0  0  0  0  0  0
  1  2  1  0  0  0  0
  1 19  1  0  0  0  0
  1 20  1  0  0  0  0
  1 21  1  0  0  0  0
  2  3  1  0  0  0  0
  3  4  2  0  0  0  0
  3 18  1  0  0  0  0
  4  5  1  0  0  0  0
  4 22  1  0  0  0  0
  5  6  2  0  0  0  0
  5 23  1  0  0  0  0
  6  7  1  0  0  0  0
  6 17  1  0  0  0  0
  7  8  1  0  0  0  0
  7 15  2  0  0  0  0
  8  9  2  0  0  0  0
  9 10  1  0  0  0  0
  9 14  1  0  0  0  0
 10 11  2  0  0  0  0
 10 24  1  0  0  0  0
 11 12  1  0  0  0  0
 11 25  1  0  0  0  0
 12 13  2  0  0  0  0
 12 26  1  0  0  0  0
 13 14  1  0  0  0  0
 13 27  1  0  0  0  0
 14 15  1  0  0  0  0
 15 16  1  0  0  0  0
 17 18  2  0  0  0  0
 17 28  1  0  0  0  0
 18 29  1  0  0  0  0
M  END
$$$$
