
 OpenBabel09162610133D

 39 41  0  0  1  0  0  0  0  0999 V2000
    1.1109   -0.0644    0.1041 C   0  0  0  0  0  0  0  0  0  0  0  0
    2.5907   -0.0348    0.3006 C   0  0  0  0  0  0  0  0  0  0  0  0
    3.3296    1.0803    0.2840 C   0  0  0  0  0  0  0  0  0  0  0  0
    4.7511    0.9720    0.3787 C   0  0  0  0  0  0  0  0  0  0  0  0
    5.3626   -0.2095    0.5587 C   0  0  0  0  0  0  0  0  0  0  0  0
    4.5408   -1.4415    0.6825 C   0  0  0  0  0  0  0  0  0  0  0  0
    5.0505   -2.5361    0.9058 O   0  0  0  0  0  0  0  0  0  0  0  0
    3.1874   -1.3052    0.4988 O   0  0  0  0  0  0  0  0  0  0  0  0
    6.8094   -0.2447    0.6264 C   0  0  0  0  0  0  0  0  0  0  0  0
    7.5248    0.8054    0.1735 C   0  0  0  0  0  0  0  0  0  0  0  0
    9.0588    0.8662    0.2042 C   0  0  0  0  0  0  0  0  0  0  0  0
    9.6771   -0.4585   -0.2986 C   0  0  0  0  0  0  0  0  0  0  0  0
    9.5517    1.1105    1.6459 C   0  0  0  0  0  0  0  0  0  0  0  0
    9.5951    1.9956   -0.7091 C   0  0  0  0  0  0  0  0  0  0  0  0
    8.9521    3.3639   -0.4823 C   0  0  0  0  0  0  0  0  0  0  0  0
    7.4925    3.3114   -0.0397 C   0  0  0  0  0  0  0  0  0  0  0  0
    6.7612    2.0101   -0.3960 C   0  0  1  0  0  0  0  0  0  0  0  0
    6.5482    1.8838   -1.9180 C   0  0  0  0  0  0  0  0  0  0  0  0
    5.4315    2.1548    0.1816 O   0  0  0  0  0  0  0  0  0  0  0  0
    0.6885    0.9436    0.0344 H   0  0  0  0  0  0  0  0  0  0  0  0
    0.6230   -0.5792    0.9370 H   0  0  0  0  0  0  0  0  0  0  0  0
    0.8684   -0.5944   -0.8227 H   0  0  0  0  0  0  0  0  0  0  0  0
    2.8910    2.0618    0.1379 H   0  0  0  0  0  0  0  0  0  0  0  0
    7.2707   -1.1317    1.0495 H   0  0  0  0  0  0  0  0  0  0  0  0
    9.4715   -1.2937    0.3798 H   0  0  0  0  0  0  0  0  0  0  0  0
   10.7671   -0.3766   -0.3838 H   0  0  0  0  0  0  0  0  0  0  0  0
    9.2878   -0.7263   -1.2880 H   0  0  0  0  0  0  0  0  0  0  0  0
    9.2613    0.2923    2.3144 H   0  0  0  0  0  0  0  0  0  0  0  0
    9.1492    2.0372    2.0680 H   0  0  0  0  0  0  0  0  0  0  0  0
   10.6464    1.1834    1.6778 H   0  0  0  0  0  0  0  0  0  0  0  0
    9.4558    1.7128   -1.7600 H   0  0  0  0  0  0  0  0  0  0  0  0
   10.6826    2.0983   -0.5937 H   0  0  0  0  0  0  0  0  0  0  0  0
    9.0338    3.9459   -1.4086 H   0  0  0  0  0  0  0  0  0  0  0  0
    9.5258    3.9201    0.2694 H   0  0  0  0  0  0  0  0  0  0  0  0
    6.9537    4.1767   -0.4485 H   0  0  0  0  0  0  0  0  0  0  0  0
    7.4468    3.4579    1.0492 H   0  0  0  0  0  0  0  0  0  0  0  0
    7.4747    1.7690   -2.4828 H   0  0  0  0  0  0  0  0  0  0  0  0
    6.0197    2.7632   -2.3044 H   0  0  0  0  0  0  0  0  0  0  0  0
    5.9147    1.0213   -2.1603 H   0  0  0  0  0  0  0  0  0  0  0  0
  1  2  1  0  0  0  0
  1 20  1  0  0  0  0
  1 21  1  0  0  0  0
  1 22  1  0  0  0  0
  2  3  2  0  0  0  0
  2  8  1  0  0  0  0
  3  4  1  0  0  0  0
  3 23  1  0  0  0  0
  4  5  2  0  0  0  0
  4 19  1  0  0  0  0
  5  6  1  0  0  0  0
  5  9  1  0  0  0  0
  6  7  2  0  0  0  0
  6  8  1  0  0  0  0
  9 10  2  0  0  0  0
  9 24  1  0  0  0  0
 10 11  1  0  0  0  0
 10 17  1  0  0  0  0
 11 12  1  0  0  0  0
 11 13  1  0  0  0  0
 11 14  1  0  0  0  0
 12 25  1  0  0  0  0
 12 26  1  0  0  0  0
 12 27  1  0  0  0  0
 13 28  1  0  0  0  0
 13 29  1  0  0  0  0
 13 30  1  0  0  0  0
 14 15  1  0  0  0  0
 14 31  1  0  0  0  0
 14 32  1  0  0  0  0
 15 16  1  0  0  0  0
 15 33  1  0  0  0  0
 15 34  1  0  0  0  0
 16 17  1  0  0  0  0
 16 35  1  0  0  0  0
 16 36  1  0  0  0  0
 17 18  1  6  0  0  0
 17 19  1  0  0  0  0
 18 37  1  0  0  0  0
 18 38  1  0  0  0  0
 18 39  1  0  0  0  0
M  END
$$$$
