
 OpenBabel09162610133D

 37 40  0  0  0  0  0  0  0  0999 V2000
    2.5075   -1.2177    0.1720 C   0  0  0  0  0  0  0  0  0  0  0  0
    3.4388   -0.3308    0.0444 N   0  0  0  0  0  0  0  0  0  0  0  0
    3.0216    1.0515   -0.3193 C   0  0  0  0  0  0  0  0  0  0  0  0
    1.6711    1.5222    0.2752 C   0  0  0  0  0  0  0  0  0  0  0  0
    0.6679    0.4316    0.1601 C   0  0  0  0  0  0  0  0  0  0  0  0
    1.1202   -0.8688    0.1021 C   0  0  0  0  0  0  0  0  0  0  0  0
    0.0412   -1.6893   -0.0061 N   0  0  0  0  0  0  0  0  0  0  0  0
   -1.1128   -0.9363   -0.0508 C   0  0  0  0  0  0  0  0  0  0  0  0
   -2.4335   -1.3711   -0.2006 C   0  0  0  0  0  0  0  0  0  0  0  0
   -3.4289   -0.4020   -0.2314 C   0  0  0  0  0  0  0  0  0  0  0  0
   -3.1165    0.9443   -0.0628 C   0  0  0  0  0  0  0  0  0  0  0  0
   -1.7938    1.3826    0.1663 C   0  0  0  0  0  0  0  0  0  0  0  0
   -1.4810    2.6978    0.4697 O   0  0  0  0  0  0  0  0  0  0  0  0
   -2.5842    3.4383    1.0151 C   0  0  0  0  0  0  0  0  0  0  0  0
   -2.2142    4.6906    1.7808 C   0  0  0  0  0  0  0  0  0  0  0  0
   -0.9455    5.2700    1.7451 C   0  0  0  0  0  0  0  0  0  0  0  0
   -0.6835    6.4399    2.4657 C   0  0  0  0  0  0  0  0  0  0  0  0
   -1.6886    7.0442    3.2224 C   0  0  0  0  0  0  0  0  0  0  0  0
   -2.9614    6.4840    3.2561 C   0  0  0  0  0  0  0  0  0  0  0  0
   -3.2230    5.3186    2.5386 C   0  0  0  0  0  0  0  0  0  0  0  0
   -0.7586    0.4135    0.1018 C   0  0  0  0  0  0  0  0  0  0  0  0
    2.7812   -2.2680    0.3633 H   0  0  0  0  0  0  0  0  0  0  0  0
    2.9857    1.1051   -1.4153 H   0  0  0  0  0  0  0  0  0  0  0  0
    3.8124    1.7383    0.0024 H   0  0  0  0  0  0  0  0  0  0  0  0
    1.3405    2.4256   -0.2478 H   0  0  0  0  0  0  0  0  0  0  0  0
    1.8080    1.7727    1.3331 H   0  0  0  0  0  0  0  0  0  0  0  0
    0.0685   -2.6973   -0.0721 H   0  0  0  0  0  0  0  0  0  0  0  0
   -2.6786   -2.4227   -0.3068 H   0  0  0  0  0  0  0  0  0  0  0  0
   -4.4656   -0.6991   -0.3719 H   0  0  0  0  0  0  0  0  0  0  0  0
   -3.9440    1.6464   -0.1021 H   0  0  0  0  0  0  0  0  0  0  0  0
   -3.1372    2.8076    1.7235 H   0  0  0  0  0  0  0  0  0  0  0  0
   -3.2378    3.7459    0.1890 H   0  0  0  0  0  0  0  0  0  0  0  0
   -0.1488    4.8154    1.1582 H   0  0  0  0  0  0  0  0  0  0  0  0
    0.3086    6.8832    2.4364 H   0  0  0  0  0  0  0  0  0  0  0  0
   -1.4812    7.9517    3.7820 H   0  0  0  0  0  0  0  0  0  0  0  0
   -3.7495    6.9513    3.8413 H   0  0  0  0  0  0  0  0  0  0  0  0
   -4.2248    4.8942    2.5715 H   0  0  0  0  0  0  0  0  0  0  0  0
  1  2  2  0  0  0  0
  1  6  1  0  0  0  0
  1 22  1  0  0  0  0
  2  3  1  0  0  0  0
  3  4  1  0  0  0  0
  3 23  1  0  0  0  0
  3 24  1  0  0  0  0
  4  5  1  0  0  0  0
  4 25  1  0  0  0  0
  4 26  1  0  0  0  0
  5  6  2  0  0  0  0
  5 21  1  0  0  0  0
  6  7  1  0  0  0  0
  7  8  1  0  0  0  0
  7 27  1  0  0  0  0
  8  9  2  0  0  0  0
  8 21  1  0  0  0  0
  9 10  1  0  0  0  0
  9 28  1  0  0  0  0
 10 11  2  0  0  0  0
 10 29  1  0  0  0  0
 11 12  1  0  0  0  0
 11 30  1  0  0  0  0
 12 13  1  0  0  0  0
 12 21  2  0  0  0  0
 13 14  1  0  0  0  0
 14 15  1  0  0  0  0
 14 31  1  0  0  0  0
 14 32  1  0  0  0  0
 15 16  2  0  0  0  0
 15 20  1  0  0  0  0
 16 17  1  0  0  0  0
 16 33  1  0  0  0  0
 17 18  2  0  0  0  0
 17 34  1  0  0  0  0
 18 19  1  0  0  0  0
 18 35  1  0  0  0  0
 19 20  2  0  0  0  0
 19 36  1  0  0  0  0
 20 37  1  0  0  0  0
M  END
$$$$
