
 OpenBabel09162610133D

 38 40  0  0  0  0  0  0  0  0999 V2000
    1.1698    0.0273   -0.4069 O   0  0  0  0  0  0  0  0  0  0  0  0
    2.3698    0.1227   -0.1505 C   0  0  0  0  0  0  0  0  0  0  0  0
    2.9574   -0.9237    0.7048 C   0  0  0  0  0  0  0  0  0  0  0  0
    3.8937   -1.7901    0.1715 C   0  0  0  0  0  0  0  0  0  0  0  0
    4.5208   -2.7524    0.8847 N   0  0  0  0  0  0  0  0  0  0  0  0
    4.1557   -2.9327    2.1638 C   0  0  0  0  0  0  0  0  0  0  0  0
    4.8285   -3.8963    2.9066 C   0  0  0  0  0  0  0  0  0  0  0  0
    4.4938   -4.1744    4.2327 C   0  0  0  0  0  0  0  0  0  0  0  0
    3.4600   -3.4763    4.8405 C   0  0  0  0  0  0  0  0  0  0  0  0
    2.7907   -2.4789    4.1314 C   0  0  0  0  0  0  0  0  0  0  0  0
    3.1359   -2.1790    2.7886 C   0  0  0  0  0  0  0  0  0  0  0  0
    2.5455   -1.1500    2.0204 C   0  0  0  0  0  0  0  0  0  0  0  0
    1.5929   -0.3219    2.5579 O   0  0  0  0  0  0  0  0  0  0  0  0
    3.1837    1.1466   -0.6579 N   0  0  0  0  0  0  0  0  0  0  0  0
    2.5360    2.1922   -1.4446 C   0  0  0  0  0  0  0  0  0  0  0  0
    2.4990    1.8404   -2.9283 C   0  0  0  0  0  0  0  0  0  0  0  0
    3.8613    1.8829   -3.6187 C   0  0  0  0  0  0  0  0  0  0  0  0
    4.9530    1.0367   -2.9594 C   0  0  0  0  0  0  0  0  0  0  0  0
    5.4547    1.6370   -1.6437 C   0  0  0  0  0  0  0  0  0  0  0  0
    4.6150    1.3075   -0.4036 C   0  0  0  0  0  0  0  0  0  0  0  0
    4.2057   -1.7126   -0.8651 H   0  0  0  0  0  0  0  0  0  0  0  0
    5.6383   -4.4485    2.4348 H   0  0  0  0  0  0  0  0  0  0  0  0
    5.0422   -4.9343    4.7821 H   0  0  0  0  0  0  0  0  0  0  0  0
    3.1821   -3.6992    5.8680 H   0  0  0  0  0  0  0  0  0  0  0  0
    2.0027   -1.9360    4.6439 H   0  0  0  0  0  0  0  0  0  0  0  0
    1.0208   -0.8429    3.1416 H   0  0  0  0  0  0  0  0  0  0  0  0
    3.0476    3.1467   -1.2712 H   0  0  0  0  0  0  0  0  0  0  0  0
    1.5082    2.3222   -1.0874 H   0  0  0  0  0  0  0  0  0  0  0  0
    1.8378    2.5513   -3.4394 H   0  0  0  0  0  0  0  0  0  0  0  0
    2.0571    0.8462   -3.0666 H   0  0  0  0  0  0  0  0  0  0  0  0
    4.1997    2.9249   -3.6905 H   0  0  0  0  0  0  0  0  0  0  0  0
    3.7279    1.5370   -4.6520 H   0  0  0  0  0  0  0  0  0  0  0  0
    5.8008    0.9990   -3.6554 H   0  0  0  0  0  0  0  0  0  0  0  0
    4.6168    0.0025   -2.8234 H   0  0  0  0  0  0  0  0  0  0  0  0
    5.5377    2.7256   -1.7482 H   0  0  0  0  0  0  0  0  0  0  0  0
    6.4764    1.2811   -1.4593 H   0  0  0  0  0  0  0  0  0  0  0  0
    4.7200    2.1180    0.3284 H   0  0  0  0  0  0  0  0  0  0  0  0
    5.0369    0.4258    0.0771 H   0  0  0  0  0  0  0  0  0  0  0  0
  1  2  2  0  0  0  0
  2  3  1  0  0  0  0
  2 14  1  0  0  0  0
  3  4  2  0  0  0  0
  3 12  1  0  0  0  0
  4  5  1  0  0  0  0
  4 21  1  0  0  0  0
  5  6  2  0  0  0  0
  6  7  1  0  0  0  0
  6 11  1  0  0  0  0
  7  8  2  0  0  0  0
  7 22  1  0  0  0  0
  8  9  1  0  0  0  0
  8 23  1  0  0  0  0
  9 10  2  0  0  0  0
  9 24  1  0  0  0  0
 10 11  1  0  0  0  0
 10 25  1  0  0  0  0
 11 12  2  0  0  0  0
 12 13  1  0  0  0  0
 13 26  1  0  0  0  0
 14 15  1  0  0  0  0
 14 20  1  0  0  0  0
 15 16  1  0  0  0  0
 15 27  1  0  0  0  0
 15 28  1  0  0  0  0
 16 17  1  0  0  0  0
 16 29  1  0  0  0  0
 16 30  1  0  0  0  0
 17 18  1  0  0  0  0
 17 31  1  0  0  0  0
 17 32  1  0  0  0  0
 18 19  1  0  0  0  0
 18 33  1  0  0  0  0
 18 34  1  0  0  0  0
 19 20  1  0  0  0  0
 19 35  1  0  0  0  0
 19 36  1  0  0  0  0
 20 37  1  0  0  0  0
 20 38  1  0  0  0  0
M  END
$$$$
