
 OpenBabel09162610133D

 31 34  0  0  0  0  0  0  0  0999 V2000
   -2.9523   -0.7255   -0.5492 N   0  0  0  0  0  0  0  0  0  0  0  0
   -1.8059   -0.5807   -0.4426 C   0  0  0  0  0  0  0  0  0  0  0  0
   -0.3891   -0.4089   -0.3141 C   0  0  0  0  0  0  0  0  0  0  0  0
    0.4244   -0.3679   -1.4522 C   0  0  0  0  0  0  0  0  0  0  0  0
    1.8118   -0.2132   -1.3276 C   0  0  0  0  0  0  0  0  0  0  0  0
    2.3977   -0.0944   -0.0609 C   0  0  0  0  0  0  0  0  0  0  0  0
    3.8407    0.0424    0.1372 C   0  0  0  0  0  0  0  0  0  0  0  0
    4.4112    0.6357    1.1705 N   0  0  0  0  0  0  0  0  0  0  0  0
    5.7495    0.3728    1.0692 C   0  0  0  0  0  0  0  0  0  0  0  0
    6.7902    0.7012    1.9435 C   0  0  0  0  0  0  0  0  0  0  0  0
    8.0819    0.2161    1.6681 C   0  0  0  0  0  0  0  0  0  0  0  0
    9.1361    0.4529    2.5576 C   0  0  0  0  0  0  0  0  0  0  0  0
   10.3943   -0.0697    2.2924 C   0  0  0  0  0  0  0  0  0  0  0  0
   10.5585   -0.7995    1.1311 C   0  0  0  0  0  0  0  0  0  0  0  0
    9.5693   -1.0363    0.2398 N   0  0  0  0  0  0  0  0  0  0  0  0
    8.3471   -0.5459    0.5052 C   0  0  0  0  0  0  0  0  0  0  0  0
    7.3096   -0.8201   -0.3830 C   0  0  0  0  0  0  0  0  0  0  0  0
    6.0243   -0.3673   -0.0686 C   0  0  0  0  0  0  0  0  0  0  0  0
    4.8022   -0.5222   -0.6745 N   0  0  0  0  0  0  0  0  0  0  0  0
    1.5688   -0.1201    1.0712 C   0  0  0  0  0  0  0  0  0  0  0  0
    0.1862   -0.2827    0.9509 C   0  0  0  0  0  0  0  0  0  0  0  0
   -0.0175   -0.4526   -2.4439 H   0  0  0  0  0  0  0  0  0  0  0  0
    2.4144   -0.1675   -2.2312 H   0  0  0  0  0  0  0  0  0  0  0  0
    6.5720    1.2789    2.8347 H   0  0  0  0  0  0  0  0  0  0  0  0
    8.9768    1.0271    3.4671 H   0  0  0  0  0  0  0  0  0  0  0  0
   11.2206    0.0836    2.9768 H   0  0  0  0  0  0  0  0  0  0  0  0
   11.5213   -1.2344    0.8779 H   0  0  0  0  0  0  0  0  0  0  0  0
    7.5042   -1.4079   -1.2739 H   0  0  0  0  0  0  0  0  0  0  0  0
    4.6227   -1.0590   -1.5085 H   0  0  0  0  0  0  0  0  0  0  0  0
    2.0083   -0.0233    2.0638 H   0  0  0  0  0  0  0  0  0  0  0  0
   -0.4261   -0.3104    1.8494 H   0  0  0  0  0  0  0  0  0  0  0  0
  1  2  3  0  0  0  0
  2  3  1  0  0  0  0
  3  4  2  0  0  0  0
  3 21  1  0  0  0  0
  4  5  1  0  0  0  0
  4 22  1  0  0  0  0
  5  6  2  0  0  0  0
  5 23  1  0  0  0  0
  6  7  1  0  0  0  0
  6 20  1  0  0  0  0
  7  8  2  0  0  0  0
  7 19  1  0  0  0  0
  8  9  1  0  0  0  0
  9 10  2  0  0  0  0
  9 18  1  0  0  0  0
 10 11  1  0  0  0  0
 10 24  1  0  0  0  0
 11 12  2  0  0  0  0
 11 16  1  0  0  0  0
 12 13  1  0  0  0  0
 12 25  1  0  0  0  0
 13 14  2  0  0  0  0
 13 26  1  0  0  0  0
 14 15  1  0  0  0  0
 14 27  1  0  0  0  0
 15 16  2  0  0  0  0
 16 17  1  0  0  0  0
 17 18  2  0  0  0  0
 17 28  1  0  0  0  0
 18 19  1  0  0  0  0
 19 29  1  0  0  0  0
 20 21  2  0  0  0  0
 20 30  1  0  0  0  0
 21 31  1  0  0  0  0
M  END
$$$$
