
 OpenBabel09162610133D

 27 29  0  0  0  0  0  0  0  0999 V2000
    0.6196    2.2938    0.0500 C   0  0  0  0  0  0  0  0  0  0  0  0
   -0.2981    1.0924    0.0403 C   0  0  0  0  0  0  0  0  0  0  0  0
    0.2440   -0.2104   -0.0311 C   0  0  0  0  0  0  0  0  0  0  0  0
    1.9450   -0.5087   -0.1589 Cl  0  0  0  0  0  0  0  0  0  0  0  0
   -0.5784   -1.3411    0.0005 C   0  0  0  0  0  0  0  0  0  0  0  0
   -1.9578   -1.2023    0.0733 C   0  0  0  0  0  0  0  0  0  0  0  0
   -2.5245    0.0689    0.1150 C   0  0  0  0  0  0  0  0  0  0  0  0
   -1.7155    1.2210    0.1117 C   0  0  0  0  0  0  0  0  0  0  0  0
   -2.3567    2.4960    0.1230 N   0  0  0  0  0  0  0  0  0  0  0  0
   -1.8264    3.5453   -0.5531 N   0  0  0  0  0  0  0  0  0  0  0  0
   -2.7270    4.5089   -0.5243 N   0  0  0  0  0  0  0  0  0  0  0  0
   -3.8174    4.1368    0.2028 N   0  0  0  0  0  0  0  0  0  0  0  0
   -3.5810    2.9125    0.6442 C   0  0  0  0  0  0  0  0  0  0  0  0
   -4.4390    2.2538    1.5910 C   0  0  0  0  0  0  0  0  0  0  0  0
   -4.1104    1.3683    2.6053 C   0  0  0  0  0  0  0  0  0  0  0  0
   -5.2477    0.9440    3.3578 C   0  0  0  0  0  0  0  0  0  0  0  0
   -6.4055    1.5463    2.9261 C   0  0  0  0  0  0  0  0  0  0  0  0
   -6.1267    2.5903    1.6050 S   0  0  0  0  0  0  0  0  0  0  0  0
    1.6518    2.0468    0.3091 H   0  0  0  0  0  0  0  0  0  0  0  0
    0.3048    3.0133    0.8135 H   0  0  0  0  0  0  0  0  0  0  0  0
    0.6342    2.7681   -0.9364 H   0  0  0  0  0  0  0  0  0  0  0  0
   -0.1430   -2.3368   -0.0463 H   0  0  0  0  0  0  0  0  0  0  0  0
   -2.5934   -2.0855    0.0733 H   0  0  0  0  0  0  0  0  0  0  0  0
   -3.6112    0.1286    0.0986 H   0  0  0  0  0  0  0  0  0  0  0  0
   -3.1025    1.0301    2.8161 H   0  0  0  0  0  0  0  0  0  0  0  0
   -5.2130    0.2454    4.1858 H   0  0  0  0  0  0  0  0  0  0  0  0
   -7.4039    1.4292    3.3247 H   0  0  0  0  0  0  0  0  0  0  0  0
  1  2  1  0  0  0  0
  1 19  1  0  0  0  0
  1 20  1  0  0  0  0
  1 21  1  0  0  0  0
  2  3  2  0  0  0  0
  2  8  1  0  0  0  0
  3  4  1  0  0  0  0
  3  5  1  0  0  0  0
  5  6  2  0  0  0  0
  5 22  1  0  0  0  0
  6  7  1  0  0  0  0
  6 23  1  0  0  0  0
  7  8  2  0  0  0  0
  7 24  1  0  0  0  0
  8  9  1  0  0  0  0
  9 10  1  0  0  0  0
  9 13  1  0  0  0  0
 10 11  2  0  0  0  0
 11 12  1  0  0  0  0
 12 13  2  0  0  0  0
 13 14  1  0  0  0  0
 14 15  2  0  0  0  0
 14 18  1  0  0  0  0
 15 16  1  0  0  0  0
 15 25  1  0  0  0  0
 16 17  2  0  0  0  0
 16 26  1  0  0  0  0
 17 18  1  0  0  0  0
 17 27  1  0  0  0  0
M  END
$$$$
