
 OpenBabel09162610133D

 25 27  0  0  0  0  0  0  0  0999 V2000
    3.2372   -2.4912   -0.4232 N   0  0  0  0  0  0  0  0  0  0  0  0
    3.7163   -1.3321    0.0452 C   0  0  0  0  0  0  0  0  0  0  0  0
    4.7777   -0.6818   -0.3536 N   0  0  0  0  0  0  0  0  0  0  0  0
    4.8232    0.4533    0.4233 C   0  0  0  0  0  0  0  0  0  0  0  0
    5.8124    1.4987    0.1767 C   0  0  0  0  0  0  0  0  0  0  0  0
    6.4846    1.7171   -1.0062 C   0  0  0  0  0  0  0  0  0  0  0  0
    7.1642    2.8990   -0.8906 N   0  0  0  0  0  0  0  0  0  0  0  0
    6.9522    3.4499    0.3545 C   0  0  0  0  0  0  0  0  0  0  0  0
    7.3684    4.6810    0.8804 C   0  0  0  0  0  0  0  0  0  0  0  0
    7.0172    4.9662    2.2032 C   0  0  0  0  0  0  0  0  0  0  0  0
    7.4777    6.6481    2.9401 Br  0  0  0  0  0  0  0  0  0  0  0  0
    6.3270    4.0475    2.9868 C   0  0  0  0  0  0  0  0  0  0  0  0
    5.9092    2.8303    2.4385 C   0  0  0  0  0  0  0  0  0  0  0  0
    6.1819    2.5385    1.0835 C   0  0  0  0  0  0  0  0  0  0  0  0
    3.7607    0.4811    1.3004 C   0  0  0  0  0  0  0  0  0  0  0  0
    3.0682   -0.6676    1.0487 N   0  0  0  0  0  0  0  0  0  0  0  0
    3.8668   -2.9970   -1.0404 H   0  0  0  0  0  0  0  0  0  0  0  0
    2.6725   -3.0976    0.1538 H   0  0  0  0  0  0  0  0  0  0  0  0
    6.4837    1.1583   -1.9328 H   0  0  0  0  0  0  0  0  0  0  0  0
    7.7088    3.3293   -1.6250 H   0  0  0  0  0  0  0  0  0  0  0  0
    7.9202    5.3925    0.2757 H   0  0  0  0  0  0  0  0  0  0  0  0
    6.0885    4.2695    4.0236 H   0  0  0  0  0  0  0  0  0  0  0  0
    5.3700    2.1206    3.0582 H   0  0  0  0  0  0  0  0  0  0  0  0
    3.4162    1.2148    2.0122 H   0  0  0  0  0  0  0  0  0  0  0  0
    2.1986   -0.9534    1.4704 H   0  0  0  0  0  0  0  0  0  0  0  0
  1  2  1  0  0  0  0
  1 17  1  0  0  0  0
  1 18  1  0  0  0  0
  2  3  2  0  0  0  0
  2 16  1  0  0  0  0
  3  4  1  0  0  0  0
  4  5  1  0  0  0  0
  4 15  2  0  0  0  0
  5  6  2  0  0  0  0
  5 14  1  0  0  0  0
  6  7  1  0  0  0  0
  6 19  1  0  0  0  0
  7  8  1  0  0  0  0
  7 20  1  0  0  0  0
  8  9  2  0  0  0  0
  8 14  1  0  0  0  0
  9 10  1  0  0  0  0
  9 21  1  0  0  0  0
 10 11  1  0  0  0  0
 10 12  2  0  0  0  0
 12 13  1  0  0  0  0
 12 22  1  0  0  0  0
 13 14  2  0  0  0  0
 13 23  1  0  0  0  0
 15 16  1  0  0  0  0
 15 24  1  0  0  0  0
 16 25  1  0  0  0  0
M  END
$$$$
