
 OpenBabel09162610133D

 40 42  0  0  0  0  0  0  0  0999 V2000
    1.3303   -0.4073    1.5130 C   0  0  0  0  0  0  0  0  0  0  0  0
    1.2093   -0.2587   -0.0200 C   0  0  0  0  0  0  0  0  0  0  0  0
    2.5117   -0.7806   -0.6515 C   0  0  0  0  0  0  0  0  0  0  0  0
    0.0331   -1.0960   -0.5516 C   0  0  0  0  0  0  0  0  0  0  0  0
   -1.3133   -0.5110   -0.1991 C   0  0  0  0  0  0  0  0  0  0  0  0
   -2.3321   -1.1986   -0.1778 O   0  0  0  0  0  0  0  0  0  0  0  0
   -1.4147    0.9372    0.0750 C   0  0  0  0  0  0  0  0  0  0  0  0
   -0.3544    1.7642    0.0007 C   0  0  0  0  0  0  0  0  0  0  0  0
   -0.4067    3.1208    0.2933 N   0  0  0  0  0  0  0  0  0  0  0  0
   -1.2359    3.7583    1.1520 C   0  0  0  0  0  0  0  0  0  0  0  0
   -1.7631    3.1743    2.3253 C   0  0  0  0  0  0  0  0  0  0  0  0
   -2.5918    4.1207    2.8887 C   0  0  0  0  0  0  0  0  0  0  0  0
   -3.4312    4.0557    4.0791 C   0  0  0  0  0  0  0  0  0  0  0  0
   -3.0152    3.3002    5.1856 C   0  0  0  0  0  0  0  0  0  0  0  0
   -3.8226    3.1859    6.3186 C   0  0  0  0  0  0  0  0  0  0  0  0
   -5.0594    3.8236    6.3566 C   0  0  0  0  0  0  0  0  0  0  0  0
   -5.4870    4.5753    5.2635 C   0  0  0  0  0  0  0  0  0  0  0  0
   -4.6774    4.6924    4.1297 C   0  0  0  0  0  0  0  0  0  0  0  0
   -2.4658    5.2095    2.0651 N   0  0  0  0  0  0  0  0  0  0  0  0
   -1.6177    5.0291    1.0338 N   0  0  0  0  0  0  0  0  0  0  0  0
    1.0042    1.2253   -0.4078 C   0  0  0  0  0  0  0  0  0  0  0  0
    1.4689   -1.4568    1.7965 H   0  0  0  0  0  0  0  0  0  0  0  0
    0.4441   -0.0425    2.0420 H   0  0  0  0  0  0  0  0  0  0  0  0
    2.1914    0.1542    1.8932 H   0  0  0  0  0  0  0  0  0  0  0  0
    2.6775   -1.8333   -0.3948 H   0  0  0  0  0  0  0  0  0  0  0  0
    3.3788   -0.2099   -0.3023 H   0  0  0  0  0  0  0  0  0  0  0  0
    2.4805   -0.7071   -1.7442 H   0  0  0  0  0  0  0  0  0  0  0  0
    0.0787   -2.1128   -0.1437 H   0  0  0  0  0  0  0  0  0  0  0  0
    0.0708   -1.1692   -1.6456 H   0  0  0  0  0  0  0  0  0  0  0  0
   -2.4094    1.2856    0.3296 H   0  0  0  0  0  0  0  0  0  0  0  0
    0.1113    3.7142   -0.3475 H   0  0  0  0  0  0  0  0  0  0  0  0
   -1.5831    2.1773    2.7000 H   0  0  0  0  0  0  0  0  0  0  0  0
   -2.0541    2.7904    5.1759 H   0  0  0  0  0  0  0  0  0  0  0  0
   -3.4873    2.5929    7.1657 H   0  0  0  0  0  0  0  0  0  0  0  0
   -5.6933    3.7271    7.2341 H   0  0  0  0  0  0  0  0  0  0  0  0
   -6.4599    5.0598    5.2880 H   0  0  0  0  0  0  0  0  0  0  0  0
   -5.0525    5.2565    3.2800 H   0  0  0  0  0  0  0  0  0  0  0  0
   -2.9163    6.1123    2.1618 H   0  0  0  0  0  0  0  0  0  0  0  0
    1.7947    1.8272    0.0608 H   0  0  0  0  0  0  0  0  0  0  0  0
    1.1130    1.3571   -1.4928 H   0  0  0  0  0  0  0  0  0  0  0  0
  1  2  1  0  0  0  0
  1 22  1  0  0  0  0
  1 23  1  0  0  0  0
  1 24  1  0  0  0  0
  2  3  1  0  0  0  0
  2  4  1  0  0  0  0
  2 21  1  0  0  0  0
  3 25  1  0  0  0  0
  3 26  1  0  0  0  0
  3 27  1  0  0  0  0
  4  5  1  0  0  0  0
  4 28  1  0  0  0  0
  4 29  1  0  0  0  0
  5  6  2  0  0  0  0
  5  7  1  0  0  0  0
  7  8  2  0  0  0  0
  7 30  1  0  0  0  0
  8  9  1  0  0  0  0
  8 21  1  0  0  0  0
  9 10  1  0  0  0  0
  9 31  1  0  0  0  0
 10 11  1  0  0  0  0
 10 20  2  0  0  0  0
 11 12  2  0  0  0  0
 11 32  1  0  0  0  0
 12 13  1  0  0  0  0
 12 19  1  0  0  0  0
 13 14  2  0  0  0  0
 13 18  1  0  0  0  0
 14 15  1  0  0  0  0
 14 33  1  0  0  0  0
 15 16  2  0  0  0  0
 15 34  1  0  0  0  0
 16 17  1  0  0  0  0
 16 35  1  0  0  0  0
 17 18  2  0  0  0  0
 17 36  1  0  0  0  0
 18 37  1  0  0  0  0
 19 20  1  0  0  0  0
 19 38  1  0  0  0  0
 21 39  1  0  0  0  0
 21 40  1  0  0  0  0
M  END
$$$$
