
 OpenBabel09162610133D

 29 31  0  0  1  0  0  0  0  0999 V2000
   -1.4578   -0.6570    0.1753 Cl  0  0  0  0  0  0  0  0  0  0  0  0
    0.0230    0.2910    0.0026 C   0  0  0  0  0  0  0  0  0  0  0  0
    1.4556   -0.7278   -0.1529 Cl  0  0  0  0  0  0  0  0  0  0  0  0
    0.0683    1.6087    0.7459 C   0  0  1  0  0  0  0  0  0  0  0  0
    1.3053    2.1046    1.4649 C   0  0  0  0  0  0  0  0  0  0  0  0
    1.9437    3.3006    1.0934 C   0  0  0  0  0  0  0  0  0  0  0  0
    3.0679    3.7714    1.7789 C   0  0  0  0  0  0  0  0  0  0  0  0
    3.5727    3.0574    2.8610 C   0  0  0  0  0  0  0  0  0  0  0  0
    2.9526    1.8778    3.2589 C   0  0  0  0  0  0  0  0  0  0  0  0
    1.8284    1.4129    2.5708 C   0  0  0  0  0  0  0  0  0  0  0  0
    0.0297    1.5886   -0.7755 C   0  0  2  0  0  0  0  0  0  0  0  0
   -1.1833    2.0634   -1.5464 C   0  0  0  0  0  0  0  0  0  0  0  0
   -1.9916    3.1255   -1.1063 C   0  0  0  0  0  0  0  0  0  0  0  0
   -3.0903    3.5636   -1.8516 C   0  0  0  0  0  0  0  0  0  0  0  0
   -3.3960    2.9576   -3.0660 C   0  0  0  0  0  0  0  0  0  0  0  0
   -2.6054    1.9125   -3.5327 C   0  0  0  0  0  0  0  0  0  0  0  0
   -1.5134    1.4736   -2.7799 C   0  0  0  0  0  0  0  0  0  0  0  0
   -0.8545    1.8784    1.2559 H   0  0  0  0  0  0  0  0  0  0  0  0
    1.5616    3.8827    0.2571 H   0  0  0  0  0  0  0  0  0  0  0  0
    3.5448    4.6971    1.4683 H   0  0  0  0  0  0  0  0  0  0  0  0
    4.4455    3.4225    3.3963 H   0  0  0  0  0  0  0  0  0  0  0  0
    3.3400    1.3174    4.1060 H   0  0  0  0  0  0  0  0  0  0  0  0
    1.3561    0.4900    2.9039 H   0  0  0  0  0  0  0  0  0  0  0  0
    0.9682    1.8204   -1.2785 H   0  0  0  0  0  0  0  0  0  0  0  0
   -1.7686    3.6282   -0.1679 H   0  0  0  0  0  0  0  0  0  0  0  0
   -3.7039    4.3820   -1.4835 H   0  0  0  0  0  0  0  0  0  0  0  0
   -4.2465    3.3009   -3.6490 H   0  0  0  0  0  0  0  0  0  0  0  0
   -2.8352    1.4384   -4.4834 H   0  0  0  0  0  0  0  0  0  0  0  0
   -0.9063    0.6561   -3.1655 H   0  0  0  0  0  0  0  0  0  0  0  0
  1  2  1  0  0  0  0
  2  3  1  0  0  0  0
  2  4  1  0  0  0  0
  2 11  1  0  0  0  0
  4  5  1  0  0  0  0
  4 11  1  0  0  0  0
  4 18  1  1  0  0  0
  5  6  2  0  0  0  0
  5 10  1  0  0  0  0
  6  7  1  0  0  0  0
  6 19  1  0  0  0  0
  7  8  2  0  0  0  0
  7 20  1  0  0  0  0
  8  9  1  0  0  0  0
  8 21  1  0  0  0  0
  9 10  2  0  0  0  0
  9 22  1  0  0  0  0
 10 23  1  0  0  0  0
 11 12  1  0  0  0  0
 11 24  1  6  0  0  0
 12 13  2  0  0  0  0
 12 17  1  0  0  0  0
 13 14  1  0  0  0  0
 13 25  1  0  0  0  0
 14 15  2  0  0  0  0
 14 26  1  0  0  0  0
 15 16  1  0  0  0  0
 15 27  1  0  0  0  0
 16 17  2  0  0  0  0
 16 28  1  0  0  0  0
 17 29  1  0  0  0  0
M  END
$$$$
