
 OpenBabel09162610133D

 31 34  0  0  0  0  0  0  0  0999 V2000
    0.9038   -0.3143   -0.0050 F   0  0  0  0  0  0  0  0  0  0  0  0
    2.2373   -0.1871    0.0250 C   0  0  0  0  0  0  0  0  0  0  0  0
    3.0303   -1.3299   -0.0449 C   0  0  0  0  0  0  0  0  0  0  0  0
    4.4261   -1.1750   -0.0382 C   0  0  0  0  0  0  0  0  0  0  0  0
    5.3847   -2.1500   -0.1007 N   0  0  0  0  0  0  0  0  0  0  0  0
    6.5509   -1.5298   -0.0488 C   0  0  0  0  0  0  0  0  0  0  0  0
    7.8378   -2.2323    0.0192 C   0  0  0  0  0  0  0  0  0  0  0  0
    8.0057   -3.4561   -0.6362 C   0  0  0  0  0  0  0  0  0  0  0  0
    9.2283   -4.1241   -0.5709 C   0  0  0  0  0  0  0  0  0  0  0  0
   10.2545   -3.5459    0.1574 C   0  0  0  0  0  0  0  0  0  0  0  0
   10.1300   -2.3842    0.8312 N   0  0  0  0  0  0  0  0  0  0  0  0
    8.9223   -1.7708    0.7620 C   0  0  0  0  0  0  0  0  0  0  0  0
    6.3530   -0.1527   -0.0687 N   0  0  0  0  0  0  0  0  0  0  0  0
    7.4300    0.8079   -0.2686 C   0  0  0  0  0  0  0  0  0  0  0  0
    7.7461    1.8487    0.7864 C   0  0  0  0  0  0  0  0  0  0  0  0
    7.3107    2.2808   -0.5746 C   0  0  0  0  0  0  0  0  0  0  0  0
    4.9973    0.0965    0.0405 C   0  0  0  0  0  0  0  0  0  0  0  0
    4.1985    1.2460    0.1487 C   0  0  0  0  0  0  0  0  0  0  0  0
    2.8122    1.0730    0.1260 C   0  0  0  0  0  0  0  0  0  0  0  0
    2.0264    2.1603    0.1862 F   0  0  0  0  0  0  0  0  0  0  0  0
    2.5794   -2.3133   -0.1121 H   0  0  0  0  0  0  0  0  0  0  0  0
    7.1811   -3.8959   -1.1937 H   0  0  0  0  0  0  0  0  0  0  0  0
    9.3727   -5.0731   -1.0741 H   0  0  0  0  0  0  0  0  0  0  0  0
   11.2289   -4.0218    0.2285 H   0  0  0  0  0  0  0  0  0  0  0  0
    8.8639   -0.8652    1.3577 H   0  0  0  0  0  0  0  0  0  0  0  0
    8.3061    0.3403   -0.7146 H   0  0  0  0  0  0  0  0  0  0  0  0
    8.7896    1.9814    1.0559 H   0  0  0  0  0  0  0  0  0  0  0  0
    7.0627    1.9738    1.6186 H   0  0  0  0  0  0  0  0  0  0  0  0
    8.0625    2.7166   -1.2278 H   0  0  0  0  0  0  0  0  0  0  0  0
    6.3568    2.7720   -0.6749 H   0  0  0  0  0  0  0  0  0  0  0  0
    4.6011    2.2450    0.2403 H   0  0  0  0  0  0  0  0  0  0  0  0
  1  2  1  0  0  0  0
  2  3  2  0  0  0  0
  2 19  1  0  0  0  0
  3  4  1  0  0  0  0
  3 21  1  0  0  0  0
  4  5  1  0  0  0  0
  4 17  2  0  0  0  0
  5  6  2  0  0  0  0
  6  7  1  0  0  0  0
  6 13  1  0  0  0  0
  7  8  2  0  0  0  0
  7 12  1  0  0  0  0
  8  9  1  0  0  0  0
  8 22  1  0  0  0  0
  9 10  2  0  0  0  0
  9 23  1  0  0  0  0
 10 11  1  0  0  0  0
 10 24  1  0  0  0  0
 11 12  2  0  0  0  0
 12 25  1  0  0  0  0
 13 14  1  0  0  0  0
 13 17  1  0  0  0  0
 14 15  1  0  0  0  0
 14 16  1  0  0  0  0
 14 26  1  0  0  0  0
 15 16  1  0  0  0  0
 15 27  1  0  0  0  0
 15 28  1  0  0  0  0
 16 29  1  0  0  0  0
 16 30  1  0  0  0  0
 17 18  1  0  0  0  0
 18 19  2  0  0  0  0
 18 31  1  0  0  0  0
 19 20  1  0  0  0  0
M  END
$$$$
