
 OpenBabel09162610133D

 37 39  0  0  0  0  0  0  0  0999 V2000
    1.3951    0.3413   -0.6681 O   0  0  0  0  0  0  0  0  0  0  0  0
    2.4081    0.0421   -0.0429 C   0  0  0  0  0  0  0  0  0  0  0  0
    2.9387    1.0449    0.9272 C   0  0  0  0  0  0  0  0  0  0  0  0
    2.0382    1.7624    1.7264 C   0  0  0  0  0  0  0  0  0  0  0  0
    2.5162    2.6691    2.6788 C   0  0  0  0  0  0  0  0  0  0  0  0
    3.8902    2.8513    2.8362 C   0  0  0  0  0  0  0  0  0  0  0  0
    4.4837    3.9198    4.0459 Cl  0  0  0  0  0  0  0  0  0  0  0  0
    4.7899    2.1767    2.0143 C   0  0  0  0  0  0  0  0  0  0  0  0
    4.3114    1.3079    1.0328 C   0  0  0  0  0  0  0  0  0  0  0  0
    3.0590   -1.1792   -0.1930 N   0  0  0  0  0  0  0  0  0  0  0  0
    2.7250   -2.0384   -1.3431 C   0  0  0  0  0  0  0  0  0  0  0  0
    2.5872   -3.5290   -0.9653 C   0  0  0  0  0  0  0  0  0  0  0  0
    3.7257   -3.9720   -0.1361 N   0  0  0  0  0  0  0  0  0  0  0  0
    4.5203   -5.0638   -0.4254 C   0  0  0  0  0  0  0  0  0  0  0  0
    4.7455   -5.4974   -1.7321 C   0  0  0  0  0  0  0  0  0  0  0  0
    5.5953   -6.5729   -1.9712 C   0  0  0  0  0  0  0  0  0  0  0  0
    6.2385   -7.2602   -1.0040 N   0  0  0  0  0  0  0  0  0  0  0  0
    6.0096   -6.8486    0.2522 C   0  0  0  0  0  0  0  0  0  0  0  0
    5.1784   -5.7855    0.5802 C   0  0  0  0  0  0  0  0  0  0  0  0
    3.9523   -3.1524    1.0569 C   0  0  0  0  0  0  0  0  0  0  0  0
    4.1492   -1.6868    0.6493 C   0  0  0  0  0  0  0  0  0  0  0  0
    0.9660    1.6144    1.6114 H   0  0  0  0  0  0  0  0  0  0  0  0
    1.8146    3.2234    3.2970 H   0  0  0  0  0  0  0  0  0  0  0  0
    5.8610    2.3208    2.1295 H   0  0  0  0  0  0  0  0  0  0  0  0
    5.0196    0.8214    0.3679 H   0  0  0  0  0  0  0  0  0  0  0  0
    3.5451   -1.9208   -2.0626 H   0  0  0  0  0  0  0  0  0  0  0  0
    1.8090   -1.6969   -1.8363 H   0  0  0  0  0  0  0  0  0  0  0  0
    2.4532   -4.1279   -1.8712 H   0  0  0  0  0  0  0  0  0  0  0  0
    1.6722   -3.6597   -0.3735 H   0  0  0  0  0  0  0  0  0  0  0  0
    4.3081   -4.9928   -2.5838 H   0  0  0  0  0  0  0  0  0  0  0  0
    5.7914   -6.9113   -2.9847 H   0  0  0  0  0  0  0  0  0  0  0  0
    6.5244   -7.4090    1.0266 H   0  0  0  0  0  0  0  0  0  0  0  0
    5.0407   -5.5555    1.6307 H   0  0  0  0  0  0  0  0  0  0  0  0
    4.8399   -3.4458    1.6253 H   0  0  0  0  0  0  0  0  0  0  0  0
    3.0859   -3.2429    1.7227 H   0  0  0  0  0  0  0  0  0  0  0  0
    5.0735   -1.5816    0.0671 H   0  0  0  0  0  0  0  0  0  0  0  0
    4.2455   -1.1104    1.5695 H   0  0  0  0  0  0  0  0  0  0  0  0
  1  2  2  0  0  0  0
  2  3  1  0  0  0  0
  2 10  1  0  0  0  0
  3  4  2  0  0  0  0
  3  9  1  0  0  0  0
  4  5  1  0  0  0  0
  4 22  1  0  0  0  0
  5  6  2  0  0  0  0
  5 23  1  0  0  0  0
  6  7  1  0  0  0  0
  6  8  1  0  0  0  0
  8  9  2  0  0  0  0
  8 24  1  0  0  0  0
  9 25  1  0  0  0  0
 10 11  1  0  0  0  0
 10 21  1  0  0  0  0
 11 12  1  0  0  0  0
 11 26  1  0  0  0  0
 11 27  1  0  0  0  0
 12 13  1  0  0  0  0
 12 28  1  0  0  0  0
 12 29  1  0  0  0  0
 13 14  1  0  0  0  0
 13 20  1  0  0  0  0
 14 15  2  0  0  0  0
 14 19  1  0  0  0  0
 15 16  1  0  0  0  0
 15 30  1  0  0  0  0
 16 17  2  0  0  0  0
 16 31  1  0  0  0  0
 17 18  1  0  0  0  0
 18 19  2  0  0  0  0
 18 32  1  0  0  0  0
 19 33  1  0  0  0  0
 20 21  1  0  0  0  0
 20 34  1  0  0  0  0
 20 35  1  0  0  0  0
 21 36  1  0  0  0  0
 21 37  1  0  0  0  0
M  END
$$$$
