
 OpenBabel09162610133D

 41 42  0  0  0  0  0  0  0  0999 V2000
    1.0563    0.5311    0.4489 C   0  0  0  0  0  0  0  0  0  0  0  0
    2.5651    0.4428    0.2835 C   0  0  0  0  0  0  0  0  0  0  0  0
    3.0432    1.2911   -0.8948 C   0  0  0  0  0  0  0  0  0  0  0  0
    4.5579    1.1970   -1.0761 C   0  0  0  0  0  0  0  0  0  0  0  0
    5.0303    2.0482   -2.2605 C   0  0  0  0  0  0  0  0  0  0  0  0
    6.5255    1.9272   -2.4422 C   0  0  0  0  0  0  0  0  0  0  0  0
    7.2389    2.8567   -1.7588 N   0  0  0  0  0  0  0  0  0  0  0  0
    8.5759    2.7999   -1.7852 C   0  0  0  0  0  0  0  0  0  0  0  0
    9.2917    3.8400   -1.2075 C   0  0  0  0  0  0  0  0  0  0  0  0
   10.6895    3.8627   -1.2036 C   0  0  0  0  0  0  0  0  0  0  0  0
   11.3919    2.7999   -1.7559 C   0  0  0  0  0  0  0  0  0  0  0  0
   10.6937    1.7390   -2.3330 C   0  0  0  0  0  0  0  0  0  0  0  0
    9.2749    1.7380   -2.3846 C   0  0  0  0  0  0  0  0  0  0  0  0
    8.5030    0.7582   -3.0531 C   0  0  0  0  0  0  0  0  0  0  0  0
    9.2343   -0.3050   -3.6598 O   0  0  0  0  0  0  0  0  0  0  0  0
    8.8669   -1.6532   -3.5473 C   0  0  0  0  0  0  0  0  0  0  0  0
    9.9719   -2.5155   -4.0905 C   0  0  0  0  0  0  0  0  0  0  0  0
    7.8425   -2.0941   -3.0502 O   0  0  0  0  0  0  0  0  0  0  0  0
    7.1186    0.9061   -3.1920 C   0  0  0  0  0  0  0  0  0  0  0  0
    6.2935    0.0890   -4.1419 C   0  0  0  0  0  0  0  0  0  0  0  0
    0.7304   -0.0741    1.3004 H   0  0  0  0  0  0  0  0  0  0  0  0
    0.5430    0.1639   -0.4456 H   0  0  0  0  0  0  0  0  0  0  0  0
    0.7414    1.5646    0.6254 H   0  0  0  0  0  0  0  0  0  0  0  0
    2.8498   -0.6048    0.1306 H   0  0  0  0  0  0  0  0  0  0  0  0
    3.0497    0.7790    1.2077 H   0  0  0  0  0  0  0  0  0  0  0  0
    2.7571    2.3375   -0.7332 H   0  0  0  0  0  0  0  0  0  0  0  0
    2.5447    0.9566   -1.8126 H   0  0  0  0  0  0  0  0  0  0  0  0
    4.8434    0.1486   -1.2288 H   0  0  0  0  0  0  0  0  0  0  0  0
    5.0590    1.5275   -0.1567 H   0  0  0  0  0  0  0  0  0  0  0  0
    4.7837    3.1016   -2.0698 H   0  0  0  0  0  0  0  0  0  0  0  0
    4.4949    1.7775   -3.1739 H   0  0  0  0  0  0  0  0  0  0  0  0
    8.7458    4.6721   -0.7699 H   0  0  0  0  0  0  0  0  0  0  0  0
   11.2173    4.7108   -0.7758 H   0  0  0  0  0  0  0  0  0  0  0  0
   12.4782    2.8064   -1.7560 H   0  0  0  0  0  0  0  0  0  0  0  0
   11.2599    0.9241   -2.7764 H   0  0  0  0  0  0  0  0  0  0  0  0
   10.6095   -1.9519   -4.7784 H   0  0  0  0  0  0  0  0  0  0  0  0
    9.5458   -3.3560   -4.6464 H   0  0  0  0  0  0  0  0  0  0  0  0
   10.5764   -2.8879   -3.2600 H   0  0  0  0  0  0  0  0  0  0  0  0
    6.9114   -0.4395   -4.8729 H   0  0  0  0  0  0  0  0  0  0  0  0
    5.6570    0.7499   -4.7411 H   0  0  0  0  0  0  0  0  0  0  0  0
    5.6651   -0.6281   -3.6077 H   0  0  0  0  0  0  0  0  0  0  0  0
  1  2  1  0  0  0  0
  1 21  1  0  0  0  0
  1 22  1  0  0  0  0
  1 23  1  0  0  0  0
  2  3  1  0  0  0  0
  2 24  1  0  0  0  0
  2 25  1  0  0  0  0
  3  4  1  0  0  0  0
  3 26  1  0  0  0  0
  3 27  1  0  0  0  0
  4  5  1  0  0  0  0
  4 28  1  0  0  0  0
  4 29  1  0  0  0  0
  5  6  1  0  0  0  0
  5 30  1  0  0  0  0
  5 31  1  0  0  0  0
  6  7  2  0  0  0  0
  6 19  1  0  0  0  0
  7  8  1  0  0  0  0
  8  9  2  0  0  0  0
  8 13  1  0  0  0  0
  9 10  1  0  0  0  0
  9 32  1  0  0  0  0
 10 11  2  0  0  0  0
 10 33  1  0  0  0  0
 11 12  1  0  0  0  0
 11 34  1  0  0  0  0
 12 13  2  0  0  0  0
 12 35  1  0  0  0  0
 13 14  1  0  0  0  0
 14 15  1  0  0  0  0
 14 19  2  0  0  0  0
 15 16  1  0  0  0  0
 16 17  1  0  0  0  0
 16 18  2  0  0  0  0
 17 36  1  0  0  0  0
 17 37  1  0  0  0  0
 17 38  1  0  0  0  0
 19 20  1  0  0  0  0
 20 39  1  0  0  0  0
 20 40  1  0  0  0  0
 20 41  1  0  0  0  0
M  END
$$$$
