
 OpenBabel09162610133D

 37 40  0  0  0  0  0  0  0  0999 V2000
    2.0174   -0.6702   -0.3047 O   0  0  0  0  0  0  0  0  0  0  0  0
    2.7711    0.2287    0.0410 C   0  0  0  0  0  0  0  0  0  0  0  0
    3.0488    1.4048   -0.6275 O   0  0  0  0  0  0  0  0  0  0  0  0
    2.2768    1.5879   -1.7808 C   0  0  0  0  0  0  0  0  0  0  0  0
    0.9084    1.8579   -1.6809 C   0  0  0  0  0  0  0  0  0  0  0  0
    0.1620    2.0651   -2.8418 C   0  0  0  0  0  0  0  0  0  0  0  0
    0.7913    2.0210   -4.0866 C   0  0  0  0  0  0  0  0  0  0  0  0
    2.1615    1.7807   -4.1598 C   0  0  0  0  0  0  0  0  0  0  0  0
    2.7596    1.7549   -5.3582 F   0  0  0  0  0  0  0  0  0  0  0  0
    2.9194    1.5710   -3.0140 C   0  0  0  0  0  0  0  0  0  0  0  0
    3.4381    0.2504    1.3648 C   0  0  0  0  0  0  0  0  0  0  0  0
    2.8056   -0.4172    2.4241 C   0  0  0  0  0  0  0  0  0  0  0  0
    3.3215   -0.3259    3.7157 C   0  0  0  0  0  0  0  0  0  0  0  0
    4.4767    0.4281    3.9372 C   0  0  0  0  0  0  0  0  0  0  0  0
    4.9387    0.7003    5.3171 C   0  0  0  0  0  0  0  0  0  0  0  0
    4.4007    0.1813    6.2880 O   0  0  0  0  0  0  0  0  0  0  0  0
    5.9770    1.5921    5.3897 N   0  0  0  0  0  0  0  0  0  0  0  0
    6.6809    2.0188    4.2826 C   0  0  0  0  0  0  0  0  0  0  0  0
    6.3572    1.7683    3.0611 N   0  0  0  0  0  0  0  0  0  0  0  0
    5.1682    1.0340    2.8742 C   0  0  0  0  0  0  0  0  0  0  0  0
    4.6361    0.9437    1.5854 C   0  0  0  0  0  0  0  0  0  0  0  0
    7.8699    2.8050    4.7411 C   0  0  0  0  0  0  0  0  0  0  0  0
    7.3900    3.2838    6.1092 C   0  0  0  0  0  0  0  0  0  0  0  0
    6.5245    2.1347    6.6059 C   0  0  0  0  0  0  0  0  0  0  0  0
    0.4213    1.8919   -0.7104 H   0  0  0  0  0  0  0  0  0  0  0  0
   -0.9059    2.2564   -2.7764 H   0  0  0  0  0  0  0  0  0  0  0  0
    0.2243    2.1742   -4.9998 H   0  0  0  0  0  0  0  0  0  0  0  0
    3.9849    1.3911   -3.0928 H   0  0  0  0  0  0  0  0  0  0  0  0
    1.8855   -0.9744    2.2523 H   0  0  0  0  0  0  0  0  0  0  0  0
    2.8056   -0.8030    4.5462 H   0  0  0  0  0  0  0  0  0  0  0  0
    5.1525    1.4432    0.7692 H   0  0  0  0  0  0  0  0  0  0  0  0
    8.1079    3.6234    4.0614 H   0  0  0  0  0  0  0  0  0  0  0  0
    8.7281    2.1317    4.8306 H   0  0  0  0  0  0  0  0  0  0  0  0
    6.7716    4.1812    5.9760 H   0  0  0  0  0  0  0  0  0  0  0  0
    8.2056    3.5340    6.7922 H   0  0  0  0  0  0  0  0  0  0  0  0
    5.7225    2.4667    7.2728 H   0  0  0  0  0  0  0  0  0  0  0  0
    7.1114    1.3581    7.1061 H   0  0  0  0  0  0  0  0  0  0  0  0
  1  2  2  0  0  0  0
  2  3  1  0  0  0  0
  2 11  1  0  0  0  0
  3  4  1  0  0  0  0
  4  5  2  0  0  0  0
  4 10  1  0  0  0  0
  5  6  1  0  0  0  0
  5 25  1  0  0  0  0
  6  7  2  0  0  0  0
  6 26  1  0  0  0  0
  7  8  1  0  0  0  0
  7 27  1  0  0  0  0
  8  9  1  0  0  0  0
  8 10  2  0  0  0  0
 10 28  1  0  0  0  0
 11 12  2  0  0  0  0
 11 21  1  0  0  0  0
 12 13  1  0  0  0  0
 12 29  1  0  0  0  0
 13 14  2  0  0  0  0
 13 30  1  0  0  0  0
 14 15  1  0  0  0  0
 14 20  1  0  0  0  0
 15 16  2  0  0  0  0
 15 17  1  0  0  0  0
 17 18  1  0  0  0  0
 17 24  1  0  0  0  0
 18 19  2  0  0  0  0
 18 22  1  0  0  0  0
 19 20  1  0  0  0  0
 20 21  2  0  0  0  0
 21 31  1  0  0  0  0
 22 23  1  0  0  0  0
 22 32  1  0  0  0  0
 22 33  1  0  0  0  0
 23 24  1  0  0  0  0
 23 34  1  0  0  0  0
 23 35  1  0  0  0  0
 24 36  1  0  0  0  0
 24 37  1  0  0  0  0
M  END
$$$$
