
 OpenBabel09162610133D

 32 35  0  0  0  0  0  0  0  0999 V2000
    1.0938   -0.1342    0.0656 C   0  0  0  0  0  0  0  0  0  0  0  0
    2.5725   -0.0984    0.0706 C   0  0  0  0  0  0  0  0  0  0  0  0
    3.4930   -1.1330    0.0705 C   0  0  0  0  0  0  0  0  0  0  0  0
    4.7847   -0.6719    0.0725 N   0  0  0  0  0  0  0  0  0  0  0  0
    4.6600    0.6402    0.0822 C   0  0  0  0  0  0  0  0  0  0  0  0
    5.7427    1.6216    0.1054 C   0  0  0  0  0  0  0  0  0  0  0  0
    7.0487    1.2160    0.1769 N   0  0  0  0  0  0  0  0  0  0  0  0
    5.5032    2.9175    0.0702 N   0  0  0  0  0  0  0  0  0  0  0  0
    4.1372    3.2843    0.0583 C   0  0  0  0  0  0  0  0  0  0  0  0
    3.6647    4.6232    0.0548 C   0  0  0  0  0  0  0  0  0  0  0  0
    2.2699    4.6847    0.0633 C   0  0  0  0  0  0  0  0  0  0  0  0
    1.3622    5.8459    0.0971 C   0  0  0  0  0  0  0  0  0  0  0  0
    0.0959    5.7969   -0.5189 C   0  0  0  0  0  0  0  0  0  0  0  0
   -0.7973    6.8657   -0.4216 C   0  0  0  0  0  0  0  0  0  0  0  0
   -0.4344    8.0110    0.2798 C   0  0  0  0  0  0  0  0  0  0  0  0
    0.8253    8.0877    0.8723 C   0  0  0  0  0  0  0  0  0  0  0  0
    1.7177    7.0141    0.7801 C   0  0  0  0  0  0  0  0  0  0  0  0
    1.5899    3.0919    0.1015 S   0  0  0  0  0  0  0  0  0  0  0  0
    3.1002    2.3954    0.0695 C   0  0  0  0  0  0  0  0  0  0  0  0
    3.3484    1.0444    0.0736 N   0  0  0  0  0  0  0  0  0  0  0  0
    0.7268   -1.1643    0.0640 H   0  0  0  0  0  0  0  0  0  0  0  0
    0.6900    0.3561   -0.8265 H   0  0  0  0  0  0  0  0  0  0  0  0
    0.6846    0.3535    0.9586 H   0  0  0  0  0  0  0  0  0  0  0  0
    3.2785   -2.1971    0.0699 H   0  0  0  0  0  0  0  0  0  0  0  0
    7.2477    0.2369    0.0033 H   0  0  0  0  0  0  0  0  0  0  0  0
    7.7677    1.9004   -0.0097 H   0  0  0  0  0  0  0  0  0  0  0  0
    4.3055    5.4950    0.0451 H   0  0  0  0  0  0  0  0  0  0  0  0
   -0.2210    4.9217   -1.0799 H   0  0  0  0  0  0  0  0  0  0  0  0
   -1.7781    6.7942   -0.8824 H   0  0  0  0  0  0  0  0  0  0  0  0
   -1.1329    8.8377    0.3695 H   0  0  0  0  0  0  0  0  0  0  0  0
    1.1103    8.9838    1.4209 H   0  0  0  0  0  0  0  0  0  0  0  0
    2.6828    7.0933    1.2743 H   0  0  0  0  0  0  0  0  0  0  0  0
  1  2  1  0  0  0  0
  1 21  1  0  0  0  0
  1 22  1  0  0  0  0
  1 23  1  0  0  0  0
  2  3  2  0  0  0  0
  2 20  1  0  0  0  0
  3  4  1  0  0  0  0
  3 24  1  0  0  0  0
  4  5  2  0  0  0  0
  5  6  1  0  0  0  0
  5 20  1  0  0  0  0
  6  7  1  0  0  0  0
  6  8  2  0  0  0  0
  7 25  1  0  0  0  0
  7 26  1  0  0  0  0
  8  9  1  0  0  0  0
  9 10  1  0  0  0  0
  9 19  2  0  0  0  0
 10 11  2  0  0  0  0
 10 27  1  0  0  0  0
 11 12  1  0  0  0  0
 11 18  1  0  0  0  0
 12 13  2  0  0  0  0
 12 17  1  0  0  0  0
 13 14  1  0  0  0  0
 13 28  1  0  0  0  0
 14 15  2  0  0  0  0
 14 29  1  0  0  0  0
 15 16  1  0  0  0  0
 15 30  1  0  0  0  0
 16 17  2  0  0  0  0
 16 31  1  0  0  0  0
 17 32  1  0  0  0  0
 18 19  1  0  0  0  0
 19 20  1  0  0  0  0
M  END
$$$$
