
 OpenBabel09162610133D

 40 43  0  0  0  0  0  0  0  0999 V2000
    0.9754   -0.1458    0.0398 C   0  0  0  0  0  0  0  0  0  0  0  0
    2.4537   -0.1182    0.0241 C   0  0  0  0  0  0  0  0  0  0  0  0
    3.1762    0.9911    0.0177 N   0  0  0  0  0  0  0  0  0  0  0  0
    4.5081    0.6518   -0.0151 N   0  0  0  0  0  0  0  0  0  0  0  0
    4.5680   -0.6630   -0.0208 C   0  0  0  0  0  0  0  0  0  0  0  0
    5.7587   -1.4802   -0.0187 C   0  0  0  0  0  0  0  0  0  0  0  0
    7.0318   -0.9424   -0.0576 N   0  0  0  0  0  0  0  0  0  0  0  0
    8.1788   -1.6160    0.5408 C   0  0  0  0  0  0  0  0  0  0  0  0
    8.3436   -1.1666    1.9998 C   0  0  0  0  0  0  0  0  0  0  0  0
    9.6256   -1.7126    2.6258 C   0  0  0  0  0  0  0  0  0  0  0  0
   10.8486   -1.3591    1.7866 C   0  0  0  0  0  0  0  0  0  0  0  0
   10.6968   -1.8660    0.3565 C   0  0  0  0  0  0  0  0  0  0  0  0
    9.4279   -1.3235   -0.2977 C   0  0  0  0  0  0  0  0  0  0  0  0
    5.6158   -2.7748    0.0236 N   0  0  0  0  0  0  0  0  0  0  0  0
    4.3325   -3.3513    0.0322 C   0  0  0  0  0  0  0  0  0  0  0  0
    4.2643   -4.7451    0.0338 C   0  0  0  0  0  0  0  0  0  0  0  0
    3.0314   -5.3947    0.0442 C   0  0  0  0  0  0  0  0  0  0  0  0
    1.8564   -4.6474    0.0489 C   0  0  0  0  0  0  0  0  0  0  0  0
    1.8992   -3.2493    0.0439 C   0  0  0  0  0  0  0  0  0  0  0  0
    3.1369   -2.6037    0.0304 C   0  0  0  0  0  0  0  0  0  0  0  0
    3.3079   -1.2053    0.0119 N   0  0  0  0  0  0  0  0  0  0  0  0
    0.5772    0.8748    0.0426 H   0  0  0  0  0  0  0  0  0  0  0  0
    0.5958   -0.6425    0.9377 H   0  0  0  0  0  0  0  0  0  0  0  0
    0.5812   -0.6432   -0.8511 H   0  0  0  0  0  0  0  0  0  0  0  0
    7.0734    0.0721   -0.0919 H   0  0  0  0  0  0  0  0  0  0  0  0
    8.0327   -2.7038    0.5340 H   0  0  0  0  0  0  0  0  0  0  0  0
    7.4827   -1.5011    2.5920 H   0  0  0  0  0  0  0  0  0  0  0  0
    8.3520   -0.0704    2.0602 H   0  0  0  0  0  0  0  0  0  0  0  0
    9.5515   -2.8032    2.7228 H   0  0  0  0  0  0  0  0  0  0  0  0
    9.7443   -1.3112    3.6387 H   0  0  0  0  0  0  0  0  0  0  0  0
   11.7477   -1.7912    2.2398 H   0  0  0  0  0  0  0  0  0  0  0  0
   10.9850   -0.2707    1.7776 H   0  0  0  0  0  0  0  0  0  0  0  0
   10.6686   -2.9630    0.3597 H   0  0  0  0  0  0  0  0  0  0  0  0
   11.5707   -1.5716   -0.2350 H   0  0  0  0  0  0  0  0  0  0  0  0
    9.3142   -1.7730   -1.2921 H   0  0  0  0  0  0  0  0  0  0  0  0
    9.5353   -0.2428   -0.4555 H   0  0  0  0  0  0  0  0  0  0  0  0
    5.1860   -5.3228    0.0248 H   0  0  0  0  0  0  0  0  0  0  0  0
    2.9958   -6.4813    0.0422 H   0  0  0  0  0  0  0  0  0  0  0  0
    0.8969   -5.1616    0.0555 H   0  0  0  0  0  0  0  0  0  0  0  0
    0.9551   -2.7211    0.0434 H   0  0  0  0  0  0  0  0  0  0  0  0
  1  2  1  0  0  0  0
  1 22  1  0  0  0  0
  1 23  1  0  0  0  0
  1 24  1  0  0  0  0
  2  3  2  0  0  0  0
  2 21  1  0  0  0  0
  3  4  1  0  0  0  0
  4  5  2  0  0  0  0
  5  6  1  0  0  0  0
  5 21  1  0  0  0  0
  6  7  1  0  0  0  0
  6 14  2  0  0  0  0
  7  8  1  0  0  0  0
  7 25  1  0  0  0  0
  8  9  1  0  0  0  0
  8 13  1  0  0  0  0
  8 26  1  0  0  0  0
  9 10  1  0  0  0  0
  9 27  1  0  0  0  0
  9 28  1  0  0  0  0
 10 11  1  0  0  0  0
 10 29  1  0  0  0  0
 10 30  1  0  0  0  0
 11 12  1  0  0  0  0
 11 31  1  0  0  0  0
 11 32  1  0  0  0  0
 12 13  1  0  0  0  0
 12 33  1  0  0  0  0
 12 34  1  0  0  0  0
 13 35  1  0  0  0  0
 13 36  1  0  0  0  0
 14 15  1  0  0  0  0
 15 16  1  0  0  0  0
 15 20  2  0  0  0  0
 16 17  2  0  0  0  0
 16 37  1  0  0  0  0
 17 18  1  0  0  0  0
 17 38  1  0  0  0  0
 18 19  2  0  0  0  0
 18 39  1  0  0  0  0
 19 20  1  0  0  0  0
 19 40  1  0  0  0  0
 20 21  1  0  0  0  0
M  END
$$$$
