
 OpenBabel09162610133D

 37 39  0  0  0  0  0  0  0  0999 V2000
    1.0958    0.2619    0.2521 C   0  0  0  0  0  0  0  0  0  0  0  0
    2.4356   -0.0138   -0.1450 O   0  0  0  0  0  0  0  0  0  0  0  0
    2.9513    0.8157   -1.1017 C   0  0  0  0  0  0  0  0  0  0  0  0
    2.5299    2.1158   -1.3476 C   0  0  0  0  0  0  0  0  0  0  0  0
    3.1388    2.8624   -2.3605 C   0  0  0  0  0  0  0  0  0  0  0  0
    4.1635    2.3479   -3.1407 C   0  0  0  0  0  0  0  0  0  0  0  0
    4.6764    3.1338   -4.0983 N   0  0  0  0  0  0  0  0  0  0  0  0
    5.6812    2.6538   -4.8592 C   0  0  0  0  0  0  0  0  0  0  0  0
    6.2292    3.5535   -5.9252 C   0  0  0  0  0  0  0  0  0  0  0  0
    6.2066    1.3838   -4.6850 C   0  0  0  0  0  0  0  0  0  0  0  0
    5.6935    0.5610   -3.6784 C   0  0  0  0  0  0  0  0  0  0  0  0
    6.2274   -0.7379   -3.4721 N   0  0  0  0  0  0  0  0  0  0  0  0
    7.5589   -1.1676   -3.6498 C   0  0  0  0  0  0  0  0  0  0  0  0
    7.8281   -2.4873   -4.0343 C   0  0  0  0  0  0  0  0  0  0  0  0
    9.1459   -2.9276   -4.2108 C   0  0  0  0  0  0  0  0  0  0  0  0
   10.2117   -2.0572   -3.9936 C   0  0  0  0  0  0  0  0  0  0  0  0
    9.9500   -0.7518   -3.5958 C   0  0  0  0  0  0  0  0  0  0  0  0
   10.9560    0.1376   -3.3626 O   0  0  0  0  0  0  0  0  0  0  0  0
    8.6428   -0.3104   -3.4184 C   0  0  0  0  0  0  0  0  0  0  0  0
    4.6207    1.0382   -2.8859 C   0  0  0  0  0  0  0  0  0  0  0  0
    4.0077    0.2917   -1.8505 C   0  0  0  0  0  0  0  0  0  0  0  0
    0.7680   -0.5485    0.9100 H   0  0  0  0  0  0  0  0  0  0  0  0
    0.4248    0.2825   -0.6141 H   0  0  0  0  0  0  0  0  0  0  0  0
    1.0318    1.1945    0.8214 H   0  0  0  0  0  0  0  0  0  0  0  0
    1.7477    2.5884   -0.7641 H   0  0  0  0  0  0  0  0  0  0  0  0
    2.8070    3.8824   -2.5427 H   0  0  0  0  0  0  0  0  0  0  0  0
    5.7196    4.5224   -5.9162 H   0  0  0  0  0  0  0  0  0  0  0  0
    6.0868    3.1018   -6.9118 H   0  0  0  0  0  0  0  0  0  0  0  0
    7.2968    3.7290   -5.7599 H   0  0  0  0  0  0  0  0  0  0  0  0
    7.0037    1.0361   -5.3341 H   0  0  0  0  0  0  0  0  0  0  0  0
    5.5283   -1.4609   -3.6101 H   0  0  0  0  0  0  0  0  0  0  0  0
    7.0152   -3.1862   -4.2112 H   0  0  0  0  0  0  0  0  0  0  0  0
    9.3373   -3.9531   -4.5172 H   0  0  0  0  0  0  0  0  0  0  0  0
   11.2287   -2.4095   -4.1350 H   0  0  0  0  0  0  0  0  0  0  0  0
   11.8066   -0.3150   -3.4871 H   0  0  0  0  0  0  0  0  0  0  0  0
    8.4772    0.7089   -3.0785 H   0  0  0  0  0  0  0  0  0  0  0  0
    4.3557   -0.7125   -1.6197 H   0  0  0  0  0  0  0  0  0  0  0  0
  1  2  1  0  0  0  0
  1 22  1  0  0  0  0
  1 23  1  0  0  0  0
  1 24  1  0  0  0  0
  2  3  1  0  0  0  0
  3  4  2  0  0  0  0
  3 21  1  0  0  0  0
  4  5  1  0  0  0  0
  4 25  1  0  0  0  0
  5  6  2  0  0  0  0
  5 26  1  0  0  0  0
  6  7  1  0  0  0  0
  6 20  1  0  0  0  0
  7  8  2  0  0  0  0
  8  9  1  0  0  0  0
  8 10  1  0  0  0  0
  9 27  1  0  0  0  0
  9 28  1  0  0  0  0
  9 29  1  0  0  0  0
 10 11  2  0  0  0  0
 10 30  1  0  0  0  0
 11 12  1  0  0  0  0
 11 20  1  0  0  0  0
 12 13  1  0  0  0  0
 12 31  1  0  0  0  0
 13 14  2  0  0  0  0
 13 19  1  0  0  0  0
 14 15  1  0  0  0  0
 14 32  1  0  0  0  0
 15 16  2  0  0  0  0
 15 33  1  0  0  0  0
 16 17  1  0  0  0  0
 16 34  1  0  0  0  0
 17 18  1  0  0  0  0
 17 19  2  0  0  0  0
 18 35  1  0  0  0  0
 19 36  1  0  0  0  0
 20 21  2  0  0  0  0
 21 37  1  0  0  0  0
M  END
$$$$
