
 OpenBabel09162610133D

 31 34  0  0  0  0  0  0  0  0999 V2000
    0.7304    0.1241    0.2667 F   0  0  0  0  0  0  0  0  0  0  0  0
    2.0660    0.0253    0.2450 C   0  0  0  0  0  0  0  0  0  0  0  0
    2.6578   -1.0276   -0.4449 C   0  0  0  0  0  0  0  0  0  0  0  0
    4.0471   -1.1124   -0.5058 C   0  0  0  0  0  0  0  0  0  0  0  0
    4.8326   -0.1290    0.1112 C   0  0  0  0  0  0  0  0  0  0  0  0
    4.2301    0.9266    0.8413 C   0  0  0  0  0  0  0  0  0  0  0  0
    2.8329    0.9876    0.8967 C   0  0  0  0  0  0  0  0  0  0  0  0
    5.0158    1.9604    1.4332 N   0  0  0  0  0  0  0  0  0  0  0  0
    4.9009    3.2250    0.6829 C   0  0  0  0  0  0  0  0  0  0  0  0
    5.6345    3.1216   -0.6373 C   0  0  0  0  0  0  0  0  0  0  0  0
    5.3044    3.9975   -1.6872 C   0  0  0  0  0  0  0  0  0  0  0  0
    5.8892    3.8256   -2.9375 C   0  0  0  0  0  0  0  0  0  0  0  0
    6.8140    2.8055   -3.1284 C   0  0  0  0  0  0  0  0  0  0  0  0
    7.3419    2.6209   -4.3463 F   0  0  0  0  0  0  0  0  0  0  0  0
    7.1858    1.9583   -2.0868 C   0  0  0  0  0  0  0  0  0  0  0  0
    6.6018    2.1034   -0.8236 C   0  0  0  0  0  0  0  0  0  0  0  0
    6.9086    1.1763    0.2169 N   0  0  0  0  0  0  0  0  0  0  0  0
    6.3369   -0.1547   -0.0603 C   0  0  0  0  0  0  0  0  0  0  0  0
    6.4324    1.6130    1.5282 C   0  0  0  0  0  0  0  0  0  0  0  0
    2.0332   -1.7600   -0.9472 H   0  0  0  0  0  0  0  0  0  0  0  0
    4.5101   -1.9220   -1.0653 H   0  0  0  0  0  0  0  0  0  0  0  0
    2.3323    1.7928    1.4230 H   0  0  0  0  0  0  0  0  0  0  0  0
    5.3551    4.0335    1.2714 H   0  0  0  0  0  0  0  0  0  0  0  0
    3.8516    3.5031    0.5279 H   0  0  0  0  0  0  0  0  0  0  0  0
    4.5629    4.7767   -1.5410 H   0  0  0  0  0  0  0  0  0  0  0  0
    5.6163    4.4668   -3.7691 H   0  0  0  0  0  0  0  0  0  0  0  0
    7.9108    1.1770   -2.2781 H   0  0  0  0  0  0  0  0  0  0  0  0
    6.7553   -0.8797    0.6485 H   0  0  0  0  0  0  0  0  0  0  0  0
    6.6104   -0.5048   -1.0628 H   0  0  0  0  0  0  0  0  0  0  0  0
    7.0252    2.4677    1.8836 H   0  0  0  0  0  0  0  0  0  0  0  0
    6.5810    0.8294    2.2846 H   0  0  0  0  0  0  0  0  0  0  0  0
  1  2  1  0  0  0  0
  2  3  2  0  0  0  0
  2  7  1  0  0  0  0
  3  4  1  0  0  0  0
  3 20  1  0  0  0  0
  4  5  2  0  0  0  0
  4 21  1  0  0  0  0
  5  6  1  0  0  0  0
  5 18  1  0  0  0  0
  6  7  2  0  0  0  0
  6  8  1  0  0  0  0
  7 22  1  0  0  0  0
  8  9  1  0  0  0  0
  8 19  1  0  0  0  0
  9 10  1  0  0  0  0
  9 23  1  0  0  0  0
  9 24  1  0  0  0  0
 10 11  2  0  0  0  0
 10 16  1  0  0  0  0
 11 12  1  0  0  0  0
 11 25  1  0  0  0  0
 12 13  2  0  0  0  0
 12 26  1  0  0  0  0
 13 14  1  0  0  0  0
 13 15  1  0  0  0  0
 15 16  2  0  0  0  0
 15 27  1  0  0  0  0
 16 17  1  0  0  0  0
 17 18  1  0  0  0  0
 17 19  1  0  0  0  0
 18 28  1  0  0  0  0
 18 29  1  0  0  0  0
 19 30  1  0  0  0  0
 19 31  1  0  0  0  0
M  END
$$$$
