
 OpenBabel09162610133D

 29 32  0  0  0  0  0  0  0  0999 V2000
    2.2627   -2.4015    0.6145 C   0  0  0  0  0  0  0  0  0  0  0  0
    1.4949   -1.3030   -0.0220 C   0  0  0  0  0  0  0  0  0  0  0  0
    0.3472   -1.4399   -0.7775 C   0  0  0  0  0  0  0  0  0  0  0  0
   -0.2962    0.0988   -1.1486 S   0  0  0  0  0  0  0  0  0  0  0  0
    1.0189    0.8364   -0.3211 C   0  0  0  0  0  0  0  0  0  0  0  0
    1.1209    2.3718   -0.0984 C   0  0  0  0  0  0  0  0  0  0  0  0
   -0.2063    3.0814   -0.0494 C   0  0  0  0  0  0  0  0  0  0  0  0
   -0.7369    3.7344   -1.1144 N   0  0  0  0  0  0  0  0  0  0  0  0
   -1.9807    4.2255   -1.0057 C   0  0  0  0  0  0  0  0  0  0  0  0
   -2.7945    4.1651    0.0507 N   0  0  0  0  0  0  0  0  0  0  0  0
   -2.2358    3.5264    1.0931 C   0  0  0  0  0  0  0  0  0  0  0  0
   -3.0989    3.3140    2.5501 S   0  0  0  0  0  0  0  0  0  0  0  0
   -1.7965    2.4733    3.2712 C   0  0  0  0  0  0  0  0  0  0  0  0
   -0.7265    2.3529    2.4119 C   0  0  0  0  0  0  0  0  0  0  0  0
   -0.9704    2.9684    1.1328 C   0  0  0  0  0  0  0  0  0  0  0  0
    2.3362    3.0754   -0.6947 C   0  0  0  0  0  0  0  0  0  0  0  0
    2.2629    2.8874    0.7824 C   0  0  0  0  0  0  0  0  0  0  0  0
    1.9155    0.0045    0.1681 N   0  0  0  0  0  0  0  0  0  0  0  0
    1.9700   -3.3767    0.2127 H   0  0  0  0  0  0  0  0  0  0  0  0
    2.0683   -2.4079    1.6924 H   0  0  0  0  0  0  0  0  0  0  0  0
    3.3362   -2.2694    0.4560 H   0  0  0  0  0  0  0  0  0  0  0  0
   -0.1571   -2.3455   -1.0823 H   0  0  0  0  0  0  0  0  0  0  0  0
   -2.3760    4.7234   -1.8875 H   0  0  0  0  0  0  0  0  0  0  0  0
   -1.8765    2.1009    4.2843 H   0  0  0  0  0  0  0  0  0  0  0  0
    0.1912    1.8449    2.6830 H   0  0  0  0  0  0  0  0  0  0  0  0
    2.2008    4.0749   -1.0936 H   0  0  0  0  0  0  0  0  0  0  0  0
    3.0536    2.4801   -1.2487 H   0  0  0  0  0  0  0  0  0  0  0  0
    2.0988    3.7698    1.3904 H   0  0  0  0  0  0  0  0  0  0  0  0
    2.9400    2.1694    1.2315 H   0  0  0  0  0  0  0  0  0  0  0  0
  1  2  1  0  0  0  0
  1 19  1  0  0  0  0
  1 20  1  0  0  0  0
  1 21  1  0  0  0  0
  2  3  2  0  0  0  0
  2 18  1  0  0  0  0
  3  4  1  0  0  0  0
  3 22  1  0  0  0  0
  4  5  1  0  0  0  0
  5  6  1  0  0  0  0
  5 18  2  0  0  0  0
  6  7  1  0  0  0  0
  6 16  1  0  0  0  0
  6 17  1  0  0  0  0
  7  8  2  0  0  0  0
  7 15  1  0  0  0  0
  8  9  1  0  0  0  0
  9 10  2  0  0  0  0
  9 23  1  0  0  0  0
 10 11  1  0  0  0  0
 11 12  1  0  0  0  0
 11 15  2  0  0  0  0
 12 13  1  0  0  0  0
 13 14  2  0  0  0  0
 13 24  1  0  0  0  0
 14 15  1  0  0  0  0
 14 25  1  0  0  0  0
 16 17  1  0  0  0  0
 16 26  1  0  0  0  0
 16 27  1  0  0  0  0
 17 28  1  0  0  0  0
 17 29  1  0  0  0  0
M  END
$$$$
