
 OpenBabel09162610133D

 36 38  0  0  0  0  0  0  0  0999 V2000
    0.8918    0.0210    0.2530 C   0  0  0  0  0  0  0  0  0  0  0  0
    2.4275   -0.0028    0.1869 C   0  0  0  0  0  0  0  0  0  0  0  0
    2.9953    0.3849    1.5638 C   0  0  0  0  0  0  0  0  0  0  0  0
    2.9360    1.0144   -0.8524 C   0  0  0  0  0  0  0  0  0  0  0  0
    2.5708    0.7304   -2.2482 N   0  0  0  0  0  0  0  0  0  0  0  0
    1.8756    1.5706   -3.1407 C   0  0  0  0  0  0  0  0  0  0  0  0
    1.6780    1.2479   -4.3071 O   0  0  0  0  0  0  0  0  0  0  0  0
    1.3652    2.8937   -2.6962 C   0  0  0  0  0  0  0  0  0  0  0  0
    2.1651    3.7912   -1.9667 C   0  0  0  0  0  0  0  0  0  0  0  0
    1.6348    4.9680   -1.4598 C   0  0  0  0  0  0  0  0  0  0  0  0
    2.3958    5.7304   -0.6624 F   0  0  0  0  0  0  0  0  0  0  0  0
    0.3378    5.3823   -1.7445 C   0  0  0  0  0  0  0  0  0  0  0  0
   -0.3946    4.5591   -2.6016 C   0  0  0  0  0  0  0  0  0  0  0  0
   -1.6350    4.7106   -3.1692 N   0  0  0  0  0  0  0  0  0  0  0  0
   -1.8767    3.6189   -3.9487 C   0  0  0  0  0  0  0  0  0  0  0  0
   -0.8967    2.7476   -3.8702 N   0  0  0  0  0  0  0  0  0  0  0  0
    0.0706    3.3283   -3.0764 C   0  0  0  0  0  0  0  0  0  0  0  0
    3.0634   -0.5576   -2.7614 C   0  0  0  0  0  0  0  0  0  0  0  0
    2.5456   -1.7604   -1.9714 C   0  0  0  0  0  0  0  0  0  0  0  0
    3.0180   -1.6979   -0.2087 S   0  0  0  0  0  0  0  0  0  0  0  0
    0.5363    1.0173    0.5377 H   0  0  0  0  0  0  0  0  0  0  0  0
    0.5089   -0.6862    0.9979 H   0  0  0  0  0  0  0  0  0  0  0  0
    0.4285   -0.2167   -0.7101 H   0  0  0  0  0  0  0  0  0  0  0  0
    2.6675    1.3925    1.8462 H   0  0  0  0  0  0  0  0  0  0  0  0
    4.0919    0.3966    1.5610 H   0  0  0  0  0  0  0  0  0  0  0  0
    2.6617   -0.2970    2.3535 H   0  0  0  0  0  0  0  0  0  0  0  0
    4.0340    1.0825   -0.8270 H   0  0  0  0  0  0  0  0  0  0  0  0
    2.5603    1.9813   -0.5334 H   0  0  0  0  0  0  0  0  0  0  0  0
    3.2074    3.5650   -1.7633 H   0  0  0  0  0  0  0  0  0  0  0  0
   -0.0533    6.3116   -1.3491 H   0  0  0  0  0  0  0  0  0  0  0  0
   -2.2438    5.5104   -3.0669 H   0  0  0  0  0  0  0  0  0  0  0  0
   -2.7714    3.5149   -4.5469 H   0  0  0  0  0  0  0  0  0  0  0  0
    4.1600   -0.5222   -2.7372 H   0  0  0  0  0  0  0  0  0  0  0  0
    2.7813   -0.6942   -3.8110 H   0  0  0  0  0  0  0  0  0  0  0  0
    2.9587   -2.6829   -2.3913 H   0  0  0  0  0  0  0  0  0  0  0  0
    1.4554   -1.8320   -2.0385 H   0  0  0  0  0  0  0  0  0  0  0  0
  1  2  1  0  0  0  0
  1 21  1  0  0  0  0
  1 22  1  0  0  0  0
  1 23  1  0  0  0  0
  2  3  1  0  0  0  0
  2  4  1  0  0  0  0
  2 20  1  0  0  0  0
  3 24  1  0  0  0  0
  3 25  1  0  0  0  0
  3 26  1  0  0  0  0
  4  5  1  0  0  0  0
  4 27  1  0  0  0  0
  4 28  1  0  0  0  0
  5  6  1  0  0  0  0
  5 18  1  0  0  0  0
  6  7  2  0  0  0  0
  6  8  1  0  0  0  0
  8  9  2  0  0  0  0
  8 17  1  0  0  0  0
  9 10  1  0  0  0  0
  9 29  1  0  0  0  0
 10 11  1  0  0  0  0
 10 12  2  0  0  0  0
 12 13  1  0  0  0  0
 12 30  1  0  0  0  0
 13 14  1  0  0  0  0
 13 17  2  0  0  0  0
 14 15  1  0  0  0  0
 14 31  1  0  0  0  0
 15 16  2  0  0  0  0
 15 32  1  0  0  0  0
 16 17  1  0  0  0  0
 18 19  1  0  0  0  0
 18 33  1  0  0  0  0
 18 34  1  0  0  0  0
 19 20  1  0  0  0  0
 19 35  1  0  0  0  0
 19 36  1  0  0  0  0
M  END
$$$$
