
 OpenBabel09162610133D

 34 36  0  0  0  0  0  0  0  0999 V2000
    2.3672   -0.5202    1.2944 C   0  0  0  0  0  0  0  0  0  0  0  0
    2.5184    0.0394   -0.1097 C   0  0  0  0  0  0  0  0  0  0  0  0
    3.0565    1.4447   -0.0899 C   0  0  0  0  0  0  0  0  0  0  0  0
    4.3917    1.5865   -0.1297 N   0  0  0  0  0  0  0  0  0  0  0  0
    4.9105    2.8309   -0.1367 C   0  0  0  0  0  0  0  0  0  0  0  0
    6.6672    2.9492   -0.1715 S   0  0  0  0  0  0  0  0  0  0  0  0
    4.0790    3.9581   -0.1104 C   0  0  0  0  0  0  0  0  0  0  0  0
    4.2690    5.3903   -0.1539 C   0  0  0  0  0  0  0  0  0  0  0  0
    3.0743    6.0792   -0.0569 C   0  0  0  0  0  0  0  0  0  0  0  0
    1.7322    5.0443    0.0388 S   0  0  0  0  0  0  0  0  0  0  0  0
    2.7244    3.6604   -0.0362 C   0  0  0  0  0  0  0  0  0  0  0  0
    2.1650    2.4395   -0.0209 N   0  0  0  0  0  0  0  0  0  0  0  0
    2.9205    7.5655   -0.0974 C   0  0  0  0  0  0  0  0  0  0  0  0
    4.2079    8.1949    0.0367 O   0  0  0  0  0  0  0  0  0  0  0  0
    5.2751    7.6182   -0.7451 C   0  0  0  0  0  0  0  0  0  0  0  0
    4.9732    7.6924   -2.2521 C   0  0  0  0  0  0  0  0  0  0  0  0
    6.5189    8.4723   -0.4620 C   0  0  0  0  0  0  0  0  0  0  0  0
    5.5481    6.1642   -0.2759 C   0  0  0  0  0  0  0  0  0  0  0  0
    1.9877   -1.5462    1.2539 H   0  0  0  0  0  0  0  0  0  0  0  0
    1.6661    0.0782    1.8863 H   0  0  0  0  0  0  0  0  0  0  0  0
    3.3267   -0.5334    1.8225 H   0  0  0  0  0  0  0  0  0  0  0  0
    1.5491    0.0270   -0.6213 H   0  0  0  0  0  0  0  0  0  0  0  0
    3.1942   -0.5987   -0.6910 H   0  0  0  0  0  0  0  0  0  0  0  0
    6.8570    1.6234   -0.2011 H   0  0  0  0  0  0  0  0  0  0  0  0
    2.2997    7.9192    0.7320 H   0  0  0  0  0  0  0  0  0  0  0  0
    2.4580    7.8941   -1.0339 H   0  0  0  0  0  0  0  0  0  0  0  0
    4.7369    8.7205   -2.5479 H   0  0  0  0  0  0  0  0  0  0  0  0
    4.1103    7.0821   -2.5355 H   0  0  0  0  0  0  0  0  0  0  0  0
    5.8276    7.3477   -2.8448 H   0  0  0  0  0  0  0  0  0  0  0  0
    6.3506    9.5153   -0.7546 H   0  0  0  0  0  0  0  0  0  0  0  0
    7.3964    8.0983   -1.0003 H   0  0  0  0  0  0  0  0  0  0  0  0
    6.7500    8.4865    0.6096 H   0  0  0  0  0  0  0  0  0  0  0  0
    6.0141    6.1751    0.7185 H   0  0  0  0  0  0  0  0  0  0  0  0
    6.2421    5.6844   -0.9727 H   0  0  0  0  0  0  0  0  0  0  0  0
  1  2  1  0  0  0  0
  1 19  1  0  0  0  0
  1 20  1  0  0  0  0
  1 21  1  0  0  0  0
  2  3  1  0  0  0  0
  2 22  1  0  0  0  0
  2 23  1  0  0  0  0
  3  4  2  0  0  0  0
  3 12  1  0  0  0  0
  4  5  1  0  0  0  0
  5  6  1  0  0  0  0
  5  7  2  0  0  0  0
  6 24  1  0  0  0  0
  7  8  1  0  0  0  0
  7 11  1  0  0  0  0
  8  9  2  0  0  0  0
  8 18  1  0  0  0  0
  9 10  1  0  0  0  0
  9 13  1  0  0  0  0
 10 11  1  0  0  0  0
 11 12  2  0  0  0  0
 13 14  1  0  0  0  0
 13 25  1  0  0  0  0
 13 26  1  0  0  0  0
 14 15  1  0  0  0  0
 15 16  1  0  0  0  0
 15 17  1  0  0  0  0
 15 18  1  0  0  0  0
 16 27  1  0  0  0  0
 16 28  1  0  0  0  0
 16 29  1  0  0  0  0
 17 30  1  0  0  0  0
 17 31  1  0  0  0  0
 17 32  1  0  0  0  0
 18 33  1  0  0  0  0
 18 34  1  0  0  0  0
M  END
$$$$
