
 OpenBabel09162610133D

 40 43  0  0  0  0  0  0  0  0999 V2000
    2.0861    0.0970   -1.0052 C   0  0  0  0  0  0  0  0  0  0  0  0
    0.7122   -0.1122   -0.5079 C   0  0  0  0  0  0  0  0  0  0  0  0
    0.0263   -1.2291   -0.0952 C   0  0  0  0  0  0  0  0  0  0  0  0
   -1.3075   -0.8113    0.1136 C   0  0  0  0  0  0  0  0  0  0  0  0
   -1.3523    0.5563   -0.0964 C   0  0  0  0  0  0  0  0  0  0  0  0
   -2.4038    1.5720    0.0221 C   0  0  0  0  0  0  0  0  0  0  0  0
   -3.2993    1.5952    1.1306 C   0  0  0  0  0  0  0  0  0  0  0  0
   -4.2951    2.5769    1.1614 C   0  0  0  0  0  0  0  0  0  0  0  0
   -4.4788    3.4994    0.2050 N   0  0  0  0  0  0  0  0  0  0  0  0
   -3.6140    3.4556   -0.8214 C   0  0  0  0  0  0  0  0  0  0  0  0
   -3.7785    4.6061   -2.0593 S   0  0  0  0  0  0  0  0  0  0  0  0
   -2.4594    3.9686   -2.9298 C   0  0  0  0  0  0  0  0  0  0  0  0
   -2.0189    4.5738   -4.1801 C   0  0  0  0  0  0  0  0  0  0  0  0
   -2.7498    5.6255   -4.6627 N   0  0  0  0  0  0  0  0  0  0  0  0
   -1.0319    4.2092   -4.8177 O   0  0  0  0  0  0  0  0  0  0  0  0
   -1.9227    2.8734   -2.2749 C   0  0  0  0  0  0  0  0  0  0  0  0
   -0.8808    2.1856   -2.7936 N   0  0  0  0  0  0  0  0  0  0  0  0
   -2.5689    2.5548   -1.0108 C   0  0  0  0  0  0  0  0  0  0  0  0
   -5.3278    2.6378    2.2647 C   0  0  0  0  0  0  0  0  0  0  0  0
   -4.9162    1.9215    3.5420 C   0  0  0  0  0  0  0  0  0  0  0  0
   -4.3795    0.5460    3.1979 C   0  0  0  0  0  0  0  0  0  0  0  0
   -3.1342    0.6748    2.3246 C   0  0  0  0  0  0  0  0  0  0  0  0
   -0.1033    0.9823   -0.4680 O   0  0  0  0  0  0  0  0  0  0  0  0
    2.6947   -0.8011   -0.8574 H   0  0  0  0  0  0  0  0  0  0  0  0
    2.5702    0.9312   -0.4915 H   0  0  0  0  0  0  0  0  0  0  0  0
    2.0645    0.3128   -2.0787 H   0  0  0  0  0  0  0  0  0  0  0  0
    0.4252   -2.2294   -0.0015 H   0  0  0  0  0  0  0  0  0  0  0  0
   -2.1362   -1.4438    0.3961 H   0  0  0  0  0  0  0  0  0  0  0  0
   -3.5553    5.9891   -4.1713 H   0  0  0  0  0  0  0  0  0  0  0  0
   -2.4448    6.0613   -5.5213 H   0  0  0  0  0  0  0  0  0  0  0  0
   -0.3574    2.5772   -3.5835 H   0  0  0  0  0  0  0  0  0  0  0  0
   -0.3015    1.6098   -2.1888 H   0  0  0  0  0  0  0  0  0  0  0  0
   -6.2505    2.1861    1.8781 H   0  0  0  0  0  0  0  0  0  0  0  0
   -5.5545    3.6847    2.4992 H   0  0  0  0  0  0  0  0  0  0  0  0
   -5.7767    1.8356    4.2146 H   0  0  0  0  0  0  0  0  0  0  0  0
   -4.1471    2.4988    4.0696 H   0  0  0  0  0  0  0  0  0  0  0  0
   -5.1479   -0.0317    2.6681 H   0  0  0  0  0  0  0  0  0  0  0  0
   -4.1345   -0.0078    4.1111 H   0  0  0  0  0  0  0  0  0  0  0  0
   -2.8859   -0.3404    2.0221 H   0  0  0  0  0  0  0  0  0  0  0  0
   -2.3023    1.0559    2.9303 H   0  0  0  0  0  0  0  0  0  0  0  0
  1  2  1  0  0  0  0
  1 24  1  0  0  0  0
  1 25  1  0  0  0  0
  1 26  1  0  0  0  0
  2  3  2  0  0  0  0
  2 23  1  0  0  0  0
  3  4  1  0  0  0  0
  3 27  1  0  0  0  0
  4  5  2  0  0  0  0
  4 28  1  0  0  0  0
  5  6  1  0  0  0  0
  5 23  1  0  0  0  0
  6  7  2  0  0  0  0
  6 18  1  0  0  0  0
  7  8  1  0  0  0  0
  7 22  1  0  0  0  0
  8  9  2  0  0  0  0
  8 19  1  0  0  0  0
  9 10  1  0  0  0  0
 10 11  1  0  0  0  0
 10 18  2  0  0  0  0
 11 12  1  0  0  0  0
 12 13  1  0  0  0  0
 12 16  2  0  0  0  0
 13 14  1  0  0  0  0
 13 15  2  0  0  0  0
 14 29  1  0  0  0  0
 14 30  1  0  0  0  0
 16 17  1  0  0  0  0
 16 18  1  0  0  0  0
 17 31  1  0  0  0  0
 17 32  1  0  0  0  0
 19 20  1  0  0  0  0
 19 33  1  0  0  0  0
 19 34  1  0  0  0  0
 20 21  1  0  0  0  0
 20 35  1  0  0  0  0
 20 36  1  0  0  0  0
 21 22  1  0  0  0  0
 21 37  1  0  0  0  0
 21 38  1  0  0  0  0
 22 39  1  0  0  0  0
 22 40  1  0  0  0  0
M  END
$$$$
