
 OpenBabel09162610133D

 41 44  0  0  1  0  0  0  0  0999 V2000
    0.9773    0.5151    0.9424 C   0  0  0  0  0  0  0  0  0  0  0  0
    2.1324    0.1454    0.1963 O   0  0  0  0  0  0  0  0  0  0  0  0
    2.8661    1.1823   -0.3149 C   0  0  0  0  0  0  0  0  0  0  0  0
    2.1835    2.2738   -0.8099 O   0  0  0  0  0  0  0  0  0  0  0  0
    4.2097    1.1400   -0.4519 C   0  0  0  0  0  0  0  0  0  0  0  0
    5.1291    0.0640    0.0662 C   0  0  0  0  0  0  0  0  0  0  0  0
    4.6214   -1.1943    0.7493 C   0  0  0  0  0  0  0  0  0  0  0  0
    6.4240    0.1117    0.0137 N   0  0  0  0  0  0  0  0  0  0  0  0
    7.0508    1.1777   -0.5203 C   0  0  0  0  0  0  0  0  0  0  0  0
    8.3492    1.3697   -0.6219 N   0  0  0  0  0  0  0  0  0  0  0  0
    8.5110    2.5596   -1.2800 C   0  0  0  0  0  0  0  0  0  0  0  0
    9.6908    3.2005   -1.6863 C   0  0  0  0  0  0  0  0  0  0  0  0
    9.5956    4.4099   -2.3844 C   0  0  0  0  0  0  0  0  0  0  0  0
    8.3509    4.9799   -2.6539 C   0  0  0  0  0  0  0  0  0  0  0  0
    7.1641    4.3638   -2.2398 C   0  0  0  0  0  0  0  0  0  0  0  0
    7.2812    3.1421   -1.5647 C   0  0  0  0  0  0  0  0  0  0  0  0
    6.3729    2.2279   -1.0812 N   0  0  0  0  0  0  0  0  0  0  0  0
    4.9200    2.2512   -1.2260 C   0  0  1  0  0  0  0  0  0  0  0  0
    4.5725    2.2140   -2.7147 C   0  0  0  0  0  0  0  0  0  0  0  0
    4.9565    1.1441   -3.5417 C   0  0  0  0  0  0  0  0  0  0  0  0
    4.6335    1.1498   -4.9009 C   0  0  0  0  0  0  0  0  0  0  0  0
    3.9176    2.2139   -5.4490 C   0  0  0  0  0  0  0  0  0  0  0  0
    3.5260    3.2797   -4.6397 C   0  0  0  0  0  0  0  0  0  0  0  0
    3.8585    3.2731   -3.2882 C   0  0  0  0  0  0  0  0  0  0  0  0
    3.4942    4.3220   -2.5370 F   0  0  0  0  0  0  0  0  0  0  0  0
    0.5582   -0.3973    1.3772 H   0  0  0  0  0  0  0  0  0  0  0  0
    0.2101    0.9511    0.2947 H   0  0  0  0  0  0  0  0  0  0  0  0
    1.2348    1.2016    1.7541 H   0  0  0  0  0  0  0  0  0  0  0  0
    1.3391    1.9360   -1.1598 H   0  0  0  0  0  0  0  0  0  0  0  0
    3.5571   -1.3782    0.6859 H   0  0  0  0  0  0  0  0  0  0  0  0
    4.9071   -1.1561    1.8058 H   0  0  0  0  0  0  0  0  0  0  0  0
    5.1156   -2.0598    0.2943 H   0  0  0  0  0  0  0  0  0  0  0  0
   10.6533    2.7485   -1.4743 H   0  0  0  0  0  0  0  0  0  0  0  0
   10.5024    4.9054   -2.7222 H   0  0  0  0  0  0  0  0  0  0  0  0
    8.2999    5.9179   -3.2030 H   0  0  0  0  0  0  0  0  0  0  0  0
    6.2030    4.8151   -2.4594 H   0  0  0  0  0  0  0  0  0  0  0  0
    4.6305    3.2166   -0.7861 H   0  0  0  0  0  0  0  0  0  0  0  0
    5.5279    0.3078   -3.1421 H   0  0  0  0  0  0  0  0  0  0  0  0
    4.9507    0.3247   -5.5349 H   0  0  0  0  0  0  0  0  0  0  0  0
    3.6720    2.2163   -6.5069 H   0  0  0  0  0  0  0  0  0  0  0  0
    2.9776    4.1176   -5.0529 H   0  0  0  0  0  0  0  0  0  0  0  0
  1  2  1  0  0  0  0
  1 26  1  0  0  0  0
  1 27  1  0  0  0  0
  1 28  1  0  0  0  0
  2  3  1  0  0  0  0
  3  4  1  0  0  0  0
  3  5  2  0  0  0  0
  4 29  1  0  0  0  0
  5  6  1  0  0  0  0
  5 18  1  0  0  0  0
  6  7  1  0  0  0  0
  6  8  2  0  0  0  0
  7 30  1  0  0  0  0
  7 31  1  0  0  0  0
  7 32  1  0  0  0  0
  8  9  1  0  0  0  0
  9 10  2  0  0  0  0
  9 17  1  0  0  0  0
 10 11  1  0  0  0  0
 11 12  1  0  0  0  0
 11 16  2  0  0  0  0
 12 13  2  0  0  0  0
 12 33  1  0  0  0  0
 13 14  1  0  0  0  0
 13 34  1  0  0  0  0
 14 15  2  0  0  0  0
 14 35  1  0  0  0  0
 15 16  1  0  0  0  0
 15 36  1  0  0  0  0
 16 17  1  0  0  0  0
 17 18  1  0  0  0  0
 18 19  1  0  0  0  0
 18 37  1  1  0  0  0
 19 20  2  0  0  0  0
 19 24  1  0  0  0  0
 20 21  1  0  0  0  0
 20 38  1  0  0  0  0
 21 22  2  0  0  0  0
 21 39  1  0  0  0  0
 22 23  1  0  0  0  0
 22 40  1  0  0  0  0
 23 24  2  0  0  0  0
 23 41  1  0  0  0  0
 24 25  1  0  0  0  0
M  END
$$$$
