
 OpenBabel09162610133D

 27 29  0  0  1  0  0  0  0  0999 V2000
    1.0934    0.0911   -0.0234 C   0  0  0  0  0  0  0  0  0  0  0  0
    2.5607   -0.1158   -0.0795 C   0  0  0  0  0  0  0  0  0  0  0  0
    3.3703    0.9198   -0.3276 N   0  0  0  0  0  0  0  0  0  0  0  0
    4.6449    0.4046   -0.3091 O   0  0  0  0  0  0  0  0  0  0  0  0
    4.6027   -0.9314   -0.0759 C   0  0  0  0  0  0  0  0  0  0  0  0
    3.2973   -1.3195    0.1095 C   0  0  0  0  0  0  0  0  0  0  0  0
    2.7914   -2.6735    0.4399 C   0  0  2  0  0  0  0  0  0  0  0  0
    3.0361   -3.0918    1.8796 C   0  0  0  0  0  0  0  0  0  0  0  0
    3.7123   -2.4330    2.8945 C   0  0  0  0  0  0  0  0  0  0  0  0
    3.7995   -3.1977    4.0935 C   0  0  0  0  0  0  0  0  0  0  0  0
    3.1498   -4.4037    3.9815 C   0  0  0  0  0  0  0  0  0  0  0  0
    2.3926   -4.5844    2.4617 S   0  0  0  0  0  0  0  0  0  0  0  0
    3.5193   -3.8139   -0.7936 S   0  0  0  0  0  0  0  0  0  0  0  0
    5.1621   -4.0487   -0.0953 C   0  0  0  0  0  0  0  0  0  0  0  0
    6.0867   -2.8738    0.1689 C   0  0  0  0  0  0  0  0  0  0  0  0
    7.2407   -3.1273    0.5517 O   0  0  0  0  0  0  0  0  0  0  0  0
    5.8104   -1.5622   -0.0189 N   0  0  0  0  0  0  0  0  0  0  0  0
    0.8297    1.1494   -0.1194 H   0  0  0  0  0  0  0  0  0  0  0  0
    0.6931   -0.2696    0.9286 H   0  0  0  0  0  0  0  0  0  0  0  0
    0.6016   -0.4551   -0.8350 H   0  0  0  0  0  0  0  0  0  0  0  0
    1.7084   -2.6954    0.2669 H   0  0  0  0  0  0  0  0  0  0  0  0
    4.1630   -1.4523    2.7890 H   0  0  0  0  0  0  0  0  0  0  0  0
    4.3196   -2.8797    4.9899 H   0  0  0  0  0  0  0  0  0  0  0  0
    3.0681   -5.1817    4.7282 H   0  0  0  0  0  0  0  0  0  0  0  0
    5.6911   -4.6680   -0.8310 H   0  0  0  0  0  0  0  0  0  0  0  0
    5.0947   -4.6507    0.8151 H   0  0  0  0  0  0  0  0  0  0  0  0
    6.6159   -0.9527    0.0455 H   0  0  0  0  0  0  0  0  0  0  0  0
  1  2  1  0  0  0  0
  1 18  1  0  0  0  0
  1 19  1  0  0  0  0
  1 20  1  0  0  0  0
  2  3  2  0  0  0  0
  2  6  1  0  0  0  0
  3  4  1  0  0  0  0
  4  5  1  0  0  0  0
  5  6  2  0  0  0  0
  5 17  1  0  0  0  0
  6  7  1  0  0  0  0
  7  8  1  0  0  0  0
  7 13  1  0  0  0  0
  7 21  1  6  0  0  0
  8  9  2  0  0  0  0
  8 12  1  0  0  0  0
  9 10  1  0  0  0  0
  9 22  1  0  0  0  0
 10 11  2  0  0  0  0
 10 23  1  0  0  0  0
 11 12  1  0  0  0  0
 11 24  1  0  0  0  0
 13 14  1  0  0  0  0
 14 15  1  0  0  0  0
 14 25  1  0  0  0  0
 14 26  1  0  0  0  0
 15 16  2  0  0  0  0
 15 17  1  0  0  0  0
 17 27  1  0  0  0  0
M  END
$$$$
