
 OpenBabel09162610133D

 39 41  0  0  1  0  0  0  0  0999 V2000
    0.0581    0.9981   -0.2155 C   0  0  0  0  0  0  0  0  0  0  0  0
    1.0360    0.5821   -1.1521 O   0  0  0  0  0  0  0  0  0  0  0  0
    2.3943    0.8211   -0.7637 C   0  0  1  0  0  0  0  0  0  0  0  0
    2.8436   -0.1035    0.3930 C   0  0  0  0  0  0  0  0  0  0  0  0
    4.1399   -0.9425    0.1837 C   0  0  1  0  0  0  0  0  0  0  0  0
    4.5312   -1.5106    1.5637 C   0  0  0  0  0  0  0  0  0  0  0  0
    3.8810   -2.0404   -0.8280 C   0  0  0  0  0  0  0  0  0  0  0  0
    3.9128   -3.3710   -0.6103 C   0  0  0  0  0  0  0  0  0  0  0  0
    3.0362   -4.0685   -1.6037 C   0  0  0  0  0  0  0  0  0  0  0  0
    2.5115   -2.9165   -2.4105 C   0  0  0  0  0  0  0  0  0  0  0  0
    1.3902   -3.0763   -3.3693 C   0  0  0  0  0  0  0  0  0  0  0  0
    3.1752   -1.7934   -2.0808 C   0  0  0  0  0  0  0  0  0  0  0  0
    3.1922   -0.5022   -2.8403 C   0  0  0  0  0  0  0  0  0  0  0  0
    3.1740    0.7391   -2.0220 C   0  0  0  0  0  0  0  0  0  0  0  0
    3.7106    1.9223   -2.3417 C   0  0  0  0  0  0  0  0  0  0  0  0
    4.4743    2.3876   -3.5210 C   0  0  0  0  0  0  0  0  0  0  0  0
    3.3384    2.8422   -1.2630 C   0  0  0  0  0  0  0  0  0  0  0  0
    3.6606    4.0075   -1.1937 O   0  0  0  0  0  0  0  0  0  0  0  0
    2.5849    2.1785   -0.3492 O   0  0  0  0  0  0  0  0  0  0  0  0
    0.1337    0.4311    0.7158 H   0  0  0  0  0  0  0  0  0  0  0  0
   -0.9253    0.8024   -0.6544 H   0  0  0  0  0  0  0  0  0  0  0  0
    0.1299    2.0712   -0.0174 H   0  0  0  0  0  0  0  0  0  0  0  0
    2.0320   -0.8032    0.6364 H   0  0  0  0  0  0  0  0  0  0  0  0
    2.9754    0.5152    1.2917 H   0  0  0  0  0  0  0  0  0  0  0  0
    4.9616   -0.3022   -0.1586 H   0  0  0  0  0  0  0  0  0  0  0  0
    3.7403   -2.1557    1.9682 H   0  0  0  0  0  0  0  0  0  0  0  0
    4.6905   -0.7050    2.2896 H   0  0  0  0  0  0  0  0  0  0  0  0
    5.4547   -2.0959    1.5120 H   0  0  0  0  0  0  0  0  0  0  0  0
    4.3023   -3.8729    0.2629 H   0  0  0  0  0  0  0  0  0  0  0  0
    2.2338   -4.6091   -1.0950 H   0  0  0  0  0  0  0  0  0  0  0  0
    3.6147   -4.7581   -2.2274 H   0  0  0  0  0  0  0  0  0  0  0  0
    1.5746   -2.5676   -4.3173 H   0  0  0  0  0  0  0  0  0  0  0  0
    0.4823   -2.6549   -2.9179 H   0  0  0  0  0  0  0  0  0  0  0  0
    1.1891   -4.1315   -3.5719 H   0  0  0  0  0  0  0  0  0  0  0  0
    2.3470   -0.4638   -3.5379 H   0  0  0  0  0  0  0  0  0  0  0  0
    4.1000   -0.5119   -3.4561 H   0  0  0  0  0  0  0  0  0  0  0  0
    4.7168    1.5707   -4.2065 H   0  0  0  0  0  0  0  0  0  0  0  0
    5.4145    2.8556   -3.2154 H   0  0  0  0  0  0  0  0  0  0  0  0
    3.8913    3.1271   -4.0805 H   0  0  0  0  0  0  0  0  0  0  0  0
  1  2  1  0  0  0  0
  1 20  1  0  0  0  0
  1 21  1  0  0  0  0
  1 22  1  0  0  0  0
  3  2  1  6  0  0  0
  3  4  1  0  0  0  0
  3 14  1  0  0  0  0
  3 19  1  0  0  0  0
  4  5  1  0  0  0  0
  4 23  1  0  0  0  0
  4 24  1  0  0  0  0
  5  7  1  0  0  0  0
  5  6  1  0  0  0  0
  5 25  1  6  0  0  0
  6 26  1  0  0  0  0
  6 27  1  0  0  0  0
  6 28  1  0  0  0  0
  7  8  2  0  0  0  0
  7 12  1  0  0  0  0
  8  9  1  0  0  0  0
  8 29  1  0  0  0  0
  9 10  1  0  0  0  0
  9 30  1  0  0  0  0
  9 31  1  0  0  0  0
 10 11  1  0  0  0  0
 10 12  2  0  0  0  0
 11 32  1  0  0  0  0
 11 33  1  0  0  0  0
 11 34  1  0  0  0  0
 12 13  1  0  0  0  0
 13 14  1  0  0  0  0
 13 35  1  0  0  0  0
 13 36  1  0  0  0  0
 14 15  2  0  0  0  0
 15 16  1  0  0  0  0
 15 17  1  0  0  0  0
 16 37  1  0  0  0  0
 16 38  1  0  0  0  0
 16 39  1  0  0  0  0
 17 18  2  0  0  0  0
 17 19  1  0  0  0  0
M  END
$$$$
