
 OpenBabel09162610133D

 41 41  0  0  0  0  0  0  0  0999 V2000
    1.8925   -0.5574    1.4056 C   0  0  0  0  0  0  0  0  0  0  0  0
    2.3508   -0.0626    0.1504 O   0  0  0  0  0  0  0  0  0  0  0  0
    3.0774    1.1003    0.1949 C   0  0  0  0  0  0  0  0  0  0  0  0
    2.7356    2.1395    1.0725 C   0  0  0  0  0  0  0  0  0  0  0  0
    3.4708    3.3353    1.1175 C   0  0  0  0  0  0  0  0  0  0  0  0
    3.1273    4.4154    2.0589 C   0  0  0  0  0  0  0  0  0  0  0  0
    1.8690    4.6892    2.4395 C   0  0  0  0  0  0  0  0  0  0  0  0
    1.4336    5.7221    3.4179 C   0  0  0  0  0  0  0  0  0  0  0  0
    2.4216    6.6146    4.1197 C   0  0  0  0  0  0  0  0  0  0  0  0
    0.2274    5.8183    3.6531 O   0  0  0  0  0  0  0  0  0  0  0  0
    4.5901    3.4579    0.2912 C   0  0  0  0  0  0  0  0  0  0  0  0
    4.9230    2.4390   -0.6087 C   0  0  0  0  0  0  0  0  0  0  0  0
    4.1477    1.2775   -0.6959 C   0  0  0  0  0  0  0  0  0  0  0  0
    4.5698    0.3958   -1.6643 O   0  0  0  0  0  0  0  0  0  0  0  0
    3.5333   -0.3891   -2.2598 C   0  0  0  0  0  0  0  0  0  0  0  0
    3.9255   -0.7625   -3.6897 C   0  0  0  0  0  0  0  0  0  0  0  0
    2.8612   -1.6350   -4.3837 C   0  0  0  0  0  0  0  0  0  0  0  0
    1.5034   -0.9342   -4.4873 C   0  0  0  0  0  0  0  0  0  0  0  0
    3.3314   -2.0417   -5.7808 C   0  0  0  0  0  0  0  0  0  0  0  0
    1.4667   -1.5507    1.2350 H   0  0  0  0  0  0  0  0  0  0  0  0
    1.0935    0.0656    1.8187 H   0  0  0  0  0  0  0  0  0  0  0  0
    2.7199   -0.6592    2.1156 H   0  0  0  0  0  0  0  0  0  0  0  0
    1.8747    2.0290    1.7232 H   0  0  0  0  0  0  0  0  0  0  0  0
    3.9764    4.9826    2.4249 H   0  0  0  0  0  0  0  0  0  0  0  0
    1.0258    4.1325    2.0363 H   0  0  0  0  0  0  0  0  0  0  0  0
    3.4559    6.4261    3.8362 H   0  0  0  0  0  0  0  0  0  0  0  0
    2.3329    6.4566    5.1985 H   0  0  0  0  0  0  0  0  0  0  0  0
    2.1868    7.6552    3.8792 H   0  0  0  0  0  0  0  0  0  0  0  0
    5.2042    4.3547    0.3166 H   0  0  0  0  0  0  0  0  0  0  0  0
    5.7824    2.5601   -1.2642 H   0  0  0  0  0  0  0  0  0  0  0  0
    2.5999    0.1812   -2.2947 H   0  0  0  0  0  0  0  0  0  0  0  0
    3.4033   -1.3066   -1.6756 H   0  0  0  0  0  0  0  0  0  0  0  0
    4.8869   -1.2926   -3.6679 H   0  0  0  0  0  0  0  0  0  0  0  0
    4.1074    0.1535   -4.2666 H   0  0  0  0  0  0  0  0  0  0  0  0
    2.7260   -2.5516   -3.7952 H   0  0  0  0  0  0  0  0  0  0  0  0
    1.5931    0.0292   -5.0003 H   0  0  0  0  0  0  0  0  0  0  0  0
    1.0661   -0.7565   -3.5001 H   0  0  0  0  0  0  0  0  0  0  0  0
    0.7883   -1.5500   -5.0428 H   0  0  0  0  0  0  0  0  0  0  0  0
    3.4789   -1.1658   -6.4216 H   0  0  0  0  0  0  0  0  0  0  0  0
    2.5924   -2.6913   -6.2628 H   0  0  0  0  0  0  0  0  0  0  0  0
    4.2759   -2.5927   -5.7311 H   0  0  0  0  0  0  0  0  0  0  0  0
  1  2  1  0  0  0  0
  1 20  1  0  0  0  0
  1 21  1  0  0  0  0
  1 22  1  0  0  0  0
  2  3  1  0  0  0  0
  3  4  2  0  0  0  0
  3 13  1  0  0  0  0
  4  5  1  0  0  0  0
  4 23  1  0  0  0  0
  5  6  1  0  0  0  0
  5 11  2  0  0  0  0
  6  7  2  0  0  0  0
  6 24  1  0  0  0  0
  7  8  1  0  0  0  0
  7 25  1  0  0  0  0
  8  9  1  0  0  0  0
  8 10  2  0  0  0  0
  9 26  1  0  0  0  0
  9 27  1  0  0  0  0
  9 28  1  0  0  0  0
 11 12  1  0  0  0  0
 11 29  1  0  0  0  0
 12 13  2  0  0  0  0
 12 30  1  0  0  0  0
 13 14  1  0  0  0  0
 14 15  1  0  0  0  0
 15 16  1  0  0  0  0
 15 31  1  0  0  0  0
 15 32  1  0  0  0  0
 16 17  1  0  0  0  0
 16 33  1  0  0  0  0
 16 34  1  0  0  0  0
 17 18  1  0  0  0  0
 17 19  1  0  0  0  0
 17 35  1  0  0  0  0
 18 36  1  0  0  0  0
 18 37  1  0  0  0  0
 18 38  1  0  0  0  0
 19 39  1  0  0  0  0
 19 40  1  0  0  0  0
 19 41  1  0  0  0  0
M  END
$$$$
