
 OpenBabel09162610133D

 30 32  0  0  0  0  0  0  0  0999 V2000
    2.4383   -0.2037   -0.0371 C   0  0  0  0  0  0  0  0  0  0  0  0
    0.9670    0.0476    0.1187 C   0  0  0  0  0  0  0  0  0  0  0  0
    0.4804    1.3572    0.2059 C   0  0  0  0  0  0  0  0  0  0  0  0
   -0.8802    1.5952    0.3968 C   0  0  0  0  0  0  0  0  0  0  0  0
   -1.7669    0.5227    0.4737 C   0  0  0  0  0  0  0  0  0  0  0  0
   -3.1385    0.7157    0.7411 O   0  0  0  0  0  0  0  0  0  0  0  0
   -3.8062    1.7116    0.0646 C   0  0  0  0  0  0  0  0  0  0  0  0
   -3.3873    2.3787   -0.9644 N   0  0  0  0  0  0  0  0  0  0  0  0
   -4.5369    3.4574   -1.4014 S   0  0  0  0  0  0  0  0  0  0  0  0
   -5.0754    3.1208   -2.7026 O   0  0  0  0  0  0  0  0  0  0  0  0
   -4.1213    4.7951   -1.0423 O   0  0  0  0  0  0  0  0  0  0  0  0
   -5.7170    2.9612   -0.2181 C   0  0  0  0  0  0  0  0  0  0  0  0
   -7.0133    3.4087   -0.0664 C   0  0  0  0  0  0  0  0  0  0  0  0
   -7.7477    2.8539    0.9820 C   0  0  0  0  0  0  0  0  0  0  0  0
   -7.1654    1.8998    1.8424 C   0  0  0  0  0  0  0  0  0  0  0  0
   -5.8494    1.4554    1.6473 C   0  0  0  0  0  0  0  0  0  0  0  0
   -5.1458    1.9898    0.5838 C   0  0  0  0  0  0  0  0  0  0  0  0
   -1.3006   -0.7898    0.3959 C   0  0  0  0  0  0  0  0  0  0  0  0
    0.0673   -1.0243    0.2174 C   0  0  0  0  0  0  0  0  0  0  0  0
    2.9861    0.7289   -0.2110 H   0  0  0  0  0  0  0  0  0  0  0  0
    2.6274   -0.8622   -0.8905 H   0  0  0  0  0  0  0  0  0  0  0  0
    2.8381   -0.6637    0.8722 H   0  0  0  0  0  0  0  0  0  0  0  0
    1.1574    2.2051    0.1335 H   0  0  0  0  0  0  0  0  0  0  0  0
   -1.2281    2.6200    0.4824 H   0  0  0  0  0  0  0  0  0  0  0  0
   -7.4401    4.1490   -0.7353 H   0  0  0  0  0  0  0  0  0  0  0  0
   -8.7807    3.1611    1.1387 H   0  0  0  0  0  0  0  0  0  0  0  0
   -7.7555    1.4974    2.6648 H   0  0  0  0  0  0  0  0  0  0  0  0
   -5.4099    0.7161    2.3093 H   0  0  0  0  0  0  0  0  0  0  0  0
   -1.9869   -1.6268    0.4789 H   0  0  0  0  0  0  0  0  0  0  0  0
    0.4322   -2.0480    0.1628 H   0  0  0  0  0  0  0  0  0  0  0  0
  1  2  1  0  0  0  0
  1 20  1  0  0  0  0
  1 21  1  0  0  0  0
  1 22  1  0  0  0  0
  2  3  2  0  0  0  0
  2 19  1  0  0  0  0
  3  4  1  0  0  0  0
  3 23  1  0  0  0  0
  4  5  2  0  0  0  0
  4 24  1  0  0  0  0
  5  6  1  0  0  0  0
  5 18  1  0  0  0  0
  6  7  1  0  0  0  0
  7  8  2  0  0  0  0
  7 17  1  0  0  0  0
  8  9  1  0  0  0  0
  9 10  2  0  0  0  0
  9 11  2  0  0  0  0
  9 12  1  0  0  0  0
 12 13  1  0  0  0  0
 12 17  2  0  0  0  0
 13 14  2  0  0  0  0
 13 25  1  0  0  0  0
 14 15  1  0  0  0  0
 14 26  1  0  0  0  0
 15 16  2  0  0  0  0
 15 27  1  0  0  0  0
 16 17  1  0  0  0  0
 16 28  1  0  0  0  0
 18 19  2  0  0  0  0
 18 29  1  0  0  0  0
 19 30  1  0  0  0  0
M  END
$$$$
