
 OpenBabel09162610133D

 30 33  0  0  0  0  0  0  0  0999 V2000
   -1.7638    1.9851    0.0663 O   0  0  0  0  0  0  0  0  0  0  0  0
   -1.3678    0.8284    0.0340 C   0  0  0  0  0  0  0  0  0  0  0  0
   -2.3134   -0.2961   -0.0076 C   0  0  0  0  0  0  0  0  0  0  0  0
   -1.8480   -1.5538   -0.0464 C   0  0  0  0  0  0  0  0  0  0  0  0
   -2.7590   -2.7190   -0.1349 C   0  0  0  0  0  0  0  0  0  0  0  0
   -2.3946   -3.9569    0.4498 C   0  0  0  0  0  0  0  0  0  0  0  0
   -3.2260   -5.0814    0.3584 C   0  0  0  0  0  0  0  0  0  0  0  0
   -4.4116   -4.9475   -0.3277 C   0  0  0  0  0  0  0  0  0  0  0  0
   -4.7761   -3.7570   -0.9052 C   0  0  0  0  0  0  0  0  0  0  0  0
   -3.9780   -2.6347   -0.8313 C   0  0  0  0  0  0  0  0  0  0  0  0
   -5.9751   -3.8316   -1.5423 O   0  0  0  0  0  0  0  0  0  0  0  0
   -6.3049   -5.2199   -1.3327 C   0  0  0  0  0  0  0  0  0  0  0  0
   -5.3348   -5.9244   -0.5289 O   0  0  0  0  0  0  0  0  0  0  0  0
   -0.4993   -1.8806   -0.0067 O   0  0  0  0  0  0  0  0  0  0  0  0
    0.4211   -0.8610    0.0104 C   0  0  0  0  0  0  0  0  0  0  0  0
    1.7694   -1.2145    0.0080 C   0  0  0  0  0  0  0  0  0  0  0  0
    2.7496   -0.2185    0.0032 C   0  0  0  0  0  0  0  0  0  0  0  0
    2.3827    1.1291    0.0025 C   0  0  0  0  0  0  0  0  0  0  0  0
    1.0341    1.4843    0.0139 C   0  0  0  0  0  0  0  0  0  0  0  0
    0.0592    0.4829    0.0206 C   0  0  0  0  0  0  0  0  0  0  0  0
   -3.3625   -0.0312   -0.0133 H   0  0  0  0  0  0  0  0  0  0  0  0
   -1.4521   -4.0523    0.9872 H   0  0  0  0  0  0  0  0  0  0  0  0
   -2.9440   -6.0271    0.8076 H   0  0  0  0  0  0  0  0  0  0  0  0
   -4.3022   -1.7248   -1.3247 H   0  0  0  0  0  0  0  0  0  0  0  0
   -6.3735   -5.7116   -2.3101 H   0  0  0  0  0  0  0  0  0  0  0  0
   -7.2816   -5.2784   -0.8392 H   0  0  0  0  0  0  0  0  0  0  0  0
    2.0604   -2.2620    0.0050 H   0  0  0  0  0  0  0  0  0  0  0  0
    3.8022   -0.4926   -0.0032 H   0  0  0  0  0  0  0  0  0  0  0  0
    3.1465    1.9031   -0.0074 H   0  0  0  0  0  0  0  0  0  0  0  0
    0.7442    2.5329    0.0132 H   0  0  0  0  0  0  0  0  0  0  0  0
  1  2  2  0  0  0  0
  2  3  1  0  0  0  0
  2 20  1  0  0  0  0
  3  4  2  0  0  0  0
  3 21  1  0  0  0  0
  4  5  1  0  0  0  0
  4 14  1  0  0  0  0
  5  6  2  0  0  0  0
  5 10  1  0  0  0  0
  6  7  1  0  0  0  0
  6 22  1  0  0  0  0
  7  8  2  0  0  0  0
  7 23  1  0  0  0  0
  8  9  1  0  0  0  0
  8 13  1  0  0  0  0
  9 10  2  0  0  0  0
  9 11  1  0  0  0  0
 10 24  1  0  0  0  0
 11 12  1  0  0  0  0
 12 13  1  0  0  0  0
 12 25  1  0  0  0  0
 12 26  1  0  0  0  0
 14 15  1  0  0  0  0
 15 16  1  0  0  0  0
 15 20  2  0  0  0  0
 16 17  2  0  0  0  0
 16 27  1  0  0  0  0
 17 18  1  0  0  0  0
 17 28  1  0  0  0  0
 18 19  2  0  0  0  0
 18 29  1  0  0  0  0
 19 20  1  0  0  0  0
 19 30  1  0  0  0  0
M  END
$$$$
