
 OpenBabel09162610133D

 43 46  0  0  0  0  0  0  0  0999 V2000
    1.1016   -0.2780    0.1743 C   0  0  0  0  0  0  0  0  0  0  0  0
    2.5234   -0.0973    0.0120 N   0  0  0  0  0  0  0  0  0  0  0  0
    3.2922   -0.7563   -1.0039 C   0  0  0  0  0  0  0  0  0  0  0  0
    4.4711    0.1772   -1.2068 C   0  0  0  0  0  0  0  0  0  0  0  0
    4.6600    0.8786    0.1587 C   0  0  0  0  0  0  0  0  0  0  0  0
    4.9654    2.3805    0.0073 C   0  0  0  0  0  0  0  0  0  0  0  0
    6.3942    2.6501   -0.4421 C   0  0  0  0  0  0  0  0  0  0  0  0
    7.2943    1.9626    0.4854 N   0  0  0  0  0  0  0  0  0  0  0  0
    8.4631    2.5826    0.9258 C   0  0  0  0  0  0  0  0  0  0  0  0
    9.0976    3.5724    0.1528 C   0  0  0  0  0  0  0  0  0  0  0  0
   10.2019    4.2766    0.4910 N   0  0  0  0  0  0  0  0  0  0  0  0
   10.7403    3.9776    1.6876 C   0  0  0  0  0  0  0  0  0  0  0  0
   10.2425    3.0171    2.5619 C   0  0  0  0  0  0  0  0  0  0  0  0
   10.8860    2.7701    3.7923 C   0  0  0  0  0  0  0  0  0  0  0  0
   10.3848    1.8263    4.6841 C   0  0  0  0  0  0  0  0  0  0  0  0
    9.2191    1.1510    4.3736 C   0  0  0  0  0  0  0  0  0  0  0  0
    8.5609    1.4145    3.1687 C   0  0  0  0  0  0  0  0  0  0  0  0
    9.0685    2.3131    2.1959 C   0  0  0  0  0  0  0  0  0  0  0  0
    7.1467    0.5051    0.4959 C   0  0  0  0  0  0  0  0  0  0  0  0
    5.7338    0.1787    1.0100 C   0  0  0  0  0  0  0  0  0  0  0  0
    3.2705    0.7607    0.7904 C   0  0  0  0  0  0  0  0  0  0  0  0
    2.8835    1.3533    1.7842 O   0  0  0  0  0  0  0  0  0  0  0  0
    0.7248   -1.0152   -0.5390 H   0  0  0  0  0  0  0  0  0  0  0  0
    0.6161    0.6867   -0.0049 H   0  0  0  0  0  0  0  0  0  0  0  0
    0.8869   -0.5902    1.1994 H   0  0  0  0  0  0  0  0  0  0  0  0
    2.7110   -0.8848   -1.9208 H   0  0  0  0  0  0  0  0  0  0  0  0
    3.6023   -1.7333   -0.6185 H   0  0  0  0  0  0  0  0  0  0  0  0
    4.2195    0.9088   -1.9843 H   0  0  0  0  0  0  0  0  0  0  0  0
    5.3514   -0.3713   -1.5542 H   0  0  0  0  0  0  0  0  0  0  0  0
    4.8153    2.8806    0.9747 H   0  0  0  0  0  0  0  0  0  0  0  0
    4.2591    2.8529   -0.6866 H   0  0  0  0  0  0  0  0  0  0  0  0
    6.5345    3.7367   -0.4391 H   0  0  0  0  0  0  0  0  0  0  0  0
    6.5570    2.2956   -1.4677 H   0  0  0  0  0  0  0  0  0  0  0  0
    8.7199    3.8379   -0.8304 H   0  0  0  0  0  0  0  0  0  0  0  0
   11.6200    4.5665    1.9380 H   0  0  0  0  0  0  0  0  0  0  0  0
   11.7835    3.3206    4.0631 H   0  0  0  0  0  0  0  0  0  0  0  0
   10.8962    1.6354    5.6243 H   0  0  0  0  0  0  0  0  0  0  0  0
    8.8007    0.4256    5.0679 H   0  0  0  0  0  0  0  0  0  0  0  0
    7.6189    0.9064    3.0086 H   0  0  0  0  0  0  0  0  0  0  0  0
    7.9021   -0.0133    1.0926 H   0  0  0  0  0  0  0  0  0  0  0  0
    7.2828    0.1207   -0.5225 H   0  0  0  0  0  0  0  0  0  0  0  0
    5.6382    0.5153    2.0507 H   0  0  0  0  0  0  0  0  0  0  0  0
    5.5839   -0.9071    1.0266 H   0  0  0  0  0  0  0  0  0  0  0  0
  1  2  1  0  0  0  0
  1 23  1  0  0  0  0
  1 24  1  0  0  0  0
  1 25  1  0  0  0  0
  2  3  1  0  0  0  0
  2 21  1  0  0  0  0
  3  4  1  0  0  0  0
  3 26  1  0  0  0  0
  3 27  1  0  0  0  0
  4  5  1  0  0  0  0
  4 28  1  0  0  0  0
  4 29  1  0  0  0  0
  5  6  1  0  0  0  0
  5 20  1  0  0  0  0
  5 21  1  0  0  0  0
  6  7  1  0  0  0  0
  6 30  1  0  0  0  0
  6 31  1  0  0  0  0
  7  8  1  0  0  0  0
  7 32  1  0  0  0  0
  7 33  1  0  0  0  0
  8  9  1  0  0  0  0
  8 19  1  0  0  0  0
  9 10  2  0  0  0  0
  9 18  1  0  0  0  0
 10 11  1  0  0  0  0
 10 34  1  0  0  0  0
 11 12  2  0  0  0  0
 12 13  1  0  0  0  0
 12 35  1  0  0  0  0
 13 14  1  0  0  0  0
 13 18  2  0  0  0  0
 14 15  2  0  0  0  0
 14 36  1  0  0  0  0
 15 16  1  0  0  0  0
 15 37  1  0  0  0  0
 16 17  2  0  0  0  0
 16 38  1  0  0  0  0
 17 18  1  0  0  0  0
 17 39  1  0  0  0  0
 19 20  1  0  0  0  0
 19 40  1  0  0  0  0
 19 41  1  0  0  0  0
 20 42  1  0  0  0  0
 20 43  1  0  0  0  0
 21 22  2  0  0  0  0
M  END
$$$$
