
 OpenBabel09162610133D

 36 38  0  0  0  0  0  0  0  0999 V2000
    1.1729   -0.3785   -0.7868 C   0  0  0  0  0  0  0  0  0  0  0  0
    2.2805    0.0437    0.0009 O   0  0  0  0  0  0  0  0  0  0  0  0
    2.9590   -0.9304    0.6824 C   0  0  0  0  0  0  0  0  0  0  0  0
    2.6256   -2.2825    0.7151 C   0  0  0  0  0  0  0  0  0  0  0  0
    3.4056   -3.1823    1.4490 C   0  0  0  0  0  0  0  0  0  0  0  0
    3.0302   -4.4947    1.4823 O   0  0  0  0  0  0  0  0  0  0  0  0
    4.5342   -2.7370    2.1522 C   0  0  0  0  0  0  0  0  0  0  0  0
    5.4294   -3.6697    2.9088 C   0  0  0  0  0  0  0  0  0  0  0  0
    5.3112   -4.8892    2.8546 O   0  0  0  0  0  0  0  0  0  0  0  0
    6.5282   -3.0591    3.7255 C   0  0  0  0  0  0  0  0  0  0  0  0
    7.4381   -3.8836    4.5257 C   0  0  0  0  0  0  0  0  0  0  0  0
    7.1566   -4.1660    5.8664 C   0  0  0  0  0  0  0  0  0  0  0  0
    8.0415   -4.9392    6.6233 C   0  0  0  0  0  0  0  0  0  0  0  0
    9.2161   -5.4394    6.0483 C   0  0  0  0  0  0  0  0  0  0  0  0
   10.1816   -6.2604    6.8497 C   0  0  0  0  0  0  0  0  0  0  0  0
    9.4937   -5.1554    4.7059 C   0  0  0  0  0  0  0  0  0  0  0  0
    8.6104   -4.3847    3.9492 C   0  0  0  0  0  0  0  0  0  0  0  0
    6.6976   -1.7307    3.6561 C   0  0  0  0  0  0  0  0  0  0  0  0
    5.9278   -0.8834    2.9096 N   0  0  0  0  0  0  0  0  0  0  0  0
    4.8598   -1.3663    2.1401 C   0  0  0  0  0  0  0  0  0  0  0  0
    4.0674   -0.4762    1.4043 C   0  0  0  0  0  0  0  0  0  0  0  0
    0.7530    0.5038   -1.2786 H   0  0  0  0  0  0  0  0  0  0  0  0
    0.3885   -0.8152   -0.1597 H   0  0  0  0  0  0  0  0  0  0  0  0
    1.4889   -1.0779   -1.5683 H   0  0  0  0  0  0  0  0  0  0  0  0
    1.7583   -2.6558    0.1820 H   0  0  0  0  0  0  0  0  0  0  0  0
    2.2462   -4.6460    0.9324 H   0  0  0  0  0  0  0  0  0  0  0  0
    6.2424   -3.7976    6.3262 H   0  0  0  0  0  0  0  0  0  0  0  0
    7.8016   -5.1541    7.6620 H   0  0  0  0  0  0  0  0  0  0  0  0
    9.7826   -6.4961    7.8415 H   0  0  0  0  0  0  0  0  0  0  0  0
   11.1193   -5.7112    6.9811 H   0  0  0  0  0  0  0  0  0  0  0  0
   10.3877   -7.2073    6.3401 H   0  0  0  0  0  0  0  0  0  0  0  0
   10.3966   -5.5408    4.2384 H   0  0  0  0  0  0  0  0  0  0  0  0
    8.8341   -4.1881    2.9033 H   0  0  0  0  0  0  0  0  0  0  0  0
    7.4935   -1.2309    4.2032 H   0  0  0  0  0  0  0  0  0  0  0  0
    6.2227    0.0801    2.8036 H   0  0  0  0  0  0  0  0  0  0  0  0
    4.3043    0.5839    1.3911 H   0  0  0  0  0  0  0  0  0  0  0  0
  1  2  1  0  0  0  0
  1 22  1  0  0  0  0
  1 23  1  0  0  0  0
  1 24  1  0  0  0  0
  2  3  1  0  0  0  0
  3  4  2  0  0  0  0
  3 21  1  0  0  0  0
  4  5  1  0  0  0  0
  4 25  1  0  0  0  0
  5  6  1  0  0  0  0
  5  7  2  0  0  0  0
  6 26  1  0  0  0  0
  7  8  1  0  0  0  0
  7 20  1  0  0  0  0
  8  9  2  0  0  0  0
  8 10  1  0  0  0  0
 10 11  1  0  0  0  0
 10 18  2  0  0  0  0
 11 12  2  0  0  0  0
 11 17  1  0  0  0  0
 12 13  1  0  0  0  0
 12 27  1  0  0  0  0
 13 14  2  0  0  0  0
 13 28  1  0  0  0  0
 14 15  1  0  0  0  0
 14 16  1  0  0  0  0
 15 29  1  0  0  0  0
 15 30  1  0  0  0  0
 15 31  1  0  0  0  0
 16 17  2  0  0  0  0
 16 32  1  0  0  0  0
 17 33  1  0  0  0  0
 18 19  1  0  0  0  0
 18 34  1  0  0  0  0
 19 20  1  0  0  0  0
 19 35  1  0  0  0  0
 20 21  2  0  0  0  0
 21 36  1  0  0  0  0
M  END
$$$$
