
 OpenBabel09162610133D

 28 30  0  0  0  0  0  0  0  0999 V2000
    2.4138   -0.6105    1.2168 C   0  0  0  0  0  0  0  0  0  0  0  0
    2.4862    0.0470   -0.1505 C   0  0  0  0  0  0  0  0  0  0  0  0
    3.0028    1.4076   -0.1036 N   0  0  0  0  0  0  0  0  0  0  0  0
    4.3453    1.7334   -0.1899 C   0  0  0  0  0  0  0  0  0  0  0  0
    5.4911    0.9232   -0.2722 C   0  0  0  0  0  0  0  0  0  0  0  0
    6.7370    1.5507   -0.3714 C   0  0  0  0  0  0  0  0  0  0  0  0
    6.8345    2.9372   -0.3830 C   0  0  0  0  0  0  0  0  0  0  0  0
    8.3828    3.6808   -0.5117 Cl  0  0  0  0  0  0  0  0  0  0  0  0
    5.6952    3.7391   -0.2941 C   0  0  0  0  0  0  0  0  0  0  0  0
    4.4273    3.1269   -0.1958 C   0  0  0  0  0  0  0  0  0  0  0  0
    3.0977    3.6399   -0.1007 C   0  0  0  0  0  0  0  0  0  0  0  0
    2.5681    4.9481   -0.0694 C   0  0  0  0  0  0  0  0  0  0  0  0
    1.1869    5.1229    0.0205 C   0  0  0  0  0  0  0  0  0  0  0  0
    0.5380    6.7188    0.0495 Cl  0  0  0  0  0  0  0  0  0  0  0  0
    0.3303    4.0310    0.0838 C   0  0  0  0  0  0  0  0  0  0  0  0
    0.8325    2.7245    0.0578 C   0  0  0  0  0  0  0  0  0  0  0  0
    2.2256    2.5503   -0.0392 C   0  0  0  0  0  0  0  0  0  0  0  0
    2.0420   -1.6358    1.1217 H   0  0  0  0  0  0  0  0  0  0  0  0
    1.7391   -0.0653    1.8848 H   0  0  0  0  0  0  0  0  0  0  0  0
    3.3984   -0.6509    1.6939 H   0  0  0  0  0  0  0  0  0  0  0  0
    1.4966    0.0720   -0.6171 H   0  0  0  0  0  0  0  0  0  0  0  0
    3.1306   -0.5336   -0.8193 H   0  0  0  0  0  0  0  0  0  0  0  0
    5.4259   -0.1602   -0.2637 H   0  0  0  0  0  0  0  0  0  0  0  0
    7.6352    0.9405   -0.4418 H   0  0  0  0  0  0  0  0  0  0  0  0
    5.7797    4.8208   -0.3049 H   0  0  0  0  0  0  0  0  0  0  0  0
    3.2306    5.8064   -0.1196 H   0  0  0  0  0  0  0  0  0  0  0  0
   -0.7442    4.1851    0.1522 H   0  0  0  0  0  0  0  0  0  0  0  0
    0.1540    1.8791    0.1081 H   0  0  0  0  0  0  0  0  0  0  0  0
  1  2  1  0  0  0  0
  1 18  1  0  0  0  0
  1 19  1  0  0  0  0
  1 20  1  0  0  0  0
  2  3  1  0  0  0  0
  2 21  1  0  0  0  0
  2 22  1  0  0  0  0
  3  4  1  0  0  0  0
  3 17  1  0  0  0  0
  4  5  2  0  0  0  0
  4 10  1  0  0  0  0
  5  6  1  0  0  0  0
  5 23  1  0  0  0  0
  6  7  2  0  0  0  0
  6 24  1  0  0  0  0
  7  8  1  0  0  0  0
  7  9  1  0  0  0  0
  9 10  2  0  0  0  0
  9 25  1  0  0  0  0
 10 11  1  0  0  0  0
 11 12  1  0  0  0  0
 11 17  2  0  0  0  0
 12 13  2  0  0  0  0
 12 26  1  0  0  0  0
 13 14  1  0  0  0  0
 13 15  1  0  0  0  0
 15 16  2  0  0  0  0
 15 27  1  0  0  0  0
 16 17  1  0  0  0  0
 16 28  1  0  0  0  0
M  END
$$$$
