
 OpenBabel09162610133D

 37 39  0  0  0  0  0  0  0  0999 V2000
    2.1645    0.4943   -1.6830 C   0  0  0  0  0  0  0  0  0  0  0  0
    1.0680    0.0459   -0.7640 C   0  0  0  0  0  0  0  0  0  0  0  0
    1.2426   -1.0464    0.0952 C   0  0  0  0  0  0  0  0  0  0  0  0
    0.2295   -1.4288    0.9841 C   0  0  0  0  0  0  0  0  0  0  0  0
    0.3678   -2.6668    1.8218 C   0  0  0  0  0  0  0  0  0  0  0  0
   -0.9662   -0.6978    1.0153 C   0  0  0  0  0  0  0  0  0  0  0  0
   -1.2049    0.3027    0.0654 C   0  0  0  0  0  0  0  0  0  0  0  0
   -2.5371    0.9339   -0.1388 C   0  0  0  0  0  0  0  0  0  0  0  0
   -2.5394    2.1475   -0.3741 O   0  0  0  0  0  0  0  0  0  0  0  0
   -3.7321    0.1972   -0.0456 N   0  0  0  0  0  0  0  0  0  0  0  0
   -4.9853    0.9564   -0.0232 C   0  0  0  0  0  0  0  0  0  0  0  0
   -6.0044    0.4399    0.9829 C   0  0  0  0  0  0  0  0  0  0  0  0
   -6.9524    1.1154    1.3818 O   0  0  0  0  0  0  0  0  0  0  0  0
   -5.9189   -0.8878    1.3106 N   0  0  0  0  0  0  0  0  0  0  0  0
   -4.9397   -1.7381    0.7850 C   0  0  0  0  0  0  0  0  0  0  0  0
   -5.0108   -3.1024    1.0730 C   0  0  0  0  0  0  0  0  0  0  0  0
   -4.0524   -3.9711    0.5543 C   0  0  0  0  0  0  0  0  0  0  0  0
   -3.0627   -3.4842   -0.2961 C   0  0  0  0  0  0  0  0  0  0  0  0
   -2.9939   -2.1179   -0.5831 C   0  0  0  0  0  0  0  0  0  0  0  0
   -3.8801   -1.2201    0.0200 C   0  0  0  0  0  0  0  0  0  0  0  0
   -0.1638    0.7096   -0.7800 C   0  0  0  0  0  0  0  0  0  0  0  0
    3.0464   -0.1529   -1.6050 H   0  0  0  0  0  0  0  0  0  0  0  0
    2.4719    1.5140   -1.4297 H   0  0  0  0  0  0  0  0  0  0  0  0
    1.8212    0.4688   -2.7219 H   0  0  0  0  0  0  0  0  0  0  0  0
    2.1733   -1.6101    0.0651 H   0  0  0  0  0  0  0  0  0  0  0  0
    1.3691   -3.1011    1.7363 H   0  0  0  0  0  0  0  0  0  0  0  0
   -0.3489   -3.4228    1.4806 H   0  0  0  0  0  0  0  0  0  0  0  0
    0.1798   -2.4457    2.8759 H   0  0  0  0  0  0  0  0  0  0  0  0
   -1.7443   -0.9783    1.7214 H   0  0  0  0  0  0  0  0  0  0  0  0
   -5.4259    0.8926   -1.0253 H   0  0  0  0  0  0  0  0  0  0  0  0
   -4.8007    2.0118    0.2051 H   0  0  0  0  0  0  0  0  0  0  0  0
   -6.6547   -1.2473    1.9032 H   0  0  0  0  0  0  0  0  0  0  0  0
   -5.7976   -3.4985    1.7089 H   0  0  0  0  0  0  0  0  0  0  0  0
   -4.0845   -5.0301    0.8006 H   0  0  0  0  0  0  0  0  0  0  0  0
   -2.3252   -4.1618   -0.7198 H   0  0  0  0  0  0  0  0  0  0  0  0
   -2.2160   -1.7738   -1.2601 H   0  0  0  0  0  0  0  0  0  0  0  0
   -0.3271    1.5336   -1.4739 H   0  0  0  0  0  0  0  0  0  0  0  0
  1  2  1  0  0  0  0
  1 22  1  0  0  0  0
  1 23  1  0  0  0  0
  1 24  1  0  0  0  0
  2  3  2  0  0  0  0
  2 21  1  0  0  0  0
  3  4  1  0  0  0  0
  3 25  1  0  0  0  0
  4  5  1  0  0  0  0
  4  6  2  0  0  0  0
  5 26  1  0  0  0  0
  5 27  1  0  0  0  0
  5 28  1  0  0  0  0
  6  7  1  0  0  0  0
  6 29  1  0  0  0  0
  7  8  1  0  0  0  0
  7 21  2  0  0  0  0
  8  9  2  0  0  0  0
  8 10  1  0  0  0  0
 10 11  1  0  0  0  0
 10 20  1  0  0  0  0
 11 12  1  0  0  0  0
 11 30  1  0  0  0  0
 11 31  1  0  0  0  0
 12 13  2  0  0  0  0
 12 14  1  0  0  0  0
 14 15  1  0  0  0  0
 14 32  1  0  0  0  0
 15 16  2  0  0  0  0
 15 20  1  0  0  0  0
 16 17  1  0  0  0  0
 16 33  1  0  0  0  0
 17 18  2  0  0  0  0
 17 34  1  0  0  0  0
 18 19  1  0  0  0  0
 18 35  1  0  0  0  0
 19 20  2  0  0  0  0
 19 36  1  0  0  0  0
 21 37  1  0  0  0  0
M  END
$$$$
