
 OpenBabel09162610133D

 33 36  0  0  0  0  0  0  0  0999 V2000
    0.9451   -0.2321   -0.1110 O   0  0  0  0  0  0  0  0  0  0  0  0
    2.1671   -0.1052   -0.0916 C   0  0  0  0  0  0  0  0  0  0  0  0
    2.8425    1.1833   -0.3963 C   0  0  0  0  0  0  0  0  0  0  0  0
    4.1872    1.2223   -0.3584 C   0  0  0  0  0  0  0  0  0  0  0  0
    5.0031    0.1628   -0.0098 O   0  0  0  0  0  0  0  0  0  0  0  0
    4.4130   -1.0063    0.3887 C   0  0  0  0  0  0  0  0  0  0  0  0
    5.2521   -1.9930    0.9067 C   0  0  0  0  0  0  0  0  0  0  0  0
    4.7107   -3.2058    1.3317 C   0  0  0  0  0  0  0  0  0  0  0  0
    3.3460   -3.4395    1.1815 C   0  0  0  0  0  0  0  0  0  0  0  0
    2.8386   -4.6196    1.5596 F   0  0  0  0  0  0  0  0  0  0  0  0
    2.5004   -2.4631    0.6680 C   0  0  0  0  0  0  0  0  0  0  0  0
    3.0387   -1.2253    0.3064 C   0  0  0  0  0  0  0  0  0  0  0  0
    4.9319    2.4518   -0.6678 C   0  0  0  0  0  0  0  0  0  0  0  0
    5.8582    2.4540   -1.7230 C   0  0  0  0  0  0  0  0  0  0  0  0
    6.5745    3.6125   -2.0329 C   0  0  0  0  0  0  0  0  0  0  0  0
    6.3875    4.7733   -1.2831 C   0  0  0  0  0  0  0  0  0  0  0  0
    5.4842    4.7801   -0.2213 C   0  0  0  0  0  0  0  0  0  0  0  0
    4.7490    3.6296    0.0698 C   0  0  0  0  0  0  0  0  0  0  0  0
    3.8858    3.6549    1.1388 O   0  0  0  0  0  0  0  0  0  0  0  0
    2.5984    4.1491    0.7339 C   0  0  0  0  0  0  0  0  0  0  0  0
    1.6339    3.0070    0.3986 C   0  0  0  0  0  0  0  0  0  0  0  0
    2.0678    2.2775   -0.7599 O   0  0  0  0  0  0  0  0  0  0  0  0
    6.3194   -1.8079    1.0011 H   0  0  0  0  0  0  0  0  0  0  0  0
    5.3410   -3.9679    1.7800 H   0  0  0  0  0  0  0  0  0  0  0  0
    1.4368   -2.6625    0.5773 H   0  0  0  0  0  0  0  0  0  0  0  0
    6.0194    1.5553   -2.3131 H   0  0  0  0  0  0  0  0  0  0  0  0
    7.2826    3.6060   -2.8582 H   0  0  0  0  0  0  0  0  0  0  0  0
    6.9501    5.6716   -1.5232 H   0  0  0  0  0  0  0  0  0  0  0  0
    5.3503    5.6776    0.3751 H   0  0  0  0  0  0  0  0  0  0  0  0
    2.6780    4.8538   -0.1042 H   0  0  0  0  0  0  0  0  0  0  0  0
    2.2003    4.7086    1.5883 H   0  0  0  0  0  0  0  0  0  0  0  0
    0.6608    3.4421    0.1474 H   0  0  0  0  0  0  0  0  0  0  0  0
    1.4846    2.3463    1.2617 H   0  0  0  0  0  0  0  0  0  0  0  0
  1  2  2  0  0  0  0
  2  3  1  0  0  0  0
  2 12  1  0  0  0  0
  3  4  2  0  0  0  0
  3 22  1  0  0  0  0
  4  5  1  0  0  0  0
  4 13  1  0  0  0  0
  5  6  1  0  0  0  0
  6  7  1  0  0  0  0
  6 12  2  0  0  0  0
  7  8  2  0  0  0  0
  7 23  1  0  0  0  0
  8  9  1  0  0  0  0
  8 24  1  0  0  0  0
  9 10  1  0  0  0  0
  9 11  2  0  0  0  0
 11 12  1  0  0  0  0
 11 25  1  0  0  0  0
 13 14  2  0  0  0  0
 13 18  1  0  0  0  0
 14 15  1  0  0  0  0
 14 26  1  0  0  0  0
 15 16  2  0  0  0  0
 15 27  1  0  0  0  0
 16 17  1  0  0  0  0
 16 28  1  0  0  0  0
 17 18  2  0  0  0  0
 17 29  1  0  0  0  0
 18 19  1  0  0  0  0
 19 20  1  0  0  0  0
 20 21  1  0  0  0  0
 20 30  1  0  0  0  0
 20 31  1  0  0  0  0
 21 22  1  0  0  0  0
 21 32  1  0  0  0  0
 21 33  1  0  0  0  0
M  END
$$$$
