
 OpenBabel09162610133D

 28 29  0  0  0  0  0  0  0  0999 V2000
   -3.0489    0.3268   -0.2920 N   0  0  0  0  0  0  0  0  0  0  0  0
   -1.8929    0.2290   -0.2275 C   0  0  0  0  0  0  0  0  0  0  0  0
   -0.4678    0.1013   -0.1436 C   0  0  0  0  0  0  0  0  0  0  0  0
    0.1239   -1.1587   -0.2244 C   0  0  0  0  0  0  0  0  0  0  0  0
    1.5134   -1.2915   -0.1298 C   0  0  0  0  0  0  0  0  0  0  0  0
    2.3345   -0.1740    0.0488 C   0  0  0  0  0  0  0  0  0  0  0  0
    3.7398   -0.2490    0.1742 N   0  0  0  0  0  0  0  0  0  0  0  0
    4.5166   -1.3926    0.1393 C   0  0  0  0  0  0  0  0  0  0  0  0
    4.0940   -2.5306   -0.0471 O   0  0  0  0  0  0  0  0  0  0  0  0
    5.9924   -1.2328    0.3492 C   0  0  0  0  0  0  0  0  0  0  0  0
    6.7580   -2.4136    0.3059 C   0  0  0  0  0  0  0  0  0  0  0  0
    8.1348   -2.3775    0.5043 C   0  0  0  0  0  0  0  0  0  0  0  0
    9.0445   -3.8363    0.4565 Cl  0  0  0  0  0  0  0  0  0  0  0  0
    8.7773   -1.1676    0.7443 C   0  0  0  0  0  0  0  0  0  0  0  0
    8.0359    0.0154    0.7881 C   0  0  0  0  0  0  0  0  0  0  0  0
    6.6489   -0.0170    0.5948 C   0  0  0  0  0  0  0  0  0  0  0  0
    5.9493    1.1604    0.6549 O   0  0  0  0  0  0  0  0  0  0  0  0
    1.7348    1.0897    0.1209 C   0  0  0  0  0  0  0  0  0  0  0  0
    0.3422    1.2278    0.0254 C   0  0  0  0  0  0  0  0  0  0  0  0
   -0.4820   -2.0533   -0.3573 H   0  0  0  0  0  0  0  0  0  0  0  0
    1.9190   -2.2957   -0.1955 H   0  0  0  0  0  0  0  0  0  0  0  0
    4.2419    0.6234    0.3233 H   0  0  0  0  0  0  0  0  0  0  0  0
    6.2737   -3.3713    0.1200 H   0  0  0  0  0  0  0  0  0  0  0  0
    9.8533   -1.1418    0.8991 H   0  0  0  0  0  0  0  0  0  0  0  0
    8.5606    0.9485    0.9752 H   0  0  0  0  0  0  0  0  0  0  0  0
    6.5673    1.8795    0.8830 H   0  0  0  0  0  0  0  0  0  0  0  0
    2.3390    1.9835    0.2555 H   0  0  0  0  0  0  0  0  0  0  0  0
   -0.1035    2.2188    0.0878 H   0  0  0  0  0  0  0  0  0  0  0  0
  1  2  3  0  0  0  0
  2  3  1  0  0  0  0
  3  4  2  0  0  0  0
  3 19  1  0  0  0  0
  4  5  1  0  0  0  0
  4 20  1  0  0  0  0
  5  6  2  0  0  0  0
  5 21  1  0  0  0  0
  6  7  1  0  0  0  0
  6 18  1  0  0  0  0
  7  8  1  0  0  0  0
  7 22  1  0  0  0  0
  8  9  2  0  0  0  0
  8 10  1  0  0  0  0
 10 11  2  0  0  0  0
 10 16  1  0  0  0  0
 11 12  1  0  0  0  0
 11 23  1  0  0  0  0
 12 13  1  0  0  0  0
 12 14  2  0  0  0  0
 14 15  1  0  0  0  0
 14 24  1  0  0  0  0
 15 16  2  0  0  0  0
 15 25  1  0  0  0  0
 16 17  1  0  0  0  0
 17 26  1  0  0  0  0
 18 19  2  0  0  0  0
 18 27  1  0  0  0  0
 19 28  1  0  0  0  0
M  END
$$$$
