
 OpenBabel09162610133D

 33 36  0  0  0  0  0  0  0  0999 V2000
    1.9375   -0.9743    0.2928 C   0  0  0  0  0  0  0  0  0  0  0  0
    0.5111   -0.5102    0.2673 C   0  0  0  0  0  0  0  0  0  0  0  0
   -0.2681   -0.6623   -0.8804 C   0  0  0  0  0  0  0  0  0  0  0  0
   -1.5929   -0.2168   -0.8980 C   0  0  0  0  0  0  0  0  0  0  0  0
   -2.1843    0.3856    0.2279 C   0  0  0  0  0  0  0  0  0  0  0  0
   -3.5753    0.8635    0.1599 C   0  0  0  0  0  0  0  0  0  0  0  0
   -4.5115    0.6586    1.1684 C   0  0  0  0  0  0  0  0  0  0  0  0
   -5.7847    1.1090    0.8968 C   0  0  0  0  0  0  0  0  0  0  0  0
   -6.0821    1.7708   -0.2797 C   0  0  0  0  0  0  0  0  0  0  0  0
   -5.1764    1.9753   -1.2368 N   0  0  0  0  0  0  0  0  0  0  0  0
   -3.9108    1.4978   -1.0080 N   0  0  0  0  0  0  0  0  0  0  0  0
   -7.4704    2.1361   -0.3326 C   0  0  0  0  0  0  0  0  0  0  0  0
   -8.1911    2.8548   -1.2686 C   0  0  0  0  0  0  0  0  0  0  0  0
   -9.5621    3.0303   -1.0501 C   0  0  0  0  0  0  0  0  0  0  0  0
  -10.1931    2.4748    0.0812 C   0  0  0  0  0  0  0  0  0  0  0  0
   -9.4598    1.7659    1.0374 C   0  0  0  0  0  0  0  0  0  0  0  0
   -8.1019    1.6308    0.8148 C   0  0  0  0  0  0  0  0  0  0  0  0
   -7.0545    0.9867    1.6457 C   0  0  0  0  0  0  0  0  0  0  0  0
   -7.1997    0.4560    2.7239 O   0  0  0  0  0  0  0  0  0  0  0  0
   -1.3918    0.5263    1.3781 C   0  0  0  0  0  0  0  0  0  0  0  0
   -0.0600    0.0881    1.3961 C   0  0  0  0  0  0  0  0  0  0  0  0
    2.2373   -1.4016   -0.6704 H   0  0  0  0  0  0  0  0  0  0  0  0
    2.0700   -1.7467    1.0568 H   0  0  0  0  0  0  0  0  0  0  0  0
    2.6062   -0.1345    0.5068 H   0  0  0  0  0  0  0  0  0  0  0  0
    0.1467   -1.1205   -1.7756 H   0  0  0  0  0  0  0  0  0  0  0  0
   -2.1709   -0.3420   -1.8133 H   0  0  0  0  0  0  0  0  0  0  0  0
   -4.2812    0.1464    2.0941 H   0  0  0  0  0  0  0  0  0  0  0  0
   -7.7072    3.2803   -2.1432 H   0  0  0  0  0  0  0  0  0  0  0  0
  -10.1502    3.6027   -1.7660 H   0  0  0  0  0  0  0  0  0  0  0  0
  -11.2652    2.6087    0.2120 H   0  0  0  0  0  0  0  0  0  0  0  0
   -9.9328    1.3381    1.9142 H   0  0  0  0  0  0  0  0  0  0  0  0
   -1.7908    1.0052    2.2700 H   0  0  0  0  0  0  0  0  0  0  0  0
    0.5341    0.2267    2.2973 H   0  0  0  0  0  0  0  0  0  0  0  0
  1  2  1  0  0  0  0
  1 22  1  0  0  0  0
  1 23  1  0  0  0  0
  1 24  1  0  0  0  0
  2  3  2  0  0  0  0
  2 21  1  0  0  0  0
  3  4  1  0  0  0  0
  3 25  1  0  0  0  0
  4  5  2  0  0  0  0
  4 26  1  0  0  0  0
  5  6  1  0  0  0  0
  5 20  1  0  0  0  0
  6  7  2  0  0  0  0
  6 11  1  0  0  0  0
  7  8  1  0  0  0  0
  7 27  1  0  0  0  0
  8  9  2  0  0  0  0
  8 18  1  0  0  0  0
  9 10  1  0  0  0  0
  9 12  1  0  0  0  0
 10 11  2  0  0  0  0
 12 13  2  0  0  0  0
 12 17  1  0  0  0  0
 13 14  1  0  0  0  0
 13 28  1  0  0  0  0
 14 15  2  0  0  0  0
 14 29  1  0  0  0  0
 15 16  1  0  0  0  0
 15 30  1  0  0  0  0
 16 17  2  0  0  0  0
 16 31  1  0  0  0  0
 17 18  1  0  0  0  0
 18 19  2  0  0  0  0
 20 21  2  0  0  0  0
 20 32  1  0  0  0  0
 21 33  1  0  0  0  0
M  END
$$$$
