
 OpenBabel09162610133D

 37 40  0  0  0  0  0  0  0  0999 V2000
    2.3568   -1.1881   -0.1125 O   0  0  0  0  0  0  0  0  0  0  0  0
    1.2402   -0.4082   -0.0731 C   0  0  0  0  0  0  0  0  0  0  0  0
    0.7689    0.1222    1.1193 C   0  0  0  0  0  0  0  0  0  0  0  0
   -0.3957    0.9013    1.1133 C   0  0  0  0  0  0  0  0  0  0  0  0
   -1.1373    1.1014   -0.0668 C   0  0  0  0  0  0  0  0  0  0  0  0
   -2.4130    1.8254   -0.0061 C   0  0  0  0  0  0  0  0  0  0  0  0
   -2.9433    2.8244   -0.8969 C   0  0  0  0  0  0  0  0  0  0  0  0
   -2.5128    3.4834   -2.0684 C   0  0  0  0  0  0  0  0  0  0  0  0
   -3.3863    4.3708   -2.7192 C   0  0  0  0  0  0  0  0  0  0  0  0
   -4.6488    4.6296   -2.1902 C   0  0  0  0  0  0  0  0  0  0  0  0
   -5.5149    5.4795   -2.8169 O   0  0  0  0  0  0  0  0  0  0  0  0
   -5.0859    4.0369   -1.0092 C   0  0  0  0  0  0  0  0  0  0  0  0
   -4.2059    3.1428   -0.4077 C   0  0  0  0  0  0  0  0  0  0  0  0
   -4.4597    2.4498    0.7287 O   0  0  0  0  0  0  0  0  0  0  0  0
   -3.3855    1.6373    0.9778 C   0  0  0  0  0  0  0  0  0  0  0  0
   -3.5509    0.8002    2.1610 C   0  0  0  0  0  0  0  0  0  0  0  0
   -4.1516    1.3031    3.3198 C   0  0  0  0  0  0  0  0  0  0  0  0
   -4.2601    0.5037    4.4566 C   0  0  0  0  0  0  0  0  0  0  0  0
   -3.7579   -0.7848    4.4023 C   0  0  0  0  0  0  0  0  0  0  0  0
   -3.1821   -1.3164    3.3043 N   0  0  0  0  0  0  0  0  0  0  0  0
   -3.1040   -0.5172    2.2106 C   0  0  0  0  0  0  0  0  0  0  0  0
   -0.6242    0.5561   -1.2560 C   0  0  0  0  0  0  0  0  0  0  0  0
   -1.2496    0.6392   -2.4720 O   0  0  0  0  0  0  0  0  0  0  0  0
    0.5711   -0.1696   -1.2644 C   0  0  0  0  0  0  0  0  0  0  0  0
    2.6429   -1.3723    0.7975 H   0  0  0  0  0  0  0  0  0  0  0  0
    1.2793   -0.0615    2.0597 H   0  0  0  0  0  0  0  0  0  0  0  0
   -0.7281    1.3231    2.0606 H   0  0  0  0  0  0  0  0  0  0  0  0
   -1.5267    3.2951   -2.4877 H   0  0  0  0  0  0  0  0  0  0  0  0
   -3.0596    4.8465   -3.6398 H   0  0  0  0  0  0  0  0  0  0  0  0
   -5.1074    5.7969   -3.6395 H   0  0  0  0  0  0  0  0  0  0  0  0
   -6.0629    4.2406   -0.5888 H   0  0  0  0  0  0  0  0  0  0  0  0
   -4.5336    2.3212    3.3457 H   0  0  0  0  0  0  0  0  0  0  0  0
   -4.7228    0.8802    5.3623 H   0  0  0  0  0  0  0  0  0  0  0  0
   -3.8100   -1.4443    5.2645 H   0  0  0  0  0  0  0  0  0  0  0  0
   -2.6475   -0.9947    1.3472 H   0  0  0  0  0  0  0  0  0  0  0  0
   -2.1828    0.8679   -2.3305 H   0  0  0  0  0  0  0  0  0  0  0  0
    0.9539   -0.5803   -2.1944 H   0  0  0  0  0  0  0  0  0  0  0  0
  1  2  1  0  0  0  0
  1 25  1  0  0  0  0
  2  3  2  0  0  0  0
  2 24  1  0  0  0  0
  3  4  1  0  0  0  0
  3 26  1  0  0  0  0
  4  5  2  0  0  0  0
  4 27  1  0  0  0  0
  5  6  1  0  0  0  0
  5 22  1  0  0  0  0
  6  7  1  0  0  0  0
  6 15  2  0  0  0  0
  7  8  2  0  0  0  0
  7 13  1  0  0  0  0
  8  9  1  0  0  0  0
  8 28  1  0  0  0  0
  9 10  2  0  0  0  0
  9 29  1  0  0  0  0
 10 11  1  0  0  0  0
 10 12  1  0  0  0  0
 11 30  1  0  0  0  0
 12 13  2  0  0  0  0
 12 31  1  0  0  0  0
 13 14  1  0  0  0  0
 14 15  1  0  0  0  0
 15 16  1  0  0  0  0
 16 17  2  0  0  0  0
 16 21  1  0  0  0  0
 17 18  1  0  0  0  0
 17 32  1  0  0  0  0
 18 19  2  0  0  0  0
 18 33  1  0  0  0  0
 19 20  1  0  0  0  0
 19 34  1  0  0  0  0
 20 21  2  0  0  0  0
 21 35  1  0  0  0  0
 22 23  1  0  0  0  0
 22 24  2  0  0  0  0
 23 36  1  0  0  0  0
 24 37  1  0  0  0  0
M  END
$$$$
