
 OpenBabel09162610133D

 38 40  0  0  0  0  0  0  0  0999 V2000
    1.1905    0.5158   -0.2261 C   0  0  0  0  0  0  0  0  0  0  0  0
    2.6458    0.1462    0.0117 C   0  0  0  0  0  0  0  0  0  0  0  0
    3.0990   -0.9665   -0.8961 C   0  0  0  0  0  0  0  0  0  0  0  0
    3.6592   -0.6833   -2.1454 C   0  0  0  0  0  0  0  0  0  0  0  0
    4.0974   -1.7165   -2.9826 C   0  0  0  0  0  0  0  0  0  0  0  0
    3.9504   -3.0554   -2.6140 C   0  0  0  0  0  0  0  0  0  0  0  0
    4.4460   -4.1204   -3.3486 N   0  0  0  0  0  0  0  0  0  0  0  0
    5.0759   -3.9680   -4.6583 C   0  0  0  0  0  0  0  0  0  0  0  0
    5.4503   -5.2729   -5.2750 C   0  0  0  0  0  0  0  0  0  0  0  0
    4.8686   -6.4454   -5.1383 N   0  0  0  0  0  0  0  0  0  0  0  0
    5.6853   -7.2708   -5.8785 C   0  0  0  0  0  0  0  0  0  0  0  0
    5.4328   -8.7041   -5.9759 C   0  0  0  0  0  0  0  0  0  0  0  0
    4.3153   -9.2619   -5.3343 C   0  0  0  0  0  0  0  0  0  0  0  0
    4.0584  -10.6318   -5.4096 C   0  0  0  0  0  0  0  0  0  0  0  0
    4.9170  -11.4609   -6.1271 C   0  0  0  0  0  0  0  0  0  0  0  0
    6.0319  -10.9217   -6.7675 C   0  0  0  0  0  0  0  0  0  0  0  0
    6.2899   -9.5500   -6.6931 C   0  0  0  0  0  0  0  0  0  0  0  0
    6.7095   -6.6327   -6.4729 N   0  0  0  0  0  0  0  0  0  0  0  0
    6.5546   -5.3058   -6.0693 O   0  0  0  0  0  0  0  0  0  0  0  0
    3.3889   -3.3268   -1.3588 C   0  0  0  0  0  0  0  0  0  0  0  0
    2.9626   -2.3013   -0.5101 C   0  0  0  0  0  0  0  0  0  0  0  0
    0.9000    1.3439    0.4279 H   0  0  0  0  0  0  0  0  0  0  0  0
    0.5274   -0.3305   -0.0170 H   0  0  0  0  0  0  0  0  0  0  0  0
    1.0227    0.8263   -1.2629 H   0  0  0  0  0  0  0  0  0  0  0  0
    2.7874   -0.1507    1.0581 H   0  0  0  0  0  0  0  0  0  0  0  0
    3.2818    1.0266   -0.1412 H   0  0  0  0  0  0  0  0  0  0  0  0
    3.7733    0.3472   -2.4737 H   0  0  0  0  0  0  0  0  0  0  0  0
    4.5469   -1.4423   -3.9315 H   0  0  0  0  0  0  0  0  0  0  0  0
    3.8931   -4.9729   -3.2708 H   0  0  0  0  0  0  0  0  0  0  0  0
    5.9800   -3.3553   -4.5532 H   0  0  0  0  0  0  0  0  0  0  0  0
    4.3944   -3.4547   -5.3464 H   0  0  0  0  0  0  0  0  0  0  0  0
    3.6355   -8.6287   -4.7667 H   0  0  0  0  0  0  0  0  0  0  0  0
    3.1890  -11.0484   -4.9075 H   0  0  0  0  0  0  0  0  0  0  0  0
    4.7181  -12.5280   -6.1865 H   0  0  0  0  0  0  0  0  0  0  0  0
    6.7046  -11.5697   -7.3266 H   0  0  0  0  0  0  0  0  0  0  0  0
    7.1675   -9.1502   -7.1970 H   0  0  0  0  0  0  0  0  0  0  0  0
    3.3016   -4.3559   -1.0171 H   0  0  0  0  0  0  0  0  0  0  0  0
    2.5408   -2.5564    0.4590 H   0  0  0  0  0  0  0  0  0  0  0  0
  1  2  1  0  0  0  0
  1 22  1  0  0  0  0
  1 23  1  0  0  0  0
  1 24  1  0  0  0  0
  2  3  1  0  0  0  0
  2 25  1  0  0  0  0
  2 26  1  0  0  0  0
  3  4  2  0  0  0  0
  3 21  1  0  0  0  0
  4  5  1  0  0  0  0
  4 27  1  0  0  0  0
  5  6  2  0  0  0  0
  5 28  1  0  0  0  0
  6  7  1  0  0  0  0
  6 20  1  0  0  0  0
  7  8  1  0  0  0  0
  7 29  1  0  0  0  0
  8  9  1  0  0  0  0
  8 30  1  0  0  0  0
  8 31  1  0  0  0  0
  9 10  2  0  0  0  0
  9 19  1  0  0  0  0
 10 11  1  0  0  0  0
 11 12  1  0  0  0  0
 11 18  2  0  0  0  0
 12 13  2  0  0  0  0
 12 17  1  0  0  0  0
 13 14  1  0  0  0  0
 13 32  1  0  0  0  0
 14 15  2  0  0  0  0
 14 33  1  0  0  0  0
 15 16  1  0  0  0  0
 15 34  1  0  0  0  0
 16 17  2  0  0  0  0
 16 35  1  0  0  0  0
 17 36  1  0  0  0  0
 18 19  1  0  0  0  0
 20 21  2  0  0  0  0
 20 37  1  0  0  0  0
 21 38  1  0  0  0  0
M  END
$$$$
