
 OpenBabel09162610133D

 36 37  0  0  0  0  0  0  0  0999 V2000
    2.7612    0.4335    1.0244 O   0  0  0  0  0  0  0  0  0  0  0  0
    2.3426    0.0863   -0.0731 C   0  0  0  0  0  0  0  0  0  0  0  0
    0.9872    0.0412   -0.3206 N   0  0  0  0  0  0  0  0  0  0  0  0
    0.3704   -0.4033   -1.4773 C   0  0  0  0  0  0  0  0  0  0  0  0
    0.9805   -0.8280   -2.4580 O   0  0  0  0  0  0  0  0  0  0  0  0
   -1.1127   -0.4038   -1.5185 C   0  0  0  0  0  0  0  0  0  0  0  0
   -1.9021    0.4980   -0.7961 C   0  0  0  0  0  0  0  0  0  0  0  0
   -3.2960    0.4564   -0.9295 C   0  0  0  0  0  0  0  0  0  0  0  0
   -3.8934   -0.4762   -1.7805 C   0  0  0  0  0  0  0  0  0  0  0  0
   -5.6041   -0.5112   -1.9490 Cl  0  0  0  0  0  0  0  0  0  0  0  0
   -3.1131   -1.3709   -2.5059 C   0  0  0  0  0  0  0  0  0  0  0  0
   -1.7252   -1.3314   -2.3772 C   0  0  0  0  0  0  0  0  0  0  0  0
    3.1319   -0.2659   -1.1262 N   0  0  0  0  0  0  0  0  0  0  0  0
    4.5778   -0.3567   -1.1160 C   0  0  0  0  0  0  0  0  0  0  0  0
    5.0851   -0.2078   -2.5564 C   0  0  0  0  0  0  0  0  0  0  0  0
    6.5959   -0.3707   -2.6584 C   0  0  0  0  0  0  0  0  0  0  0  0
    7.0636   -1.6821   -2.0361 C   0  0  0  0  0  0  0  0  0  0  0  0
    6.5639   -1.8356   -0.6020 C   0  0  0  0  0  0  0  0  0  0  0  0
    5.0459   -1.6877   -0.5139 C   0  0  0  0  0  0  0  0  0  0  0  0
    0.4382    0.2931    0.4869 H   0  0  0  0  0  0  0  0  0  0  0  0
   -1.4622    1.2599   -0.1592 H   0  0  0  0  0  0  0  0  0  0  0  0
   -3.9128    1.1644   -0.3799 H   0  0  0  0  0  0  0  0  0  0  0  0
   -3.5702   -2.0920   -3.1785 H   0  0  0  0  0  0  0  0  0  0  0  0
   -1.1177   -2.0249   -2.9580 H   0  0  0  0  0  0  0  0  0  0  0  0
    2.6417   -0.6763   -1.9198 H   0  0  0  0  0  0  0  0  0  0  0  0
    4.9632    0.4661   -0.5012 H   0  0  0  0  0  0  0  0  0  0  0  0
    4.7905    0.7701   -2.9562 H   0  0  0  0  0  0  0  0  0  0  0  0
    4.6011   -0.9580   -3.1973 H   0  0  0  0  0  0  0  0  0  0  0  0
    7.0872    0.4712   -2.1566 H   0  0  0  0  0  0  0  0  0  0  0  0
    6.8964   -0.3357   -3.7120 H   0  0  0  0  0  0  0  0  0  0  0  0
    8.1583   -1.7265   -2.0539 H   0  0  0  0  0  0  0  0  0  0  0  0
    6.7002   -2.5227   -2.6402 H   0  0  0  0  0  0  0  0  0  0  0  0
    7.0406   -1.0785    0.0327 H   0  0  0  0  0  0  0  0  0  0  0  0
    6.8635   -2.8149   -0.2121 H   0  0  0  0  0  0  0  0  0  0  0  0
    4.7295   -1.7650    0.5330 H   0  0  0  0  0  0  0  0  0  0  0  0
    4.5695   -2.5243   -1.0429 H   0  0  0  0  0  0  0  0  0  0  0  0
  1  2  2  0  0  0  0
  2  3  1  0  0  0  0
  2 13  1  0  0  0  0
  3  4  1  0  0  0  0
  3 20  1  0  0  0  0
  4  5  2  0  0  0  0
  4  6  1  0  0  0  0
  6  7  2  0  0  0  0
  6 12  1  0  0  0  0
  7  8  1  0  0  0  0
  7 21  1  0  0  0  0
  8  9  2  0  0  0  0
  8 22  1  0  0  0  0
  9 10  1  0  0  0  0
  9 11  1  0  0  0  0
 11 12  2  0  0  0  0
 11 23  1  0  0  0  0
 12 24  1  0  0  0  0
 13 14  1  0  0  0  0
 13 25  1  0  0  0  0
 14 15  1  0  0  0  0
 14 19  1  0  0  0  0
 14 26  1  0  0  0  0
 15 16  1  0  0  0  0
 15 27  1  0  0  0  0
 15 28  1  0  0  0  0
 16 17  1  0  0  0  0
 16 29  1  0  0  0  0
 16 30  1  0  0  0  0
 17 18  1  0  0  0  0
 17 31  1  0  0  0  0
 17 32  1  0  0  0  0
 18 19  1  0  0  0  0
 18 33  1  0  0  0  0
 18 34  1  0  0  0  0
 19 35  1  0  0  0  0
 19 36  1  0  0  0  0
M  END
$$$$
