
 OpenBabel09162610133D

 27 29  0  0  0  0  0  0  0  0999 V2000
    1.5099    0.9967   -0.6627 O   0  0  0  0  0  0  0  0  0  0  0  0
    2.0800    0.0779   -0.0825 C   0  0  0  0  0  0  0  0  0  0  0  0
    2.8923   -0.9343   -0.7484 C   0  0  0  0  0  0  0  0  0  0  0  0
    2.6903   -1.3542   -2.1221 C   0  0  0  0  0  0  0  0  0  0  0  0
    1.7496   -0.9274   -3.0979 C   0  0  0  0  0  0  0  0  0  0  0  0
    1.6970   -1.5207   -4.3619 C   0  0  0  0  0  0  0  0  0  0  0  0
    2.5732   -2.5478   -4.6830 C   0  0  0  0  0  0  0  0  0  0  0  0
    3.5146   -2.9868   -3.7532 C   0  0  0  0  0  0  0  0  0  0  0  0
    3.5652   -2.3793   -2.4830 C   0  0  0  0  0  0  0  0  0  0  0  0
    4.6417   -2.7555   -1.2048 S   0  0  0  0  0  0  0  0  0  0  0  0
    3.9213   -1.6329   -0.1214 C   0  0  0  0  0  0  0  0  0  0  0  0
    4.4549   -1.5274    1.2585 C   0  0  0  0  0  0  0  0  0  0  0  0
    4.5332   -0.2832    1.9085 C   0  0  0  0  0  0  0  0  0  0  0  0
    4.9413   -0.1853    3.2428 C   0  0  0  0  0  0  0  0  0  0  0  0
    5.3279   -1.3269    3.9381 C   0  0  0  0  0  0  0  0  0  0  0  0
    5.3094   -2.5595    3.2938 C   0  0  0  0  0  0  0  0  0  0  0  0
    5.8229   -3.9688    4.1377 Cl  0  0  0  0  0  0  0  0  0  0  0  0
    4.8695   -2.6655    1.9723 C   0  0  0  0  0  0  0  0  0  0  0  0
    1.9941   -0.0116    1.0126 H   0  0  0  0  0  0  0  0  0  0  0  0
    1.0469   -0.1291   -2.8644 H   0  0  0  0  0  0  0  0  0  0  0  0
    0.9641   -1.1802   -5.0878 H   0  0  0  0  0  0  0  0  0  0  0  0
    2.5215   -3.0146   -5.6628 H   0  0  0  0  0  0  0  0  0  0  0  0
    4.1991   -3.7953   -4.0075 H   0  0  0  0  0  0  0  0  0  0  0  0
    4.2787    0.6384    1.3890 H   0  0  0  0  0  0  0  0  0  0  0  0
    4.9592    0.7839    3.7361 H   0  0  0  0  0  0  0  0  0  0  0  0
    5.6485   -1.2490    4.9736 H   0  0  0  0  0  0  0  0  0  0  0  0
    4.8478   -3.6501    1.5108 H   0  0  0  0  0  0  0  0  0  0  0  0
  1  2  2  0  0  0  0
  2  3  1  0  0  0  0
  2 19  1  0  0  0  0
  3  4  1  0  0  0  0
  3 11  2  0  0  0  0
  4  5  2  0  0  0  0
  4  9  1  0  0  0  0
  5  6  1  0  0  0  0
  5 20  1  0  0  0  0
  6  7  2  0  0  0  0
  6 21  1  0  0  0  0
  7  8  1  0  0  0  0
  7 22  1  0  0  0  0
  8  9  2  0  0  0  0
  8 23  1  0  0  0  0
  9 10  1  0  0  0  0
 10 11  1  0  0  0  0
 11 12  1  0  0  0  0
 12 13  2  0  0  0  0
 12 18  1  0  0  0  0
 13 14  1  0  0  0  0
 13 24  1  0  0  0  0
 14 15  2  0  0  0  0
 14 25  1  0  0  0  0
 15 16  1  0  0  0  0
 15 26  1  0  0  0  0
 16 17  1  0  0  0  0
 16 18  2  0  0  0  0
 18 27  1  0  0  0  0
M  END
$$$$
