
 OpenBabel09162610133D

 36 39  0  0  0  0  0  0  0  0999 V2000
    2.3409    0.0890    0.8016 C   0  0  0  0  0  0  0  0  0  0  0  0
    0.9194    0.0068    0.3287 C   0  0  0  0  0  0  0  0  0  0  0  0
    0.2394    1.1513   -0.1043 C   0  0  0  0  0  0  0  0  0  0  0  0
   -1.0828    1.0633   -0.5371 C   0  0  0  0  0  0  0  0  0  0  0  0
   -1.7514   -0.1618   -0.4929 C   0  0  0  0  0  0  0  0  0  0  0  0
   -1.1039   -1.3054   -0.0016 C   0  0  0  0  0  0  0  0  0  0  0  0
   -1.8425   -2.5122    0.1230 N   0  0  0  0  0  0  0  0  0  0  0  0
   -2.8257   -2.7470   -0.7963 N   0  0  0  0  0  0  0  0  0  0  0  0
   -3.2145   -4.0056   -0.5888 C   0  0  0  0  0  0  0  0  0  0  0  0
   -4.1970   -4.6566   -1.4910 C   0  0  0  0  0  0  0  0  0  0  0  0
   -2.6108   -4.5368    0.5615 C   0  0  0  0  0  0  0  0  0  0  0  0
   -2.8013   -5.8102    1.2135 C   0  0  0  0  0  0  0  0  0  0  0  0
   -3.5515   -6.6840    0.7830 O   0  0  0  0  0  0  0  0  0  0  0  0
   -2.0662   -5.9983    2.3941 O   0  0  0  0  0  0  0  0  0  0  0  0
   -1.2352   -4.9837    2.9475 C   0  0  0  0  0  0  0  0  0  0  0  0
   -0.6332   -5.3080    4.1647 C   0  0  0  0  0  0  0  0  0  0  0  0
    0.1858   -4.3726    4.7839 C   0  0  0  0  0  0  0  0  0  0  0  0
    0.3482   -3.1148    4.2076 C   0  0  0  0  0  0  0  0  0  0  0  0
   -0.3060   -2.7864    3.0109 C   0  0  0  0  0  0  0  0  0  0  0  0
   -1.0640   -3.7329    2.3222 C   0  0  0  0  0  0  0  0  0  0  0  0
   -1.7565   -3.5560    1.0428 C   0  0  0  0  0  0  0  0  0  0  0  0
    0.2505   -1.2285    0.3400 C   0  0  0  0  0  0  0  0  0  0  0  0
    2.7160    1.1172    0.7715 H   0  0  0  0  0  0  0  0  0  0  0  0
    2.9873   -0.5281    0.1704 H   0  0  0  0  0  0  0  0  0  0  0  0
    2.4101   -0.2586    1.8381 H   0  0  0  0  0  0  0  0  0  0  0  0
    0.7372    2.1186   -0.1167 H   0  0  0  0  0  0  0  0  0  0  0  0
   -1.6013    1.9512   -0.8900 H   0  0  0  0  0  0  0  0  0  0  0  0
   -2.7933   -0.2025   -0.8086 H   0  0  0  0  0  0  0  0  0  0  0  0
   -4.4175   -4.0331   -2.3642 H   0  0  0  0  0  0  0  0  0  0  0  0
   -5.1360   -4.8468   -0.9617 H   0  0  0  0  0  0  0  0  0  0  0  0
   -3.8057   -5.6117   -1.8559 H   0  0  0  0  0  0  0  0  0  0  0  0
   -0.8059   -6.2774    4.6240 H   0  0  0  0  0  0  0  0  0  0  0  0
    0.6781   -4.6118    5.7233 H   0  0  0  0  0  0  0  0  0  0  0  0
    0.9761   -2.3735    4.6984 H   0  0  0  0  0  0  0  0  0  0  0  0
   -0.2037   -1.7654    2.6685 H   0  0  0  0  0  0  0  0  0  0  0  0
    0.8050   -2.1226    0.6163 H   0  0  0  0  0  0  0  0  0  0  0  0
  1  2  1  0  0  0  0
  1 23  1  0  0  0  0
  1 24  1  0  0  0  0
  1 25  1  0  0  0  0
  2  3  2  0  0  0  0
  2 22  1  0  0  0  0
  3  4  1  0  0  0  0
  3 26  1  0  0  0  0
  4  5  2  0  0  0  0
  4 27  1  0  0  0  0
  5  6  1  0  0  0  0
  5 28  1  0  0  0  0
  6  7  1  0  0  0  0
  6 22  2  0  0  0  0
  7  8  1  0  0  0  0
  7 21  1  0  0  0  0
  8  9  2  0  0  0  0
  9 10  1  0  0  0  0
  9 11  1  0  0  0  0
 10 29  1  0  0  0  0
 10 30  1  0  0  0  0
 10 31  1  0  0  0  0
 11 12  1  0  0  0  0
 11 21  2  0  0  0  0
 12 13  2  0  0  0  0
 12 14  1  0  0  0  0
 14 15  1  0  0  0  0
 15 16  1  0  0  0  0
 15 20  2  0  0  0  0
 16 17  2  0  0  0  0
 16 32  1  0  0  0  0
 17 18  1  0  0  0  0
 17 33  1  0  0  0  0
 18 19  2  0  0  0  0
 18 34  1  0  0  0  0
 19 20  1  0  0  0  0
 19 35  1  0  0  0  0
 20 21  1  0  0  0  0
 22 36  1  0  0  0  0
M  END
$$$$
