
 OpenBabel09162610133D

 38 41  0  0  0  0  0  0  0  0999 V2000
    1.7604   -0.5340   -0.8559 C   0  0  0  0  0  0  0  0  0  0  0  0
    2.6678   -0.7394   -1.9357 O   0  0  0  0  0  0  0  0  0  0  0  0
    3.6264   -1.6819   -1.6149 C   0  0  0  0  0  0  0  0  0  0  0  0
    3.6063   -2.8621   -2.3801 C   0  0  0  0  0  0  0  0  0  0  0  0
    4.4984   -3.8969   -2.1192 C   0  0  0  0  0  0  0  0  0  0  0  0
    5.4582   -3.7701   -1.1205 C   0  0  0  0  0  0  0  0  0  0  0  0
    5.6877   -2.4686   -0.6716 C   0  0  0  0  0  0  0  0  0  0  0  0
    6.8298   -1.9287   -0.1319 N   0  0  0  0  0  0  0  0  0  0  0  0
    6.6937   -0.5609   -0.0536 C   0  0  0  0  0  0  0  0  0  0  0  0
    5.3264   -0.3415   -0.0604 C   0  0  0  0  0  0  0  0  0  0  0  0
    4.7687   -1.4227   -0.8184 C   0  0  0  0  0  0  0  0  0  0  0  0
    4.7773    0.8462    0.5608 C   0  0  0  0  0  0  0  0  0  0  0  0
    3.7980    0.6846    1.5549 C   0  0  0  0  0  0  0  0  0  0  0  0
    3.3900    1.7629    2.3368 C   0  0  0  0  0  0  0  0  0  0  0  0
    3.9866    3.0056    2.1599 C   0  0  0  0  0  0  0  0  0  0  0  0
    4.9733    3.1726    1.1788 C   0  0  0  0  0  0  0  0  0  0  0  0
    5.3709    2.0977    0.3679 C   0  0  0  0  0  0  0  0  0  0  0  0
    6.4235    2.2732   -0.7088 C   0  0  0  0  0  0  0  0  0  0  0  0
    7.7042    1.6459   -0.4012 N   0  0  0  0  0  0  0  0  0  0  0  0
    8.8232    2.1401   -1.2016 C   0  0  0  0  0  0  0  0  0  0  0  0
    7.8508    0.3108   -0.0018 C   0  0  0  0  0  0  0  0  0  0  0  0
    8.9761   -0.1745    0.2381 O   0  0  0  0  0  0  0  0  0  0  0  0
    2.0207    0.3974   -0.3528 H   0  0  0  0  0  0  0  0  0  0  0  0
    1.7242   -1.3629   -0.1383 H   0  0  0  0  0  0  0  0  0  0  0  0
    0.7548   -0.4007   -1.2685 H   0  0  0  0  0  0  0  0  0  0  0  0
    2.8772   -2.9740   -3.1795 H   0  0  0  0  0  0  0  0  0  0  0  0
    4.4709   -4.8068   -2.7112 H   0  0  0  0  0  0  0  0  0  0  0  0
    6.0786   -4.6011   -0.8125 H   0  0  0  0  0  0  0  0  0  0  0  0
    7.7270   -2.3955   -0.1010 H   0  0  0  0  0  0  0  0  0  0  0  0
    3.3762   -0.3009    1.7505 H   0  0  0  0  0  0  0  0  0  0  0  0
    2.6346    1.6200    3.1068 H   0  0  0  0  0  0  0  0  0  0  0  0
    3.6972    3.8421    2.7920 H   0  0  0  0  0  0  0  0  0  0  0  0
    5.4463    4.1493    1.0811 H   0  0  0  0  0  0  0  0  0  0  0  0
    6.6012    3.3437   -0.8099 H   0  0  0  0  0  0  0  0  0  0  0  0
    6.0476    1.9149   -1.6773 H   0  0  0  0  0  0  0  0  0  0  0  0
    8.7129    3.2028   -1.4117 H   0  0  0  0  0  0  0  0  0  0  0  0
    8.8316    1.5911   -2.1406 H   0  0  0  0  0  0  0  0  0  0  0  0
    9.7747    1.9658   -0.6865 H   0  0  0  0  0  0  0  0  0  0  0  0
  1  2  1  0  0  0  0
  1 23  1  0  0  0  0
  1 24  1  0  0  0  0
  1 25  1  0  0  0  0
  2  3  1  0  0  0  0
  3  4  2  0  0  0  0
  3 11  1  0  0  0  0
  4  5  1  0  0  0  0
  4 26  1  0  0  0  0
  5  6  2  0  0  0  0
  5 27  1  0  0  0  0
  6  7  1  0  0  0  0
  6 28  1  0  0  0  0
  7  8  1  0  0  0  0
  7 11  2  0  0  0  0
  8  9  1  0  0  0  0
  8 29  1  0  0  0  0
  9 10  2  0  0  0  0
  9 21  1  0  0  0  0
 10 11  1  0  0  0  0
 10 12  1  0  0  0  0
 12 13  2  0  0  0  0
 12 17  1  0  0  0  0
 13 14  1  0  0  0  0
 13 30  1  0  0  0  0
 14 15  2  0  0  0  0
 14 31  1  0  0  0  0
 15 16  1  0  0  0  0
 15 32  1  0  0  0  0
 16 17  2  0  0  0  0
 16 33  1  0  0  0  0
 17 18  1  0  0  0  0
 18 19  1  0  0  0  0
 18 34  1  0  0  0  0
 18 35  1  0  0  0  0
 19 20  1  0  0  0  0
 19 21  1  0  0  0  0
 20 36  1  0  0  0  0
 20 37  1  0  0  0  0
 20 38  1  0  0  0  0
 21 22  2  0  0  0  0
M  END
$$$$
