
 OpenBabel09162610133D

 34 37  0  0  0  0  0  0  0  0999 V2000
    0.8107   -0.2269   -0.0287 C   0  0  0  0  0  0  0  0  0  0  0  0
    2.3070   -0.2404   -0.0162 C   0  0  0  0  0  0  0  0  0  0  0  0
    3.0088    1.0367    0.0528 C   0  0  0  0  0  0  0  0  0  0  0  0
    4.3518    1.1085    0.0245 C   0  0  0  0  0  0  0  0  0  0  0  0
    5.1163   -0.0820   -0.0677 C   0  0  0  0  0  0  0  0  0  0  0  0
    6.4124   -0.2648   -0.1246 N   0  0  0  0  0  0  0  0  0  0  0  0
    6.5984   -1.6290   -0.1548 C   0  0  0  0  0  0  0  0  0  0  0  0
    7.9414   -2.1800   -0.1293 C   0  0  0  0  0  0  0  0  0  0  0  0
    8.2421   -3.4554    0.3638 C   0  0  0  0  0  0  0  0  0  0  0  0
    9.5779   -3.8283    0.5772 C   0  0  0  0  0  0  0  0  0  0  0  0
   10.6093   -2.9239    0.3204 C   0  0  0  0  0  0  0  0  0  0  0  0
   10.3103   -1.6767   -0.2259 C   0  0  0  0  0  0  0  0  0  0  0  0
    8.9938   -1.3213   -0.4820 C   0  0  0  0  0  0  0  0  0  0  0  0
   11.2621   -0.7192   -0.4624 O   0  0  0  0  0  0  0  0  0  0  0  0
   12.3128   -0.8769    0.4907 C   0  0  0  0  0  0  0  0  0  0  0  0
   12.8657   -2.2927    0.4209 C   0  0  0  0  0  0  0  0  0  0  0  0
   11.8745   -3.2959    0.6903 O   0  0  0  0  0  0  0  0  0  0  0  0
    5.3860   -2.2855   -0.1373 C   0  0  0  0  0  0  0  0  0  0  0  0
    4.4326   -1.2905   -0.0968 N   0  0  0  0  0  0  0  0  0  0  0  0
    3.0395   -1.3750   -0.0835 C   0  0  0  0  0  0  0  0  0  0  0  0
    0.4150    0.7795   -0.2047 H   0  0  0  0  0  0  0  0  0  0  0  0
    0.4165   -0.5772    0.9309 H   0  0  0  0  0  0  0  0  0  0  0  0
    0.4239   -0.8690   -0.8260 H   0  0  0  0  0  0  0  0  0  0  0  0
    2.4263    1.9532    0.1311 H   0  0  0  0  0  0  0  0  0  0  0  0
    4.8787    2.0559    0.0765 H   0  0  0  0  0  0  0  0  0  0  0  0
    7.4529   -4.1477    0.6446 H   0  0  0  0  0  0  0  0  0  0  0  0
    9.8093   -4.8036    0.9966 H   0  0  0  0  0  0  0  0  0  0  0  0
    8.7828   -0.3272   -0.8707 H   0  0  0  0  0  0  0  0  0  0  0  0
   11.9247   -0.6381    1.4897 H   0  0  0  0  0  0  0  0  0  0  0  0
   13.0924   -0.1462    0.2528 H   0  0  0  0  0  0  0  0  0  0  0  0
   13.6597   -2.4083    1.1657 H   0  0  0  0  0  0  0  0  0  0  0  0
   13.2920   -2.4958   -0.5679 H   0  0  0  0  0  0  0  0  0  0  0  0
    5.1156   -3.3320   -0.1436 H   0  0  0  0  0  0  0  0  0  0  0  0
    2.6049   -2.3626   -0.1275 H   0  0  0  0  0  0  0  0  0  0  0  0
  1  2  1  0  0  0  0
  1 21  1  0  0  0  0
  1 22  1  0  0  0  0
  1 23  1  0  0  0  0
  2  3  1  0  0  0  0
  2 20  2  0  0  0  0
  3  4  2  0  0  0  0
  3 24  1  0  0  0  0
  4  5  1  0  0  0  0
  4 25  1  0  0  0  0
  5  6  2  0  0  0  0
  5 19  1  0  0  0  0
  6  7  1  0  0  0  0
  7  8  1  0  0  0  0
  7 18  2  0  0  0  0
  8  9  2  0  0  0  0
  8 13  1  0  0  0  0
  9 10  1  0  0  0  0
  9 26  1  0  0  0  0
 10 11  2  0  0  0  0
 10 27  1  0  0  0  0
 11 12  1  0  0  0  0
 11 17  1  0  0  0  0
 12 13  2  0  0  0  0
 12 14  1  0  0  0  0
 13 28  1  0  0  0  0
 14 15  1  0  0  0  0
 15 16  1  0  0  0  0
 15 29  1  0  0  0  0
 15 30  1  0  0  0  0
 16 17  1  0  0  0  0
 16 31  1  0  0  0  0
 16 32  1  0  0  0  0
 18 19  1  0  0  0  0
 18 33  1  0  0  0  0
 19 20  1  0  0  0  0
 20 34  1  0  0  0  0
M  END
$$$$
