
 OpenBabel09162610133D

 47 48  0  0  0  0  0  0  0  0999 V2000
    1.6246    0.2055    1.1565 C   0  0  0  0  0  0  0  0  0  0  0  0
    2.8481    0.1189    0.2872 C   0  0  0  0  0  0  0  0  0  0  0  0
    3.3786   -0.9956    0.2442 O   0  0  0  0  0  0  0  0  0  0  0  0
    3.3100    1.2283   -0.4544 N   0  0  0  0  0  0  0  0  0  0  0  0
    2.9371    2.6943   -0.1560 C   0  0  0  0  0  0  0  0  0  0  0  0
    1.5071    2.9662    0.3747 C   0  0  0  0  0  0  0  0  0  0  0  0
    3.8861    3.2982    0.9068 C   0  0  0  0  0  0  0  0  0  0  0  0
    2.9780    3.5348   -1.4552 C   0  0  0  0  0  0  0  0  0  0  0  0
    4.2514    3.3103   -2.2076 C   0  0  0  0  0  0  0  0  0  0  0  0
    5.0681    4.2246   -2.6181 N   0  0  0  0  0  0  0  0  0  0  0  0
    4.6532    5.5222   -2.2759 O   0  0  0  0  0  0  0  0  0  0  0  0
    5.6094    6.4163   -2.6703 C   0  0  0  0  0  0  0  0  0  0  0  0
    6.6808    6.1801   -3.2060 O   0  0  0  0  0  0  0  0  0  0  0  0
    5.2114    7.7906   -2.2855 C   0  0  0  0  0  0  0  0  0  0  0  0
    3.8726    8.1764   -2.1449 C   0  0  0  0  0  0  0  0  0  0  0  0
    3.5625    9.4917   -1.7884 C   0  0  0  0  0  0  0  0  0  0  0  0
    4.5841   10.4196   -1.5717 C   0  0  0  0  0  0  0  0  0  0  0  0
    5.9158   10.0425   -1.7210 C   0  0  0  0  0  0  0  0  0  0  0  0
    6.2301    8.7323   -2.0833 C   0  0  0  0  0  0  0  0  0  0  0  0
    4.5462    1.8878   -2.5631 C   0  0  0  0  0  0  0  0  0  0  0  0
    4.5772    0.9992   -1.3065 C   0  0  0  0  0  0  0  0  0  0  0  0
    5.8646    1.2621   -0.4889 C   0  0  0  0  0  0  0  0  0  0  0  0
    4.7462   -0.4365   -1.8923 C   0  0  0  0  0  0  0  0  0  0  0  0
    1.3185   -0.8105    1.4351 H   0  0  0  0  0  0  0  0  0  0  0  0
    0.7689    0.6173    0.6237 H   0  0  0  0  0  0  0  0  0  0  0  0
    1.8591    0.7327    2.0822 H   0  0  0  0  0  0  0  0  0  0  0  0
    1.3721    2.6500    1.4107 H   0  0  0  0  0  0  0  0  0  0  0  0
    0.7412    2.5145   -0.2639 H   0  0  0  0  0  0  0  0  0  0  0  0
    1.2984    4.0449    0.3950 H   0  0  0  0  0  0  0  0  0  0  0  0
    4.0764    2.5893    1.7189 H   0  0  0  0  0  0  0  0  0  0  0  0
    3.4640    4.2065    1.3527 H   0  0  0  0  0  0  0  0  0  0  0  0
    4.8465    3.6085    0.4889 H   0  0  0  0  0  0  0  0  0  0  0  0
    2.8193    4.5954   -1.2381 H   0  0  0  0  0  0  0  0  0  0  0  0
    2.1666    3.2216   -2.1264 H   0  0  0  0  0  0  0  0  0  0  0  0
    3.0612    7.4767   -2.3238 H   0  0  0  0  0  0  0  0  0  0  0  0
    2.5251    9.8015   -1.6866 H   0  0  0  0  0  0  0  0  0  0  0  0
    4.3407   11.4451   -1.2994 H   0  0  0  0  0  0  0  0  0  0  0  0
    6.7136   10.7655   -1.5638 H   0  0  0  0  0  0  0  0  0  0  0  0
    7.2711    8.4429   -2.2046 H   0  0  0  0  0  0  0  0  0  0  0  0
    5.4922    1.8353   -3.1162 H   0  0  0  0  0  0  0  0  0  0  0  0
    3.7493    1.5592   -3.2437 H   0  0  0  0  0  0  0  0  0  0  0  0
    6.0927    2.3237   -0.3885 H   0  0  0  0  0  0  0  0  0  0  0  0
    6.7445    0.8276   -0.9788 H   0  0  0  0  0  0  0  0  0  0  0  0
    5.7958    0.8310    0.5153 H   0  0  0  0  0  0  0  0  0  0  0  0
    3.8208   -0.8027   -2.3486 H   0  0  0  0  0  0  0  0  0  0  0  0
    5.0913   -1.1574   -1.1440 H   0  0  0  0  0  0  0  0  0  0  0  0
    5.5265   -0.4534   -2.6651 H   0  0  0  0  0  0  0  0  0  0  0  0
  1  2  1  0  0  0  0
  1 24  1  0  0  0  0
  1 25  1  0  0  0  0
  1 26  1  0  0  0  0
  2  3  2  0  0  0  0
  2  4  1  0  0  0  0
  4  5  1  0  0  0  0
  4 21  1  0  0  0  0
  5  6  1  0  0  0  0
  5  7  1  0  0  0  0
  5  8  1  0  0  0  0
  6 27  1  0  0  0  0
  6 28  1  0  0  0  0
  6 29  1  0  0  0  0
  7 30  1  0  0  0  0
  7 31  1  0  0  0  0
  7 32  1  0  0  0  0
  8  9  1  0  0  0  0
  8 33  1  0  0  0  0
  8 34  1  0  0  0  0
  9 10  2  0  0  0  0
  9 20  1  0  0  0  0
 10 11  1  0  0  0  0
 11 12  1  0  0  0  0
 12 13  2  0  0  0  0
 12 14  1  0  0  0  0
 14 15  2  0  0  0  0
 14 19  1  0  0  0  0
 15 16  1  0  0  0  0
 15 35  1  0  0  0  0
 16 17  2  0  0  0  0
 16 36  1  0  0  0  0
 17 18  1  0  0  0  0
 17 37  1  0  0  0  0
 18 19  2  0  0  0  0
 18 38  1  0  0  0  0
 19 39  1  0  0  0  0
 20 21  1  0  0  0  0
 20 40  1  0  0  0  0
 20 41  1  0  0  0  0
 21 22  1  0  0  0  0
 21 23  1  0  0  0  0
 22 42  1  0  0  0  0
 22 43  1  0  0  0  0
 22 44  1  0  0  0  0
 23 45  1  0  0  0  0
 23 46  1  0  0  0  0
 23 47  1  0  0  0  0
M  END
$$$$
