
 OpenBabel09162610133D

 28 30  0  0  0  0  0  0  0  0999 V2000
    1.0767   -0.0418    0.1557 O   0  0  0  0  0  0  0  0  0  0  0  0
    2.4508   -0.0816    0.1112 C   0  0  0  0  0  0  0  0  0  0  0  0
    3.0794   -1.3279    0.0905 C   0  0  0  0  0  0  0  0  0  0  0  0
    4.4650   -1.3876    0.0495 C   0  0  0  0  0  0  0  0  0  0  0  0
    5.2091   -0.2055    0.0228 C   0  0  0  0  0  0  0  0  0  0  0  0
    6.9340   -0.3744   -0.0273 Cl  0  0  0  0  0  0  0  0  0  0  0  0
    4.5793    1.0641    0.0272 C   0  0  0  0  0  0  0  0  0  0  0  0
    5.2754    2.2928   -0.0290 C   0  0  0  0  0  0  0  0  0  0  0  0
    4.5837    3.4967   -0.0749 C   0  0  0  0  0  0  0  0  0  0  0  0
    3.2060    3.4476   -0.0527 C   0  0  0  0  0  0  0  0  0  0  0  0
    2.5375    4.6593   -0.0851 O   0  0  0  0  0  0  0  0  0  0  0  0
    1.3285    4.6606   -0.7630 C   0  0  0  0  0  0  0  0  0  0  0  0
    0.3157    5.4444   -0.2290 C   0  0  0  0  0  0  0  0  0  0  0  0
   -0.9050    5.4869   -0.8957 C   0  0  0  0  0  0  0  0  0  0  0  0
   -1.0660    4.7503   -2.0646 C   0  0  0  0  0  0  0  0  0  0  0  0
    0.0171    4.0279   -2.5408 C   0  0  0  0  0  0  0  0  0  0  0  0
    1.2234    3.9984   -1.9385 N   0  0  0  0  0  0  0  0  0  0  0  0
    2.5059    2.3026    0.0857 N   0  0  0  0  0  0  0  0  0  0  0  0
    3.1663    1.1262    0.0814 C   0  0  0  0  0  0  0  0  0  0  0  0
    0.7170   -0.9301    0.0185 H   0  0  0  0  0  0  0  0  0  0  0  0
    2.5043   -2.2485    0.1091 H   0  0  0  0  0  0  0  0  0  0  0  0
    4.9618   -2.3545    0.0351 H   0  0  0  0  0  0  0  0  0  0  0  0
    6.3610    2.3206   -0.0592 H   0  0  0  0  0  0  0  0  0  0  0  0
    5.1067    4.4430   -0.1414 H   0  0  0  0  0  0  0  0  0  0  0  0
    0.4717    5.9972    0.6896 H   0  0  0  0  0  0  0  0  0  0  0  0
   -1.7250    6.0790   -0.5010 H   0  0  0  0  0  0  0  0  0  0  0  0
   -2.0119    4.7388   -2.5934 H   0  0  0  0  0  0  0  0  0  0  0  0
   -0.0605    3.4322   -3.4456 H   0  0  0  0  0  0  0  0  0  0  0  0
  1  2  1  0  0  0  0
  1 20  1  0  0  0  0
  2  3  2  0  0  0  0
  2 19  1  0  0  0  0
  3  4  1  0  0  0  0
  3 21  1  0  0  0  0
  4  5  2  0  0  0  0
  4 22  1  0  0  0  0
  5  6  1  0  0  0  0
  5  7  1  0  0  0  0
  7  8  1  0  0  0  0
  7 19  2  0  0  0  0
  8  9  2  0  0  0  0
  8 23  1  0  0  0  0
  9 10  1  0  0  0  0
  9 24  1  0  0  0  0
 10 11  1  0  0  0  0
 10 18  2  0  0  0  0
 11 12  1  0  0  0  0
 12 13  2  0  0  0  0
 12 17  1  0  0  0  0
 13 14  1  0  0  0  0
 13 25  1  0  0  0  0
 14 15  2  0  0  0  0
 14 26  1  0  0  0  0
 15 16  1  0  0  0  0
 15 27  1  0  0  0  0
 16 17  2  0  0  0  0
 16 28  1  0  0  0  0
 18 19  1  0  0  0  0
M  END
$$$$
