
 OpenBabel09162610133D

 32 34  0  0  0  0  0  0  0  0999 V2000
    1.2996    0.9512    0.0610 C   0  0  0  0  0  0  0  0  0  0  0  0
    2.3530   -0.0004   -0.0181 O   0  0  0  0  0  0  0  0  0  0  0  0
    2.9739   -0.1349   -1.2329 C   0  0  0  0  0  0  0  0  0  0  0  0
    2.6262    0.5421   -2.4002 C   0  0  0  0  0  0  0  0  0  0  0  0
    3.3397    0.3283   -3.5856 C   0  0  0  0  0  0  0  0  0  0  0  0
    4.4082   -0.5860   -3.6074 C   0  0  0  0  0  0  0  0  0  0  0  0
    5.1920   -0.8911   -4.7047 N   0  0  0  0  0  0  0  0  0  0  0  0
    6.0172   -1.8644   -4.3947 C   0  0  0  0  0  0  0  0  0  0  0  0
    6.9175   -2.4294   -5.3244 N   0  0  0  0  0  0  0  0  0  0  0  0
    7.4115   -3.7410   -5.3962 C   0  0  0  0  0  0  0  0  0  0  0  0
    6.9721   -4.8964   -4.5630 C   0  0  0  0  0  0  0  0  0  0  0  0
    8.3068   -3.8143   -6.4512 C   0  0  0  0  0  0  0  0  0  0  0  0
    8.3249   -2.5702   -7.0942 C   0  0  0  0  0  0  0  0  0  0  0  0
    7.4565   -1.7381   -6.4194 C   0  0  0  0  0  0  0  0  0  0  0  0
    7.1671   -0.3037   -6.7106 C   0  0  0  0  0  0  0  0  0  0  0  0
    6.0412   -2.3401   -2.7597 S   0  0  0  0  0  0  0  0  0  0  0  0
    4.7322   -1.2697   -2.4360 C   0  0  0  0  0  0  0  0  0  0  0  0
    4.0355   -1.0509   -1.2368 C   0  0  0  0  0  0  0  0  0  0  0  0
    0.9338    0.9606    1.0923 H   0  0  0  0  0  0  0  0  0  0  0  0
    0.4635    0.6677   -0.5868 H   0  0  0  0  0  0  0  0  0  0  0  0
    1.6591    1.9585   -0.1742 H   0  0  0  0  0  0  0  0  0  0  0  0
    1.8003    1.2437   -2.4310 H   0  0  0  0  0  0  0  0  0  0  0  0
    3.0687    0.8549   -4.4969 H   0  0  0  0  0  0  0  0  0  0  0  0
    6.0519   -4.7241   -4.0069 H   0  0  0  0  0  0  0  0  0  0  0  0
    7.7655   -5.1871   -3.8679 H   0  0  0  0  0  0  0  0  0  0  0  0
    6.7656   -5.7559   -5.2132 H   0  0  0  0  0  0  0  0  0  0  0  0
    8.8507   -4.7019   -6.7496 H   0  0  0  0  0  0  0  0  0  0  0  0
    8.9051   -2.2990   -7.9682 H   0  0  0  0  0  0  0  0  0  0  0  0
    7.7896    0.0553   -7.5377 H   0  0  0  0  0  0  0  0  0  0  0  0
    7.3894    0.3261   -5.8420 H   0  0  0  0  0  0  0  0  0  0  0  0
    6.1226   -0.1625   -7.0040 H   0  0  0  0  0  0  0  0  0  0  0  0
    4.3045   -1.5838   -0.3305 H   0  0  0  0  0  0  0  0  0  0  0  0
  1  2  1  0  0  0  0
  1 19  1  0  0  0  0
  1 20  1  0  0  0  0
  1 21  1  0  0  0  0
  2  3  1  0  0  0  0
  3  4  2  0  0  0  0
  3 18  1  0  0  0  0
  4  5  1  0  0  0  0
  4 22  1  0  0  0  0
  5  6  2  0  0  0  0
  5 23  1  0  0  0  0
  6  7  1  0  0  0  0
  6 17  1  0  0  0  0
  7  8  2  0  0  0  0
  8  9  1  0  0  0  0
  8 16  1  0  0  0  0
  9 10  1  0  0  0  0
  9 14  1  0  0  0  0
 10 11  1  0  0  0  0
 10 12  2  0  0  0  0
 11 24  1  0  0  0  0
 11 25  1  0  0  0  0
 11 26  1  0  0  0  0
 12 13  1  0  0  0  0
 12 27  1  0  0  0  0
 13 14  2  0  0  0  0
 13 28  1  0  0  0  0
 14 15  1  0  0  0  0
 15 29  1  0  0  0  0
 15 30  1  0  0  0  0
 15 31  1  0  0  0  0
 16 17  1  0  0  0  0
 17 18  2  0  0  0  0
 18 32  1  0  0  0  0
M  END
$$$$
