
 OpenBabel09162610133D

 39 41  0  0  0  0  0  0  0  0999 V2000
    2.5557    0.1851   -0.1781 C   0  0  0  0  0  0  0  0  0  0  0  0
    1.0568    0.1320   -0.2009 C   0  0  0  0  0  0  0  0  0  0  0  0
    0.3479    0.2412   -1.3964 C   0  0  0  0  0  0  0  0  0  0  0  0
   -1.0534    0.1909   -1.3964 C   0  0  0  0  0  0  0  0  0  0  0  0
   -1.7872    0.0251   -0.2042 C   0  0  0  0  0  0  0  0  0  0  0  0
   -3.2608   -0.0239   -0.2142 C   0  0  0  0  0  0  0  0  0  0  0  0
   -3.9831   -0.7218    0.7442 C   0  0  0  0  0  0  0  0  0  0  0  0
   -5.3905   -0.6508    0.8328 C   0  0  0  0  0  0  0  0  0  0  0  0
   -6.1423   -1.2254    1.9198 C   0  0  0  0  0  0  0  0  0  0  0  0
   -5.5365   -1.7520    3.0788 N   0  0  0  0  0  0  0  0  0  0  0  0
   -4.4344   -1.0073    3.7031 C   0  0  0  0  0  0  0  0  0  0  0  0
   -6.2949   -2.5534    4.0420 C   0  0  0  0  0  0  0  0  0  0  0  0
   -7.5435   -1.2451    1.7783 C   0  0  0  0  0  0  0  0  0  0  0  0
   -8.1912   -0.6739    0.6886 C   0  0  0  0  0  0  0  0  0  0  0  0
   -7.4528   -0.0219   -0.2932 C   0  0  0  0  0  0  0  0  0  0  0  0
   -6.0433    0.0090   -0.2388 C   0  0  0  0  0  0  0  0  0  0  0  0
   -5.2269    0.6531   -1.1988 C   0  0  0  0  0  0  0  0  0  0  0  0
   -5.7329    1.3527   -2.2547 O   0  0  0  0  0  0  0  0  0  0  0  0
   -3.8816    0.6738   -1.1825 N   0  0  0  0  0  0  0  0  0  0  0  0
   -1.0472   -0.0685    0.9868 C   0  0  0  0  0  0  0  0  0  0  0  0
    0.3506   -0.0245    0.9918 C   0  0  0  0  0  0  0  0  0  0  0  0
    2.9701    0.3087   -1.1844 H   0  0  0  0  0  0  0  0  0  0  0  0
    2.9582   -0.7438    0.2393 H   0  0  0  0  0  0  0  0  0  0  0  0
    2.8944    1.0293    0.4316 H   0  0  0  0  0  0  0  0  0  0  0  0
    0.8675    0.3702   -2.3420 H   0  0  0  0  0  0  0  0  0  0  0  0
   -1.5846    0.2907   -2.3441 H   0  0  0  0  0  0  0  0  0  0  0  0
   -3.4405   -1.3551    1.4389 H   0  0  0  0  0  0  0  0  0  0  0  0
   -4.2918   -0.0020    3.2936 H   0  0  0  0  0  0  0  0  0  0  0  0
   -3.5044   -1.5805    3.5963 H   0  0  0  0  0  0  0  0  0  0  0  0
   -4.5971   -0.8774    4.7782 H   0  0  0  0  0  0  0  0  0  0  0  0
   -7.1119   -3.1276    3.5960 H   0  0  0  0  0  0  0  0  0  0  0  0
   -6.6977   -1.9211    4.8412 H   0  0  0  0  0  0  0  0  0  0  0  0
   -5.6240   -3.2895    4.4999 H   0  0  0  0  0  0  0  0  0  0  0  0
   -8.1824   -1.6848    2.5385 H   0  0  0  0  0  0  0  0  0  0  0  0
   -9.2741   -0.7167    0.6145 H   0  0  0  0  0  0  0  0  0  0  0  0
   -8.0076    0.4481   -1.0989 H   0  0  0  0  0  0  0  0  0  0  0  0
   -6.6645    1.1358   -2.3612 H   0  0  0  0  0  0  0  0  0  0  0  0
   -1.5510   -0.1581    1.9460 H   0  0  0  0  0  0  0  0  0  0  0  0
    0.8796   -0.0901    1.9365 H   0  0  0  0  0  0  0  0  0  0  0  0
  1  2  1  0  0  0  0
  1 22  1  0  0  0  0
  1 23  1  0  0  0  0
  1 24  1  0  0  0  0
  2  3  2  0  0  0  0
  2 21  1  0  0  0  0
  3  4  1  0  0  0  0
  3 25  1  0  0  0  0
  4  5  2  0  0  0  0
  4 26  1  0  0  0  0
  5  6  1  0  0  0  0
  5 20  1  0  0  0  0
  6  7  2  0  0  0  0
  6 19  1  0  0  0  0
  7  8  1  0  0  0  0
  7 27  1  0  0  0  0
  8  9  2  0  0  0  0
  8 16  1  0  0  0  0
  9 10  1  0  0  0  0
  9 13  1  0  0  0  0
 10 11  1  0  0  0  0
 10 12  1  0  0  0  0
 11 28  1  0  0  0  0
 11 29  1  0  0  0  0
 11 30  1  0  0  0  0
 12 31  1  0  0  0  0
 12 32  1  0  0  0  0
 12 33  1  0  0  0  0
 13 14  2  0  0  0  0
 13 34  1  0  0  0  0
 14 15  1  0  0  0  0
 14 35  1  0  0  0  0
 15 16  2  0  0  0  0
 15 36  1  0  0  0  0
 16 17  1  0  0  0  0
 17 18  1  0  0  0  0
 17 19  2  0  0  0  0
 18 37  1  0  0  0  0
 20 21  2  0  0  0  0
 20 38  1  0  0  0  0
 21 39  1  0  0  0  0
M  END
$$$$
