
 OpenBabel09162610133D

 36 39  0  0  0  0  0  0  0  0999 V2000
    1.1733   -0.6783    0.6483 C   0  0  0  0  0  0  0  0  0  0  0  0
    2.6639   -0.4718    0.5314 C   0  0  0  0  0  0  0  0  0  0  0  0
    3.3787   -1.3029   -0.0344 O   0  0  0  0  0  0  0  0  0  0  0  0
    3.2693    0.7482    1.1583 C   0  0  0  0  0  0  0  0  0  0  0  0
    4.0881    1.6131    0.4994 C   0  0  0  0  0  0  0  0  0  0  0  0
    4.7813    2.6290    1.3588 C   0  0  0  0  0  0  0  0  0  0  0  0
    5.8209    3.4031    0.8134 C   0  0  0  0  0  0  0  0  0  0  0  0
    6.4895    4.3746    1.5708 C   0  0  0  0  0  0  0  0  0  0  0  0
    6.1386    4.5796    2.8925 C   0  0  0  0  0  0  0  0  0  0  0  0
    5.1366    3.7995    3.4618 C   0  0  0  0  0  0  0  0  0  0  0  0
    4.4574    2.8160    2.7168 C   0  0  0  0  0  0  0  0  0  0  0  0
    3.4830    1.9719    3.3063 N   0  0  0  0  0  0  0  0  0  0  0  0
    3.0867    2.0682    4.7039 C   0  0  0  0  0  0  0  0  0  0  0  0
    2.9261    0.9148    2.6049 C   0  0  0  0  0  0  0  0  0  0  0  0
    2.1537    0.1242    3.1462 O   0  0  0  0  0  0  0  0  0  0  0  0
    6.2708    3.1977   -0.5748 C   0  0  0  0  0  0  0  0  0  0  0  0
    7.2540    3.8004   -0.9945 O   0  0  0  0  0  0  0  0  0  0  0  0
    5.5071    2.3022   -1.4633 C   0  0  0  0  0  0  0  0  0  0  0  0
    5.8985    2.2640   -2.8139 C   0  0  0  0  0  0  0  0  0  0  0  0
    5.1630    1.5342   -3.7365 C   0  0  0  0  0  0  0  0  0  0  0  0
    4.0139    0.8816   -3.3116 C   0  0  0  0  0  0  0  0  0  0  0  0
    3.6282    0.9263   -1.9625 C   0  0  0  0  0  0  0  0  0  0  0  0
    4.3990    1.5782   -0.9836 C   0  0  0  0  0  0  0  0  0  0  0  0
    0.7739   -0.9964   -0.3175 H   0  0  0  0  0  0  0  0  0  0  0  0
    0.6651    0.2482    0.9306 H   0  0  0  0  0  0  0  0  0  0  0  0
    0.9702   -1.4484    1.3986 H   0  0  0  0  0  0  0  0  0  0  0  0
    7.2905    4.9662    1.1303 H   0  0  0  0  0  0  0  0  0  0  0  0
    6.6579    5.3265    3.4869 H   0  0  0  0  0  0  0  0  0  0  0  0
    4.9291    3.9873    4.5094 H   0  0  0  0  0  0  0  0  0  0  0  0
    3.4976    2.9173    5.2440 H   0  0  0  0  0  0  0  0  0  0  0  0
    3.3860    1.1474    5.2169 H   0  0  0  0  0  0  0  0  0  0  0  0
    1.9959    2.1455    4.7504 H   0  0  0  0  0  0  0  0  0  0  0  0
    6.7721    2.8182   -3.1525 H   0  0  0  0  0  0  0  0  0  0  0  0
    5.4687    1.4960   -4.7802 H   0  0  0  0  0  0  0  0  0  0  0  0
    3.4123    0.3266   -4.0276 H   0  0  0  0  0  0  0  0  0  0  0  0
    2.6995    0.4188   -1.7262 H   0  0  0  0  0  0  0  0  0  0  0  0
  1  2  1  0  0  0  0
  1 24  1  0  0  0  0
  1 25  1  0  0  0  0
  1 26  1  0  0  0  0
  2  3  2  0  0  0  0
  2  4  1  0  0  0  0
  4  5  2  0  0  0  0
  4 14  1  0  0  0  0
  5  6  1  0  0  0  0
  5 23  1  0  0  0  0
  6  7  2  0  0  0  0
  6 11  1  0  0  0  0
  7  8  1  0  0  0  0
  7 16  1  0  0  0  0
  8  9  2  0  0  0  0
  8 27  1  0  0  0  0
  9 10  1  0  0  0  0
  9 28  1  0  0  0  0
 10 11  2  0  0  0  0
 10 29  1  0  0  0  0
 11 12  1  0  0  0  0
 12 13  1  0  0  0  0
 12 14  1  0  0  0  0
 13 30  1  0  0  0  0
 13 31  1  0  0  0  0
 13 32  1  0  0  0  0
 14 15  2  0  0  0  0
 16 17  2  0  0  0  0
 16 18  1  0  0  0  0
 18 19  1  0  0  0  0
 18 23  2  0  0  0  0
 19 20  2  0  0  0  0
 19 33  1  0  0  0  0
 20 21  1  0  0  0  0
 20 34  1  0  0  0  0
 21 22  2  0  0  0  0
 21 35  1  0  0  0  0
 22 23  1  0  0  0  0
 22 36  1  0  0  0  0
M  END
$$$$
