
 OpenBabel09162610133D

 43 47  0  0  0  0  0  0  0  0999 V2000
    1.1788    0.2717   -0.3968 C   0  0  0  0  0  0  0  0  0  0  0  0
    2.5434    0.0177   -0.0771 O   0  0  0  0  0  0  0  0  0  0  0  0
    3.1149   -1.0387   -0.7336 C   0  0  0  0  0  0  0  0  0  0  0  0
    2.7485   -1.4906   -1.9960 C   0  0  0  0  0  0  0  0  0  0  0  0
    3.4220   -2.5742   -2.5526 C   0  0  0  0  0  0  0  0  0  0  0  0
    4.4368   -3.2132   -1.8307 C   0  0  0  0  0  0  0  0  0  0  0  0
    5.0538   -4.2751   -2.4998 O   0  0  0  0  0  0  0  0  0  0  0  0
    6.0564   -4.9139   -1.8413 C   0  0  0  0  0  0  0  0  0  0  0  0
    6.7403   -5.8815   -2.3850 N   0  0  0  0  0  0  0  0  0  0  0  0
    7.6336   -6.2836   -1.3697 C   0  0  0  0  0  0  0  0  0  0  0  0
    8.5550   -7.3117   -1.4880 C   0  0  0  0  0  0  0  0  0  0  0  0
    9.3428   -7.6282   -0.3809 C   0  0  0  0  0  0  0  0  0  0  0  0
    9.1711   -6.9417    0.8296 C   0  0  0  0  0  0  0  0  0  0  0  0
    8.2212   -5.9199    0.9461 C   0  0  0  0  0  0  0  0  0  0  0  0
    7.4852   -5.5628   -0.1685 C   0  0  0  0  0  0  0  0  0  0  0  0
    6.4469   -4.5694   -0.4602 C   0  0  0  0  0  0  0  0  0  0  0  0
    5.8966   -3.5302    0.1967 C   0  0  0  0  0  0  0  0  0  0  0  0
    6.2544   -3.0380    1.4614 N   0  0  0  0  0  0  0  0  0  0  0  0
    5.3422   -3.0374    2.6287 C   0  0  0  0  0  0  0  0  0  0  0  0
    5.5107   -1.7308    3.4352 C   0  0  0  0  0  0  0  0  0  0  0  0
    6.8801   -1.4914    3.8019 O   0  0  0  0  0  0  0  0  0  0  0  0
    7.7085   -1.4324    2.6267 C   0  0  0  0  0  0  0  0  0  0  0  0
    7.6477   -2.7583    1.8603 C   0  0  0  0  0  0  0  0  0  0  0  0
    4.8252   -2.7962   -0.5528 C   0  0  0  0  0  0  0  0  0  0  0  0
    4.1685   -1.6614   -0.0509 C   0  0  0  0  0  0  0  0  0  0  0  0
    0.7971    0.9999    0.3254 H   0  0  0  0  0  0  0  0  0  0  0  0
    0.5725   -0.6365   -0.3077 H   0  0  0  0  0  0  0  0  0  0  0  0
    1.0844    0.7122   -1.3939 H   0  0  0  0  0  0  0  0  0  0  0  0
    1.9714   -1.0048   -2.5754 H   0  0  0  0  0  0  0  0  0  0  0  0
    3.1646   -2.9213   -3.5501 H   0  0  0  0  0  0  0  0  0  0  0  0
    8.6521   -7.8565   -2.4210 H   0  0  0  0  0  0  0  0  0  0  0  0
   10.0795   -8.4252   -0.4515 H   0  0  0  0  0  0  0  0  0  0  0  0
    9.7761   -7.2155    1.6920 H   0  0  0  0  0  0  0  0  0  0  0  0
    8.0670   -5.4527    1.9065 H   0  0  0  0  0  0  0  0  0  0  0  0
    5.6003   -3.8918    3.2659 H   0  0  0  0  0  0  0  0  0  0  0  0
    4.2950   -3.1598    2.3314 H   0  0  0  0  0  0  0  0  0  0  0  0
    4.9234   -1.7846    4.3566 H   0  0  0  0  0  0  0  0  0  0  0  0
    5.1541   -0.8591    2.8756 H   0  0  0  0  0  0  0  0  0  0  0  0
    8.7346   -1.2445    2.9577 H   0  0  0  0  0  0  0  0  0  0  0  0
    7.3927   -0.5924    1.9976 H   0  0  0  0  0  0  0  0  0  0  0  0
    7.9874   -3.5408    2.5448 H   0  0  0  0  0  0  0  0  0  0  0  0
    8.3164   -2.7248    0.9946 H   0  0  0  0  0  0  0  0  0  0  0  0
    4.4582   -1.2330    0.8973 H   0  0  0  0  0  0  0  0  0  0  0  0
  1  2  1  0  0  0  0
  1 26  1  0  0  0  0
  1 27  1  0  0  0  0
  1 28  1  0  0  0  0
  2  3  1  0  0  0  0
  3  4  2  0  0  0  0
  3 25  1  0  0  0  0
  4  5  1  0  0  0  0
  4 29  1  0  0  0  0
  5  6  2  0  0  0  0
  5 30  1  0  0  0  0
  6  7  1  0  0  0  0
  6 24  1  0  0  0  0
  7  8  1  0  0  0  0
  8  9  2  0  0  0  0
  8 16  1  0  0  0  0
  9 10  1  0  0  0  0
 10 11  1  0  0  0  0
 10 15  2  0  0  0  0
 11 12  2  0  0  0  0
 11 31  1  0  0  0  0
 12 13  1  0  0  0  0
 12 32  1  0  0  0  0
 13 14  2  0  0  0  0
 13 33  1  0  0  0  0
 14 15  1  0  0  0  0
 14 34  1  0  0  0  0
 15 16  1  0  0  0  0
 16 17  2  0  0  0  0
 17 18  1  0  0  0  0
 17 24  1  0  0  0  0
 18 19  1  0  0  0  0
 18 23  1  0  0  0  0
 19 20  1  0  0  0  0
 19 35  1  0  0  0  0
 19 36  1  0  0  0  0
 20 21  1  0  0  0  0
 20 37  1  0  0  0  0
 20 38  1  0  0  0  0
 21 22  1  0  0  0  0
 22 23  1  0  0  0  0
 22 39  1  0  0  0  0
 22 40  1  0  0  0  0
 23 41  1  0  0  0  0
 23 42  1  0  0  0  0
 24 25  2  0  0  0  0
 25 43  1  0  0  0  0
M  END
$$$$
