
 OpenBabel09162610133D

 32 34  0  0  0  0  0  0  0  0999 V2000
    1.4650   -0.3737    0.2524 C   0  0  0  0  0  0  0  0  0  0  0  0
    2.7562    0.0328   -0.2183 O   0  0  0  0  0  0  0  0  0  0  0  0
    3.2929    1.1299    0.3707 C   0  0  0  0  0  0  0  0  0  0  0  0
    2.7352    1.8547    1.1823 O   0  0  0  0  0  0  0  0  0  0  0  0
    4.7058    1.2785   -0.0606 C   0  0  0  0  0  0  0  0  0  0  0  0
    5.4658   -0.0313    0.0709 C   0  0  0  0  0  0  0  0  0  0  0  0
    6.0963   -1.1178    0.1799 N   0  0  0  0  0  0  0  0  0  0  0  0
    5.3530    2.4509   -0.3524 C   0  0  0  0  0  0  0  0  0  0  0  0
    4.6029    3.7519   -0.4987 C   0  0  0  0  0  0  0  0  0  0  0  0
    3.2651    3.8836   -0.9080 C   0  0  0  0  0  0  0  0  0  0  0  0
    2.6429    5.1382   -0.9769 C   0  0  0  0  0  0  0  0  0  0  0  0
    3.3611    6.2956   -0.7064 C   0  0  0  0  0  0  0  0  0  0  0  0
    4.7054    6.1981   -0.3778 C   0  0  0  0  0  0  0  0  0  0  0  0
    5.3154    4.9395   -0.2827 C   0  0  0  0  0  0  0  0  0  0  0  0
    6.6495    4.9883    0.0296 O   0  0  0  0  0  0  0  0  0  0  0  0
    7.4098    3.8631   -0.1766 C   0  0  0  0  0  0  0  0  0  0  0  0
    8.7932    4.1061   -0.1222 C   0  0  0  0  0  0  0  0  0  0  0  0
    9.6975    3.0622   -0.2626 C   0  0  0  0  0  0  0  0  0  0  0  0
    9.2085    1.7907   -0.5029 C   0  0  0  0  0  0  0  0  0  0  0  0
    7.8260    1.5632   -0.6101 C   0  0  0  0  0  0  0  0  0  0  0  0
    6.8736    2.5777   -0.4002 C   0  0  0  0  0  0  0  0  0  0  0  0
    1.4955   -1.4530    0.4188 H   0  0  0  0  0  0  0  0  0  0  0  0
    0.7249   -0.1587   -0.5235 H   0  0  0  0  0  0  0  0  0  0  0  0
    1.1693    0.1073    1.1892 H   0  0  0  0  0  0  0  0  0  0  0  0
    2.6584    3.0236   -1.1698 H   0  0  0  0  0  0  0  0  0  0  0  0
    1.5918    5.2046   -1.2446 H   0  0  0  0  0  0  0  0  0  0  0  0
    2.8815    7.2696   -0.7637 H   0  0  0  0  0  0  0  0  0  0  0  0
    5.2887    7.0973   -0.1980 H   0  0  0  0  0  0  0  0  0  0  0  0
    9.1599    5.1174    0.0381 H   0  0  0  0  0  0  0  0  0  0  0  0
   10.7666    3.2440   -0.1956 H   0  0  0  0  0  0  0  0  0  0  0  0
    9.9005    0.9565   -0.6128 H   0  0  0  0  0  0  0  0  0  0  0  0
    7.5582    0.5476   -0.8709 H   0  0  0  0  0  0  0  0  0  0  0  0
  1  2  1  0  0  0  0
  1 22  1  0  0  0  0
  1 23  1  0  0  0  0
  1 24  1  0  0  0  0
  2  3  1  0  0  0  0
  3  4  2  0  0  0  0
  3  5  1  0  0  0  0
  5  6  1  0  0  0  0
  5  8  2  0  0  0  0
  6  7  3  0  0  0  0
  8  9  1  0  0  0  0
  8 21  1  0  0  0  0
  9 10  1  0  0  0  0
  9 14  2  0  0  0  0
 10 11  2  0  0  0  0
 10 25  1  0  0  0  0
 11 12  1  0  0  0  0
 11 26  1  0  0  0  0
 12 13  2  0  0  0  0
 12 27  1  0  0  0  0
 13 14  1  0  0  0  0
 13 28  1  0  0  0  0
 14 15  1  0  0  0  0
 15 16  1  0  0  0  0
 16 17  1  0  0  0  0
 16 21  2  0  0  0  0
 17 18  2  0  0  0  0
 17 29  1  0  0  0  0
 18 19  1  0  0  0  0
 18 30  1  0  0  0  0
 19 20  2  0  0  0  0
 19 31  1  0  0  0  0
 20 21  1  0  0  0  0
 20 32  1  0  0  0  0
M  END
$$$$
