
 OpenBabel09162610133D

 35 37  0  0  0  0  0  0  0  0999 V2000
    1.0229    0.0010    0.0873 C   0  0  0  0  0  0  0  0  0  0  0  0
    2.5214    0.0423    0.0947 C   0  0  0  0  0  0  0  0  0  0  0  0
    3.2130    1.2473    0.1003 C   0  0  0  0  0  0  0  0  0  0  0  0
    4.6078    1.2216    0.1181 C   0  0  0  0  0  0  0  0  0  0  0  0
    5.2793   -0.0054    0.1282 C   0  0  0  0  0  0  0  0  0  0  0  0
    4.5215   -1.1539    0.1146 C   0  0  0  0  0  0  0  0  0  0  0  0
    3.1589   -1.1499    0.0994 N   0  0  0  0  0  0  0  0  0  0  0  0
    5.1677   -2.4806    0.1176 C   0  0  0  0  0  0  0  0  0  0  0  0
    4.4966   -3.5083    0.1239 O   0  0  0  0  0  0  0  0  0  0  0  0
    6.6535   -2.5134    0.1001 C   0  0  0  0  0  0  0  0  0  0  0  0
    7.3428   -4.1134    0.1479 Cl  0  0  0  0  0  0  0  0  0  0  0  0
    7.4321   -1.4117    0.1054 C   0  0  0  0  0  0  0  0  0  0  0  0
    8.8387   -1.3947    0.0537 N   0  0  0  0  0  0  0  0  0  0  0  0
    9.6573   -0.7565    1.0934 C   0  0  0  0  0  0  0  0  0  0  0  0
   10.6412    0.2292    0.4672 C   0  0  0  0  0  0  0  0  0  0  0  0
   11.4653   -0.4238   -0.6412 C   0  0  0  0  0  0  0  0  0  0  0  0
   10.5650   -1.1220   -1.6574 C   0  0  0  0  0  0  0  0  0  0  0  0
    9.6110   -2.1007   -0.9754 C   0  0  0  0  0  0  0  0  0  0  0  0
    6.7464   -0.0623    0.1532 C   0  0  0  0  0  0  0  0  0  0  0  0
    7.3735    0.9931    0.1995 O   0  0  0  0  0  0  0  0  0  0  0  0
    0.5876    1.0052    0.0856 H   0  0  0  0  0  0  0  0  0  0  0  0
    0.6622   -0.5258    0.9765 H   0  0  0  0  0  0  0  0  0  0  0  0
    0.6694   -0.5266   -0.8042 H   0  0  0  0  0  0  0  0  0  0  0  0
    2.6843    2.1962    0.0935 H   0  0  0  0  0  0  0  0  0  0  0  0
    5.1642    2.1571    0.1225 H   0  0  0  0  0  0  0  0  0  0  0  0
   10.2096   -1.5373    1.6319 H   0  0  0  0  0  0  0  0  0  0  0  0
    9.0395   -0.2452    1.8406 H   0  0  0  0  0  0  0  0  0  0  0  0
   11.3108    0.6240    1.2397 H   0  0  0  0  0  0  0  0  0  0  0  0
   10.0929    1.0824    0.0507 H   0  0  0  0  0  0  0  0  0  0  0  0
   12.1564   -1.1542   -0.2030 H   0  0  0  0  0  0  0  0  0  0  0  0
   12.0755    0.3341   -1.1450 H   0  0  0  0  0  0  0  0  0  0  0  0
   11.1780   -1.6537   -2.3936 H   0  0  0  0  0  0  0  0  0  0  0  0
    9.9847   -0.3676   -2.2035 H   0  0  0  0  0  0  0  0  0  0  0  0
   10.1735   -2.9227   -0.5165 H   0  0  0  0  0  0  0  0  0  0  0  0
    8.9554   -2.5322   -1.7405 H   0  0  0  0  0  0  0  0  0  0  0  0
  1  2  1  0  0  0  0
  1 21  1  0  0  0  0
  1 22  1  0  0  0  0
  1 23  1  0  0  0  0
  2  3  2  0  0  0  0
  2  7  1  0  0  0  0
  3  4  1  0  0  0  0
  3 24  1  0  0  0  0
  4  5  2  0  0  0  0
  4 25  1  0  0  0  0
  5  6  1  0  0  0  0
  5 19  1  0  0  0  0
  6  7  2  0  0  0  0
  6  8  1  0  0  0  0
  8  9  2  0  0  0  0
  8 10  1  0  0  0  0
 10 11  1  0  0  0  0
 10 12  2  0  0  0  0
 12 13  1  0  0  0  0
 12 19  1  0  0  0  0
 13 14  1  0  0  0  0
 13 18  1  0  0  0  0
 14 15  1  0  0  0  0
 14 26  1  0  0  0  0
 14 27  1  0  0  0  0
 15 16  1  0  0  0  0
 15 28  1  0  0  0  0
 15 29  1  0  0  0  0
 16 17  1  0  0  0  0
 16 30  1  0  0  0  0
 16 31  1  0  0  0  0
 17 18  1  0  0  0  0
 17 32  1  0  0  0  0
 17 33  1  0  0  0  0
 18 34  1  0  0  0  0
 18 35  1  0  0  0  0
 19 20  2  0  0  0  0
M  END
$$$$
