
 OpenBabel09162610133D

 32 35  0  0  0  0  0  0  0  0999 V2000
    0.8834    0.0868    0.1311 C   0  0  0  0  0  0  0  0  0  0  0  0
   -0.3206    0.0719    0.1416 C   0  0  0  0  0  0  0  0  0  0  0  0
   -1.7441   -0.0073    0.1317 C   0  0  0  0  0  0  0  0  0  0  0  0
   -2.5269    1.1145    0.1353 N   0  0  0  0  0  0  0  0  0  0  0  0
   -3.7661    0.6603    0.1098 C   0  0  0  0  0  0  0  0  0  0  0  0
   -3.8071   -0.7108    0.0955 N   0  0  0  0  0  0  0  0  0  0  0  0
   -2.5112   -1.1467    0.0992 C   0  0  0  0  0  0  0  0  0  0  0  0
   -2.1712   -2.5767    0.0526 C   0  0  0  0  0  0  0  0  0  0  0  0
   -3.3042   -3.4571    0.1325 O   0  0  0  0  0  0  0  0  0  0  0  0
   -4.5709   -2.9558    0.0928 C   0  0  0  0  0  0  0  0  0  0  0  0
   -5.5963   -3.9016    0.0908 C   0  0  0  0  0  0  0  0  0  0  0  0
   -6.9297   -3.4927    0.0753 C   0  0  0  0  0  0  0  0  0  0  0  0
   -7.2410   -2.1325    0.0633 C   0  0  0  0  0  0  0  0  0  0  0  0
   -6.2213   -1.1749    0.0648 C   0  0  0  0  0  0  0  0  0  0  0  0
   -4.8880   -1.5981    0.0794 C   0  0  0  0  0  0  0  0  0  0  0  0
    2.3140    0.0742    0.0852 C   0  0  0  0  0  0  0  0  0  0  0  0
    3.0429    1.2596    0.0118 C   0  0  0  0  0  0  0  0  0  0  0  0
    4.4346    1.2074   -0.0747 C   0  0  0  0  0  0  0  0  0  0  0  0
    5.0499   -0.0353   -0.0831 C   0  0  0  0  0  0  0  0  0  0  0  0
    4.3772   -1.2030    0.0006 N   0  0  0  0  0  0  0  0  0  0  0  0
    3.0263   -1.1200    0.0851 C   0  0  0  0  0  0  0  0  0  0  0  0
   -4.6521    1.2805    0.1018 H   0  0  0  0  0  0  0  0  0  0  0  0
   -1.5094   -2.8315    0.8871 H   0  0  0  0  0  0  0  0  0  0  0  0
   -1.6411   -2.8087   -0.8773 H   0  0  0  0  0  0  0  0  0  0  0  0
   -5.3542   -4.9615    0.1047 H   0  0  0  0  0  0  0  0  0  0  0  0
   -7.7232   -4.2366    0.0762 H   0  0  0  0  0  0  0  0  0  0  0  0
   -8.2836   -1.8213    0.0556 H   0  0  0  0  0  0  0  0  0  0  0  0
   -6.4983   -0.1252    0.0582 H   0  0  0  0  0  0  0  0  0  0  0  0
    2.5377    2.2215    0.0147 H   0  0  0  0  0  0  0  0  0  0  0  0
    5.0250    2.1148   -0.1395 H   0  0  0  0  0  0  0  0  0  0  0  0
    6.1299   -0.1252   -0.1639 H   0  0  0  0  0  0  0  0  0  0  0  0
    2.5202   -2.0797    0.1507 H   0  0  0  0  0  0  0  0  0  0  0  0
  1  2  3  0  0  0  0
  1 16  1  0  0  0  0
  2  3  1  0  0  0  0
  3  4  1  0  0  0  0
  3  7  2  0  0  0  0
  4  5  2  0  0  0  0
  5  6  1  0  0  0  0
  5 22  1  0  0  0  0
  6  7  1  0  0  0  0
  6 15  1  0  0  0  0
  7  8  1  0  0  0  0
  8  9  1  0  0  0  0
  8 23  1  0  0  0  0
  8 24  1  0  0  0  0
  9 10  1  0  0  0  0
 10 11  1  0  0  0  0
 10 15  2  0  0  0  0
 11 12  2  0  0  0  0
 11 25  1  0  0  0  0
 12 13  1  0  0  0  0
 12 26  1  0  0  0  0
 13 14  2  0  0  0  0
 13 27  1  0  0  0  0
 14 15  1  0  0  0  0
 14 28  1  0  0  0  0
 16 17  2  0  0  0  0
 16 21  1  0  0  0  0
 17 18  1  0  0  0  0
 17 29  1  0  0  0  0
 18 19  2  0  0  0  0
 18 30  1  0  0  0  0
 19 20  1  0  0  0  0
 19 31  1  0  0  0  0
 20 21  2  0  0  0  0
 21 32  1  0  0  0  0
M  END
$$$$
