
 OpenBabel09162610133D

 35 37  0  0  0  0  0  0  0  0999 V2000
    1.3701   -0.2885    0.3634 C   0  0  0  0  0  0  0  0  0  0  0  0
    2.7250    0.1722    0.0841 N   0  0  0  0  0  0  0  0  0  0  0  0
    3.4440   -0.5048   -0.9914 C   0  0  0  0  0  0  0  0  0  0  0  0
    3.4479    0.8928    1.0369 C   0  0  0  0  0  0  0  0  0  0  0  0
    2.9522    1.1647    2.3236 C   0  0  0  0  0  0  0  0  0  0  0  0
    3.6685    1.9476    3.2586 C   0  0  0  0  0  0  0  0  0  0  0  0
    4.9028    2.4885    2.9276 C   0  0  0  0  0  0  0  0  0  0  0  0
    5.5735    3.4523    3.6995 N   0  0  0  0  0  0  0  0  0  0  0  0
    5.6144    3.2595    4.9371 N   0  0  0  0  0  0  0  0  0  0  0  0
    6.0719    4.4522    5.5353 C   0  0  0  0  0  0  0  0  0  0  0  0
    7.0154    5.3322    4.9602 C   0  0  0  0  0  0  0  0  0  0  0  0
    7.1973    6.6263    5.4455 C   0  0  0  0  0  0  0  0  0  0  0  0
    6.4486    7.0939    6.5237 C   0  0  0  0  0  0  0  0  0  0  0  0
    5.5973    6.1999    7.2004 C   0  0  0  0  0  0  0  0  0  0  0  0
    4.7336    6.2892    8.3219 C   0  0  0  0  0  0  0  0  0  0  0  0
    4.2831    5.0135    8.5622 C   0  0  0  0  0  0  0  0  0  0  0  0
    4.6696    4.1735    7.5647 O   0  0  0  0  0  0  0  0  0  0  0  0
    5.4711    4.8955    6.7207 C   0  0  0  0  0  0  0  0  0  0  0  0
    5.4154    2.2224    1.6601 C   0  0  0  0  0  0  0  0  0  0  0  0
    4.7054    1.4388    0.7374 C   0  0  0  0  0  0  0  0  0  0  0  0
    0.9173   -0.7511   -0.5216 H   0  0  0  0  0  0  0  0  0  0  0  0
    0.7190    0.5505    0.6345 H   0  0  0  0  0  0  0  0  0  0  0  0
    1.3631   -1.0337    1.1656 H   0  0  0  0  0  0  0  0  0  0  0  0
    2.7852   -1.1654   -1.5667 H   0  0  0  0  0  0  0  0  0  0  0  0
    4.2546   -1.1254   -0.5942 H   0  0  0  0  0  0  0  0  0  0  0  0
    3.8540    0.2188   -1.7028 H   0  0  0  0  0  0  0  0  0  0  0  0
    1.9821    0.7881    2.6365 H   0  0  0  0  0  0  0  0  0  0  0  0
    3.2202    2.1603    4.2262 H   0  0  0  0  0  0  0  0  0  0  0  0
    7.5653    5.0107    4.0809 H   0  0  0  0  0  0  0  0  0  0  0  0
    7.9077    7.2899    4.9456 H   0  0  0  0  0  0  0  0  0  0  0  0
    6.5482    8.1232    6.8566 H   0  0  0  0  0  0  0  0  0  0  0  0
    4.5129    7.1682    8.9117 H   0  0  0  0  0  0  0  0  0  0  0  0
    3.6895    4.5666    9.3467 H   0  0  0  0  0  0  0  0  0  0  0  0
    6.3604    2.6667    1.3599 H   0  0  0  0  0  0  0  0  0  0  0  0
    5.1474    1.3131   -0.2436 H   0  0  0  0  0  0  0  0  0  0  0  0
  1  2  1  0  0  0  0
  1 21  1  0  0  0  0
  1 22  1  0  0  0  0
  1 23  1  0  0  0  0
  2  3  1  0  0  0  0
  2  4  1  0  0  0  0
  3 24  1  0  0  0  0
  3 25  1  0  0  0  0
  3 26  1  0  0  0  0
  4  5  2  0  0  0  0
  4 20  1  0  0  0  0
  5  6  1  0  0  0  0
  5 27  1  0  0  0  0
  6  7  2  0  0  0  0
  6 28  1  0  0  0  0
  7  8  1  0  0  0  0
  7 19  1  0  0  0  0
  8  9  2  3  0  0  0
  9 10  1  0  0  0  0
 10 11  2  0  0  0  0
 10 18  1  0  0  0  0
 11 12  1  0  0  0  0
 11 29  1  0  0  0  0
 12 13  2  0  0  0  0
 12 30  1  0  0  0  0
 13 14  1  0  0  0  0
 13 31  1  0  0  0  0
 14 15  1  0  0  0  0
 14 18  2  0  0  0  0
 15 16  2  0  0  0  0
 15 32  1  0  0  0  0
 16 17  1  0  0  0  0
 16 33  1  0  0  0  0
 17 18  1  0  0  0  0
 19 20  2  0  0  0  0
 19 34  1  0  0  0  0
 20 35  1  0  0  0  0
M  END
$$$$
