
 OpenBabel09162610133D

 36 39  0  0  0  0  0  0  0  0999 V2000
   -1.5634    2.1266   -1.9589 C   0  0  0  0  0  0  0  0  0  0  0  0
   -0.9307    1.0446   -1.1345 C   0  0  0  0  0  0  0  0  0  0  0  0
    0.3124    1.2439   -0.5305 C   0  0  0  0  0  0  0  0  0  0  0  0
    0.8720    0.2416    0.2545 C   0  0  0  0  0  0  0  0  0  0  0  0
    0.1887   -0.9609    0.4514 C   0  0  0  0  0  0  0  0  0  0  0  0
   -1.0648   -1.1944   -0.1345 C   0  0  0  0  0  0  0  0  0  0  0  0
   -1.7791   -2.4237    0.0618 N   0  0  0  0  0  0  0  0  0  0  0  0
   -2.7470   -2.6777   -0.9090 N   0  0  0  0  0  0  0  0  0  0  0  0
   -3.4010   -3.7508   -0.9152 N   0  0  0  0  0  0  0  0  0  0  0  0
   -3.1902   -4.6565    0.0644 C   0  0  0  0  0  0  0  0  0  0  0  0
   -4.0043   -6.1560    0.1309 S   0  0  0  0  0  0  0  0  0  0  0  0
   -3.2172   -6.5831    1.5821 C   0  0  0  0  0  0  0  0  0  0  0  0
   -2.3605   -5.5948    2.0288 C   0  0  0  0  0  0  0  0  0  0  0  0
   -2.3210   -4.5021    1.1103 C   0  0  0  0  0  0  0  0  0  0  0  0
   -1.5304   -3.2928    1.1387 C   0  0  0  0  0  0  0  0  0  0  0  0
   -0.7426   -3.0994    2.0617 O   0  0  0  0  0  0  0  0  0  0  0  0
   -1.5803   -5.7254    3.3031 C   0  0  0  0  0  0  0  0  0  0  0  0
   -2.1389   -6.8432    4.1942 C   0  0  0  0  0  0  0  0  0  0  0  0
   -2.4234   -8.1156    3.3843 C   0  0  0  0  0  0  0  0  0  0  0  0
   -3.4836   -7.8742    2.2947 C   0  0  0  0  0  0  0  0  0  0  0  0
   -1.6033   -0.1745   -0.9415 C   0  0  0  0  0  0  0  0  0  0  0  0
   -0.8953    2.9869   -2.0709 H   0  0  0  0  0  0  0  0  0  0  0  0
   -2.4829    2.4745   -1.4773 H   0  0  0  0  0  0  0  0  0  0  0  0
   -1.7981    1.7519   -2.9600 H   0  0  0  0  0  0  0  0  0  0  0  0
    0.8532    2.1768   -0.6656 H   0  0  0  0  0  0  0  0  0  0  0  0
    1.8447    0.3900    0.7175 H   0  0  0  0  0  0  0  0  0  0  0  0
    0.6906   -1.7144    1.0514 H   0  0  0  0  0  0  0  0  0  0  0  0
   -1.6029   -4.7834    3.8621 H   0  0  0  0  0  0  0  0  0  0  0  0
   -0.5337   -5.9398    3.0547 H   0  0  0  0  0  0  0  0  0  0  0  0
   -3.0689   -6.5036    4.6687 H   0  0  0  0  0  0  0  0  0  0  0  0
   -1.4275   -7.0565    4.9996 H   0  0  0  0  0  0  0  0  0  0  0  0
   -2.7593   -8.9165    4.0522 H   0  0  0  0  0  0  0  0  0  0  0  0
   -1.4891   -8.4567    2.9195 H   0  0  0  0  0  0  0  0  0  0  0  0
   -4.4755   -7.8260    2.7598 H   0  0  0  0  0  0  0  0  0  0  0  0
   -3.4829   -8.7178    1.5955 H   0  0  0  0  0  0  0  0  0  0  0  0
   -2.5796   -0.2987   -1.4066 H   0  0  0  0  0  0  0  0  0  0  0  0
  1  2  1  0  0  0  0
  1 22  1  0  0  0  0
  1 23  1  0  0  0  0
  1 24  1  0  0  0  0
  2  3  2  0  0  0  0
  2 21  1  0  0  0  0
  3  4  1  0  0  0  0
  3 25  1  0  0  0  0
  4  5  2  0  0  0  0
  4 26  1  0  0  0  0
  5  6  1  0  0  0  0
  5 27  1  0  0  0  0
  6  7  1  0  0  0  0
  6 21  2  0  0  0  0
  7  8  1  0  0  0  0
  7 15  1  0  0  0  0
  8  9  2  0  0  0  0
  9 10  1  0  0  0  0
 10 11  1  0  0  0  0
 10 14  2  0  0  0  0
 11 12  1  0  0  0  0
 12 13  2  0  0  0  0
 12 20  1  0  0  0  0
 13 14  1  0  0  0  0
 13 17  1  0  0  0  0
 14 15  1  0  0  0  0
 15 16  2  0  0  0  0
 17 18  1  0  0  0  0
 17 28  1  0  0  0  0
 17 29  1  0  0  0  0
 18 19  1  0  0  0  0
 18 30  1  0  0  0  0
 18 31  1  0  0  0  0
 19 20  1  0  0  0  0
 19 32  1  0  0  0  0
 19 33  1  0  0  0  0
 20 34  1  0  0  0  0
 20 35  1  0  0  0  0
 21 36  1  0  0  0  0
M  END
$$$$
