
 OpenBabel09162610133D

 29 30  0  0  0  0  0  0  0  0999 V2000
    0.9487   -0.3381    0.0803 O   0  0  0  0  0  0  0  0  0  0  0  0
    2.1534   -0.1228    0.0108 C   0  0  0  0  0  0  0  0  0  0  0  0
    2.7562    0.5962   -1.0009 N   0  0  0  0  0  0  0  0  0  0  0  0
    2.0811    1.2530   -2.0569 C   0  0  0  0  0  0  0  0  0  0  0  0
    0.7252    1.5912   -2.0071 C   0  0  0  0  0  0  0  0  0  0  0  0
    0.1022    2.1706   -3.1138 C   0  0  0  0  0  0  0  0  0  0  0  0
   -1.5776    2.5432   -3.0475 Cl  0  0  0  0  0  0  0  0  0  0  0  0
    0.8203    2.4411   -4.2728 C   0  0  0  0  0  0  0  0  0  0  0  0
    2.1793    2.1457   -4.3073 C   0  0  0  0  0  0  0  0  0  0  0  0
    3.0849    2.4826   -5.7323 Cl  0  0  0  0  0  0  0  0  0  0  0  0
    2.8145    1.5648   -3.2062 C   0  0  0  0  0  0  0  0  0  0  0  0
    3.0290   -0.6496    0.9471 N   0  0  0  0  0  0  0  0  0  0  0  0
    2.5116   -1.6073    1.9303 C   0  0  0  0  0  0  0  0  0  0  0  0
    2.6512   -1.0571    3.3507 C   0  0  0  0  0  0  0  0  0  0  0  0
    4.0158   -0.6923    3.6208 O   0  0  0  0  0  0  0  0  0  0  0  0
    4.4577    0.3211    2.7046 C   0  0  0  0  0  0  0  0  0  0  0  0
    4.3809   -0.1688    1.2507 C   0  0  0  0  0  0  0  0  0  0  0  0
    3.7219    0.3641   -1.1662 H   0  0  0  0  0  0  0  0  0  0  0  0
    0.1309    1.4082   -1.1167 H   0  0  0  0  0  0  0  0  0  0  0  0
    0.3258    2.8765   -5.1361 H   0  0  0  0  0  0  0  0  0  0  0  0
    3.8753    1.3352   -3.2684 H   0  0  0  0  0  0  0  0  0  0  0  0
    3.1169   -2.5149    1.8223 H   0  0  0  0  0  0  0  0  0  0  0  0
    1.4699   -1.8766    1.7307 H   0  0  0  0  0  0  0  0  0  0  0  0
    2.3597   -1.8214    4.0778 H   0  0  0  0  0  0  0  0  0  0  0  0
    2.0100   -0.1812    3.5046 H   0  0  0  0  0  0  0  0  0  0  0  0
    5.4917    0.5721    2.9600 H   0  0  0  0  0  0  0  0  0  0  0  0
    3.8469    1.2200    2.8496 H   0  0  0  0  0  0  0  0  0  0  0  0
    5.0542   -1.0215    1.1083 H   0  0  0  0  0  0  0  0  0  0  0  0
    4.6904    0.6379    0.5827 H   0  0  0  0  0  0  0  0  0  0  0  0
  1  2  2  0  0  0  0
  2  3  1  0  0  0  0
  2 12  1  0  0  0  0
  3  4  1  0  0  0  0
  3 18  1  0  0  0  0
  4  5  2  0  0  0  0
  4 11  1  0  0  0  0
  5  6  1  0  0  0  0
  5 19  1  0  0  0  0
  6  7  1  0  0  0  0
  6  8  2  0  0  0  0
  8  9  1  0  0  0  0
  8 20  1  0  0  0  0
  9 10  1  0  0  0  0
  9 11  2  0  0  0  0
 11 21  1  0  0  0  0
 12 13  1  0  0  0  0
 12 17  1  0  0  0  0
 13 14  1  0  0  0  0
 13 22  1  0  0  0  0
 13 23  1  0  0  0  0
 14 15  1  0  0  0  0
 14 24  1  0  0  0  0
 14 25  1  0  0  0  0
 15 16  1  0  0  0  0
 16 17  1  0  0  0  0
 16 26  1  0  0  0  0
 16 27  1  0  0  0  0
 17 28  1  0  0  0  0
 17 29  1  0  0  0  0
M  END
$$$$
