
 OpenBabel09162610133D

 32 35  0  0  0  0  0  0  0  0999 V2000
    1.1626    0.1716    0.1328 N   0  0  0  0  0  0  0  0  0  0  0  0
    2.5328    0.1558    0.0905 C   0  0  0  0  0  0  0  0  0  0  0  0
    3.1134    1.3286    0.1092 N   0  0  0  0  0  0  0  0  0  0  0  0
    4.4723    1.3084    0.0560 N   0  0  0  0  0  0  0  0  0  0  0  0
    5.2798    2.4080    0.0660 C   0  0  0  0  0  0  0  0  0  0  0  0
    6.5667    1.9225   -0.0073 C   0  0  0  0  0  0  0  0  0  0  0  0
    7.7704    2.7375   -0.0323 C   0  0  0  0  0  0  0  0  0  0  0  0
    7.8091    3.9964    0.5853 C   0  0  0  0  0  0  0  0  0  0  0  0
    8.9629    4.7829    0.5297 C   0  0  0  0  0  0  0  0  0  0  0  0
   10.0903    4.3187   -0.1437 C   0  0  0  0  0  0  0  0  0  0  0  0
   10.0697    3.0638   -0.7500 C   0  0  0  0  0  0  0  0  0  0  0  0
    8.9170    2.2741   -0.6892 C   0  0  0  0  0  0  0  0  0  0  0  0
    6.5645    0.5442   -0.0864 N   0  0  0  0  0  0  0  0  0  0  0  0
    5.2907    0.2038   -0.0264 C   0  0  0  0  0  0  0  0  0  0  0  0
    4.6727   -1.1048   -0.0347 C   0  0  0  0  0  0  0  0  0  0  0  0
    5.4128   -2.2884   -0.0809 C   0  0  0  0  0  0  0  0  0  0  0  0
    4.7530   -3.5191   -0.0728 C   0  0  0  0  0  0  0  0  0  0  0  0
    3.3588   -3.5679   -0.0155 C   0  0  0  0  0  0  0  0  0  0  0  0
    2.6141   -2.3869    0.0373 C   0  0  0  0  0  0  0  0  0  0  0  0
    3.2717   -1.1525    0.0227 C   0  0  0  0  0  0  0  0  0  0  0  0
    0.7983    1.1098   -0.0109 H   0  0  0  0  0  0  0  0  0  0  0  0
    0.6763   -0.5131   -0.4318 H   0  0  0  0  0  0  0  0  0  0  0  0
    4.8670    3.4034    0.1120 H   0  0  0  0  0  0  0  0  0  0  0  0
    6.9459    4.3755    1.1261 H   0  0  0  0  0  0  0  0  0  0  0  0
    8.9788    5.7563    1.0133 H   0  0  0  0  0  0  0  0  0  0  0  0
   10.9855    4.9331   -0.1929 H   0  0  0  0  0  0  0  0  0  0  0  0
   10.9488    2.6986   -1.2742 H   0  0  0  0  0  0  0  0  0  0  0  0
    8.9120    1.2967   -1.1680 H   0  0  0  0  0  0  0  0  0  0  0  0
    6.4998   -2.2519   -0.1151 H   0  0  0  0  0  0  0  0  0  0  0  0
    5.3288   -4.4414   -0.1034 H   0  0  0  0  0  0  0  0  0  0  0  0
    2.8518   -4.5304   -0.0029 H   0  0  0  0  0  0  0  0  0  0  0  0
    1.5333   -2.4524    0.1047 H   0  0  0  0  0  0  0  0  0  0  0  0
  1  2  1  0  0  0  0
  1 21  1  0  0  0  0
  1 22  1  0  0  0  0
  2  3  2  0  0  0  0
  2 20  1  0  0  0  0
  3  4  1  0  0  0  0
  4  5  1  0  0  0  0
  4 14  1  0  0  0  0
  5  6  2  0  0  0  0
  5 23  1  0  0  0  0
  6  7  1  0  0  0  0
  6 13  1  0  0  0  0
  7  8  2  0  0  0  0
  7 12  1  0  0  0  0
  8  9  1  0  0  0  0
  8 24  1  0  0  0  0
  9 10  2  0  0  0  0
  9 25  1  0  0  0  0
 10 11  1  0  0  0  0
 10 26  1  0  0  0  0
 11 12  2  0  0  0  0
 11 27  1  0  0  0  0
 12 28  1  0  0  0  0
 13 14  2  0  0  0  0
 14 15  1  0  0  0  0
 15 16  1  0  0  0  0
 15 20  2  0  0  0  0
 16 17  2  0  0  0  0
 16 29  1  0  0  0  0
 17 18  1  0  0  0  0
 17 30  1  0  0  0  0
 18 19  2  0  0  0  0
 18 31  1  0  0  0  0
 19 20  1  0  0  0  0
 19 32  1  0  0  0  0
M  END
$$$$
