
 OpenBabel09162610133D

 24 25  0  0  0  0  0  0  0  0999 V2000
    1.1988   -0.0507   -1.0094 C   0  0  0  0  0  0  0  0  0  0  0  0
    2.6263   -0.0152   -1.0194 O   0  0  0  0  0  0  0  0  0  0  0  0
    3.1531    1.1423   -0.5257 C   0  0  0  0  0  0  0  0  0  0  0  0
    2.4630    2.0769   -0.1324 O   0  0  0  0  0  0  0  0  0  0  0  0
    4.6009    1.1045   -0.5158 C   0  0  0  0  0  0  0  0  0  0  0  0
    5.4251    2.4444    0.2039 S   0  0  0  0  0  0  0  0  0  0  0  0
    6.9730    1.7833   -0.1082 C   0  0  0  0  0  0  0  0  0  0  0  0
    6.8841    0.5750   -0.7537 C   0  0  0  0  0  0  0  0  0  0  0  0
    7.9953   -0.1763   -1.1430 C   0  0  0  0  0  0  0  0  0  0  0  0
    9.3142    0.1348   -0.9677 O   0  0  0  0  0  0  0  0  0  0  0  0
    7.6528   -1.3610   -1.7868 C   0  0  0  0  0  0  0  0  0  0  0  0
    6.2961   -1.7251   -2.0003 C   0  0  0  0  0  0  0  0  0  0  0  0
    6.0257   -3.0444   -2.7284 C   0  0  0  0  0  0  0  0  0  0  0  0
    7.1651   -3.7116   -3.0856 F   0  0  0  0  0  0  0  0  0  0  0  0
    5.3109   -3.9317   -1.9792 F   0  0  0  0  0  0  0  0  0  0  0  0
    5.3293   -2.8788   -3.8890 F   0  0  0  0  0  0  0  0  0  0  0  0
    5.1974   -0.9821   -1.6125 N   0  0  0  0  0  0  0  0  0  0  0  0
    5.5128    0.1823   -0.9836 C   0  0  0  0  0  0  0  0  0  0  0  0
    0.8792   -1.0385   -1.3512 H   0  0  0  0  0  0  0  0  0  0  0  0
    0.7932    0.7026   -1.6921 H   0  0  0  0  0  0  0  0  0  0  0  0
    0.8162    0.1021    0.0051 H   0  0  0  0  0  0  0  0  0  0  0  0
    7.8451    2.3390    0.2047 H   0  0  0  0  0  0  0  0  0  0  0  0
    9.3877    0.9962   -0.5267 H   0  0  0  0  0  0  0  0  0  0  0  0
    8.4531   -2.0127   -2.1347 H   0  0  0  0  0  0  0  0  0  0  0  0
  1  2  1  0  0  0  0
  1 19  1  0  0  0  0
  1 20  1  0  0  0  0
  1 21  1  0  0  0  0
  2  3  1  0  0  0  0
  3  4  2  0  0  0  0
  3  5  1  0  0  0  0
  5  6  1  0  0  0  0
  5 18  2  0  0  0  0
  6  7  1  0  0  0  0
  7  8  2  0  0  0  0
  7 22  1  0  0  0  0
  8  9  1  0  0  0  0
  8 18  1  0  0  0  0
  9 10  1  0  0  0  0
  9 11  2  0  0  0  0
 10 23  1  0  0  0  0
 11 12  1  0  0  0  0
 11 24  1  0  0  0  0
 12 13  1  0  0  0  0
 12 17  2  0  0  0  0
 13 14  1  0  0  0  0
 13 15  1  0  0  0  0
 13 16  1  0  0  0  0
 17 18  1  0  0  0  0
M  END
$$$$
