
 OpenBabel09162610133D

 32 36  0  0  0  0  0  0  0  0999 V2000
    1.3923    0.0321   -0.2309 C   0  0  0  0  0  0  0  0  0  0  0  0
    0.7509    1.0331   -0.9618 C   0  0  0  0  0  0  0  0  0  0  0  0
   -0.6392    1.1819   -0.8907 C   0  0  0  0  0  0  0  0  0  0  0  0
   -1.4036    0.3349   -0.0811 C   0  0  0  0  0  0  0  0  0  0  0  0
   -2.8699    0.4224   -0.0811 C   0  0  0  0  0  0  0  0  0  0  0  0
   -3.6426    0.7956   -1.0909 N   0  0  0  0  0  0  0  0  0  0  0  0
   -4.9170    0.3146   -0.8556 N   0  0  0  0  0  0  0  0  0  0  0  0
   -4.8893   -0.2955    0.3068 C   0  0  0  0  0  0  0  0  0  0  0  0
   -6.0981   -1.3628    0.9472 S   0  0  0  0  0  0  0  0  0  0  0  0
   -5.2500   -1.9065    2.3139 C   0  0  0  0  0  0  0  0  0  0  0  0
   -5.4884   -2.9416    3.1294 C   0  0  0  0  0  0  0  0  0  0  0  0
   -4.5465   -2.8894    4.2381 C   0  0  0  0  0  0  0  0  0  0  0  0
   -4.3914   -3.7073    5.3411 C   0  0  0  0  0  0  0  0  0  0  0  0
   -3.4327   -3.3507    6.3020 C   0  0  0  0  0  0  0  0  0  0  0  0
   -2.6415   -2.1952    6.1492 C   0  0  0  0  0  0  0  0  0  0  0  0
   -2.7716   -1.3977    5.0160 C   0  0  0  0  0  0  0  0  0  0  0  0
   -3.7274   -1.7757    4.0886 C   0  0  0  0  0  0  0  0  0  0  0  0
   -4.0430   -1.2000    2.7999 C   0  0  0  0  0  0  0  0  0  0  0  0
   -3.2910   -0.3390    2.2100 N   0  0  0  0  0  0  0  0  0  0  0  0
   -3.6870   -0.0535    0.9325 N   0  0  0  0  0  0  0  0  0  0  0  0
   -0.7370   -0.6760    0.6375 C   0  0  0  0  0  0  0  0  0  0  0  0
    0.6483   -0.8243    0.5712 C   0  0  0  0  0  0  0  0  0  0  0  0
    2.4698   -0.0890   -0.2976 H   0  0  0  0  0  0  0  0  0  0  0  0
    1.3321    1.6897   -1.6027 H   0  0  0  0  0  0  0  0  0  0  0  0
   -1.1239    1.9514   -1.4878 H   0  0  0  0  0  0  0  0  0  0  0  0
   -6.2805   -3.6684    3.0437 H   0  0  0  0  0  0  0  0  0  0  0  0
   -4.9940   -4.6000    5.4734 H   0  0  0  0  0  0  0  0  0  0  0  0
   -3.3003   -3.9710    7.1864 H   0  0  0  0  0  0  0  0  0  0  0  0
   -1.9198   -1.9274    6.9188 H   0  0  0  0  0  0  0  0  0  0  0  0
   -2.1618   -0.5130    4.8654 H   0  0  0  0  0  0  0  0  0  0  0  0
   -1.2871   -1.3928    1.2431 H   0  0  0  0  0  0  0  0  0  0  0  0
    1.1357   -1.6171    1.1310 H   0  0  0  0  0  0  0  0  0  0  0  0
  1  2  2  0  0  0  0
  1 22  1  0  0  0  0
  1 23  1  0  0  0  0
  2  3  1  0  0  0  0
  2 24  1  0  0  0  0
  3  4  2  0  0  0  0
  3 25  1  0  0  0  0
  4  5  1  0  0  0  0
  4 21  1  0  0  0  0
  5  6  2  0  0  0  0
  5 20  1  0  0  0  0
  6  7  1  0  0  0  0
  7  8  2  0  0  0  0
  8  9  1  0  0  0  0
  8 20  1  0  0  0  0
  9 10  1  0  0  0  0
 10 11  2  0  0  0  0
 10 18  1  0  0  0  0
 11 12  1  0  0  0  0
 11 26  1  0  0  0  0
 12 13  1  0  0  0  0
 12 17  2  0  0  0  0
 13 14  2  0  0  0  0
 13 27  1  0  0  0  0
 14 15  1  0  0  0  0
 14 28  1  0  0  0  0
 15 16  2  0  0  0  0
 15 29  1  0  0  0  0
 16 17  1  0  0  0  0
 16 30  1  0  0  0  0
 17 18  1  0  0  0  0
 18 19  2  0  0  0  0
 19 20  1  0  0  0  0
 21 22  2  0  0  0  0
 21 31  1  0  0  0  0
 22 32  1  0  0  0  0
M  END
$$$$
