
 OpenBabel09162610133D

 29 30  0  0  0  0  0  0  0  0999 V2000
    1.0391    0.1114    0.0585 C   0  0  0  0  0  0  0  0  0  0  0  0
    2.5311   -0.0244    0.0615 C   0  0  0  0  0  0  0  0  0  0  0  0
    3.1279   -1.2667    0.0485 C   0  0  0  0  0  0  0  0  0  0  0  0
    4.5024   -1.2790    0.1112 C   0  0  0  0  0  0  0  0  0  0  0  0
    5.2579   -2.4706    0.0977 O   0  0  0  0  0  0  0  0  0  0  0  0
    4.7608   -3.6496    0.6159 C   0  0  0  0  0  0  0  0  0  0  0  0
    3.6679   -3.8381    1.1253 O   0  0  0  0  0  0  0  0  0  0  0  0
    5.7953   -4.6907    0.5427 C   0  0  0  0  0  0  0  0  0  0  0  0
    6.6487   -4.8084   -0.5531 C   0  0  0  0  0  0  0  0  0  0  0  0
    6.5319   -3.9922   -1.6094 F   0  0  0  0  0  0  0  0  0  0  0  0
    7.6281   -5.7983   -0.5917 C   0  0  0  0  0  0  0  0  0  0  0  0
    7.7395   -6.6838    0.4728 C   0  0  0  0  0  0  0  0  0  0  0  0
    8.6843   -7.6312    0.4463 F   0  0  0  0  0  0  0  0  0  0  0  0
    6.8834   -6.6035    1.5628 C   0  0  0  0  0  0  0  0  0  0  0  0
    5.9121   -5.6067    1.5890 C   0  0  0  0  0  0  0  0  0  0  0  0
    5.1086   -5.5399    2.6594 F   0  0  0  0  0  0  0  0  0  0  0  0
    5.2549   -0.1636    0.1161 N   0  0  0  0  0  0  0  0  0  0  0  0
    4.5870    1.0022    0.1000 C   0  0  0  0  0  0  0  0  0  0  0  0
    5.3777    2.2730    0.0917 C   0  0  0  0  0  0  0  0  0  0  0  0
    3.2465    1.1174    0.0837 N   0  0  0  0  0  0  0  0  0  0  0  0
    0.5425   -0.8644    0.0563 H   0  0  0  0  0  0  0  0  0  0  0  0
    0.7164    0.6621   -0.8299 H   0  0  0  0  0  0  0  0  0  0  0  0
    0.7152    0.6539    0.9523 H   0  0  0  0  0  0  0  0  0  0  0  0
    2.5319   -2.1660   -0.0000 H   0  0  0  0  0  0  0  0  0  0  0  0
    8.2938   -5.8800   -1.4444 H   0  0  0  0  0  0  0  0  0  0  0  0
    6.9720   -7.3044    2.3859 H   0  0  0  0  0  0  0  0  0  0  0  0
    6.4528    2.0717    0.0930 H   0  0  0  0  0  0  0  0  0  0  0  0
    5.1336    2.8693    0.9761 H   0  0  0  0  0  0  0  0  0  0  0  0
    5.1351    2.8550   -0.8029 H   0  0  0  0  0  0  0  0  0  0  0  0
  1  2  1  0  0  0  0
  1 21  1  0  0  0  0
  1 22  1  0  0  0  0
  1 23  1  0  0  0  0
  2  3  2  0  0  0  0
  2 20  1  0  0  0  0
  3  4  1  0  0  0  0
  3 24  1  0  0  0  0
  4  5  1  0  0  0  0
  4 17  2  0  0  0  0
  5  6  1  0  0  0  0
  6  7  2  0  0  0  0
  6  8  1  0  0  0  0
  8  9  2  0  0  0  0
  8 15  1  0  0  0  0
  9 10  1  0  0  0  0
  9 11  1  0  0  0  0
 11 12  2  0  0  0  0
 11 25  1  0  0  0  0
 12 13  1  0  0  0  0
 12 14  1  0  0  0  0
 14 15  2  0  0  0  0
 14 26  1  0  0  0  0
 15 16  1  0  0  0  0
 17 18  1  0  0  0  0
 18 19  1  0  0  0  0
 18 20  2  0  0  0  0
 19 27  1  0  0  0  0
 19 28  1  0  0  0  0
 19 29  1  0  0  0  0
M  END
$$$$
