
 OpenBabel09162610133D

 32 33  0  0  0  0  0  0  0  0999 V2000
    0.8863   -0.0600   -0.0711 C   0  0  0  0  0  0  0  0  0  0  0  0
    2.4005    0.0350   -0.0253 C   0  0  0  0  0  0  0  0  0  0  0  0
    3.0695    1.1007    0.3028 N   0  0  0  0  0  0  0  0  0  0  0  0
    2.4023    2.2341    0.6338 N   0  0  0  0  0  0  0  0  0  0  0  0
    3.1574    3.3607    1.0360 C   0  0  0  0  0  0  0  0  0  0  0  0
    4.5519    3.4081    0.9307 C   0  0  0  0  0  0  0  0  0  0  0  0
    5.2645    4.5679    1.2523 C   0  0  0  0  0  0  0  0  0  0  0  0
    4.5955    5.7285    1.6609 C   0  0  0  0  0  0  0  0  0  0  0  0
    5.3845    6.9676    1.9723 C   0  0  0  0  0  0  0  0  0  0  0  0
    3.1973    5.6905    1.7526 C   0  0  0  0  0  0  0  0  0  0  0  0
    2.2895    7.0759    2.2494 Cl  0  0  0  0  0  0  0  0  0  0  0  0
    2.4883    4.5254    1.4342 C   0  0  0  0  0  0  0  0  0  0  0  0
    3.1727   -1.1973   -0.3893 C   0  0  0  0  0  0  0  0  0  0  0  0
    2.5541   -2.4004   -0.7453 C   0  0  0  0  0  0  0  0  0  0  0  0
    3.3336   -3.5176   -1.0457 C   0  0  0  0  0  0  0  0  0  0  0  0
    4.7112   -3.3962   -0.9873 C   0  0  0  0  0  0  0  0  0  0  0  0
    5.3446   -2.2505   -0.6629 N   0  0  0  0  0  0  0  0  0  0  0  0
    4.5629   -1.1776   -0.3733 C   0  0  0  0  0  0  0  0  0  0  0  0
    0.3806    0.8628    0.2068 H   0  0  0  0  0  0  0  0  0  0  0  0
    0.5532   -0.8403    0.6217 H   0  0  0  0  0  0  0  0  0  0  0  0
    0.5678   -0.3137   -1.0864 H   0  0  0  0  0  0  0  0  0  0  0  0
    1.5218    2.1661    1.1399 H   0  0  0  0  0  0  0  0  0  0  0  0
    5.1002    2.5292    0.6003 H   0  0  0  0  0  0  0  0  0  0  0  0
    6.3490    4.5550    1.1667 H   0  0  0  0  0  0  0  0  0  0  0  0
    6.4555    6.8153    1.7982 H   0  0  0  0  0  0  0  0  0  0  0  0
    5.2578    7.2493    3.0224 H   0  0  0  0  0  0  0  0  0  0  0  0
    5.0675    7.7951    1.3289 H   0  0  0  0  0  0  0  0  0  0  0  0
    1.4030    4.5333    1.4854 H   0  0  0  0  0  0  0  0  0  0  0  0
    1.4744   -2.4991   -0.7934 H   0  0  0  0  0  0  0  0  0  0  0  0
    2.8740   -4.4625   -1.3158 H   0  0  0  0  0  0  0  0  0  0  0  0
    5.3585   -4.2403   -1.2064 H   0  0  0  0  0  0  0  0  0  0  0  0
    5.1163   -0.2777   -0.1180 H   0  0  0  0  0  0  0  0  0  0  0  0
  1  2  1  0  0  0  0
  1 19  1  0  0  0  0
  1 20  1  0  0  0  0
  1 21  1  0  0  0  0
  2  3  2  0  0  0  0
  2 13  1  0  0  0  0
  3  4  1  0  0  0  0
  4  5  1  0  0  0  0
  4 22  1  0  0  0  0
  5  6  2  0  0  0  0
  5 12  1  0  0  0  0
  6  7  1  0  0  0  0
  6 23  1  0  0  0  0
  7  8  2  0  0  0  0
  7 24  1  0  0  0  0
  8  9  1  0  0  0  0
  8 10  1  0  0  0  0
  9 25  1  0  0  0  0
  9 26  1  0  0  0  0
  9 27  1  0  0  0  0
 10 11  1  0  0  0  0
 10 12  2  0  0  0  0
 12 28  1  0  0  0  0
 13 14  2  0  0  0  0
 13 18  1  0  0  0  0
 14 15  1  0  0  0  0
 14 29  1  0  0  0  0
 15 16  2  0  0  0  0
 15 30  1  0  0  0  0
 16 17  1  0  0  0  0
 16 31  1  0  0  0  0
 17 18  2  0  0  0  0
 18 32  1  0  0  0  0
M  END
$$$$
