
 OpenBabel09162610133D

 25 26  0  0  1  0  0  0  0  0999 V2000
    5.0998   -2.0245   -1.0307 F   0  0  0  0  0  0  0  0  0  0  0  0
    4.5262   -0.8114   -1.0611 C   0  0  0  0  0  0  0  0  0  0  0  0
    4.9186   -0.1217    0.0304 F   0  0  0  0  0  0  0  0  0  0  0  0
    5.0077   -0.1476   -2.1403 F   0  0  0  0  0  0  0  0  0  0  0  0
    2.9765   -0.8689   -1.1268 C   0  0  2  0  0  0  0  0  0  0  0  0
    2.4089   -2.2821   -0.9563 C   0  0  0  0  0  0  0  0  0  0  0  0
    2.4948   -3.1109   -2.2174 C   0  0  0  0  0  0  0  0  0  0  0  0
    2.4030   -4.5083   -2.1206 C   0  0  0  0  0  0  0  0  0  0  0  0
    2.4739   -5.3023   -3.2683 C   0  0  0  0  0  0  0  0  0  0  0  0
    2.6289   -4.7068   -4.5122 C   0  0  0  0  0  0  0  0  0  0  0  0
    2.7460   -5.7786   -6.0632 Br  0  0  0  0  0  0  0  0  0  0  0  0
    2.7005   -3.3186   -4.6285 C   0  0  0  0  0  0  0  0  0  0  0  0
    2.6193   -2.5075   -3.4827 C   0  0  0  0  0  0  0  0  0  0  0  0
    2.7169   -1.0186   -3.6480 C   0  0  0  0  0  0  0  0  0  0  0  0
    2.3773   -0.2633   -2.4035 N   0  3  0  0  0  0  0  0  0  0  0  0
    2.5875   -0.2352   -0.3213 H   0  0  0  0  0  0  0  0  0  0  0  0
    1.3479   -2.2104   -0.6841 H   0  0  0  0  0  0  0  0  0  0  0  0
    2.9195   -2.7898   -0.1291 H   0  0  0  0  0  0  0  0  0  0  0  0
    2.2836   -4.9965   -1.1558 H   0  0  0  0  0  0  0  0  0  0  0  0
    2.4114   -6.3862   -3.1757 H   0  0  0  0  0  0  0  0  0  0  0  0
    2.8226   -2.8747   -5.6142 H   0  0  0  0  0  0  0  0  0  0  0  0
    2.0131   -0.6657   -4.4089 H   0  0  0  0  0  0  0  0  0  0  0  0
    3.7298   -0.7313   -3.9435 H   0  0  0  0  0  0  0  0  0  0  0  0
    1.3537   -0.2293   -2.3163 H   0  0  0  0  0  0  0  0  0  0  0  0
    2.7000    0.7097   -2.5153 H   0  0  0  0  0  0  0  0  0  0  0  0
  1  2  1  0  0  0  0
  2  3  1  0  0  0  0
  2  4  1  0  0  0  0
  5  6  1  0  0  0  0
  5 15  1  0  0  0  0
  5  2  1  0  0  0  0
  5 16  1  1  0  0  0
  6  7  1  0  0  0  0
  6 17  1  0  0  0  0
  6 18  1  0  0  0  0
  7  8  1  0  0  0  0
  7 13  2  0  0  0  0
  8  9  2  0  0  0  0
  8 19  1  0  0  0  0
  9 10  1  0  0  0  0
  9 20  1  0  0  0  0
 10 11  1  0  0  0  0
 10 12  2  0  0  0  0
 12 13  1  0  0  0  0
 12 21  1  0  0  0  0
 13 14  1  0  0  0  0
 14 15  1  0  0  0  0
 14 22  1  0  0  0  0
 14 23  1  0  0  0  0
 15 24  1  0  0  0  0
 15 25  1  0  0  0  0
M  CHG  1  15   1
M  END
$$$$
