
 OpenBabel09162610133D

 21 23  0  0  0  0  0  0  0  0999 V2000
    1.2473    0.0679    0.0511 N   0  0  0  0  0  0  0  0  0  0  0  0
    2.5790   -0.0595    0.0584 C   0  0  0  0  0  0  0  0  0  0  0  0
    3.1826   -1.2315    0.0600 N   0  0  0  0  0  0  0  0  0  0  0  0
    4.5179   -0.9957    0.0640 C   0  0  0  0  0  0  0  0  0  0  0  0
    4.9346    0.3086    0.0662 C   0  0  0  0  0  0  0  0  0  0  0  0
    3.6225    1.3446    0.0648 S   0  0  0  0  0  0  0  0  0  0  0  0
    6.4144    0.4749    0.0698 C   0  0  0  0  0  0  0  0  0  0  0  0
    6.8279   -0.9966    0.0669 C   0  0  0  0  0  0  0  0  0  0  0  0
    8.0951   -1.5512    0.0674 C   0  0  0  0  0  0  0  0  0  0  0  0
    8.1871   -2.9491    0.0667 C   0  0  0  0  0  0  0  0  0  0  0  0
    9.8973   -3.7629    0.0684 Br  0  0  0  0  0  0  0  0  0  0  0  0
    7.0409   -3.7701    0.0651 C   0  0  0  0  0  0  0  0  0  0  0  0
    5.7620   -3.2086    0.0635 C   0  0  0  0  0  0  0  0  0  0  0  0
    5.6772   -1.8328    0.0644 C   0  0  0  0  0  0  0  0  0  0  0  0
    0.6729   -0.7648    0.0644 H   0  0  0  0  0  0  0  0  0  0  0  0
    0.7850    0.9649    0.0680 H   0  0  0  0  0  0  0  0  0  0  0  0
    6.7682    0.9740    0.9762 H   0  0  0  0  0  0  0  0  0  0  0  0
    6.7728    0.9803   -0.8314 H   0  0  0  0  0  0  0  0  0  0  0  0
    8.9822   -0.9271    0.0688 H   0  0  0  0  0  0  0  0  0  0  0  0
    7.1419   -4.8529    0.0652 H   0  0  0  0  0  0  0  0  0  0  0  0
    4.8692   -3.8248    0.0617 H   0  0  0  0  0  0  0  0  0  0  0  0
  1  2  1  0  0  0  0
  1 15  1  0  0  0  0
  1 16  1  0  0  0  0
  2  3  2  0  0  0  0
  2  6  1  0  0  0  0
  3  4  1  0  0  0  0
  4  5  2  0  0  0  0
  4 14  1  0  0  0  0
  5  6  1  0  0  0  0
  5  7  1  0  0  0  0
  7  8  1  0  0  0  0
  7 17  1  0  0  0  0
  7 18  1  0  0  0  0
  8  9  1  0  0  0  0
  8 14  2  0  0  0  0
  9 10  2  0  0  0  0
  9 19  1  0  0  0  0
 10 11  1  0  0  0  0
 10 12  1  0  0  0  0
 12 13  2  0  0  0  0
 12 20  1  0  0  0  0
 13 14  1  0  0  0  0
 13 21  1  0  0  0  0
M  END
$$$$
