
 OpenBabel09162610133D

 33 36  0  0  1  0  0  0  0  0999 V2000
    1.6688    0.0792   -0.3718 O   0  0  0  0  0  0  0  0  0  0  0  0
    0.4658    0.2525   -0.4139 C   0  0  0  0  0  0  0  0  0  0  0  0
   -0.4390   -0.6793   -0.8261 O   0  0  0  0  0  0  0  0  0  0  0  0
   -1.6917   -0.0262   -0.9331 C   0  0  0  0  0  0  0  0  0  0  0  0
   -1.5702    1.1514   -0.0046 C   0  0  1  0  0  0  0  0  0  0  0  0
   -2.0205    0.9341    1.4470 C   0  0  0  0  0  0  0  0  0  0  0  0
   -3.4377    0.6381    1.5889 N   0  0  0  0  0  0  0  0  0  0  0  0
   -3.9667   -0.6398    1.5871 C   0  0  0  0  0  0  0  0  0  0  0  0
   -3.3462   -1.9013    1.5900 C   0  0  0  0  0  0  0  0  0  0  0  0
   -4.1504   -3.0322    1.4309 C   0  0  0  0  0  0  0  0  0  0  0  0
   -5.5293   -2.9161    1.2987 C   0  0  0  0  0  0  0  0  0  0  0  0
   -6.1442   -1.6632    1.3727 C   0  0  0  0  0  0  0  0  0  0  0  0
   -5.3537   -0.5053    1.5294 C   0  0  0  0  0  0  0  0  0  0  0  0
   -5.6569    0.8807    1.6865 C   0  0  0  0  0  0  0  0  0  0  0  0
   -6.8673    1.5964    1.8117 C   0  0  0  0  0  0  0  0  0  0  0  0
   -6.8385    2.9820    1.9832 C   0  0  0  0  0  0  0  0  0  0  0  0
   -5.6241    3.6600    2.0031 C   0  0  0  0  0  0  0  0  0  0  0  0
   -4.4101    2.9768    1.8635 C   0  0  0  0  0  0  0  0  0  0  0  0
   -4.4454    1.5788    1.7204 C   0  0  0  0  0  0  0  0  0  0  0  0
   -0.1644    1.4049   -0.0295 O   0  0  0  0  0  0  0  0  0  0  0  0
   -2.4986   -0.7191   -0.7022 H   0  0  0  0  0  0  0  0  0  0  0  0
   -1.8244    0.2935   -1.9732 H   0  0  0  0  0  0  0  0  0  0  0  0
   -2.0932    2.0169   -0.4255 H   0  0  0  0  0  0  0  0  0  0  0  0
   -1.8066    1.8361    2.0333 H   0  0  0  0  0  0  0  0  0  0  0  0
   -1.4449    0.1401    1.9352 H   0  0  0  0  0  0  0  0  0  0  0  0
   -2.2705   -2.0117    1.6865 H   0  0  0  0  0  0  0  0  0  0  0  0
   -3.6886   -4.0169    1.3996 H   0  0  0  0  0  0  0  0  0  0  0  0
   -6.1361   -3.8054    1.1496 H   0  0  0  0  0  0  0  0  0  0  0  0
   -7.2248   -1.5829    1.2986 H   0  0  0  0  0  0  0  0  0  0  0  0
   -7.8175    1.0695    1.8050 H   0  0  0  0  0  0  0  0  0  0  0  0
   -7.7709    3.5277    2.1071 H   0  0  0  0  0  0  0  0  0  0  0  0
   -5.6206    4.7405    2.1380 H   0  0  0  0  0  0  0  0  0  0  0  0
   -3.4753    3.5273    1.8888 H   0  0  0  0  0  0  0  0  0  0  0  0
  1  2  2  0  0  0  0
  2  3  1  0  0  0  0
  2 20  1  0  0  0  0
  3  4  1  0  0  0  0
  4  5  1  0  0  0  0
  4 21  1  0  0  0  0
  4 22  1  0  0  0  0
  5  6  1  0  0  0  0
  5 20  1  0  0  0  0
  5 23  1  6  0  0  0
  6  7  1  0  0  0  0
  6 24  1  0  0  0  0
  6 25  1  0  0  0  0
  7  8  1  0  0  0  0
  7 19  1  0  0  0  0
  8  9  2  0  0  0  0
  8 13  1  0  0  0  0
  9 10  1  0  0  0  0
  9 26  1  0  0  0  0
 10 11  2  0  0  0  0
 10 27  1  0  0  0  0
 11 12  1  0  0  0  0
 11 28  1  0  0  0  0
 12 13  2  0  0  0  0
 12 29  1  0  0  0  0
 13 14  1  0  0  0  0
 14 15  2  0  0  0  0
 14 19  1  0  0  0  0
 15 16  1  0  0  0  0
 15 30  1  0  0  0  0
 16 17  2  0  0  0  0
 16 31  1  0  0  0  0
 17 18  1  0  0  0  0
 17 32  1  0  0  0  0
 18 19  2  0  0  0  0
 18 33  1  0  0  0  0
M  END
$$$$
