
 OpenBabel09162610133D

 37 39  0  0  0  0  0  0  0  0999 V2000
    1.0638    0.1762    0.0203 C   0  0  0  0  0  0  0  0  0  0  0  0
    2.5560    0.0394    0.0397 C   0  0  0  0  0  0  0  0  0  0  0  0
    3.1476   -1.2076    0.0980 C   0  0  0  0  0  0  0  0  0  0  0  0
    4.5469   -1.3216    0.1225 C   0  0  0  0  0  0  0  0  0  0  0  0
    5.0744   -2.7310    0.1951 C   0  0  0  0  0  0  0  0  0  0  0  0
    5.3362   -0.1425    0.0680 C   0  0  0  0  0  0  0  0  0  0  0  0
    6.8269   -0.1066    0.0451 C   0  0  0  0  0  0  0  0  0  0  0  0
    7.7123   -1.3064    0.0127 C   0  0  0  0  0  0  0  0  0  0  0  0
    8.2104   -1.8523    1.2088 C   0  0  0  0  0  0  0  0  0  0  0  0
    9.1082   -2.9215    1.1727 C   0  0  0  0  0  0  0  0  0  0  0  0
    9.5166   -3.4335   -0.0529 C   0  0  0  0  0  0  0  0  0  0  0  0
   10.3901   -4.4483   -0.0854 F   0  0  0  0  0  0  0  0  0  0  0  0
    9.0368   -2.9057   -1.2463 C   0  0  0  0  0  0  0  0  0  0  0  0
    8.1322   -1.8413   -1.2171 C   0  0  0  0  0  0  0  0  0  0  0  0
    7.4655    1.0958    0.0376 C   0  0  0  0  0  0  0  0  0  0  0  0
    8.9855    1.0943    0.0399 C   0  0  0  0  0  0  0  0  0  0  0  0
   10.2465    1.0931    0.0417 N   0  0  0  0  0  0  0  0  0  0  0  0
    6.7360    2.3757    0.0420 C   0  0  0  0  0  0  0  0  0  0  0  0
    7.3653    3.4337    0.0563 O   0  0  0  0  0  0  0  0  0  0  0  0
    5.3582    2.3074    0.0219 N   0  0  0  0  0  0  0  0  0  0  0  0
    4.5749    3.5348    0.0156 C   0  0  0  0  0  0  0  0  0  0  0  0
    4.6418    1.0808    0.0318 C   0  0  0  0  0  0  0  0  0  0  0  0
    3.2858    1.1719    0.0187 N   0  0  0  0  0  0  0  0  0  0  0  0
    0.5687   -0.8007   -0.0033 H   0  0  0  0  0  0  0  0  0  0  0  0
    0.7524    0.7324   -0.8682 H   0  0  0  0  0  0  0  0  0  0  0  0
    0.7255    0.7064    0.9153 H   0  0  0  0  0  0  0  0  0  0  0  0
    2.5211   -2.0979    0.1225 H   0  0  0  0  0  0  0  0  0  0  0  0
    4.2703   -3.4500    0.3955 H   0  0  0  0  0  0  0  0  0  0  0  0
    5.7700   -2.8521    1.0265 H   0  0  0  0  0  0  0  0  0  0  0  0
    5.5295   -3.0240   -0.7543 H   0  0  0  0  0  0  0  0  0  0  0  0
    7.9081   -1.4478    2.1722 H   0  0  0  0  0  0  0  0  0  0  0  0
    9.5026   -3.3475    2.0896 H   0  0  0  0  0  0  0  0  0  0  0  0
    9.3819   -3.3165   -2.1903 H   0  0  0  0  0  0  0  0  0  0  0  0
    7.7775   -1.4230   -2.1570 H   0  0  0  0  0  0  0  0  0  0  0  0
    5.2142    4.4226    0.0063 H   0  0  0  0  0  0  0  0  0  0  0  0
    3.9530    3.5749    0.9159 H   0  0  0  0  0  0  0  0  0  0  0  0
    3.9452    3.5614   -0.8796 H   0  0  0  0  0  0  0  0  0  0  0  0
  1  2  1  0  0  0  0
  1 24  1  0  0  0  0
  1 25  1  0  0  0  0
  1 26  1  0  0  0  0
  2  3  2  0  0  0  0
  2 23  1  0  0  0  0
  3  4  1  0  0  0  0
  3 27  1  0  0  0  0
  4  5  1  0  0  0  0
  4  6  2  0  0  0  0
  5 28  1  0  0  0  0
  5 29  1  0  0  0  0
  5 30  1  0  0  0  0
  6  7  1  0  0  0  0
  6 22  1  0  0  0  0
  7  8  1  0  0  0  0
  7 15  2  0  0  0  0
  8  9  2  0  0  0  0
  8 14  1  0  0  0  0
  9 10  1  0  0  0  0
  9 31  1  0  0  0  0
 10 11  2  0  0  0  0
 10 32  1  0  0  0  0
 11 12  1  0  0  0  0
 11 13  1  0  0  0  0
 13 14  2  0  0  0  0
 13 33  1  0  0  0  0
 14 34  1  0  0  0  0
 15 16  1  0  0  0  0
 15 18  1  0  0  0  0
 16 17  3  0  0  0  0
 18 19  2  0  0  0  0
 18 20  1  0  0  0  0
 20 21  1  0  0  0  0
 20 22  1  0  0  0  0
 21 35  1  0  0  0  0
 21 36  1  0  0  0  0
 21 37  1  0  0  0  0
 22 23  2  0  0  0  0
M  END
$$$$
