
 OpenBabel09162610133D

 36 39  0  0  1  0  0  0  0  0999 V2000
    0.9168   -0.1834    0.0803 C   0  0  0  0  0  0  0  0  0  0  0  0
    2.4421   -0.1144   -0.1150 C   0  0  0  0  0  0  0  0  0  0  0  0
    2.8476   -1.3386   -0.9595 C   0  0  0  0  0  0  0  0  0  0  0  0
    2.8987    1.2017   -0.8384 C   0  0  1  0  0  0  0  0  0  0  0  0
    2.2927    2.4657   -0.2037 C   0  0  0  0  0  0  0  0  0  0  0  0
    2.9584    2.5065    1.1770 C   0  0  0  0  0  0  0  0  0  0  0  0
    3.9679    1.3389    1.1161 C   0  0  2  0  0  0  0  0  0  0  0  0
    4.3470    1.3483   -0.3667 C   0  0  0  0  0  0  0  0  0  0  0  0
    3.1836    0.0046    1.2698 C   0  0  2  0  0  0  0  0  0  0  0  0
    3.9506   -1.1473    1.7138 N   0  0  0  0  0  0  0  0  0  0  0  0
    3.3950   -2.2103    2.3917 C   0  0  0  0  0  0  0  0  0  0  0  0
    4.2991   -3.0793    2.7877 N   0  0  0  0  0  0  0  0  0  0  0  0
    5.5005   -2.5652    2.3569 C   0  0  0  0  0  0  0  0  0  0  0  0
    6.8253   -2.9657    2.4615 C   0  0  0  0  0  0  0  0  0  0  0  0
    7.1952   -4.3885    3.3050 Cl  0  0  0  0  0  0  0  0  0  0  0  0
    7.8366   -2.2519    1.9308 N   0  0  0  0  0  0  0  0  0  0  0  0
    7.4951   -1.1192    1.2945 C   0  0  0  0  0  0  0  0  0  0  0  0
    6.2629   -0.6016    1.1288 N   0  0  0  0  0  0  0  0  0  0  0  0
    5.3051   -1.3672    1.6780 C   0  0  0  0  0  0  0  0  0  0  0  0
    0.3942   -0.0659   -0.8748 H   0  0  0  0  0  0  0  0  0  0  0  0
    0.5475    0.5905    0.7614 H   0  0  0  0  0  0  0  0  0  0  0  0
    0.6200   -1.1454    0.5130 H   0  0  0  0  0  0  0  0  0  0  0  0
    2.3649   -1.3022   -1.9426 H   0  0  0  0  0  0  0  0  0  0  0  0
    2.5361   -2.2737   -0.4826 H   0  0  0  0  0  0  0  0  0  0  0  0
    3.9270   -1.3949   -1.1311 H   0  0  0  0  0  0  0  0  0  0  0  0
    2.7788    1.1742   -1.9245 H   0  0  0  0  0  0  0  0  0  0  0  0
    1.2019    2.4663   -0.1548 H   0  0  0  0  0  0  0  0  0  0  0  0
    2.5879    3.3520   -0.7795 H   0  0  0  0  0  0  0  0  0  0  0  0
    2.2302    2.3934    1.9864 H   0  0  0  0  0  0  0  0  0  0  0  0
    3.4742    3.4638    1.3200 H   0  0  0  0  0  0  0  0  0  0  0  0
    4.7902    1.4697    1.8220 H   0  0  0  0  0  0  0  0  0  0  0  0
    4.9856    0.5237   -0.6859 H   0  0  0  0  0  0  0  0  0  0  0  0
    4.8135    2.2895   -0.6791 H   0  0  0  0  0  0  0  0  0  0  0  0
    2.4473    0.1487    2.0734 H   0  0  0  0  0  0  0  0  0  0  0  0
    2.3295   -2.2901    2.5718 H   0  0  0  0  0  0  0  0  0  0  0  0
    8.3124   -0.5502    0.8637 H   0  0  0  0  0  0  0  0  0  0  0  0
  1  2  1  0  0  0  0
  1 20  1  0  0  0  0
  1 21  1  0  0  0  0
  1 22  1  0  0  0  0
  2  3  1  0  0  0  0
  2  4  1  0  0  0  0
  2  9  1  0  0  0  0
  3 23  1  0  0  0  0
  3 24  1  0  0  0  0
  3 25  1  0  0  0  0
  4  5  1  0  0  0  0
  4  8  1  0  0  0  0
  4 26  1  6  0  0  0
  5  6  1  0  0  0  0
  5 27  1  0  0  0  0
  5 28  1  0  0  0  0
  6  7  1  0  0  0  0
  6 29  1  0  0  0  0
  6 30  1  0  0  0  0
  7  8  1  0  0  0  0
  7  9  1  0  0  0  0
  7 31  1  1  0  0  0
  8 32  1  0  0  0  0
  8 33  1  0  0  0  0
  9 10  1  0  0  0  0
  9 34  1  1  0  0  0
 10 11  1  0  0  0  0
 10 19  1  0  0  0  0
 11 12  2  0  0  0  0
 11 35  1  0  0  0  0
 12 13  1  0  0  0  0
 13 14  2  0  0  0  0
 13 19  1  0  0  0  0
 14 15  1  0  0  0  0
 14 16  1  0  0  0  0
 16 17  2  0  0  0  0
 17 18  1  0  0  0  0
 17 36  1  0  0  0  0
 18 19  2  0  0  0  0
M  END
$$$$
