
 OpenBabel09162610133D

 35 37  0  0  0  0  0  0  0  0999 V2000
    1.1133    0.0783    0.0983 C   0  0  0  0  0  0  0  0  0  0  0  0
    2.5489    0.0432   -0.0865 N   0  0  0  0  0  0  0  0  0  0  0  0
    3.2813   -1.2059    0.0357 C   0  0  0  0  0  0  0  0  0  0  0  0
    3.9872   -1.5521   -1.2674 C   0  0  0  0  0  0  0  0  0  0  0  0
    4.7550   -0.3637   -1.7889 C   0  0  0  0  0  0  0  0  0  0  0  0
    5.7684   -0.5468   -2.7420 C   0  0  0  0  0  0  0  0  0  0  0  0
    6.4255    0.5545   -3.2993 C   0  0  0  0  0  0  0  0  0  0  0  0
    7.4102    0.3558   -4.3217 C   0  0  0  0  0  0  0  0  0  0  0  0
    8.2073    0.1854   -5.2020 C   0  0  0  0  0  0  0  0  0  0  0  0
    9.1350   -0.0182   -6.2755 C   0  0  0  0  0  0  0  0  0  0  0  0
    9.7351    1.0771   -6.9008 C   0  0  0  0  0  0  0  0  0  0  0  0
   10.6238    0.8789   -7.9608 C   0  0  0  0  0  0  0  0  0  0  0  0
   10.9138   -0.4139   -8.3962 C   0  0  0  0  0  0  0  0  0  0  0  0
   10.3181   -1.5092   -7.7710 C   0  0  0  0  0  0  0  0  0  0  0  0
    9.4293   -1.3123   -6.7114 C   0  0  0  0  0  0  0  0  0  0  0  0
    6.0873    1.8474   -2.8933 C   0  0  0  0  0  0  0  0  0  0  0  0
    5.0742    2.0424   -1.9502 C   0  0  0  0  0  0  0  0  0  0  0  0
    4.3955    0.9435   -1.4096 C   0  0  0  0  0  0  0  0  0  0  0  0
    3.1805    1.1810   -0.5725 C   0  0  0  0  0  0  0  0  0  0  0  0
    2.7263    2.3124   -0.4415 O   0  0  0  0  0  0  0  0  0  0  0  0
    0.7226   -0.9095    0.3530 H   0  0  0  0  0  0  0  0  0  0  0  0
    0.6586    0.4080   -0.8429 H   0  0  0  0  0  0  0  0  0  0  0  0
    0.8590    0.7988    0.8792 H   0  0  0  0  0  0  0  0  0  0  0  0
    2.6158   -2.0162    0.3498 H   0  0  0  0  0  0  0  0  0  0  0  0
    4.0222   -1.0606    0.8331 H   0  0  0  0  0  0  0  0  0  0  0  0
    3.2496   -1.8479   -2.0225 H   0  0  0  0  0  0  0  0  0  0  0  0
    4.6632   -2.3979   -1.0958 H   0  0  0  0  0  0  0  0  0  0  0  0
    6.0216   -1.5501   -3.0761 H   0  0  0  0  0  0  0  0  0  0  0  0
    9.5127    2.0894   -6.5717 H   0  0  0  0  0  0  0  0  0  0  0  0
   11.0874    1.7332   -8.4474 H   0  0  0  0  0  0  0  0  0  0  0  0
   11.6035   -0.5674   -9.2227 H   0  0  0  0  0  0  0  0  0  0  0  0
   10.5437   -2.5169   -8.1093 H   0  0  0  0  0  0  0  0  0  0  0  0
    8.9676   -2.1732   -6.2334 H   0  0  0  0  0  0  0  0  0  0  0  0
    6.5802    2.7112   -3.3339 H   0  0  0  0  0  0  0  0  0  0  0  0
    4.7819    3.0541   -1.6747 H   0  0  0  0  0  0  0  0  0  0  0  0
  1  2  1  0  0  0  0
  1 21  1  0  0  0  0
  1 22  1  0  0  0  0
  1 23  1  0  0  0  0
  2  3  1  0  0  0  0
  2 19  1  0  0  0  0
  3  4  1  0  0  0  0
  3 24  1  0  0  0  0
  3 25  1  0  0  0  0
  4  5  1  0  0  0  0
  4 26  1  0  0  0  0
  4 27  1  0  0  0  0
  5  6  1  0  0  0  0
  5 18  2  0  0  0  0
  6  7  2  0  0  0  0
  6 28  1  0  0  0  0
  7  8  1  0  0  0  0
  7 16  1  0  0  0  0
  8  9  3  0  0  0  0
  9 10  1  0  0  0  0
 10 11  2  0  0  0  0
 10 15  1  0  0  0  0
 11 12  1  0  0  0  0
 11 29  1  0  0  0  0
 12 13  2  0  0  0  0
 12 30  1  0  0  0  0
 13 14  1  0  0  0  0
 13 31  1  0  0  0  0
 14 15  2  0  0  0  0
 14 32  1  0  0  0  0
 15 33  1  0  0  0  0
 16 17  2  0  0  0  0
 16 34  1  0  0  0  0
 17 18  1  0  0  0  0
 17 35  1  0  0  0  0
 18 19  1  0  0  0  0
 19 20  2  0  0  0  0
M  END
$$$$
