
 OpenBabel09162610133D

 36 38  0  0  0  0  0  0  0  0999 V2000
    2.2032   -0.0313    1.3192 C   0  0  0  0  0  0  0  0  0  0  0  0
    0.8442   -0.0227    0.6698 C   0  0  0  0  0  0  0  0  0  0  0  0
    0.1731    1.2149    0.5917 C   0  0  0  0  0  0  0  0  0  0  0  0
   -1.1011    1.3128    0.0385 C   0  0  0  0  0  0  0  0  0  0  0  0
   -1.7473    0.1668   -0.3992 C   0  0  0  0  0  0  0  0  0  0  0  0
   -1.1060   -1.0695   -0.3051 C   0  0  0  0  0  0  0  0  0  0  0  0
    0.2136   -1.1866    0.1724 C   0  0  0  0  0  0  0  0  0  0  0  0
    0.8712   -2.5063    0.1405 C   0  0  0  0  0  0  0  0  0  0  0  0
    1.6290   -3.1573    1.1044 C   0  0  0  0  0  0  0  0  0  0  0  0
    2.0560   -4.3892    0.6880 N   0  0  0  0  0  0  0  0  0  0  0  0
    1.5680   -4.5232   -0.5191 C   0  0  0  0  0  0  0  0  0  0  0  0
    0.8717   -3.4090   -0.9154 N   0  0  0  0  0  0  0  0  0  0  0  0
    0.2412   -3.2883   -2.2248 C   0  0  0  0  0  0  0  0  0  0  0  0
    1.1937   -3.4280   -3.3900 C   0  0  0  0  0  0  0  0  0  0  0  0
    0.7432   -4.0353   -4.5735 C   0  0  0  0  0  0  0  0  0  0  0  0
    1.5789   -4.1285   -5.6894 C   0  0  0  0  0  0  0  0  0  0  0  0
    2.8771   -3.6100   -5.6363 C   0  0  0  0  0  0  0  0  0  0  0  0
    3.7384   -3.7118   -6.7775 C   0  0  0  0  0  0  0  0  0  0  0  0
    4.4314   -3.7963   -7.7031 N   0  0  0  0  0  0  0  0  0  0  0  0
    3.3283   -2.9830   -4.4733 C   0  0  0  0  0  0  0  0  0  0  0  0
    2.4845   -2.8818   -3.3622 C   0  0  0  0  0  0  0  0  0  0  0  0
    2.5475    0.9851    1.5423 H   0  0  0  0  0  0  0  0  0  0  0  0
    2.9505   -0.4890    0.6653 H   0  0  0  0  0  0  0  0  0  0  0  0
    2.1598   -0.5608    2.2760 H   0  0  0  0  0  0  0  0  0  0  0  0
    0.6481    2.1205    0.9654 H   0  0  0  0  0  0  0  0  0  0  0  0
   -1.5928    2.2795   -0.0303 H   0  0  0  0  0  0  0  0  0  0  0  0
   -2.7511    0.2301   -0.8106 H   0  0  0  0  0  0  0  0  0  0  0  0
   -1.6596   -1.9519   -0.6175 H   0  0  0  0  0  0  0  0  0  0  0  0
    1.8843   -2.8031    2.0941 H   0  0  0  0  0  0  0  0  0  0  0  0
    1.6993   -5.3888   -1.1566 H   0  0  0  0  0  0  0  0  0  0  0  0
   -0.2465   -2.3198   -2.3221 H   0  0  0  0  0  0  0  0  0  0  0  0
   -0.5288   -4.0702   -2.2535 H   0  0  0  0  0  0  0  0  0  0  0  0
   -0.2683   -4.4334   -4.6409 H   0  0  0  0  0  0  0  0  0  0  0  0
    1.2104   -4.6025   -6.5958 H   0  0  0  0  0  0  0  0  0  0  0  0
    4.3293   -2.5677   -4.4193 H   0  0  0  0  0  0  0  0  0  0  0  0
    2.8547   -2.3720   -2.4722 H   0  0  0  0  0  0  0  0  0  0  0  0
  1  2  1  0  0  0  0
  1 22  1  0  0  0  0
  1 23  1  0  0  0  0
  1 24  1  0  0  0  0
  2  3  2  0  0  0  0
  2  7  1  0  0  0  0
  3  4  1  0  0  0  0
  3 25  1  0  0  0  0
  4  5  2  0  0  0  0
  4 26  1  0  0  0  0
  5  6  1  0  0  0  0
  5 27  1  0  0  0  0
  6  7  2  0  0  0  0
  6 28  1  0  0  0  0
  7  8  1  0  0  0  0
  8  9  2  0  0  0  0
  8 12  1  0  0  0  0
  9 10  1  0  0  0  0
  9 29  1  0  0  0  0
 10 11  2  0  0  0  0
 11 12  1  0  0  0  0
 11 30  1  0  0  0  0
 12 13  1  0  0  0  0
 13 14  1  0  0  0  0
 13 31  1  0  0  0  0
 13 32  1  0  0  0  0
 14 15  2  0  0  0  0
 14 21  1  0  0  0  0
 15 16  1  0  0  0  0
 15 33  1  0  0  0  0
 16 17  2  0  0  0  0
 16 34  1  0  0  0  0
 17 18  1  0  0  0  0
 17 20  1  0  0  0  0
 18 19  3  0  0  0  0
 20 21  2  0  0  0  0
 20 35  1  0  0  0  0
 21 36  1  0  0  0  0
M  END
$$$$
