
 OpenBabel09162610133D

 33 36  0  0  0  0  0  0  0  0999 V2000
    1.1560    0.2067   -0.0874 O   0  0  0  0  0  0  0  0  0  0  0  0
    2.3317    0.1093    0.2145 C   0  0  0  0  0  0  0  0  0  0  0  0
    3.1676    1.1692    0.5080 O   0  0  0  0  0  0  0  0  0  0  0  0
    4.4430    0.7054    0.7752 C   0  0  0  0  0  0  0  0  0  0  0  0
    5.3970    1.4192    1.0329 O   0  0  0  0  0  0  0  0  0  0  0  0
    4.3703   -0.7079    0.6617 C   0  0  0  0  0  0  0  0  0  0  0  0
    3.1119   -1.0840    0.3028 C   0  0  0  0  0  0  0  0  0  0  0  0
    3.0736   -2.4729    0.1433 C   0  0  0  0  0  0  0  0  0  0  0  0
    1.9935   -3.3754   -0.2255 C   0  0  0  0  0  0  0  0  0  0  0  0
    0.9842   -2.9555   -1.1005 C   0  0  0  0  0  0  0  0  0  0  0  0
   -0.0468   -3.8245   -1.4687 C   0  0  0  0  0  0  0  0  0  0  0  0
   -0.0813   -5.1223   -0.9650 C   0  0  0  0  0  0  0  0  0  0  0  0
    0.9107   -5.5512   -0.0871 C   0  0  0  0  0  0  0  0  0  0  0  0
    1.9411   -4.6824    0.2829 C   0  0  0  0  0  0  0  0  0  0  0  0
    4.3841   -2.8863    0.3686 C   0  0  0  0  0  0  0  0  0  0  0  0
    5.1904   -1.7960    0.6987 N   0  0  0  0  0  0  0  0  0  0  0  0
    6.5814   -1.8524    0.9721 C   0  0  0  0  0  0  0  0  0  0  0  0
    7.3681   -2.8442    0.3664 C   0  0  0  0  0  0  0  0  0  0  0  0
    8.7463   -2.8842    0.5969 C   0  0  0  0  0  0  0  0  0  0  0  0
    9.3347   -1.9553    1.4515 C   0  0  0  0  0  0  0  0  0  0  0  0
   11.0304   -2.0062    1.7329 Cl  0  0  0  0  0  0  0  0  0  0  0  0
    8.5565   -0.9857    2.0786 C   0  0  0  0  0  0  0  0  0  0  0  0
    7.1804   -0.9286    1.8361 C   0  0  0  0  0  0  0  0  0  0  0  0
    0.9851   -1.9522   -1.5189 H   0  0  0  0  0  0  0  0  0  0  0  0
   -0.8218   -3.4837   -2.1505 H   0  0  0  0  0  0  0  0  0  0  0  0
   -0.8829   -5.7969   -1.2544 H   0  0  0  0  0  0  0  0  0  0  0  0
    0.8822   -6.5615    0.3129 H   0  0  0  0  0  0  0  0  0  0  0  0
    2.6938   -5.0394    0.9812 H   0  0  0  0  0  0  0  0  0  0  0  0
    4.8062   -3.8828    0.3491 H   0  0  0  0  0  0  0  0  0  0  0  0
    6.9454   -3.5630   -0.3316 H   0  0  0  0  0  0  0  0  0  0  0  0
    9.3549   -3.6338    0.0975 H   0  0  0  0  0  0  0  0  0  0  0  0
    9.0111   -0.2690    2.7581 H   0  0  0  0  0  0  0  0  0  0  0  0
    6.6039   -0.1781    2.3692 H   0  0  0  0  0  0  0  0  0  0  0  0
  1  2  2  0  0  0  0
  2  3  1  0  0  0  0
  2  7  1  0  0  0  0
  3  4  1  0  0  0  0
  4  5  2  0  0  0  0
  4  6  1  0  0  0  0
  6  7  2  0  0  0  0
  6 16  1  0  0  0  0
  7  8  1  0  0  0  0
  8  9  1  0  0  0  0
  8 15  2  0  0  0  0
  9 10  2  0  0  0  0
  9 14  1  0  0  0  0
 10 11  1  0  0  0  0
 10 24  1  0  0  0  0
 11 12  2  0  0  0  0
 11 25  1  0  0  0  0
 12 13  1  0  0  0  0
 12 26  1  0  0  0  0
 13 14  2  0  0  0  0
 13 27  1  0  0  0  0
 14 28  1  0  0  0  0
 15 16  1  0  0  0  0
 15 29  1  0  0  0  0
 16 17  1  0  0  0  0
 17 18  2  0  0  0  0
 17 23  1  0  0  0  0
 18 19  1  0  0  0  0
 18 30  1  0  0  0  0
 19 20  2  0  0  0  0
 19 31  1  0  0  0  0
 20 21  1  0  0  0  0
 20 22  1  0  0  0  0
 22 23  2  0  0  0  0
 22 32  1  0  0  0  0
 23 33  1  0  0  0  0
M  END
$$$$
