
 OpenBabel09162610133D

 35 36  0  0  0  0  0  0  0  0999 V2000
    0.9647   -0.0806    0.0918 C   0  0  0  0  0  0  0  0  0  0  0  0
    2.4725   -0.0963    0.0347 C   0  0  0  0  0  0  0  0  0  0  0  0
    3.1335    1.0648    0.0363 C   0  0  0  0  0  0  0  0  0  0  0  0
    4.6237    1.1998    0.0962 C   0  0  0  0  0  0  0  0  0  0  0  0
    4.9610    1.9060    1.4216 C   0  0  0  0  0  0  0  0  0  0  0  0
    5.0433    2.0511   -1.1163 C   0  0  0  0  0  0  0  0  0  0  0  0
    5.2619   -0.1197    0.0515 N   0  0  0  0  0  0  0  0  0  0  0  0
    6.7182   -0.1965    0.0652 C   0  0  0  0  0  0  0  0  0  0  0  0
    4.5888   -1.3377    0.1259 C   0  0  0  0  0  0  0  0  0  0  0  0
    5.2314   -2.3899    0.1733 O   0  0  0  0  0  0  0  0  0  0  0  0
    3.1789   -1.2959    0.0929 N   0  0  0  0  0  0  0  0  0  0  0  0
    2.5148   -2.5674    0.0941 C   0  0  0  0  0  0  0  0  0  0  0  0
    2.6981   -3.4579    1.1609 C   0  0  0  0  0  0  0  0  0  0  0  0
    2.0535   -4.6976    1.1670 C   0  0  0  0  0  0  0  0  0  0  0  0
    1.2370   -5.0570    0.0968 C   0  0  0  0  0  0  0  0  0  0  0  0
    0.4455   -6.5845    0.1002 Cl  0  0  0  0  0  0  0  0  0  0  0  0
    1.0627   -4.1904   -0.9807 C   0  0  0  0  0  0  0  0  0  0  0  0
    1.7008   -2.9471   -0.9824 C   0  0  0  0  0  0  0  0  0  0  0  0
    0.5761    0.9397    0.2009 H   0  0  0  0  0  0  0  0  0  0  0  0
    0.5995   -0.6461    0.9550 H   0  0  0  0  0  0  0  0  0  0  0  0
    0.5220   -0.4816   -0.8233 H   0  0  0  0  0  0  0  0  0  0  0  0
    2.5710    1.9970    0.0297 H   0  0  0  0  0  0  0  0  0  0  0  0
    4.4473    2.8702    1.5121 H   0  0  0  0  0  0  0  0  0  0  0  0
    6.0342    2.0976    1.5232 H   0  0  0  0  0  0  0  0  0  0  0  0
    4.6638    1.2887    2.2796 H   0  0  0  0  0  0  0  0  0  0  0  0
    4.5100    3.0091   -1.1433 H   0  0  0  0  0  0  0  0  0  0  0  0
    4.8274    1.5248   -2.0552 H   0  0  0  0  0  0  0  0  0  0  0  0
    6.1132    2.2806   -1.1149 H   0  0  0  0  0  0  0  0  0  0  0  0
    7.1846    0.7909    0.0578 H   0  0  0  0  0  0  0  0  0  0  0  0
    7.0538   -0.7513   -0.8168 H   0  0  0  0  0  0  0  0  0  0  0  0
    7.0435   -0.7283    0.9652 H   0  0  0  0  0  0  0  0  0  0  0  0
    3.3403   -3.1866    1.9954 H   0  0  0  0  0  0  0  0  0  0  0  0
    2.2002   -5.3756    2.0029 H   0  0  0  0  0  0  0  0  0  0  0  0
    0.4451   -4.4800   -1.8261 H   0  0  0  0  0  0  0  0  0  0  0  0
    1.5948   -2.2967   -1.8465 H   0  0  0  0  0  0  0  0  0  0  0  0
  1  2  1  0  0  0  0
  1 19  1  0  0  0  0
  1 20  1  0  0  0  0
  1 21  1  0  0  0  0
  2  3  2  0  0  0  0
  2 11  1  0  0  0  0
  3  4  1  0  0  0  0
  3 22  1  0  0  0  0
  4  5  1  0  0  0  0
  4  6  1  0  0  0  0
  4  7  1  0  0  0  0
  5 23  1  0  0  0  0
  5 24  1  0  0  0  0
  5 25  1  0  0  0  0
  6 26  1  0  0  0  0
  6 27  1  0  0  0  0
  6 28  1  0  0  0  0
  7  8  1  0  0  0  0
  7  9  1  0  0  0  0
  8 29  1  0  0  0  0
  8 30  1  0  0  0  0
  8 31  1  0  0  0  0
  9 10  2  0  0  0  0
  9 11  1  0  0  0  0
 11 12  1  0  0  0  0
 12 13  2  0  0  0  0
 12 18  1  0  0  0  0
 13 14  1  0  0  0  0
 13 32  1  0  0  0  0
 14 15  2  0  0  0  0
 14 33  1  0  0  0  0
 15 16  1  0  0  0  0
 15 17  1  0  0  0  0
 17 18  2  0  0  0  0
 17 34  1  0  0  0  0
 18 35  1  0  0  0  0
M  END
$$$$
