
 OpenBabel09162610133D

 37 39  0  0  0  0  0  0  0  0999 V2000
    4.6119    3.4839   -5.1145 C   0  0  0  0  0  0  0  0  0  0  0  0
    4.9102    2.6753   -3.9814 O   0  0  0  0  0  0  0  0  0  0  0  0
    4.1425    1.5824   -3.7852 C   0  0  0  0  0  0  0  0  0  0  0  0
    3.2245    1.1656   -4.4770 O   0  0  0  0  0  0  0  0  0  0  0  0
    4.7614    0.8442   -2.6558 C   0  0  0  0  0  0  0  0  0  0  0  0
    4.8365   -0.5509   -2.7473 C   0  0  0  0  0  0  0  0  0  0  0  0
    5.6694   -1.2555   -1.8805 C   0  0  0  0  0  0  0  0  0  0  0  0
    6.5001   -0.5596   -1.0057 C   0  0  0  0  0  0  0  0  0  0  0  0
    6.3559    0.8195   -0.8562 C   0  0  0  0  0  0  0  0  0  0  0  0
    5.3477    1.5044   -1.5577 C   0  0  0  0  0  0  0  0  0  0  0  0
    4.7024    2.7213   -0.8994 C   0  0  0  0  0  0  0  0  0  0  0  0
    4.6531    2.6502    0.4604 C   0  0  0  0  0  0  0  0  0  0  0  0
    3.9109    1.5936    1.0693 N   0  0  0  0  0  0  0  0  0  0  0  0
    4.5355    0.7483    2.0847 C   0  0  0  0  0  0  0  0  0  0  0  0
    2.8444    1.0448    0.2966 C   0  0  0  0  0  0  0  0  0  0  0  0
    2.2768   -0.2163    0.4947 C   0  0  0  0  0  0  0  0  0  0  0  0
    1.2787   -0.6881   -0.3705 C   0  0  0  0  0  0  0  0  0  0  0  0
    0.7891    0.1121   -1.4073 C   0  0  0  0  0  0  0  0  0  0  0  0
    1.3240    1.3783   -1.6230 C   0  0  0  0  0  0  0  0  0  0  0  0
    2.3680    1.8073   -0.8043 C   0  0  0  0  0  0  0  0  0  0  0  0
    3.2320    2.9559   -1.2354 C   0  0  0  0  0  0  0  0  0  0  0  0
    2.8302    3.9212   -1.8615 O   0  0  0  0  0  0  0  0  0  0  0  0
    4.9129    4.5089   -4.8787 H   0  0  0  0  0  0  0  0  0  0  0  0
    3.5481    3.4799   -5.3649 H   0  0  0  0  0  0  0  0  0  0  0  0
    5.2097    3.1378   -5.9628 H   0  0  0  0  0  0  0  0  0  0  0  0
    4.2485   -1.0829   -3.4917 H   0  0  0  0  0  0  0  0  0  0  0  0
    5.7026   -2.3407   -1.9168 H   0  0  0  0  0  0  0  0  0  0  0  0
    7.2096   -1.0953   -0.3807 H   0  0  0  0  0  0  0  0  0  0  0  0
    6.9358    1.3296   -0.0896 H   0  0  0  0  0  0  0  0  0  0  0  0
    4.3292    3.5416    1.0058 H   0  0  0  0  0  0  0  0  0  0  0  0
    5.3509    1.2831    2.5852 H   0  0  0  0  0  0  0  0  0  0  0  0
    4.9643   -0.1572    1.6401 H   0  0  0  0  0  0  0  0  0  0  0  0
    3.8149    0.4601    2.8565 H   0  0  0  0  0  0  0  0  0  0  0  0
    2.6320   -0.8819    1.2745 H   0  0  0  0  0  0  0  0  0  0  0  0
    0.8938   -1.6985   -0.2471 H   0  0  0  0  0  0  0  0  0  0  0  0
    0.0260   -0.2735   -2.0797 H   0  0  0  0  0  0  0  0  0  0  0  0
    1.0040    1.9771   -2.4722 H   0  0  0  0  0  0  0  0  0  0  0  0
  1  2  1  0  0  0  0
  1 23  1  0  0  0  0
  1 24  1  0  0  0  0
  1 25  1  0  0  0  0
  2  3  1  0  0  0  0
  3  4  2  0  0  0  0
  3  5  1  0  0  0  0
  5  6  2  0  0  0  0
  5 10  1  0  0  0  0
  6  7  1  0  0  0  0
  6 26  1  0  0  0  0
  7  8  2  0  0  0  0
  7 27  1  0  0  0  0
  8  9  1  0  0  0  0
  8 28  1  0  0  0  0
  9 10  2  0  0  0  0
  9 29  1  0  0  0  0
 10 11  1  0  0  0  0
 11 12  2  0  0  0  0
 11 21  1  0  0  0  0
 12 13  1  0  0  0  0
 12 30  1  0  0  0  0
 13 14  1  0  0  0  0
 13 15  1  0  0  0  0
 14 31  1  0  0  0  0
 14 32  1  0  0  0  0
 14 33  1  0  0  0  0
 15 16  2  0  0  0  0
 15 20  1  0  0  0  0
 16 17  1  0  0  0  0
 16 34  1  0  0  0  0
 17 18  2  0  0  0  0
 17 35  1  0  0  0  0
 18 19  1  0  0  0  0
 18 36  1  0  0  0  0
 19 20  2  0  0  0  0
 19 37  1  0  0  0  0
 20 21  1  0  0  0  0
 21 22  2  0  0  0  0
M  END
$$$$
