
 OpenBabel09162610133D

 37 39  0  0  0  0  0  0  0  0999 V2000
    1.4418    0.2415    0.0314 C   0  0  0  0  0  0  0  0  0  0  0  0
    2.6942   -0.4133   -0.1613 O   0  0  0  0  0  0  0  0  0  0  0  0
    3.1645   -0.4577   -1.4450 C   0  0  0  0  0  0  0  0  0  0  0  0
    2.5559    0.1343   -2.5422 C   0  0  0  0  0  0  0  0  0  0  0  0
    3.1228    0.0090   -3.8148 C   0  0  0  0  0  0  0  0  0  0  0  0
    4.2991   -0.7192   -4.0327 C   0  0  0  0  0  0  0  0  0  0  0  0
    4.8764   -0.8942   -5.3232 N   0  0  0  0  0  0  0  0  0  0  0  0
    4.2398   -0.5780   -6.5111 C   0  0  0  0  0  0  0  0  0  0  0  0
    3.0730   -0.1963   -6.5851 O   0  0  0  0  0  0  0  0  0  0  0  0
    4.9788   -0.6984   -7.7492 C   0  0  0  0  0  0  0  0  0  0  0  0
    6.2284   -1.1354   -8.1580 C   0  0  0  0  0  0  0  0  0  0  0  0
    6.3211   -0.9517   -9.5837 C   0  0  0  0  0  0  0  0  0  0  0  0
    7.3075   -1.1865  -10.5698 C   0  0  0  0  0  0  0  0  0  0  0  0
    7.0434   -0.8551  -11.9176 C   0  0  0  0  0  0  0  0  0  0  0  0
    8.0736   -1.0591  -12.9909 C   0  0  0  0  0  0  0  0  0  0  0  0
    5.8146   -0.2895  -12.2731 C   0  0  0  0  0  0  0  0  0  0  0  0
    4.8251   -0.0576  -11.3220 C   0  0  0  0  0  0  0  0  0  0  0  0
    5.1143   -0.4001  -10.0008 C   0  0  0  0  0  0  0  0  0  0  0  0
    4.3314   -0.2796   -8.8922 N   0  0  0  0  0  0  0  0  0  0  0  0
    4.9276   -1.2845   -2.9201 C   0  0  0  0  0  0  0  0  0  0  0  0
    4.3583   -1.1578   -1.6394 C   0  0  0  0  0  0  0  0  0  0  0  0
    1.1823    0.1744    1.0920 H   0  0  0  0  0  0  0  0  0  0  0  0
    0.6441   -0.2509   -0.5366 H   0  0  0  0  0  0  0  0  0  0  0  0
    1.5076    1.3045   -0.2264 H   0  0  0  0  0  0  0  0  0  0  0  0
    1.6371    0.7047   -2.4604 H   0  0  0  0  0  0  0  0  0  0  0  0
    2.6028    0.5208   -4.6166 H   0  0  0  0  0  0  0  0  0  0  0  0
    5.7794   -1.3355   -5.3800 H   0  0  0  0  0  0  0  0  0  0  0  0
    7.0079   -1.5408   -7.5268 H   0  0  0  0  0  0  0  0  0  0  0  0
    8.2638   -1.6176  -10.2889 H   0  0  0  0  0  0  0  0  0  0  0  0
    8.9126   -1.6648  -12.6377 H   0  0  0  0  0  0  0  0  0  0  0  0
    8.4592   -0.0899  -13.3247 H   0  0  0  0  0  0  0  0  0  0  0  0
    7.6278   -1.5754  -13.8487 H   0  0  0  0  0  0  0  0  0  0  0  0
    5.6145   -0.0206  -13.3086 H   0  0  0  0  0  0  0  0  0  0  0  0
    3.8709    0.3780  -11.5997 H   0  0  0  0  0  0  0  0  0  0  0  0
    3.3881    0.0883   -8.8776 H   0  0  0  0  0  0  0  0  0  0  0  0
    5.8495   -1.8489   -3.0232 H   0  0  0  0  0  0  0  0  0  0  0  0
    4.8487   -1.6178   -0.7838 H   0  0  0  0  0  0  0  0  0  0  0  0
  1  2  1  0  0  0  0
  1 22  1  0  0  0  0
  1 23  1  0  0  0  0
  1 24  1  0  0  0  0
  2  3  1  0  0  0  0
  3  4  2  0  0  0  0
  3 21  1  0  0  0  0
  4  5  1  0  0  0  0
  4 25  1  0  0  0  0
  5  6  2  0  0  0  0
  5 26  1  0  0  0  0
  6  7  1  0  0  0  0
  6 20  1  0  0  0  0
  7  8  1  0  0  0  0
  7 27  1  0  0  0  0
  8  9  2  0  0  0  0
  8 10  1  0  0  0  0
 10 11  2  0  0  0  0
 10 19  1  0  0  0  0
 11 12  1  0  0  0  0
 11 28  1  0  0  0  0
 12 13  2  0  0  0  0
 12 18  1  0  0  0  0
 13 14  1  0  0  0  0
 13 29  1  0  0  0  0
 14 15  1  0  0  0  0
 14 16  2  0  0  0  0
 15 30  1  0  0  0  0
 15 31  1  0  0  0  0
 15 32  1  0  0  0  0
 16 17  1  0  0  0  0
 16 33  1  0  0  0  0
 17 18  2  0  0  0  0
 17 34  1  0  0  0  0
 18 19  1  0  0  0  0
 19 35  1  0  0  0  0
 20 21  2  0  0  0  0
 20 36  1  0  0  0  0
 21 37  1  0  0  0  0
M  END
$$$$
