
 OpenBabel09162610133D

 37 39  0  0  0  0  0  0  0  0999 V2000
    0.0724   -1.9693   -0.2469 O   0  0  0  0  0  0  0  0  0  0  0  0
    0.0283   -0.7672   -0.0018 C   0  0  0  0  0  0  0  0  0  0  0  0
   -1.2789   -0.0445    0.1391 C   0  0  0  0  0  0  0  0  0  0  0  0
   -2.3685   -0.8133    0.3356 C   0  0  0  0  0  0  0  0  0  0  0  0
   -3.7135   -0.2751    0.5492 C   0  0  0  0  0  0  0  0  0  0  0  0
   -4.5682   -0.0571   -0.5292 C   0  0  0  0  0  0  0  0  0  0  0  0
   -5.8151    0.4888   -0.2743 C   0  0  0  0  0  0  0  0  0  0  0  0
   -6.2529    0.8209    0.9596 N   0  0  0  0  0  0  0  0  0  0  0  0
   -5.4076    0.5910    1.9869 C   0  0  0  0  0  0  0  0  0  0  0  0
   -4.1413    0.0521    1.8354 C   0  0  0  0  0  0  0  0  0  0  0  0
   -1.3117    1.4564    0.0594 C   0  0  0  0  0  0  0  0  0  0  0  0
   -0.0389    2.0464   -0.5285 C   0  0  0  0  0  0  0  0  0  0  0  0
    1.1677    1.5417    0.2461 C   0  0  0  0  0  0  0  0  0  0  0  0
    1.2778    0.0445    0.1817 C   0  0  0  0  0  0  0  0  0  0  0  0
    2.4349   -0.6411    0.2744 C   0  0  0  0  0  0  0  0  0  0  0  0
    3.7351   -0.0117    0.5125 C   0  0  0  0  0  0  0  0  0  0  0  0
    4.1818    0.1945    1.8171 C   0  0  0  0  0  0  0  0  0  0  0  0
    5.3980    0.8309    1.9992 C   0  0  0  0  0  0  0  0  0  0  0  0
    6.1762    1.2665    0.9855 N   0  0  0  0  0  0  0  0  0  0  0  0
    5.7222    1.0474   -0.2675 C   0  0  0  0  0  0  0  0  0  0  0  0
    4.5221    0.4181   -0.5539 C   0  0  0  0  0  0  0  0  0  0  0  0
   -2.2972   -1.8994    0.3803 H   0  0  0  0  0  0  0  0  0  0  0  0
   -4.2732   -0.2982   -1.5446 H   0  0  0  0  0  0  0  0  0  0  0  0
   -6.5163    0.6828   -1.0811 H   0  0  0  0  0  0  0  0  0  0  0  0
   -5.7867    0.8630    2.9680 H   0  0  0  0  0  0  0  0  0  0  0  0
   -3.5076   -0.1041    2.7018 H   0  0  0  0  0  0  0  0  0  0  0  0
   -1.4619    1.8621    1.0678 H   0  0  0  0  0  0  0  0  0  0  0  0
   -2.1544    1.7918   -0.5563 H   0  0  0  0  0  0  0  0  0  0  0  0
   -0.0827    3.1403   -0.4756 H   0  0  0  0  0  0  0  0  0  0  0  0
    0.0497    1.7802   -1.5900 H   0  0  0  0  0  0  0  0  0  0  0  0
    1.0906    1.8507    1.2959 H   0  0  0  0  0  0  0  0  0  0  0  0
    2.0591    2.0243   -0.1691 H   0  0  0  0  0  0  0  0  0  0  0  0
    2.4570   -1.7285    0.2141 H   0  0  0  0  0  0  0  0  0  0  0  0
    3.6002   -0.1268    2.6741 H   0  0  0  0  0  0  0  0  0  0  0  0
    5.7891    1.0159    2.9956 H   0  0  0  0  0  0  0  0  0  0  0  0
    6.3687    1.4073   -1.0627 H   0  0  0  0  0  0  0  0  0  0  0  0
    4.2099    0.2772   -1.5827 H   0  0  0  0  0  0  0  0  0  0  0  0
  1  2  2  0  0  0  0
  2  3  1  0  0  0  0
  2 14  1  0  0  0  0
  3  4  2  0  0  0  0
  3 11  1  0  0  0  0
  4  5  1  0  0  0  0
  4 22  1  0  0  0  0
  5  6  2  0  0  0  0
  5 10  1  0  0  0  0
  6  7  1  0  0  0  0
  6 23  1  0  0  0  0
  7  8  2  0  0  0  0
  7 24  1  0  0  0  0
  8  9  1  0  0  0  0
  9 10  2  0  0  0  0
  9 25  1  0  0  0  0
 10 26  1  0  0  0  0
 11 12  1  0  0  0  0
 11 27  1  0  0  0  0
 11 28  1  0  0  0  0
 12 13  1  0  0  0  0
 12 29  1  0  0  0  0
 12 30  1  0  0  0  0
 13 14  1  0  0  0  0
 13 31  1  0  0  0  0
 13 32  1  0  0  0  0
 14 15  2  0  0  0  0
 15 16  1  0  0  0  0
 15 33  1  0  0  0  0
 16 17  2  0  0  0  0
 16 21  1  0  0  0  0
 17 18  1  0  0  0  0
 17 34  1  0  0  0  0
 18 19  2  0  0  0  0
 18 35  1  0  0  0  0
 19 20  1  0  0  0  0
 20 21  2  0  0  0  0
 20 36  1  0  0  0  0
 21 37  1  0  0  0  0
M  END
$$$$
