
 OpenBabel09162610133D

 27 29  0  0  0  0  0  0  0  0999 V2000
    0.9437    0.0622    0.0545 N   0  0  0  0  0  0  0  0  0  0  0  0
    2.2047    0.0622    0.0545 C   0  0  0  0  0  0  0  0  0  0  0  0
    3.7247    0.0622    0.0545 C   0  0  0  0  0  0  0  0  0  0  0  0
    4.4125   -1.0952    0.1477 C   0  0  0  0  0  0  0  0  0  0  0  0
    3.8162   -2.3250    0.3296 O   0  0  0  0  0  0  0  0  0  0  0  0
    5.8490   -1.1025    0.0868 C   0  0  0  0  0  0  0  0  0  0  0  0
    6.4508    0.1315    0.0435 C   0  0  0  0  0  0  0  0  0  0  0  0
    5.8122    1.3403    0.0117 N   0  0  0  0  0  0  0  0  0  0  0  0
    4.4377    1.3761   -0.0197 C   0  0  0  0  0  0  0  0  0  0  0  0
    3.8273    2.4339   -0.0878 O   0  0  0  0  0  0  0  0  0  0  0  0
    8.1249    0.1074    0.0135 S   0  0  0  0  0  0  0  0  0  0  0  0
    8.1125   -1.6093   -0.0056 C   0  0  0  0  0  0  0  0  0  0  0  0
    6.8327   -2.1590    0.0272 C   0  0  0  0  0  0  0  0  0  0  0  0
    6.6608   -3.6195   -0.0105 C   0  0  0  0  0  0  0  0  0  0  0  0
    7.5385   -4.4690    0.6818 C   0  0  0  0  0  0  0  0  0  0  0  0
    7.3445   -5.8545    0.6841 C   0  0  0  0  0  0  0  0  0  0  0  0
    6.2540   -6.4090    0.0198 C   0  0  0  0  0  0  0  0  0  0  0  0
    5.3894   -5.5850   -0.6921 C   0  0  0  0  0  0  0  0  0  0  0  0
    5.6179   -4.2071   -0.7382 C   0  0  0  0  0  0  0  0  0  0  0  0
    2.8453   -2.2700    0.3200 H   0  0  0  0  0  0  0  0  0  0  0  0
    6.3334    2.2053   -0.0240 H   0  0  0  0  0  0  0  0  0  0  0  0
    9.0611   -2.1269   -0.0532 H   0  0  0  0  0  0  0  0  0  0  0  0
    8.3802   -4.0676    1.2404 H   0  0  0  0  0  0  0  0  0  0  0  0
    8.0375   -6.4979    1.2197 H   0  0  0  0  0  0  0  0  0  0  0  0
    6.0800   -7.4810    0.0533 H   0  0  0  0  0  0  0  0  0  0  0  0
    4.5321   -6.0080   -1.2090 H   0  0  0  0  0  0  0  0  0  0  0  0
    4.9468   -3.5971   -1.3361 H   0  0  0  0  0  0  0  0  0  0  0  0
  1  2  3  0  0  0  0
  2  3  1  0  0  0  0
  3  4  2  0  0  0  0
  3  9  1  0  0  0  0
  4  5  1  0  0  0  0
  4  6  1  0  0  0  0
  5 20  1  0  0  0  0
  6  7  2  0  0  0  0
  6 13  1  0  0  0  0
  7  8  1  0  0  0  0
  7 11  1  0  0  0  0
  8  9  1  0  0  0  0
  8 21  1  0  0  0  0
  9 10  2  0  0  0  0
 11 12  1  0  0  0  0
 12 13  2  0  0  0  0
 12 22  1  0  0  0  0
 13 14  1  0  0  0  0
 14 15  2  0  0  0  0
 14 19  1  0  0  0  0
 15 16  1  0  0  0  0
 15 23  1  0  0  0  0
 16 17  2  0  0  0  0
 16 24  1  0  0  0  0
 17 18  1  0  0  0  0
 17 25  1  0  0  0  0
 18 19  2  0  0  0  0
 18 26  1  0  0  0  0
 19 27  1  0  0  0  0
M  END
$$$$
