
 OpenBabel09162610133D

 34 36  0  0  0  0  0  0  0  0999 V2000
    9.3564    2.5955   -5.0802 C   0  0  0  0  0  0  0  0  0  0  0  0
    8.2136    1.7458   -5.1964 O   0  0  0  0  0  0  0  0  0  0  0  0
    8.4707    0.4477   -4.9054 C   0  0  0  0  0  0  0  0  0  0  0  0
    9.5519   -0.0060   -4.5631 O   0  0  0  0  0  0  0  0  0  0  0  0
    7.2521   -0.3887   -5.0724 C   0  0  0  0  0  0  0  0  0  0  0  0
    6.0366    0.1258   -5.5335 C   0  0  0  0  0  0  0  0  0  0  0  0
    4.9431   -0.7242   -5.6965 C   0  0  0  0  0  0  0  0  0  0  0  0
    5.0595   -2.0854   -5.3976 C   0  0  0  0  0  0  0  0  0  0  0  0
    6.2635   -2.6284   -4.9143 C   0  0  0  0  0  0  0  0  0  0  0  0
    6.3882   -4.0615   -4.5696 C   0  0  0  0  0  0  0  0  0  0  0  0
    7.5558   -4.7883   -4.8768 C   0  0  0  0  0  0  0  0  0  0  0  0
    7.6848   -6.1408   -4.5469 C   0  0  0  0  0  0  0  0  0  0  0  0
    6.6420   -6.7945   -3.9018 C   0  0  0  0  0  0  0  0  0  0  0  0
    5.4809   -6.0882   -3.5461 C   0  0  0  0  0  0  0  0  0  0  0  0
    5.3535   -4.7399   -3.8986 C   0  0  0  0  0  0  0  0  0  0  0  0
    4.3748   -6.7680   -2.8350 C   0  0  0  0  0  0  0  0  0  0  0  0
    4.7896   -7.7878   -2.0587 C   0  0  0  0  0  0  0  0  0  0  0  0
    5.5984   -9.0352   -3.0183 S   0  0  0  0  0  0  0  0  0  0  0  0
    4.7341   -9.4471   -4.1081 O   0  0  0  0  0  0  0  0  0  0  0  0
    6.1700  -10.0096   -2.1079 O   0  0  0  0  0  0  0  0  0  0  0  0
    6.8252   -8.1343   -3.6313 O   0  0  0  0  0  0  0  0  0  0  0  0
    7.3514   -1.7527   -4.7600 C   0  0  0  0  0  0  0  0  0  0  0  0
    9.0224    3.6309   -5.1856 H   0  0  0  0  0  0  0  0  0  0  0  0
   10.0688    2.3756   -5.8811 H   0  0  0  0  0  0  0  0  0  0  0  0
    9.8315    2.4872   -4.1001 H   0  0  0  0  0  0  0  0  0  0  0  0
    5.9287    1.1797   -5.7768 H   0  0  0  0  0  0  0  0  0  0  0  0
    3.9982   -0.3291   -6.0623 H   0  0  0  0  0  0  0  0  0  0  0  0
    4.1918   -2.7239   -5.5569 H   0  0  0  0  0  0  0  0  0  0  0  0
    8.3850   -4.3061   -5.3933 H   0  0  0  0  0  0  0  0  0  0  0  0
    8.5973   -6.6753   -4.8000 H   0  0  0  0  0  0  0  0  0  0  0  0
    4.4438   -4.2069   -3.6271 H   0  0  0  0  0  0  0  0  0  0  0  0
    3.5741   -6.9653   -3.5549 H   0  0  0  0  0  0  0  0  0  0  0  0
    5.4277   -7.5738   -1.2064 H   0  0  0  0  0  0  0  0  0  0  0  0
    8.2996   -2.1309   -4.3773 H   0  0  0  0  0  0  0  0  0  0  0  0
  1  2  1  0  0  0  0
  1 23  1  0  0  0  0
  1 24  1  0  0  0  0
  1 25  1  0  0  0  0
  2  3  1  0  0  0  0
  3  4  2  0  0  0  0
  3  5  1  0  0  0  0
  5  6  2  0  0  0  0
  5 22  1  0  0  0  0
  6  7  1  0  0  0  0
  6 26  1  0  0  0  0
  7  8  2  0  0  0  0
  7 27  1  0  0  0  0
  8  9  1  0  0  0  0
  8 28  1  0  0  0  0
  9 10  1  0  0  0  0
  9 22  2  0  0  0  0
 10 11  2  0  0  0  0
 10 15  1  0  0  0  0
 11 12  1  0  0  0  0
 11 29  1  0  0  0  0
 12 13  2  0  0  0  0
 12 30  1  0  0  0  0
 13 14  1  0  0  0  0
 13 21  1  0  0  0  0
 14 15  2  0  0  0  0
 14 16  1  0  0  0  0
 15 31  1  0  0  0  0
 16 17  2  3  0  0  0
 16 32  1  0  0  0  0
 17 18  1  0  0  0  0
 17 33  1  0  0  0  0
 18 19  2  0  0  0  0
 18 20  2  0  0  0  0
 18 21  1  0  0  0  0
 22 34  1  0  0  0  0
M  END
$$$$
