
 OpenBabel09162610133D

 38 39  0  0  0  0  0  0  0  0999 V2000
    1.5784   -0.7119    1.1895 C   0  0  0  0  0  0  0  0  0  0  0  0
    2.4376   -0.1128    0.2252 O   0  0  0  0  0  0  0  0  0  0  0  0
    3.0346   -0.9707   -0.6577 C   0  0  0  0  0  0  0  0  0  0  0  0
    2.5593   -2.2349   -1.0056 C   0  0  0  0  0  0  0  0  0  0  0  0
    3.2638   -3.0200   -1.9256 C   0  0  0  0  0  0  0  0  0  0  0  0
    4.4454   -2.5479   -2.5042 C   0  0  0  0  0  0  0  0  0  0  0  0
    5.1807   -3.3834   -3.4601 C   0  0  0  0  0  0  0  0  0  0  0  0
    4.9710   -3.4052   -4.7863 C   0  0  0  0  0  0  0  0  0  0  0  0
    3.9821   -2.5744   -5.4737 C   0  0  0  0  0  0  0  0  0  0  0  0
    4.3389   -1.3107   -5.9403 C   0  0  0  0  0  0  0  0  0  0  0  0
    3.3744   -0.4717   -6.5031 C   0  0  0  0  0  0  0  0  0  0  0  0
    2.0370   -0.8817   -6.6105 C   0  0  0  0  0  0  0  0  0  0  0  0
    1.0427   -0.0632   -7.0766 O   0  0  0  0  0  0  0  0  0  0  0  0
    1.3270    1.3268   -7.1791 C   0  0  0  0  0  0  0  0  0  0  0  0
    1.6925   -2.1845   -6.2086 C   0  0  0  0  0  0  0  0  0  0  0  0
    0.4560   -2.7780   -6.2654 O   0  0  0  0  0  0  0  0  0  0  0  0
   -0.4489   -2.3006   -7.2530 C   0  0  0  0  0  0  0  0  0  0  0  0
    2.6642   -3.0103   -5.6232 C   0  0  0  0  0  0  0  0  0  0  0  0
    4.9088   -1.2733   -2.1718 C   0  0  0  0  0  0  0  0  0  0  0  0
    4.2009   -0.4873   -1.2580 C   0  0  0  0  0  0  0  0  0  0  0  0
    1.2757    0.0668    1.8960 H   0  0  0  0  0  0  0  0  0  0  0  0
    2.1028   -1.4904    1.7539 H   0  0  0  0  0  0  0  0  0  0  0  0
    0.6690   -1.1056    0.7251 H   0  0  0  0  0  0  0  0  0  0  0  0
    1.6380   -2.6309   -0.5953 H   0  0  0  0  0  0  0  0  0  0  0  0
    2.8745   -3.9990   -2.1963 H   0  0  0  0  0  0  0  0  0  0  0  0
    5.9399   -4.0250   -3.0218 H   0  0  0  0  0  0  0  0  0  0  0  0
    5.5596   -4.0611   -5.4216 H   0  0  0  0  0  0  0  0  0  0  0  0
    5.3631   -0.9586   -5.8425 H   0  0  0  0  0  0  0  0  0  0  0  0
    3.6985    0.5094   -6.8339 H   0  0  0  0  0  0  0  0  0  0  0  0
    0.3831    1.8476   -7.3668 H   0  0  0  0  0  0  0  0  0  0  0  0
    1.9896    1.5206   -8.0285 H   0  0  0  0  0  0  0  0  0  0  0  0
    1.7452    1.7273   -6.2491 H   0  0  0  0  0  0  0  0  0  0  0  0
   -1.1868   -3.0886   -7.4332 H   0  0  0  0  0  0  0  0  0  0  0  0
    0.0450   -2.0968   -8.2093 H   0  0  0  0  0  0  0  0  0  0  0  0
   -0.9917   -1.4261   -6.8823 H   0  0  0  0  0  0  0  0  0  0  0  0
    2.3763   -3.9986   -5.2717 H   0  0  0  0  0  0  0  0  0  0  0  0
    5.8169   -0.8814   -2.6207 H   0  0  0  0  0  0  0  0  0  0  0  0
    4.5638    0.5053   -1.0035 H   0  0  0  0  0  0  0  0  0  0  0  0
  1  2  1  0  0  0  0
  1 21  1  0  0  0  0
  1 22  1  0  0  0  0
  1 23  1  0  0  0  0
  2  3  1  0  0  0  0
  3  4  2  0  0  0  0
  3 20  1  0  0  0  0
  4  5  1  0  0  0  0
  4 24  1  0  0  0  0
  5  6  2  0  0  0  0
  5 25  1  0  0  0  0
  6  7  1  0  0  0  0
  6 19  1  0  0  0  0
  7  8  2  0  0  0  0
  7 26  1  0  0  0  0
  8  9  1  0  0  0  0
  8 27  1  0  0  0  0
  9 10  2  0  0  0  0
  9 18  1  0  0  0  0
 10 11  1  0  0  0  0
 10 28  1  0  0  0  0
 11 12  2  0  0  0  0
 11 29  1  0  0  0  0
 12 13  1  0  0  0  0
 12 15  1  0  0  0  0
 13 14  1  0  0  0  0
 14 30  1  0  0  0  0
 14 31  1  0  0  0  0
 14 32  1  0  0  0  0
 15 16  1  0  0  0  0
 15 18  2  0  0  0  0
 16 17  1  0  0  0  0
 17 33  1  0  0  0  0
 17 34  1  0  0  0  0
 17 35  1  0  0  0  0
 18 36  1  0  0  0  0
 19 20  2  0  0  0  0
 19 37  1  0  0  0  0
 20 38  1  0  0  0  0
M  END
$$$$
