
 OpenBabel09162610133D

 41 44  0  0  1  0  0  0  0  0999 V2000
    0.9303    0.2916    0.0229 C   0  0  0  0  0  0  0  0  0  0  0  0
    2.4584    0.1164   -0.0768 C   0  0  0  0  0  0  0  0  0  0  0  0
    3.0557    0.4748    1.3015 C   0  0  0  0  0  0  0  0  0  0  0  0
    3.0170    1.1273   -1.1160 C   0  0  0  0  0  0  0  0  0  0  0  0
    2.6446    0.7858   -2.5593 C   0  0  0  0  0  0  0  0  0  0  0  0
    3.0552   -0.6342   -2.9333 C   0  0  0  0  0  0  0  0  0  0  0  0
    2.4945   -1.6641   -1.9547 C   0  0  0  0  0  0  0  0  0  0  0  0
    2.9066   -1.3211   -0.5134 C   0  0  2  0  0  0  0  0  0  0  0  0
    2.5792   -2.3837    0.4256 N   0  0  0  0  0  0  0  0  0  0  0  0
    1.2761   -2.8983    0.6561 C   0  0  0  0  0  0  0  0  0  0  0  0
    0.2397   -2.6685    0.0573 O   0  0  0  0  0  0  0  0  0  0  0  0
    1.3888   -3.7607    1.7606 N   0  0  0  0  0  0  0  0  0  0  0  0
    2.7023   -3.8078    2.1929 C   0  0  0  0  0  0  0  0  0  0  0  0
    3.2173   -4.5347    3.2563 C   0  0  0  0  0  0  0  0  0  0  0  0
    4.5450   -4.4909    3.5338 N   0  0  0  0  0  0  0  0  0  0  0  0
    5.2558   -3.7179    2.6955 C   0  0  0  0  0  0  0  0  0  0  0  0
    6.6156   -3.5255    2.7075 N   0  0  0  0  0  0  0  0  0  0  0  0
    6.9817   -2.6993    1.6564 C   0  0  0  0  0  0  0  0  0  0  0  0
    5.8430   -2.3249    0.9570 C   0  0  0  0  0  0  0  0  0  0  0  0
    4.8243   -2.9600    1.6396 C   0  0  0  0  0  0  0  0  0  0  0  0
    3.4483   -2.9726    1.3480 C   0  0  0  0  0  0  0  0  0  0  0  0
    0.6687    1.3454    0.1766 H   0  0  0  0  0  0  0  0  0  0  0  0
    0.5168   -0.2553    0.8758 H   0  0  0  0  0  0  0  0  0  0  0  0
    0.4096   -0.0409   -0.8791 H   0  0  0  0  0  0  0  0  0  0  0  0
    2.8023    1.5030    1.5844 H   0  0  0  0  0  0  0  0  0  0  0  0
    4.1478    0.3930    1.2963 H   0  0  0  0  0  0  0  0  0  0  0  0
    2.6721   -0.1809    2.0911 H   0  0  0  0  0  0  0  0  0  0  0  0
    4.1127    1.1566   -1.0403 H   0  0  0  0  0  0  0  0  0  0  0  0
    2.6693    2.1422   -0.8858 H   0  0  0  0  0  0  0  0  0  0  0  0
    3.1353    1.4953   -3.2357 H   0  0  0  0  0  0  0  0  0  0  0  0
    1.5657    0.9075   -2.7075 H   0  0  0  0  0  0  0  0  0  0  0  0
    4.1509   -0.7024   -2.9422 H   0  0  0  0  0  0  0  0  0  0  0  0
    2.7172   -0.8642   -3.9496 H   0  0  0  0  0  0  0  0  0  0  0  0
    2.8795   -2.6562   -2.2231 H   0  0  0  0  0  0  0  0  0  0  0  0
    1.4062   -1.7174   -2.0598 H   0  0  0  0  0  0  0  0  0  0  0  0
    3.9948   -1.2843   -0.5545 H   0  0  0  0  0  0  0  0  0  0  0  0
    0.6015   -4.2528    2.1503 H   0  0  0  0  0  0  0  0  0  0  0  0
    2.6011   -5.1520    3.8973 H   0  0  0  0  0  0  0  0  0  0  0  0
    7.2400   -3.9558    3.3727 H   0  0  0  0  0  0  0  0  0  0  0  0
    8.0241   -2.4583    1.4945 H   0  0  0  0  0  0  0  0  0  0  0  0
    5.8452   -1.6980    0.0796 H   0  0  0  0  0  0  0  0  0  0  0  0
  1  2  1  0  0  0  0
  1 22  1  0  0  0  0
  1 23  1  0  0  0  0
  1 24  1  0  0  0  0
  2  3  1  0  0  0  0
  2  4  1  0  0  0  0
  2  8  1  0  0  0  0
  3 25  1  0  0  0  0
  3 26  1  0  0  0  0
  3 27  1  0  0  0  0
  4  5  1  0  0  0  0
  4 28  1  0  0  0  0
  4 29  1  0  0  0  0
  5  6  1  0  0  0  0
  5 30  1  0  0  0  0
  5 31  1  0  0  0  0
  6  7  1  0  0  0  0
  6 32  1  0  0  0  0
  6 33  1  0  0  0  0
  7  8  1  0  0  0  0
  7 34  1  0  0  0  0
  7 35  1  0  0  0  0
  8  9  1  0  0  0  0
  8 36  1  6  0  0  0
  9 10  1  0  0  0  0
  9 21  1  0  0  0  0
 10 11  2  0  0  0  0
 10 12  1  0  0  0  0
 12 13  1  0  0  0  0
 12 37  1  0  0  0  0
 13 14  2  0  0  0  0
 13 21  1  0  0  0  0
 14 15  1  0  0  0  0
 14 38  1  0  0  0  0
 15 16  2  0  0  0  0
 16 17  1  0  0  0  0
 16 20  1  0  0  0  0
 17 18  1  0  0  0  0
 17 39  1  0  0  0  0
 18 19  2  0  0  0  0
 18 40  1  0  0  0  0
 19 20  1  0  0  0  0
 19 41  1  0  0  0  0
 20 21  2  0  0  0  0
M  END
$$$$
