
 OpenBabel09162610133D

 37 39  0  0  0  0  0  0  0  0999 V2000
    1.4264    0.7513    0.6509 C   0  0  0  0  0  0  0  0  0  0  0  0
    2.4187   -0.0217   -0.0113 O   0  0  0  0  0  0  0  0  0  0  0  0
    3.1796   -0.8465    0.7696 C   0  0  0  0  0  0  0  0  0  0  0  0
    3.1094   -0.9612    2.1574 C   0  0  0  0  0  0  0  0  0  0  0  0
    3.9479   -1.8573    2.8331 C   0  0  0  0  0  0  0  0  0  0  0  0
    4.8633   -2.6536    2.1328 C   0  0  0  0  0  0  0  0  0  0  0  0
    5.7322   -3.5922    2.8431 C   0  0  0  0  0  0  0  0  0  0  0  0
    6.3212   -4.7811    2.3366 C   0  0  0  0  0  0  0  0  0  0  0  0
    7.0976   -5.3002    3.3542 C   0  0  0  0  0  0  0  0  0  0  0  0
    7.9809   -6.4612    3.3958 C   0  0  0  0  0  0  0  0  0  0  0  0
    8.6345   -6.8820    2.2295 C   0  0  0  0  0  0  0  0  0  0  0  0
    9.4963   -7.9831    2.2406 C   0  0  0  0  0  0  0  0  0  0  0  0
    9.7155   -8.6881    3.4218 C   0  0  0  0  0  0  0  0  0  0  0  0
   10.5264   -9.7793    3.5671 O   0  0  0  0  0  0  0  0  0  0  0  0
   11.2124  -10.2260    2.4038 C   0  0  0  0  0  0  0  0  0  0  0  0
    9.0641   -8.2791    4.5870 C   0  0  0  0  0  0  0  0  0  0  0  0
    8.2030   -7.1757    4.5778 C   0  0  0  0  0  0  0  0  0  0  0  0
    6.9177   -4.4261    4.3933 N   0  0  0  0  0  0  0  0  0  0  0  0
    6.0871   -3.4063    4.1242 N   0  0  0  0  0  0  0  0  0  0  0  0
    4.9350   -2.5242    0.7399 C   0  0  0  0  0  0  0  0  0  0  0  0
    4.1004   -1.6260    0.0678 C   0  0  0  0  0  0  0  0  0  0  0  0
    0.8661    1.2999   -0.1124 H   0  0  0  0  0  0  0  0  0  0  0  0
    1.8854    1.4850    1.3216 H   0  0  0  0  0  0  0  0  0  0  0  0
    0.7166    0.1131    1.1876 H   0  0  0  0  0  0  0  0  0  0  0  0
    2.4187   -0.3699    2.7484 H   0  0  0  0  0  0  0  0  0  0  0  0
    3.8803   -1.9341    3.9169 H   0  0  0  0  0  0  0  0  0  0  0  0
    6.1978   -5.2019    1.3491 H   0  0  0  0  0  0  0  0  0  0  0  0
    8.4889   -6.3458    1.2941 H   0  0  0  0  0  0  0  0  0  0  0  0
    9.9799   -8.2582    1.3091 H   0  0  0  0  0  0  0  0  0  0  0  0
   11.7853  -11.1181    2.6740 H   0  0  0  0  0  0  0  0  0  0  0  0
   11.9200   -9.4681    2.0506 H   0  0  0  0  0  0  0  0  0  0  0  0
   10.5104  -10.5103    1.6126 H   0  0  0  0  0  0  0  0  0  0  0  0
    9.2244   -8.8292    5.5115 H   0  0  0  0  0  0  0  0  0  0  0  0
    7.7013   -6.9048    5.5031 H   0  0  0  0  0  0  0  0  0  0  0  0
    7.3531   -4.4558    5.3078 H   0  0  0  0  0  0  0  0  0  0  0  0
    5.6482   -3.1030    0.1601 H   0  0  0  0  0  0  0  0  0  0  0  0
    4.1715   -1.5322   -1.0132 H   0  0  0  0  0  0  0  0  0  0  0  0
  1  2  1  0  0  0  0
  1 22  1  0  0  0  0
  1 23  1  0  0  0  0
  1 24  1  0  0  0  0
  2  3  1  0  0  0  0
  3  4  2  0  0  0  0
  3 21  1  0  0  0  0
  4  5  1  0  0  0  0
  4 25  1  0  0  0  0
  5  6  2  0  0  0  0
  5 26  1  0  0  0  0
  6  7  1  0  0  0  0
  6 20  1  0  0  0  0
  7  8  1  0  0  0  0
  7 19  2  0  0  0  0
  8  9  2  0  0  0  0
  8 27  1  0  0  0  0
  9 10  1  0  0  0  0
  9 18  1  0  0  0  0
 10 11  2  0  0  0  0
 10 17  1  0  0  0  0
 11 12  1  0  0  0  0
 11 28  1  0  0  0  0
 12 13  2  0  0  0  0
 12 29  1  0  0  0  0
 13 14  1  0  0  0  0
 13 16  1  0  0  0  0
 14 15  1  0  0  0  0
 15 30  1  0  0  0  0
 15 31  1  0  0  0  0
 15 32  1  0  0  0  0
 16 17  2  0  0  0  0
 16 33  1  0  0  0  0
 17 34  1  0  0  0  0
 18 19  1  0  0  0  0
 18 35  1  0  0  0  0
 20 21  2  0  0  0  0
 20 36  1  0  0  0  0
 21 37  1  0  0  0  0
M  END
$$$$
