
 OpenBabel09162610133D

 29 31  0  0  1  0  0  0  0  0999 V2000
    5.1778   -5.5612   -0.5525 Cl  0  0  0  0  0  0  0  0  0  0  0  0
    5.8246   -3.9636   -0.3911 C   0  0  0  0  0  0  0  0  0  0  0  0
    4.9534   -2.8925   -0.6239 C   0  0  0  0  0  0  0  0  0  0  0  0
    5.4422   -1.5839   -0.5043 C   0  0  0  0  0  0  0  0  0  0  0  0
    4.7811   -0.3955   -0.6634 N   0  0  0  0  0  0  0  0  0  0  0  0
    5.6846    0.5338   -0.4559 C   0  0  0  0  0  0  0  0  0  0  0  0
    6.9154    0.0057   -0.1770 N   0  0  0  0  0  0  0  0  0  0  0  0
    8.1484    0.7438    0.0738 C   0  0  2  0  0  0  0  0  0  0  0  0
    8.0827    1.8468    1.1410 C   0  0  0  0  0  0  0  0  0  0  0  0
    7.7453    3.2310    0.6005 C   0  0  0  0  0  0  0  0  0  0  0  0
    8.5100    3.5150   -0.6830 C   0  0  0  0  0  0  0  0  0  0  0  0
    8.2779    2.3969   -1.6831 C   0  0  0  0  0  0  0  0  0  0  0  0
    8.7343    1.1512   -1.1668 O   0  0  0  0  0  0  0  0  0  0  0  0
    6.7784   -1.3701   -0.1746 C   0  0  0  0  0  0  0  0  0  0  0  0
    7.6665   -2.4289    0.0658 C   0  0  0  0  0  0  0  0  0  0  0  0
    7.1618   -3.7341   -0.0423 C   0  0  0  0  0  0  0  0  0  0  0  0
    8.2653   -5.0295    0.2766 Cl  0  0  0  0  0  0  0  0  0  0  0  0
    3.9148   -3.0536   -0.8922 H   0  0  0  0  0  0  0  0  0  0  0  0
    5.4921    1.5975   -0.5105 H   0  0  0  0  0  0  0  0  0  0  0  0
    8.8422   -0.0029    0.4762 H   0  0  0  0  0  0  0  0  0  0  0  0
    9.0827    1.9225    1.5906 H   0  0  0  0  0  0  0  0  0  0  0  0
    7.4002    1.5744    1.9536 H   0  0  0  0  0  0  0  0  0  0  0  0
    7.9885    3.9900    1.3534 H   0  0  0  0  0  0  0  0  0  0  0  0
    6.6695    3.3113    0.4144 H   0  0  0  0  0  0  0  0  0  0  0  0
    9.5806    3.5813   -0.4531 H   0  0  0  0  0  0  0  0  0  0  0  0
    8.1992    4.4770   -1.1038 H   0  0  0  0  0  0  0  0  0  0  0  0
    8.8431    2.5991   -2.5991 H   0  0  0  0  0  0  0  0  0  0  0  0
    7.2242    2.3263   -1.9703 H   0  0  0  0  0  0  0  0  0  0  0  0
    8.7060   -2.2568    0.3253 H   0  0  0  0  0  0  0  0  0  0  0  0
  1  2  1  0  0  0  0
  2  3  2  0  0  0  0
  2 16  1  0  0  0  0
  3  4  1  0  0  0  0
  3 18  1  0  0  0  0
  4  5  1  0  0  0  0
  4 14  2  0  0  0  0
  5  6  2  0  0  0  0
  6  7  1  0  0  0  0
  6 19  1  0  0  0  0
  7  8  1  0  0  0  0
  7 14  1  0  0  0  0
  8  9  1  0  0  0  0
  8 13  1  0  0  0  0
  8 20  1  1  0  0  0
  9 10  1  0  0  0  0
  9 21  1  0  0  0  0
  9 22  1  0  0  0  0
 10 11  1  0  0  0  0
 10 23  1  0  0  0  0
 10 24  1  0  0  0  0
 11 12  1  0  0  0  0
 11 25  1  0  0  0  0
 11 26  1  0  0  0  0
 12 13  1  0  0  0  0
 12 27  1  0  0  0  0
 12 28  1  0  0  0  0
 14 15  1  0  0  0  0
 15 16  2  0  0  0  0
 15 29  1  0  0  0  0
 16 17  1  0  0  0  0
M  END
$$$$
