
 OpenBabel09162610133D

 31 33  0  0  0  0  0  0  0  0999 V2000
    0.2003   -4.5993   -1.2948 C   0  0  0  0  0  0  0  0  0  0  0  0
   -0.6244   -4.8530   -0.2010 C   0  0  0  0  0  0  0  0  0  0  0  0
   -1.8985   -4.2868   -0.1396 C   0  0  0  0  0  0  0  0  0  0  0  0
   -2.3649   -3.4660   -1.1772 C   0  0  0  0  0  0  0  0  0  0  0  0
   -3.7540   -2.8813   -1.1211 C   0  0  0  0  0  0  0  0  0  0  0  0
   -3.7676   -1.2217   -0.3703 S   0  0  0  0  0  0  0  0  0  0  0  0
   -5.4971   -0.8410   -0.5416 C   0  0  0  0  0  0  0  0  0  0  0  0
   -5.9192    0.4777   -0.5826 C   0  0  0  0  0  0  0  0  0  0  0  0
   -7.2773    0.7466   -0.7532 C   0  0  0  0  0  0  0  0  0  0  0  0
   -8.1600   -0.3158   -0.8657 C   0  0  0  0  0  0  0  0  0  0  0  0
   -9.5868   -0.1614   -1.0968 C   0  0  0  0  0  0  0  0  0  0  0  0
  -10.6441   -1.0485   -1.1660 C   0  0  0  0  0  0  0  0  0  0  0  0
  -11.7984   -0.2856   -1.4661 C   0  0  0  0  0  0  0  0  0  0  0  0
  -11.3787    1.0200   -1.5569 C   0  0  0  0  0  0  0  0  0  0  0  0
  -10.0426    1.1082   -1.3297 O   0  0  0  0  0  0  0  0  0  0  0  0
   -7.7242   -1.5928   -0.7937 N   0  0  0  0  0  0  0  0  0  0  0  0
   -6.3840   -1.8540   -0.6306 N   0  0  0  0  0  0  0  0  0  0  0  0
   -1.5189   -3.2050   -2.2658 C   0  0  0  0  0  0  0  0  0  0  0  0
   -0.2446   -3.7722   -2.3243 C   0  0  0  0  0  0  0  0  0  0  0  0
    1.1903   -5.0445   -1.3438 H   0  0  0  0  0  0  0  0  0  0  0  0
   -0.2764   -5.4944    0.6052 H   0  0  0  0  0  0  0  0  0  0  0  0
   -2.5309   -4.4951    0.7216 H   0  0  0  0  0  0  0  0  0  0  0  0
   -4.4038   -3.5536   -0.5489 H   0  0  0  0  0  0  0  0  0  0  0  0
   -4.1635   -2.8252   -2.1369 H   0  0  0  0  0  0  0  0  0  0  0  0
   -5.2094    1.2945   -0.5019 H   0  0  0  0  0  0  0  0  0  0  0  0
   -7.6286    1.7720   -0.8075 H   0  0  0  0  0  0  0  0  0  0  0  0
  -10.5782   -2.1190   -1.0258 H   0  0  0  0  0  0  0  0  0  0  0  0
  -12.8088   -0.6440   -1.6049 H   0  0  0  0  0  0  0  0  0  0  0  0
  -11.8798    1.9546   -1.7689 H   0  0  0  0  0  0  0  0  0  0  0  0
   -1.8516   -2.5615   -3.0775 H   0  0  0  0  0  0  0  0  0  0  0  0
    0.4008   -3.5701   -3.1753 H   0  0  0  0  0  0  0  0  0  0  0  0
  1  2  2  0  0  0  0
  1 19  1  0  0  0  0
  1 20  1  0  0  0  0
  2  3  1  0  0  0  0
  2 21  1  0  0  0  0
  3  4  2  0  0  0  0
  3 22  1  0  0  0  0
  4  5  1  0  0  0  0
  4 18  1  0  0  0  0
  5  6  1  0  0  0  0
  5 23  1  0  0  0  0
  5 24  1  0  0  0  0
  6  7  1  0  0  0  0
  7  8  2  0  0  0  0
  7 17  1  0  0  0  0
  8  9  1  0  0  0  0
  8 25  1  0  0  0  0
  9 10  2  0  0  0  0
  9 26  1  0  0  0  0
 10 11  1  0  0  0  0
 10 16  1  0  0  0  0
 11 12  2  0  0  0  0
 11 15  1  0  0  0  0
 12 13  1  0  0  0  0
 12 27  1  0  0  0  0
 13 14  2  0  0  0  0
 13 28  1  0  0  0  0
 14 15  1  0  0  0  0
 14 29  1  0  0  0  0
 16 17  2  0  0  0  0
 18 19  2  0  0  0  0
 18 30  1  0  0  0  0
 19 31  1  0  0  0  0
M  END
$$$$
