
 OpenBabel09162610133D

 34 37  0  0  0  0  0  0  0  0999 V2000
    1.1032    0.0094    0.0712 O   0  0  0  0  0  0  0  0  0  0  0  0
    2.3177   -0.0326    0.0935 C   0  0  0  0  0  0  0  0  0  0  0  0
    3.2583    1.1305    0.0822 C   0  0  0  0  0  0  0  0  0  0  0  0
    2.8401    2.4038    0.0328 C   0  0  0  0  0  0  0  0  0  0  0  0
    3.8019    3.5073    0.0256 C   0  0  0  0  0  0  0  0  0  0  0  0
    4.3019    4.0029   -1.1892 C   0  0  0  0  0  0  0  0  0  0  0  0
    5.3213    4.9621   -1.2005 C   0  0  0  0  0  0  0  0  0  0  0  0
    5.8361    5.4148    0.0081 C   0  0  0  0  0  0  0  0  0  0  0  0
    6.8664    6.3120    0.0658 O   0  0  0  0  0  0  0  0  0  0  0  0
    5.3217    4.9434    1.2136 C   0  0  0  0  0  0  0  0  0  0  0  0
    5.8417    5.3869    2.3960 O   0  0  0  0  0  0  0  0  0  0  0  0
    4.3045    3.9996    1.2350 C   0  0  0  0  0  0  0  0  0  0  0  0
    4.6742    0.6058    0.1162 C   0  0  0  0  0  0  0  0  0  0  0  0
    4.5033   -0.8825    0.1240 C   0  0  0  0  0  0  0  0  0  0  0  0
    5.5031   -1.8457    0.1138 C   0  0  0  0  0  0  0  0  0  0  0  0
    5.0772   -3.1583    0.0637 C   0  0  0  0  0  0  0  0  0  0  0  0
    3.7355   -3.5084    0.0523 C   0  0  0  0  0  0  0  0  0  0  0  0
    2.7240   -2.5694    0.0913 C   0  0  0  0  0  0  0  0  0  0  0  0
    3.1439   -1.2483    0.1132 C   0  0  0  0  0  0  0  0  0  0  0  0
    3.5632   -4.8572   -0.0257 O   0  0  0  0  0  0  0  0  0  0  0  0
    4.9268   -5.2971   -0.1985 C   0  0  0  0  0  0  0  0  0  0  0  0
    5.8943   -4.2450   -0.0051 O   0  0  0  0  0  0  0  0  0  0  0  0
    1.7848    2.6585    0.0054 H   0  0  0  0  0  0  0  0  0  0  0  0
    3.9139    3.6266   -2.1340 H   0  0  0  0  0  0  0  0  0  0  0  0
    5.7022    5.3239   -2.1498 H   0  0  0  0  0  0  0  0  0  0  0  0
    7.1618    6.4948   -0.8428 H   0  0  0  0  0  0  0  0  0  0  0  0
    6.5454    6.0142    2.1357 H   0  0  0  0  0  0  0  0  0  0  0  0
    3.9314    3.6339    2.1875 H   0  0  0  0  0  0  0  0  0  0  0  0
    5.1967    0.9300    1.0214 H   0  0  0  0  0  0  0  0  0  0  0  0
    5.2274    0.9107   -0.7785 H   0  0  0  0  0  0  0  0  0  0  0  0
    6.5563   -1.5924    0.1181 H   0  0  0  0  0  0  0  0  0  0  0  0
    1.6769   -2.8417    0.0780 H   0  0  0  0  0  0  0  0  0  0  0  0
    5.0395   -5.6866   -1.2181 H   0  0  0  0  0  0  0  0  0  0  0  0
    5.1348   -6.1057    0.5104 H   0  0  0  0  0  0  0  0  0  0  0  0
  1  2  2  0  0  0  0
  2  3  1  0  0  0  0
  2 19  1  0  0  0  0
  3  4  2  0  0  0  0
  3 13  1  0  0  0  0
  4  5  1  0  0  0  0
  4 23  1  0  0  0  0
  5  6  2  0  0  0  0
  5 12  1  0  0  0  0
  6  7  1  0  0  0  0
  6 24  1  0  0  0  0
  7  8  2  0  0  0  0
  7 25  1  0  0  0  0
  8  9  1  0  0  0  0
  8 10  1  0  0  0  0
  9 26  1  0  0  0  0
 10 11  1  0  0  0  0
 10 12  2  0  0  0  0
 11 27  1  0  0  0  0
 12 28  1  0  0  0  0
 13 14  1  0  0  0  0
 13 29  1  0  0  0  0
 13 30  1  0  0  0  0
 14 15  2  0  0  0  0
 14 19  1  0  0  0  0
 15 16  1  0  0  0  0
 15 31  1  0  0  0  0
 16 17  2  0  0  0  0
 16 22  1  0  0  0  0
 17 18  1  0  0  0  0
 17 20  1  0  0  0  0
 18 19  2  0  0  0  0
 18 32  1  0  0  0  0
 20 21  1  0  0  0  0
 21 22  1  0  0  0  0
 21 33  1  0  0  0  0
 21 34  1  0  0  0  0
M  END
$$$$
