
 OpenBabel09162610133D

 39 39  0  0  0  0  0  0  0  0999 V2000
    1.1203    2.5571    3.0958 C   0  0  0  0  0  0  0  0  0  0  0  0
    1.9240    3.7410    2.5947 C   0  0  0  0  0  0  0  0  0  0  0  0
    3.0820    3.2343    1.9173 O   0  0  0  0  0  0  0  0  0  0  0  0
    4.1959    3.0786    2.6698 C   0  0  0  0  0  0  0  0  0  0  0  0
    4.3346    3.4339    3.8326 O   0  0  0  0  0  0  0  0  0  0  0  0
    5.1030    2.3562    1.9449 N   0  0  0  0  0  0  0  0  0  0  0  0
    6.4341    2.1271    2.1816 C   0  0  0  0  0  0  0  0  0  0  0  0
    7.2152    1.1248    1.0865 S   0  0  0  0  0  0  0  0  0  0  0  0
    6.9608    2.7442    3.2938 N   0  0  0  0  0  0  0  0  0  0  0  0
    8.3058    3.0846    3.5409 C   0  0  0  0  0  0  0  0  0  0  0  0
    9.1912    3.3853    2.5103 C   0  0  0  0  0  0  0  0  0  0  0  0
   10.5282    3.6880    2.7753 C   0  0  0  0  0  0  0  0  0  0  0  0
   11.0233    3.7061    4.0845 C   0  0  0  0  0  0  0  0  0  0  0  0
   12.5147    3.9270    4.3840 C   0  0  0  0  0  0  0  0  0  0  0  0
   13.3770    4.1296    3.1151 C   0  0  0  0  0  0  0  0  0  0  0  0
   12.7023    5.1742    5.2695 C   0  0  0  0  0  0  0  0  0  0  0  0
   13.0723    2.6872    5.1157 C   0  0  0  0  0  0  0  0  0  0  0  0
   10.0985    3.4804    5.1234 C   0  0  0  0  0  0  0  0  0  0  0  0
    8.7514    3.1900    4.8574 C   0  0  0  0  0  0  0  0  0  0  0  0
    0.2163    2.8847    3.6146 H   0  0  0  0  0  0  0  0  0  0  0  0
    1.7188    1.9417    3.7758 H   0  0  0  0  0  0  0  0  0  0  0  0
    0.8351    1.9114    2.2579 H   0  0  0  0  0  0  0  0  0  0  0  0
    2.1894    4.4244    3.4087 H   0  0  0  0  0  0  0  0  0  0  0  0
    1.3394    4.3110    1.8654 H   0  0  0  0  0  0  0  0  0  0  0  0
    4.7549    2.0091    1.0614 H   0  0  0  0  0  0  0  0  0  0  0  0
    6.3081    2.8935    4.0619 H   0  0  0  0  0  0  0  0  0  0  0  0
    8.8626    3.4190    1.4764 H   0  0  0  0  0  0  0  0  0  0  0  0
   11.1612    3.8945    1.9181 H   0  0  0  0  0  0  0  0  0  0  0  0
   13.0666    5.0203    2.5556 H   0  0  0  0  0  0  0  0  0  0  0  0
   13.3127    3.2656    2.4422 H   0  0  0  0  0  0  0  0  0  0  0  0
   14.4346    4.2602    3.3691 H   0  0  0  0  0  0  0  0  0  0  0  0
   12.2943    6.0683    4.7834 H   0  0  0  0  0  0  0  0  0  0  0  0
   13.7648    5.3587    5.4677 H   0  0  0  0  0  0  0  0  0  0  0  0
   12.2066    5.0710    6.2406 H   0  0  0  0  0  0  0  0  0  0  0  0
   12.9119    1.7767    4.5253 H   0  0  0  0  0  0  0  0  0  0  0  0
   12.5969    2.5344    6.0907 H   0  0  0  0  0  0  0  0  0  0  0  0
   14.1495    2.7832    5.2931 H   0  0  0  0  0  0  0  0  0  0  0  0
   10.4211    3.5042    6.1622 H   0  0  0  0  0  0  0  0  0  0  0  0
    8.0798    2.9988    5.6897 H   0  0  0  0  0  0  0  0  0  0  0  0
  1  2  1  0  0  0  0
  1 20  1  0  0  0  0
  1 21  1  0  0  0  0
  1 22  1  0  0  0  0
  2  3  1  0  0  0  0
  2 23  1  0  0  0  0
  2 24  1  0  0  0  0
  3  4  1  0  0  0  0
  4  5  2  0  0  0  0
  4  6  1  0  0  0  0
  6  7  1  0  0  0  0
  6 25  1  0  0  0  0
  7  8  2  0  0  0  0
  7  9  1  0  0  0  0
  9 10  1  0  0  0  0
  9 26  1  0  0  0  0
 10 11  2  0  0  0  0
 10 19  1  0  0  0  0
 11 12  1  0  0  0  0
 11 27  1  0  0  0  0
 12 13  2  0  0  0  0
 12 28  1  0  0  0  0
 13 14  1  0  0  0  0
 13 18  1  0  0  0  0
 14 15  1  0  0  0  0
 14 16  1  0  0  0  0
 14 17  1  0  0  0  0
 15 29  1  0  0  0  0
 15 30  1  0  0  0  0
 15 31  1  0  0  0  0
 16 32  1  0  0  0  0
 16 33  1  0  0  0  0
 16 34  1  0  0  0  0
 17 35  1  0  0  0  0
 17 36  1  0  0  0  0
 17 37  1  0  0  0  0
 18 19  2  0  0  0  0
 18 38  1  0  0  0  0
 19 39  1  0  0  0  0
M  END
$$$$
