
 OpenBabel09162610133D

 35 37  0  0  0  0  0  0  0  0999 V2000
   -7.1676   -3.9606    2.6697 N   0  0  0  0  0  0  0  0  0  0  0  0
   -6.3948   -2.9296    2.1253 C   0  0  0  0  0  0  0  0  0  0  0  0
   -5.1111   -2.6793    2.6213 C   0  0  0  0  0  0  0  0  0  0  0  0
   -4.2689   -1.7563    1.9958 C   0  0  0  0  0  0  0  0  0  0  0  0
   -4.7037   -1.1021    0.8413 C   0  0  0  0  0  0  0  0  0  0  0  0
   -3.6272    0.0429    0.0110 S   0  0  0  0  0  0  0  0  0  0  0  0
   -2.3637    0.0811    0.7259 O   0  0  0  0  0  0  0  0  0  0  0  0
   -3.6509   -0.3568   -1.3885 O   0  0  0  0  0  0  0  0  0  0  0  0
   -4.2720    1.6962    0.0651 C   0  0  0  0  0  0  0  0  0  0  0  0
   -3.9901    2.5236   -1.0230 C   0  0  0  0  0  0  0  0  0  0  0  0
   -4.4851    3.8225   -1.0378 C   0  0  0  0  0  0  0  0  0  0  0  0
   -4.1932    4.6359   -2.1023 O   0  0  0  0  0  0  0  0  0  0  0  0
   -5.2759    4.3225    0.0157 C   0  0  0  0  0  0  0  0  0  0  0  0
   -5.7770    5.6419   -0.0081 C   0  0  0  0  0  0  0  0  0  0  0  0
   -6.5567    6.1455    1.0300 C   0  0  0  0  0  0  0  0  0  0  0  0
   -6.8468    5.3413    2.1203 C   0  0  0  0  0  0  0  0  0  0  0  0
   -6.3560    4.0344    2.1718 C   0  0  0  0  0  0  0  0  0  0  0  0
   -5.5690    3.4867    1.1267 C   0  0  0  0  0  0  0  0  0  0  0  0
   -5.0487    2.1627    1.1292 C   0  0  0  0  0  0  0  0  0  0  0  0
   -5.2719    1.3149    2.1787 O   0  0  0  0  0  0  0  0  0  0  0  0
   -5.9592   -1.3824    0.2981 C   0  0  0  0  0  0  0  0  0  0  0  0
   -6.7913   -2.3070    0.9362 C   0  0  0  0  0  0  0  0  0  0  0  0
   -6.9758   -4.1557    3.6471 H   0  0  0  0  0  0  0  0  0  0  0  0
   -8.1605   -3.8893    2.4734 H   0  0  0  0  0  0  0  0  0  0  0  0
   -4.7506   -3.2089    3.4996 H   0  0  0  0  0  0  0  0  0  0  0  0
   -3.2802   -1.5660    2.4069 H   0  0  0  0  0  0  0  0  0  0  0  0
   -3.3848    2.1502   -1.8454 H   0  0  0  0  0  0  0  0  0  0  0  0
   -3.5936    4.1708   -2.7096 H   0  0  0  0  0  0  0  0  0  0  0  0
   -5.5521    6.2920   -0.8523 H   0  0  0  0  0  0  0  0  0  0  0  0
   -6.9290    7.1655    0.9846 H   0  0  0  0  0  0  0  0  0  0  0  0
   -7.4501    5.7294    2.9372 H   0  0  0  0  0  0  0  0  0  0  0  0
   -6.6013    3.4619    3.0609 H   0  0  0  0  0  0  0  0  0  0  0  0
   -6.0003    1.6347    2.7320 H   0  0  0  0  0  0  0  0  0  0  0  0
   -6.2857   -0.9099   -0.6248 H   0  0  0  0  0  0  0  0  0  0  0  0
   -7.7522   -2.5489    0.4890 H   0  0  0  0  0  0  0  0  0  0  0  0
  1  2  1  0  0  0  0
  1 23  1  0  0  0  0
  1 24  1  0  0  0  0
  2  3  2  0  0  0  0
  2 22  1  0  0  0  0
  3  4  1  0  0  0  0
  3 25  1  0  0  0  0
  4  5  2  0  0  0  0
  4 26  1  0  0  0  0
  5  6  1  0  0  0  0
  5 21  1  0  0  0  0
  6  7  2  0  0  0  0
  6  8  2  0  0  0  0
  6  9  1  0  0  0  0
  9 10  2  0  0  0  0
  9 19  1  0  0  0  0
 10 11  1  0  0  0  0
 10 27  1  0  0  0  0
 11 12  1  0  0  0  0
 11 13  2  0  0  0  0
 12 28  1  0  0  0  0
 13 14  1  0  0  0  0
 13 18  1  0  0  0  0
 14 15  2  0  0  0  0
 14 29  1  0  0  0  0
 15 16  1  0  0  0  0
 15 30  1  0  0  0  0
 16 17  2  0  0  0  0
 16 31  1  0  0  0  0
 17 18  1  0  0  0  0
 17 32  1  0  0  0  0
 18 19  2  0  0  0  0
 19 20  1  0  0  0  0
 20 33  1  0  0  0  0
 21 22  2  0  0  0  0
 21 34  1  0  0  0  0
 22 35  1  0  0  0  0
M  END
$$$$
