
 OpenBabel09162610133D

 25 26  0  0  0  0  0  0  0  0999 V2000
    1.0179   -0.0353   -0.4304 O   0  0  0  0  0  0  0  0  0  0  0  0
    2.2276   -0.0295   -0.2236 C   0  0  0  0  0  0  0  0  0  0  0  0
    3.0178    1.1803    0.1222 C   0  0  0  0  0  0  0  0  0  0  0  0
    2.4156    2.3812    0.1501 C   0  0  0  0  0  0  0  0  0  0  0  0
    3.1296    3.6601    0.3441 C   0  0  0  0  0  0  0  0  0  0  0  0
    4.4353    3.8084   -0.1610 C   0  0  0  0  0  0  0  0  0  0  0  0
    5.1172    5.0232   -0.0614 C   0  0  0  0  0  0  0  0  0  0  0  0
    4.4967    6.1161    0.5323 C   0  0  0  0  0  0  0  0  0  0  0  0
    5.3322    7.6155    0.6371 Cl  0  0  0  0  0  0  0  0  0  0  0  0
    3.2020    6.0056    1.0290 C   0  0  0  0  0  0  0  0  0  0  0  0
    2.5202    4.7859    0.9332 C   0  0  0  0  0  0  0  0  0  0  0  0
    0.9120    4.7352    1.5743 Cl  0  0  0  0  0  0  0  0  0  0  0  0
    2.9652   -1.2208   -0.3709 N   0  0  0  0  0  0  0  0  0  0  0  0
    2.4854   -2.4425   -0.8086 C   0  0  0  0  0  0  0  0  0  0  0  0
    3.5416   -3.3190   -0.8090 C   0  0  0  0  0  0  0  0  0  0  0  0
    4.6290   -2.5590   -0.3549 C   0  0  0  0  0  0  0  0  0  0  0  0
    4.3025   -1.2895   -0.1000 N   0  0  0  0  0  0  0  0  0  0  0  0
    4.0814    1.0638    0.2924 H   0  0  0  0  0  0  0  0  0  0  0  0
    1.3406    2.4505   -0.0130 H   0  0  0  0  0  0  0  0  0  0  0  0
    4.9393    2.9835   -0.6614 H   0  0  0  0  0  0  0  0  0  0  0  0
    6.1247    5.1079   -0.4614 H   0  0  0  0  0  0  0  0  0  0  0  0
    2.7205    6.8675    1.4834 H   0  0  0  0  0  0  0  0  0  0  0  0
    1.4448   -2.5536   -1.0830 H   0  0  0  0  0  0  0  0  0  0  0  0
    3.5270   -4.3605   -1.0978 H   0  0  0  0  0  0  0  0  0  0  0  0
    5.6534   -2.8764   -0.2014 H   0  0  0  0  0  0  0  0  0  0  0  0
  1  2  2  0  0  0  0
  2  3  1  0  0  0  0
  2 13  1  0  0  0  0
  3  4  2  0  0  0  0
  3 18  1  0  0  0  0
  4  5  1  0  0  0  0
  4 19  1  0  0  0  0
  5  6  2  0  0  0  0
  5 11  1  0  0  0  0
  6  7  1  0  0  0  0
  6 20  1  0  0  0  0
  7  8  2  0  0  0  0
  7 21  1  0  0  0  0
  8  9  1  0  0  0  0
  8 10  1  0  0  0  0
 10 11  2  0  0  0  0
 10 22  1  0  0  0  0
 11 12  1  0  0  0  0
 13 14  1  0  0  0  0
 13 17  1  0  0  0  0
 14 15  2  0  0  0  0
 14 23  1  0  0  0  0
 15 16  1  0  0  0  0
 15 24  1  0  0  0  0
 16 17  2  0  0  0  0
 16 25  1  0  0  0  0
M  END
$$$$
