
 OpenBabel09162610133D

 38 41  0  0  0  0  0  0  0  0999 V2000
    2.2640   -1.0767    0.0013 O   0  0  0  0  0  0  0  0  0  0  0  0
    1.1259   -0.3257    0.0385 C   0  0  0  0  0  0  0  0  0  0  0  0
    1.0890    0.9524   -0.5066 C   0  0  0  0  0  0  0  0  0  0  0  0
   -0.1012    1.6878   -0.4600 C   0  0  0  0  0  0  0  0  0  0  0  0
   -1.2639    1.1465    0.1121 C   0  0  0  0  0  0  0  0  0  0  0  0
   -2.5333    1.8874    0.0681 C   0  0  0  0  0  0  0  0  0  0  0  0
   -3.4149    1.7877    1.0763 N   0  0  0  0  0  0  0  0  0  0  0  0
   -4.4943    2.5177    0.6854 N   0  0  0  0  0  0  0  0  0  0  0  0
   -5.6621    2.5310    1.5018 C   0  0  0  0  0  0  0  0  0  0  0  0
   -5.5346    2.3575    2.8900 C   0  0  0  0  0  0  0  0  0  0  0  0
   -6.6651    2.4137    3.7125 C   0  0  0  0  0  0  0  0  0  0  0  0
   -7.9263    2.6078    3.1521 C   0  0  0  0  0  0  0  0  0  0  0  0
   -8.0487    2.7348    1.7743 C   0  0  0  0  0  0  0  0  0  0  0  0
   -9.2633    2.8898    1.2312 F   0  0  0  0  0  0  0  0  0  0  0  0
   -6.9332    2.6979    0.9433 C   0  0  0  0  0  0  0  0  0  0  0  0
   -4.2827    3.1677   -0.5236 C   0  0  0  0  0  0  0  0  0  0  0  0
   -5.0353    4.1153   -1.2502 C   0  0  0  0  0  0  0  0  0  0  0  0
   -4.5219    4.5616   -2.4675 C   0  0  0  0  0  0  0  0  0  0  0  0
   -5.2023    5.4695   -3.2256 O   0  0  0  0  0  0  0  0  0  0  0  0
   -3.3094    4.1069   -2.9559 C   0  0  0  0  0  0  0  0  0  0  0  0
   -2.5561    3.1914   -2.2173 C   0  0  0  0  0  0  0  0  0  0  0  0
   -3.0295    2.7389   -0.9651 C   0  0  0  0  0  0  0  0  0  0  0  0
   -1.1796   -0.1325    0.6917 C   0  0  0  0  0  0  0  0  0  0  0  0
   -2.2432   -0.7211    1.3265 O   0  0  0  0  0  0  0  0  0  0  0  0
    0.0027   -0.8702    0.6465 C   0  0  0  0  0  0  0  0  0  0  0  0
    2.9600   -0.5727   -0.4506 H   0  0  0  0  0  0  0  0  0  0  0  0
    1.9659    1.3924   -0.9719 H   0  0  0  0  0  0  0  0  0  0  0  0
   -0.0988    2.6941   -0.8701 H   0  0  0  0  0  0  0  0  0  0  0  0
   -4.5568    2.2175    3.3492 H   0  0  0  0  0  0  0  0  0  0  0  0
   -6.5595    2.3098    4.7899 H   0  0  0  0  0  0  0  0  0  0  0  0
   -8.8132    2.6492    3.7767 H   0  0  0  0  0  0  0  0  0  0  0  0
   -7.1012    2.7434   -0.1267 H   0  0  0  0  0  0  0  0  0  0  0  0
   -5.9717    4.5059   -0.8708 H   0  0  0  0  0  0  0  0  0  0  0  0
   -6.0427    5.6824   -2.7880 H   0  0  0  0  0  0  0  0  0  0  0  0
   -2.9375    4.4719   -3.9094 H   0  0  0  0  0  0  0  0  0  0  0  0
   -1.6055    2.8494   -2.6161 H   0  0  0  0  0  0  0  0  0  0  0  0
   -2.9157   -0.0158    1.4545 H   0  0  0  0  0  0  0  0  0  0  0  0
    0.0444   -1.8635    1.0857 H   0  0  0  0  0  0  0  0  0  0  0  0
  1  2  1  0  0  0  0
  1 26  1  0  0  0  0
  2  3  2  0  0  0  0
  2 25  1  0  0  0  0
  3  4  1  0  0  0  0
  3 27  1  0  0  0  0
  4  5  2  0  0  0  0
  4 28  1  0  0  0  0
  5  6  1  0  0  0  0
  5 23  1  0  0  0  0
  6  7  2  0  0  0  0
  6 22  1  0  0  0  0
  7  8  1  0  0  0  0
  8  9  1  0  0  0  0
  8 16  1  0  0  0  0
  9 10  2  0  0  0  0
  9 15  1  0  0  0  0
 10 11  1  0  0  0  0
 10 29  1  0  0  0  0
 11 12  2  0  0  0  0
 11 30  1  0  0  0  0
 12 13  1  0  0  0  0
 12 31  1  0  0  0  0
 13 14  1  0  0  0  0
 13 15  2  0  0  0  0
 15 32  1  0  0  0  0
 16 17  2  0  0  0  0
 16 22  1  0  0  0  0
 17 18  1  0  0  0  0
 17 33  1  0  0  0  0
 18 19  1  0  0  0  0
 18 20  2  0  0  0  0
 19 34  1  0  0  0  0
 20 21  1  0  0  0  0
 20 35  1  0  0  0  0
 21 22  2  0  0  0  0
 21 36  1  0  0  0  0
 23 24  1  0  0  0  0
 23 25  2  0  0  0  0
 24 37  1  0  0  0  0
 25 38  1  0  0  0  0
M  END
$$$$
