
 OpenBabel09162610133D

 27 28  0  0  0  0  0  0  0  0999 V2000
   -1.2062    1.0056   -2.4054 N   0  0  0  0  0  0  0  0  0  0  0  0
   -1.0241    0.4503   -1.1227 C   0  0  0  0  0  0  0  0  0  0  0  0
   -0.6144   -0.8861   -1.0241 C   0  0  0  0  0  0  0  0  0  0  0  0
   -0.4923   -1.5054    0.2208 C   0  0  0  0  0  0  0  0  0  0  0  0
   -0.8243   -0.8028    1.3755 C   0  0  0  0  0  0  0  0  0  0  0  0
   -0.6430   -1.5590    2.9106 Cl  0  0  0  0  0  0  0  0  0  0  0  0
   -1.3068    0.5014    1.2963 C   0  0  0  0  0  0  0  0  0  0  0  0
   -1.4422    1.1239    0.0476 C   0  0  0  0  0  0  0  0  0  0  0  0
   -2.0568    2.8121   -0.0058 S   0  0  0  0  0  0  0  0  0  0  0  0
   -3.8286    2.5486   -0.0643 C   0  0  0  0  0  0  0  0  0  0  0  0
   -4.3801    2.0196   -1.2416 C   0  0  0  0  0  0  0  0  0  0  0  0
   -5.7644    1.8709   -1.3964 C   0  0  0  0  0  0  0  0  0  0  0  0
   -6.6325    2.2565   -0.3775 C   0  0  0  0  0  0  0  0  0  0  0  0
   -6.1167    2.7901    0.8003 C   0  0  0  0  0  0  0  0  0  0  0  0
   -4.7248    2.9315    0.9447 C   0  0  0  0  0  0  0  0  0  0  0  0
   -4.2565    3.5090    2.1893 N   0  3  0  0  0  0  0  0  0  0  0  0
   -3.5209    2.8112    2.9022 O   0  0  0  0  0  0  0  0  0  0  0  0
   -4.6802    4.6352    2.4802 O   0  5  0  0  0  0  0  0  0  0  0  0
   -0.5866    0.6147   -3.1090 H   0  0  0  0  0  0  0  0  0  0  0  0
   -1.1617    2.0234   -2.3811 H   0  0  0  0  0  0  0  0  0  0  0  0
   -0.3708   -1.4525   -1.9198 H   0  0  0  0  0  0  0  0  0  0  0  0
   -0.1401   -2.5321    0.2805 H   0  0  0  0  0  0  0  0  0  0  0  0
   -1.5727    1.0308    2.2082 H   0  0  0  0  0  0  0  0  0  0  0  0
   -3.7397    1.7240   -2.0702 H   0  0  0  0  0  0  0  0  0  0  0  0
   -6.1608    1.4631   -2.3234 H   0  0  0  0  0  0  0  0  0  0  0  0
   -7.7068    2.1476   -0.5064 H   0  0  0  0  0  0  0  0  0  0  0  0
   -6.7948    3.0990    1.5936 H   0  0  0  0  0  0  0  0  0  0  0  0
  1  2  1  0  0  0  0
  1 19  1  0  0  0  0
  1 20  1  0  0  0  0
  2  3  2  0  0  0  0
  2  8  1  0  0  0  0
  3  4  1  0  0  0  0
  3 21  1  0  0  0  0
  4  5  2  0  0  0  0
  4 22  1  0  0  0  0
  5  6  1  0  0  0  0
  5  7  1  0  0  0  0
  7  8  2  0  0  0  0
  7 23  1  0  0  0  0
  8  9  1  0  0  0  0
  9 10  1  0  0  0  0
 10 11  2  0  0  0  0
 10 15  1  0  0  0  0
 11 12  1  0  0  0  0
 11 24  1  0  0  0  0
 12 13  2  0  0  0  0
 12 25  1  0  0  0  0
 13 14  1  0  0  0  0
 13 26  1  0  0  0  0
 14 15  2  0  0  0  0
 14 27  1  0  0  0  0
 15 16  1  0  0  0  0
 16 17  2  0  0  0  0
 16 18  1  0  0  0  0
M  CHG  2  16   1  18  -1
M  END
$$$$
