
 OpenBabel09162610133D

 30 33  0  0  0  0  0  0  0  0999 V2000
    1.3623   -0.1343   -0.7362 C   0  0  0  0  0  0  0  0  0  0  0  0
    0.7097    1.0838   -0.9108 C   0  0  0  0  0  0  0  0  0  0  0  0
   -0.6652    1.1790   -0.6817 C   0  0  0  0  0  0  0  0  0  0  0  0
   -1.4014    0.0573   -0.2709 C   0  0  0  0  0  0  0  0  0  0  0  0
   -2.8447    0.1756   -0.0986 C   0  0  0  0  0  0  0  0  0  0  0  0
   -3.5687    0.9388   -1.0208 N   0  0  0  0  0  0  0  0  0  0  0  0
   -4.8663    0.9127   -0.7856 N   0  0  0  0  0  0  0  0  0  0  0  0
   -5.2583   -0.0004    0.5470 S   0  0  0  0  0  0  0  0  0  0  0  0
   -3.6189   -0.4237    0.8903 C   0  0  0  0  0  0  0  0  0  0  0  0
   -3.2858   -1.2297    2.0249 C   0  0  0  0  0  0  0  0  0  0  0  0
   -2.1508   -1.1985    2.6940 N   0  0  0  0  0  0  0  0  0  0  0  0
   -2.2842   -2.1221    3.7061 C   0  0  0  0  0  0  0  0  0  0  0  0
   -1.3891   -2.4938    4.7219 C   0  0  0  0  0  0  0  0  0  0  0  0
   -1.7873   -3.4780    5.6381 C   0  0  0  0  0  0  0  0  0  0  0  0
   -3.0459   -4.0789    5.5463 C   0  0  0  0  0  0  0  0  0  0  0  0
   -3.9493   -3.7220    4.5406 C   0  0  0  0  0  0  0  0  0  0  0  0
   -3.5270   -2.7406    3.6448 C   0  0  0  0  0  0  0  0  0  0  0  0
   -4.1368   -2.1610    2.5660 N   0  0  0  0  0  0  0  0  0  0  0  0
   -0.7343   -1.1647   -0.1142 C   0  0  0  0  0  0  0  0  0  0  0  0
    0.6418   -1.2574   -0.3373 C   0  0  0  0  0  0  0  0  0  0  0  0
    2.4316   -0.2099   -0.9148 H   0  0  0  0  0  0  0  0  0  0  0  0
    1.2678    1.9602   -1.2294 H   0  0  0  0  0  0  0  0  0  0  0  0
   -1.1603    2.1367   -0.8305 H   0  0  0  0  0  0  0  0  0  0  0  0
   -0.4157   -2.0231    4.7922 H   0  0  0  0  0  0  0  0  0  0  0  0
   -1.1064   -3.7763    6.4320 H   0  0  0  0  0  0  0  0  0  0  0  0
   -3.3306   -4.8390    6.2717 H   0  0  0  0  0  0  0  0  0  0  0  0
   -4.9268   -4.1857    4.4690 H   0  0  0  0  0  0  0  0  0  0  0  0
   -5.0586   -2.3832    2.2198 H   0  0  0  0  0  0  0  0  0  0  0  0
   -1.2715   -2.0620    0.1808 H   0  0  0  0  0  0  0  0  0  0  0  0
    1.1471   -2.2101   -0.2013 H   0  0  0  0  0  0  0  0  0  0  0  0
  1  2  2  0  0  0  0
  1 20  1  0  0  0  0
  1 21  1  0  0  0  0
  2  3  1  0  0  0  0
  2 22  1  0  0  0  0
  3  4  2  0  0  0  0
  3 23  1  0  0  0  0
  4  5  1  0  0  0  0
  4 19  1  0  0  0  0
  5  6  1  0  0  0  0
  5  9  2  0  0  0  0
  6  7  2  0  0  0  0
  7  8  1  0  0  0  0
  8  9  1  0  0  0  0
  9 10  1  0  0  0  0
 10 11  2  0  0  0  0
 10 18  1  0  0  0  0
 11 12  1  0  0  0  0
 12 13  2  0  0  0  0
 12 17  1  0  0  0  0
 13 14  1  0  0  0  0
 13 24  1  0  0  0  0
 14 15  2  0  0  0  0
 14 25  1  0  0  0  0
 15 16  1  0  0  0  0
 15 26  1  0  0  0  0
 16 17  2  0  0  0  0
 16 27  1  0  0  0  0
 17 18  1  0  0  0  0
 18 28  1  0  0  0  0
 19 20  2  0  0  0  0
 19 29  1  0  0  0  0
 20 30  1  0  0  0  0
M  END
$$$$
