
 OpenBabel09162610133D

 35 37  0  0  0  0  0  0  0  0999 V2000
   -2.3419   -0.0413    0.0003 C   0  0  0  0  0  0  0  0  0  0  0  0
   -0.8463    0.0108   -0.0008 C   0  0  0  0  0  0  0  0  0  0  0  0
   -0.2596    1.2167   -0.0339 N   0  0  0  0  0  0  0  0  0  0  0  0
    1.0905    1.2166   -0.0718 C   0  0  0  0  0  0  0  0  0  0  0  0
    1.8883    0.0826   -0.0662 C   0  0  0  0  0  0  0  0  0  0  0  0
    3.2878    0.1337   -0.2232 N   0  0  0  0  0  0  0  0  0  0  0  0
    3.8158    1.0226    0.4768 N   0  0  0  0  0  0  0  0  0  0  0  0
    5.2260    1.0403    0.3672 C   0  0  0  0  0  0  0  0  0  0  0  0
    5.9487    0.4400   -0.6779 C   0  0  0  0  0  0  0  0  0  0  0  0
    7.3456    0.5053   -0.7178 C   0  0  0  0  0  0  0  0  0  0  0  0
    8.0410    1.1769    0.2832 C   0  0  0  0  0  0  0  0  0  0  0  0
    7.3411    1.7851    1.3233 C   0  0  0  0  0  0  0  0  0  0  0  0
    5.9461    1.7166    1.3605 C   0  0  0  0  0  0  0  0  0  0  0  0
    1.1816   -1.1207    0.0008 C   0  0  0  0  0  0  0  0  0  0  0  0
    1.8252   -2.4599    0.0665 C   0  0  0  0  0  0  0  0  0  0  0  0
    3.0331   -2.6817    0.7535 C   0  0  0  0  0  0  0  0  0  0  0  0
    3.6314   -3.9449    0.8037 C   0  0  0  0  0  0  0  0  0  0  0  0
    3.0173   -5.0303    0.1867 C   0  0  0  0  0  0  0  0  0  0  0  0
    1.8079   -4.8508   -0.4765 C   0  0  0  0  0  0  0  0  0  0  0  0
    1.2205   -3.5813   -0.5363 C   0  0  0  0  0  0  0  0  0  0  0  0
   -0.1814   -1.1590    0.0198 N   0  0  0  0  0  0  0  0  0  0  0  0
   -2.7704    0.9656    0.0015 H   0  0  0  0  0  0  0  0  0  0  0  0
   -2.6957   -0.5689    0.8901 H   0  0  0  0  0  0  0  0  0  0  0  0
   -2.6981   -0.5678   -0.8908 H   0  0  0  0  0  0  0  0  0  0  0  0
    1.5377    2.2058   -0.1227 H   0  0  0  0  0  0  0  0  0  0  0  0
    5.4284   -0.0859   -1.4748 H   0  0  0  0  0  0  0  0  0  0  0  0
    7.8857    0.0300   -1.5332 H   0  0  0  0  0  0  0  0  0  0  0  0
    9.1263    1.2292    0.2536 H   0  0  0  0  0  0  0  0  0  0  0  0
    7.8808    2.3131    2.1056 H   0  0  0  0  0  0  0  0  0  0  0  0
    5.4091    2.1955    2.1775 H   0  0  0  0  0  0  0  0  0  0  0  0
    3.5311   -1.8711    1.2824 H   0  0  0  0  0  0  0  0  0  0  0  0
    4.5707   -4.0774    1.3321 H   0  0  0  0  0  0  0  0  0  0  0  0
    3.4770   -6.0142    0.2311 H   0  0  0  0  0  0  0  0  0  0  0  0
    1.3150   -5.6977   -0.9462 H   0  0  0  0  0  0  0  0  0  0  0  0
    0.2741   -3.4691   -1.0604 H   0  0  0  0  0  0  0  0  0  0  0  0
  1  2  1  0  0  0  0
  1 22  1  0  0  0  0
  1 23  1  0  0  0  0
  1 24  1  0  0  0  0
  2  3  2  0  0  0  0
  2 21  1  0  0  0  0
  3  4  1  0  0  0  0
  4  5  2  0  0  0  0
  4 25  1  0  0  0  0
  5  6  1  0  0  0  0
  5 14  1  0  0  0  0
  6  7  2  3  0  0  0
  7  8  1  0  0  0  0
  8  9  2  0  0  0  0
  8 13  1  0  0  0  0
  9 10  1  0  0  0  0
  9 26  1  0  0  0  0
 10 11  2  0  0  0  0
 10 27  1  0  0  0  0
 11 12  1  0  0  0  0
 11 28  1  0  0  0  0
 12 13  2  0  0  0  0
 12 29  1  0  0  0  0
 13 30  1  0  0  0  0
 14 15  1  0  0  0  0
 14 21  2  0  0  0  0
 15 16  2  0  0  0  0
 15 20  1  0  0  0  0
 16 17  1  0  0  0  0
 16 31  1  0  0  0  0
 17 18  2  0  0  0  0
 17 32  1  0  0  0  0
 18 19  1  0  0  0  0
 18 33  1  0  0  0  0
 19 20  2  0  0  0  0
 19 34  1  0  0  0  0
 20 35  1  0  0  0  0
M  END
$$$$
