
 OpenBabel09162610133D

 35 39  0  0  0  0  0  0  0  0999 V2000
    0.8707    1.1329    0.0062 C   0  0  0  0  0  0  0  0  0  0  0  0
   -0.0052    0.8770   -1.0415 C   0  0  0  0  0  0  0  0  0  0  0  0
   -0.7377   -0.3098   -1.0497 C   0  0  0  0  0  0  0  0  0  0  0  0
   -0.5651   -1.2076   -0.0019 C   0  0  0  0  0  0  0  0  0  0  0  0
   -1.3006   -2.4653    0.0493 C   0  0  0  0  0  0  0  0  0  0  0  0
   -2.2206   -2.8999   -0.8140 N   0  0  0  0  0  0  0  0  0  0  0  0
   -2.7192   -4.1216   -0.3698 N   0  0  0  0  0  0  0  0  0  0  0  0
   -2.0772   -4.3745    0.7322 C   0  0  0  0  0  0  0  0  0  0  0  0
   -2.0773   -5.5889    1.9319 S   0  0  0  0  0  0  0  0  0  0  0  0
   -0.7890   -4.6408    2.7450 C   0  0  0  0  0  0  0  0  0  0  0  0
   -0.2274   -5.1191    4.0352 C   0  0  0  0  0  0  0  0  0  0  0  0
   -0.0871   -6.5070    4.2165 C   0  0  0  0  0  0  0  0  0  0  0  0
    0.4150   -7.0180    5.4065 C   0  0  0  0  0  0  0  0  0  0  0  0
    0.7918   -6.1512    6.4257 C   0  0  0  0  0  0  0  0  0  0  0  0
    0.6891   -4.7612    6.2710 C   0  0  0  0  0  0  0  0  0  0  0  0
    1.0954   -3.9244    7.3253 C   0  0  0  0  0  0  0  0  0  0  0  0
    1.0204   -2.5386    7.2171 C   0  0  0  0  0  0  0  0  0  0  0  0
    0.5331   -1.9714    6.0514 C   0  0  0  0  0  0  0  0  0  0  0  0
    0.1157   -2.7909    4.9978 C   0  0  0  0  0  0  0  0  0  0  0  0
    0.1817   -4.2102    5.0650 C   0  0  0  0  0  0  0  0  0  0  0  0
   -0.4135   -3.5420    2.1533 N   0  0  0  0  0  0  0  0  0  0  0  0
   -1.1725   -3.4166    1.0324 N   0  0  0  0  0  0  0  0  0  0  0  0
    0.2772   -0.9627    1.0295 N   0  0  0  0  0  0  0  0  0  0  0  0
    0.9760    0.1911    1.0124 C   0  0  0  0  0  0  0  0  0  0  0  0
    1.4574    2.0441    0.0395 H   0  0  0  0  0  0  0  0  0  0  0  0
   -0.1190    1.5943   -1.8504 H   0  0  0  0  0  0  0  0  0  0  0  0
   -1.4277   -0.5250   -1.8597 H   0  0  0  0  0  0  0  0  0  0  0  0
   -0.3494   -7.2119    3.4314 H   0  0  0  0  0  0  0  0  0  0  0  0
    0.5164   -8.0929    5.5407 H   0  0  0  0  0  0  0  0  0  0  0  0
    1.1782   -6.5745    7.3519 H   0  0  0  0  0  0  0  0  0  0  0  0
    1.4800   -4.3508    8.2501 H   0  0  0  0  0  0  0  0  0  0  0  0
    1.3434   -1.9074    8.0403 H   0  0  0  0  0  0  0  0  0  0  0  0
    0.4757   -0.8903    5.9504 H   0  0  0  0  0  0  0  0  0  0  0  0
   -0.2560   -2.2841    4.1108 H   0  0  0  0  0  0  0  0  0  0  0  0
    1.6436    0.3380    1.8569 H   0  0  0  0  0  0  0  0  0  0  0  0
  1  2  2  0  0  0  0
  1 24  1  0  0  0  0
  1 25  1  0  0  0  0
  2  3  1  0  0  0  0
  2 26  1  0  0  0  0
  3  4  2  0  0  0  0
  3 27  1  0  0  0  0
  4  5  1  0  0  0  0
  4 23  1  0  0  0  0
  5  6  2  0  0  0  0
  5 22  1  0  0  0  0
  6  7  1  0  0  0  0
  7  8  2  0  0  0  0
  8  9  1  0  0  0  0
  8 22  1  0  0  0  0
  9 10  1  0  0  0  0
 10 11  1  0  0  0  0
 10 21  2  0  0  0  0
 11 12  2  0  0  0  0
 11 20  1  0  0  0  0
 12 13  1  0  0  0  0
 12 28  1  0  0  0  0
 13 14  2  0  0  0  0
 13 29  1  0  0  0  0
 14 15  1  0  0  0  0
 14 30  1  0  0  0  0
 15 16  1  0  0  0  0
 15 20  2  0  0  0  0
 16 17  2  0  0  0  0
 16 31  1  0  0  0  0
 17 18  1  0  0  0  0
 17 32  1  0  0  0  0
 18 19  2  0  0  0  0
 18 33  1  0  0  0  0
 19 20  1  0  0  0  0
 19 34  1  0  0  0  0
 21 22  1  0  0  0  0
 23 24  2  0  0  0  0
 24 35  1  0  0  0  0
M  END
$$$$
