
 OpenBabel09162610133D

 33 35  0  0  0  0  0  0  0  0999 V2000
    1.1820   -0.4817    0.0941 C   0  0  0  0  0  0  0  0  0  0  0  0
    2.6693   -0.3731    0.2404 C   0  0  0  0  0  0  0  0  0  0  0  0
    3.2142    0.0329    1.2620 O   0  0  0  0  0  0  0  0  0  0  0  0
    3.2785   -0.8351   -0.9046 O   0  0  0  0  0  0  0  0  0  0  0  0
    4.6702   -0.7044   -0.7676 N   0  0  0  0  0  0  0  0  0  0  0  0
    5.2926   -1.4053   -1.6590 C   0  0  0  0  0  0  0  0  0  0  0  0
    6.7770   -1.4778   -1.6814 C   0  0  0  0  0  0  0  0  0  0  0  0
    7.4959   -1.6100   -0.4482 C   0  0  0  0  0  0  0  0  0  0  0  0
    6.9121   -1.7634    0.8390 C   0  0  0  0  0  0  0  0  0  0  0  0
    7.6779   -1.8664    2.0025 C   0  0  0  0  0  0  0  0  0  0  0  0
    9.0596   -1.8315    1.9201 C   0  0  0  0  0  0  0  0  0  0  0  0
    9.6680   -1.7104    0.6737 C   0  0  0  0  0  0  0  0  0  0  0  0
    8.9062   -1.6100   -0.5049 C   0  0  0  0  0  0  0  0  0  0  0  0
    9.5560   -1.5150   -1.7416 C   0  0  0  0  0  0  0  0  0  0  0  0
    8.8523   -1.4250   -2.9496 C   0  0  0  0  0  0  0  0  0  0  0  0
    9.5653   -1.3453   -4.1580 C   0  0  0  0  0  0  0  0  0  0  0  0
    8.9039   -1.2454   -5.3787 C   0  0  0  0  0  0  0  0  0  0  0  0
    7.5177   -1.2172   -5.4036 C   0  0  0  0  0  0  0  0  0  0  0  0
    6.7961   -1.2894   -4.2081 C   0  0  0  0  0  0  0  0  0  0  0  0
    7.4390   -1.4042   -2.9459 C   0  0  0  0  0  0  0  0  0  0  0  0
    0.7009    0.0269    0.9350 H   0  0  0  0  0  0  0  0  0  0  0  0
    0.8862   -1.5334    0.1010 H   0  0  0  0  0  0  0  0  0  0  0  0
    0.8585    0.0070   -0.8283 H   0  0  0  0  0  0  0  0  0  0  0  0
    4.7389   -1.9646   -2.4328 H   0  0  0  0  0  0  0  0  0  0  0  0
    5.8320   -1.8007    0.9646 H   0  0  0  0  0  0  0  0  0  0  0  0
    7.1840   -1.9644    2.9658 H   0  0  0  0  0  0  0  0  0  0  0  0
    9.6622   -1.9004    2.8212 H   0  0  0  0  0  0  0  0  0  0  0  0
   10.7555   -1.6934    0.6296 H   0  0  0  0  0  0  0  0  0  0  0  0
   10.6455   -1.5172   -1.7642 H   0  0  0  0  0  0  0  0  0  0  0  0
   10.6538   -1.3573   -4.1572 H   0  0  0  0  0  0  0  0  0  0  0  0
    9.4724   -1.1839   -6.3029 H   0  0  0  0  0  0  0  0  0  0  0  0
    6.9940   -1.1339   -6.3533 H   0  0  0  0  0  0  0  0  0  0  0  0
    5.7120   -1.2480   -4.2829 H   0  0  0  0  0  0  0  0  0  0  0  0
  1  2  1  0  0  0  0
  1 21  1  0  0  0  0
  1 22  1  0  0  0  0
  1 23  1  0  0  0  0
  2  3  2  0  0  0  0
  2  4  1  0  0  0  0
  4  5  1  0  0  0  0
  5  6  2  0  0  0  0
  6  7  1  0  0  0  0
  6 24  1  0  0  0  0
  7  8  2  0  0  0  0
  7 20  1  0  0  0  0
  8  9  1  0  0  0  0
  8 13  1  0  0  0  0
  9 10  2  0  0  0  0
  9 25  1  0  0  0  0
 10 11  1  0  0  0  0
 10 26  1  0  0  0  0
 11 12  2  0  0  0  0
 11 27  1  0  0  0  0
 12 13  1  0  0  0  0
 12 28  1  0  0  0  0
 13 14  2  0  0  0  0
 14 15  1  0  0  0  0
 14 29  1  0  0  0  0
 15 16  1  0  0  0  0
 15 20  2  0  0  0  0
 16 17  2  0  0  0  0
 16 30  1  0  0  0  0
 17 18  1  0  0  0  0
 17 31  1  0  0  0  0
 18 19  2  0  0  0  0
 18 32  1  0  0  0  0
 19 20  1  0  0  0  0
 19 33  1  0  0  0  0
M  END
$$$$
