
 OpenBabel09162610133D

 33 35  0  0  0  0  0  0  0  0999 V2000
    1.2880    0.8653    0.6647 O   0  0  0  0  0  0  0  0  0  0  0  0
    2.2910    0.2555    0.3198 C   0  0  0  0  0  0  0  0  0  0  0  0
    2.9787   -0.7636    1.0054 N   0  0  0  0  0  0  0  0  0  0  0  0
    4.4065   -0.6929    1.1152 C   0  0  0  0  0  0  0  0  0  0  0  0
    5.0389    0.5321    1.3788 C   0  0  0  0  0  0  0  0  0  0  0  0
    6.4283    0.5982    1.4779 C   0  0  0  0  0  0  0  0  0  0  0  0
    7.1929   -0.5521    1.2951 C   0  0  0  0  0  0  0  0  0  0  0  0
    6.5745   -1.7703    1.0199 C   0  0  0  0  0  0  0  0  0  0  0  0
    5.1845   -1.8454    0.9358 C   0  0  0  0  0  0  0  0  0  0  0  0
    2.3014   -1.5030    2.0503 C   0  0  0  0  0  0  0  0  0  0  0  0
    0.9275   -1.7764    1.9421 C   0  0  0  0  0  0  0  0  0  0  0  0
    0.2456   -2.4816    2.9420 C   0  0  0  0  0  0  0  0  0  0  0  0
    0.9226   -2.9289    4.0711 C   0  0  0  0  0  0  0  0  0  0  0  0
    2.2820   -2.6748    4.2021 C   0  0  0  0  0  0  0  0  0  0  0  0
    2.9628   -1.9729    3.2016 C   0  0  0  0  0  0  0  0  0  0  0  0
    2.8816    0.5948   -0.9161 N   0  0  0  0  0  0  0  0  0  0  0  0
    2.8147    1.8309   -1.5335 C   0  0  0  0  0  0  0  0  0  0  0  0
    3.5657    1.7249   -2.6789 C   0  0  0  0  0  0  0  0  0  0  0  0
    4.0221    0.4469   -2.8418 N   0  0  0  0  0  0  0  0  0  0  0  0
    3.5788   -0.2108   -1.7927 C   0  0  0  0  0  0  0  0  0  0  0  0
    4.4591    1.4371    1.5481 H   0  0  0  0  0  0  0  0  0  0  0  0
    6.9110    1.5451    1.7009 H   0  0  0  0  0  0  0  0  0  0  0  0
    8.2783   -0.4968    1.3651 H   0  0  0  0  0  0  0  0  0  0  0  0
    7.1776   -2.6619    0.8658 H   0  0  0  0  0  0  0  0  0  0  0  0
    4.7130   -2.8005    0.7101 H   0  0  0  0  0  0  0  0  0  0  0  0
    0.3567   -1.4512    1.0748 H   0  0  0  0  0  0  0  0  0  0  0  0
   -0.8191   -2.6744    2.8366 H   0  0  0  0  0  0  0  0  0  0  0  0
    0.3910   -3.4675    4.8520 H   0  0  0  0  0  0  0  0  0  0  0  0
    2.8177   -3.0098    5.0868 H   0  0  0  0  0  0  0  0  0  0  0  0
    4.0171   -1.7759    3.3769 H   0  0  0  0  0  0  0  0  0  0  0  0
    2.2980    2.6609   -1.0731 H   0  0  0  0  0  0  0  0  0  0  0  0
    3.7952    2.5004   -3.3987 H   0  0  0  0  0  0  0  0  0  0  0  0
    3.7099   -1.2719   -1.6267 H   0  0  0  0  0  0  0  0  0  0  0  0
  1  2  2  0  0  0  0
  2  3  1  0  0  0  0
  2 16  1  0  0  0  0
  3  4  1  0  0  0  0
  3 10  1  0  0  0  0
  4  5  2  0  0  0  0
  4  9  1  0  0  0  0
  5  6  1  0  0  0  0
  5 21  1  0  0  0  0
  6  7  2  0  0  0  0
  6 22  1  0  0  0  0
  7  8  1  0  0  0  0
  7 23  1  0  0  0  0
  8  9  2  0  0  0  0
  8 24  1  0  0  0  0
  9 25  1  0  0  0  0
 10 11  2  0  0  0  0
 10 15  1  0  0  0  0
 11 12  1  0  0  0  0
 11 26  1  0  0  0  0
 12 13  2  0  0  0  0
 12 27  1  0  0  0  0
 13 14  1  0  0  0  0
 13 28  1  0  0  0  0
 14 15  2  0  0  0  0
 14 29  1  0  0  0  0
 15 30  1  0  0  0  0
 16 17  1  0  0  0  0
 16 20  1  0  0  0  0
 17 18  2  0  0  0  0
 17 31  1  0  0  0  0
 18 19  1  0  0  0  0
 18 32  1  0  0  0  0
 19 20  2  0  0  0  0
 20 33  1  0  0  0  0
M  END
$$$$
