
 OpenBabel09162610133D

 34 36  0  0  0  0  0  0  0  0999 V2000
    0.9912   -0.1185    0.0915 C   0  0  0  0  0  0  0  0  0  0  0  0
    2.4805   -0.1220    0.0974 C   0  0  0  0  0  0  0  0  0  0  0  0
    3.2097    0.9726    0.0654 N   0  0  0  0  0  0  0  0  0  0  0  0
    4.5051    0.5548    0.0371 C   0  0  0  0  0  0  0  0  0  0  0  0
    5.6686    1.3403    0.0319 C   0  0  0  0  0  0  0  0  0  0  0  0
    6.9138    0.7104    0.0367 C   0  0  0  0  0  0  0  0  0  0  0  0
    6.9986   -0.6784    0.0579 C   0  0  0  0  0  0  0  0  0  0  0  0
    5.8466   -1.4785    0.0672 C   0  0  0  0  0  0  0  0  0  0  0  0
    4.5934   -0.8375    0.0320 C   0  0  0  0  0  0  0  0  0  0  0  0
    3.2637   -1.2770    0.0500 N   0  0  0  0  0  0  0  0  0  0  0  0
    2.7564   -2.5908    0.0526 C   0  0  0  0  0  0  0  0  0  0  0  0
    1.6338   -2.8156    0.4912 O   0  0  0  0  0  0  0  0  0  0  0  0
    3.5933   -3.6359   -0.5787 C   0  0  0  0  0  0  0  0  0  0  0  0
    3.3365   -4.9313   -0.3468 C   0  0  0  0  0  0  0  0  0  0  0  0
    4.1125   -5.9619   -1.0321 C   0  0  0  0  0  0  0  0  0  0  0  0
    5.3271   -6.4049   -0.4994 C   0  0  0  0  0  0  0  0  0  0  0  0
    6.1079   -7.3239   -1.2044 C   0  0  0  0  0  0  0  0  0  0  0  0
    5.6763   -7.8044   -2.4404 C   0  0  0  0  0  0  0  0  0  0  0  0
    4.4569   -7.3796   -2.9663 C   0  0  0  0  0  0  0  0  0  0  0  0
    3.6751   -6.4608   -2.2632 C   0  0  0  0  0  0  0  0  0  0  0  0
    0.6201    0.9108    0.0460 H   0  0  0  0  0  0  0  0  0  0  0  0
    0.5893   -0.5722    1.0012 H   0  0  0  0  0  0  0  0  0  0  0  0
    0.6043   -0.6466   -0.7855 H   0  0  0  0  0  0  0  0  0  0  0  0
    5.5878    2.4218    0.0369 H   0  0  0  0  0  0  0  0  0  0  0  0
    7.8197    1.3125    0.0405 H   0  0  0  0  0  0  0  0  0  0  0  0
    7.9784   -1.1518    0.0790 H   0  0  0  0  0  0  0  0  0  0  0  0
    5.9545   -2.5567    0.1212 H   0  0  0  0  0  0  0  0  0  0  0  0
    4.3581   -3.3330   -1.2831 H   0  0  0  0  0  0  0  0  0  0  0  0
    2.5474   -5.2652    0.3235 H   0  0  0  0  0  0  0  0  0  0  0  0
    5.6788   -6.0342    0.4607 H   0  0  0  0  0  0  0  0  0  0  0  0
    7.0568   -7.6599   -0.7932 H   0  0  0  0  0  0  0  0  0  0  0  0
    6.2901   -8.5101   -2.9942 H   0  0  0  0  0  0  0  0  0  0  0  0
    4.1185   -7.7568   -3.9284 H   0  0  0  0  0  0  0  0  0  0  0  0
    2.7301   -6.1303   -2.6890 H   0  0  0  0  0  0  0  0  0  0  0  0
  1  2  1  0  0  0  0
  1 21  1  0  0  0  0
  1 22  1  0  0  0  0
  1 23  1  0  0  0  0
  2  3  2  0  0  0  0
  2 10  1  0  0  0  0
  3  4  1  0  0  0  0
  4  5  1  0  0  0  0
  4  9  2  0  0  0  0
  5  6  2  0  0  0  0
  5 24  1  0  0  0  0
  6  7  1  0  0  0  0
  6 25  1  0  0  0  0
  7  8  2  0  0  0  0
  7 26  1  0  0  0  0
  8  9  1  0  0  0  0
  8 27  1  0  0  0  0
  9 10  1  0  0  0  0
 10 11  1  0  0  0  0
 11 12  2  0  0  0  0
 11 13  1  0  0  0  0
 13 14  2  0  0  0  0
 13 28  1  0  0  0  0
 14 15  1  0  0  0  0
 14 29  1  0  0  0  0
 15 16  2  0  0  0  0
 15 20  1  0  0  0  0
 16 17  1  0  0  0  0
 16 30  1  0  0  0  0
 17 18  2  0  0  0  0
 17 31  1  0  0  0  0
 18 19  1  0  0  0  0
 18 32  1  0  0  0  0
 19 20  2  0  0  0  0
 19 33  1  0  0  0  0
 20 34  1  0  0  0  0
M  END
$$$$
