
 OpenBabel09162610133D

 36 38  0  0  0  0  0  0  0  0999 V2000
    1.0463    0.0993    0.0319 C   0  0  0  0  0  0  0  0  0  0  0  0
    2.5416    0.1873   -0.0353 C   0  0  0  0  0  0  0  0  0  0  0  0
    3.1870    1.4162   -0.1463 C   0  0  0  0  0  0  0  0  0  0  0  0
    4.5740    1.4356   -0.2946 C   0  0  0  0  0  0  0  0  0  0  0  0
    5.2709    2.6790   -0.4701 C   0  0  0  0  0  0  0  0  0  0  0  0
    5.8413    3.7207   -0.6439 C   0  0  0  0  0  0  0  0  0  0  0  0
    6.4887    4.9724   -0.8627 C   0  0  0  0  0  0  0  0  0  0  0  0
    5.9853    6.2198   -0.5999 C   0  0  0  0  0  0  0  0  0  0  0  0
    6.9451    7.1186   -1.0292 N   0  0  0  0  0  0  0  0  0  0  0  0
    6.8001    8.5337   -0.9954 C   0  0  0  0  0  0  0  0  0  0  0  0
    6.0231    9.1230    0.0123 C   0  0  0  0  0  0  0  0  0  0  0  0
    5.8712   10.5102    0.0603 C   0  0  0  0  0  0  0  0  0  0  0  0
    6.4793   11.3152   -0.9004 C   0  0  0  0  0  0  0  0  0  0  0  0
    7.2411   10.7356   -1.9122 C   0  0  0  0  0  0  0  0  0  0  0  0
    7.3954    9.3484   -1.9669 C   0  0  0  0  0  0  0  0  0  0  0  0
    8.0218    6.3464   -1.4671 C   0  0  0  0  0  0  0  0  0  0  0  0
    9.3717    6.8649   -1.8314 C   0  0  0  0  0  0  0  0  0  0  0  0
    7.7383    5.0543   -1.3978 N   0  0  0  0  0  0  0  0  0  0  0  0
    5.2759    0.2337   -0.3056 C   0  0  0  0  0  0  0  0  0  0  0  0
    4.5562   -0.9388   -0.1714 C   0  0  0  0  0  0  0  0  0  0  0  0
    3.2122   -0.9883   -0.0420 N   0  0  0  0  0  0  0  0  0  0  0  0
    0.5826    1.0856    0.1294 H   0  0  0  0  0  0  0  0  0  0  0  0
    0.7400   -0.5080    0.8898 H   0  0  0  0  0  0  0  0  0  0  0  0
    0.6663   -0.3685   -0.8827 H   0  0  0  0  0  0  0  0  0  0  0  0
    2.6186    2.3405   -0.1348 H   0  0  0  0  0  0  0  0  0  0  0  0
    5.0259    6.5335   -0.2192 H   0  0  0  0  0  0  0  0  0  0  0  0
    5.5610    8.5281    0.7965 H   0  0  0  0  0  0  0  0  0  0  0  0
    5.2817   10.9635    0.8537 H   0  0  0  0  0  0  0  0  0  0  0  0
    6.3533   12.3943   -0.8655 H   0  0  0  0  0  0  0  0  0  0  0  0
    7.7064   11.3632   -2.6687 H   0  0  0  0  0  0  0  0  0  0  0  0
    7.9455    8.9346   -2.8074 H   0  0  0  0  0  0  0  0  0  0  0  0
    9.4894    7.9432   -1.7280 H   0  0  0  0  0  0  0  0  0  0  0  0
    9.6109    6.5911   -2.8637 H   0  0  0  0  0  0  0  0  0  0  0  0
   10.1254    6.4197   -1.1745 H   0  0  0  0  0  0  0  0  0  0  0  0
    6.3525    0.2066   -0.4251 H   0  0  0  0  0  0  0  0  0  0  0  0
    5.0532   -1.9052   -0.1765 H   0  0  0  0  0  0  0  0  0  0  0  0
  1  2  1  0  0  0  0
  1 22  1  0  0  0  0
  1 23  1  0  0  0  0
  1 24  1  0  0  0  0
  2  3  2  0  0  0  0
  2 21  1  0  0  0  0
  3  4  1  0  0  0  0
  3 25  1  0  0  0  0
  4  5  1  0  0  0  0
  4 19  2  0  0  0  0
  5  6  3  0  0  0  0
  6  7  1  0  0  0  0
  7  8  2  0  0  0  0
  7 18  1  0  0  0  0
  8  9  1  0  0  0  0
  8 26  1  0  0  0  0
  9 10  1  0  0  0  0
  9 16  1  0  0  0  0
 10 11  2  0  0  0  0
 10 15  1  0  0  0  0
 11 12  1  0  0  0  0
 11 27  1  0  0  0  0
 12 13  2  0  0  0  0
 12 28  1  0  0  0  0
 13 14  1  0  0  0  0
 13 29  1  0  0  0  0
 14 15  2  0  0  0  0
 14 30  1  0  0  0  0
 15 31  1  0  0  0  0
 16 17  1  0  0  0  0
 16 18  2  0  0  0  0
 17 32  1  0  0  0  0
 17 33  1  0  0  0  0
 17 34  1  0  0  0  0
 19 20  1  0  0  0  0
 19 35  1  0  0  0  0
 20 21  2  0  0  0  0
 20 36  1  0  0  0  0
M  END
$$$$
