
 OpenBabel09162610133D

 39 40  0  0  0  0  0  0  0  0999 V2000
    1.0578   -1.7665   -2.7685 C   0  0  0  0  0  0  0  0  0  0  0  0
    2.0928   -2.2676   -1.7721 C   0  0  0  0  0  0  0  0  0  0  0  0
    2.8725   -1.1858   -1.1521 N   0  0  0  0  0  0  0  0  0  0  0  0
    2.2399   -0.4071   -0.1844 C   0  0  0  0  0  0  0  0  0  0  0  0
    2.9908    0.7854    0.3655 C   0  0  0  0  0  0  0  0  0  0  0  0
    1.0863   -0.6187    0.1988 O   0  0  0  0  0  0  0  0  0  0  0  0
    4.2930   -1.3058   -1.2619 C   0  0  0  0  0  0  0  0  0  0  0  0
    5.0609   -1.4914   -0.1003 C   0  0  0  0  0  0  0  0  0  0  0  0
    6.4371   -1.7060   -0.1810 C   0  0  0  0  0  0  0  0  0  0  0  0
    7.0581   -1.7590   -1.4239 C   0  0  0  0  0  0  0  0  0  0  0  0
    6.3112   -1.5733   -2.5880 C   0  0  0  0  0  0  0  0  0  0  0  0
    4.9338   -1.3193   -2.5212 C   0  0  0  0  0  0  0  0  0  0  0  0
    4.1592   -1.0455   -3.6245 O   0  0  0  0  0  0  0  0  0  0  0  0
    4.8565   -0.6247   -4.7996 C   0  0  0  0  0  0  0  0  0  0  0  0
    3.9353    0.1160   -5.7417 C   0  0  0  0  0  0  0  0  0  0  0  0
    3.1232    1.1599   -5.2775 C   0  0  0  0  0  0  0  0  0  0  0  0
    2.3541    1.9114   -6.1683 C   0  0  0  0  0  0  0  0  0  0  0  0
    2.3901    1.6292   -7.5327 C   0  0  0  0  0  0  0  0  0  0  0  0
    3.1898    0.5919   -8.0070 C   0  0  0  0  0  0  0  0  0  0  0  0
    3.9618   -0.1586   -7.1179 C   0  0  0  0  0  0  0  0  0  0  0  0
    0.4953   -2.6118   -3.1780 H   0  0  0  0  0  0  0  0  0  0  0  0
    1.5302   -1.2381   -3.6007 H   0  0  0  0  0  0  0  0  0  0  0  0
    0.3439   -1.0814   -2.3019 H   0  0  0  0  0  0  0  0  0  0  0  0
    2.7543   -2.9898   -2.2644 H   0  0  0  0  0  0  0  0  0  0  0  0
    1.5807   -2.8147   -0.9700 H   0  0  0  0  0  0  0  0  0  0  0  0
    3.8474    1.0697   -0.2489 H   0  0  0  0  0  0  0  0  0  0  0  0
    3.3175    0.5696    1.3861 H   0  0  0  0  0  0  0  0  0  0  0  0
    2.3115    1.6437    0.3830 H   0  0  0  0  0  0  0  0  0  0  0  0
    4.5896   -1.5172    0.8785 H   0  0  0  0  0  0  0  0  0  0  0  0
    7.0186   -1.8559    0.7254 H   0  0  0  0  0  0  0  0  0  0  0  0
    8.1273   -1.9480   -1.4896 H   0  0  0  0  0  0  0  0  0  0  0  0
    6.8353   -1.6378   -3.5370 H   0  0  0  0  0  0  0  0  0  0  0  0
    5.2632   -1.5133   -5.2967 H   0  0  0  0  0  0  0  0  0  0  0  0
    5.6749    0.0660   -4.5568 H   0  0  0  0  0  0  0  0  0  0  0  0
    3.0957    1.3993   -4.2160 H   0  0  0  0  0  0  0  0  0  0  0  0
    1.7334    2.7232   -5.7981 H   0  0  0  0  0  0  0  0  0  0  0  0
    1.7977    2.2201   -8.2264 H   0  0  0  0  0  0  0  0  0  0  0  0
    3.2209    0.3734   -9.0713 H   0  0  0  0  0  0  0  0  0  0  0  0
    4.5921   -0.9536   -7.5100 H   0  0  0  0  0  0  0  0  0  0  0  0
  1  2  1  0  0  0  0
  1 21  1  0  0  0  0
  1 22  1  0  0  0  0
  1 23  1  0  0  0  0
  2  3  1  0  0  0  0
  2 24  1  0  0  0  0
  2 25  1  0  0  0  0
  3  4  1  0  0  0  0
  3  7  1  0  0  0  0
  4  5  1  0  0  0  0
  4  6  2  0  0  0  0
  5 26  1  0  0  0  0
  5 27  1  0  0  0  0
  5 28  1  0  0  0  0
  7  8  2  0  0  0  0
  7 12  1  0  0  0  0
  8  9  1  0  0  0  0
  8 29  1  0  0  0  0
  9 10  2  0  0  0  0
  9 30  1  0  0  0  0
 10 11  1  0  0  0  0
 10 31  1  0  0  0  0
 11 12  2  0  0  0  0
 11 32  1  0  0  0  0
 12 13  1  0  0  0  0
 13 14  1  0  0  0  0
 14 15  1  0  0  0  0
 14 33  1  0  0  0  0
 14 34  1  0  0  0  0
 15 16  2  0  0  0  0
 15 20  1  0  0  0  0
 16 17  1  0  0  0  0
 16 35  1  0  0  0  0
 17 18  2  0  0  0  0
 17 36  1  0  0  0  0
 18 19  1  0  0  0  0
 18 37  1  0  0  0  0
 19 20  2  0  0  0  0
 19 38  1  0  0  0  0
 20 39  1  0  0  0  0
M  END
$$$$
