
 OpenBabel09162610133D

 43 45  0  0  0  0  0  0  0  0999 V2000
    3.8422    0.9470   -0.0997 C   0  0  0  0  0  0  0  0  0  0  0  0
    2.6872   -0.0618   -0.0612 C   0  0  0  0  0  0  0  0  0  0  0  0
    1.4460    0.5588   -0.7100 C   0  0  0  0  0  0  0  0  0  0  0  0
    3.0366   -1.4017   -0.7066 C   0  0  0  0  0  0  0  0  0  0  0  0
    3.9596   -1.3672   -1.7128 N   0  0  0  0  0  0  0  0  0  0  0  0
    4.3487   -2.5117   -2.3278 C   0  0  0  0  0  0  0  0  0  0  0  0
    5.3204   -2.4541   -3.3381 N   0  0  0  0  0  0  0  0  0  0  0  0
    6.2088   -1.2880   -3.3890 C   0  0  0  0  0  0  0  0  0  0  0  0
    6.0056   -0.6895   -4.7760 C   0  0  0  0  0  0  0  0  0  0  0  0
    5.6657   -1.8963   -5.6284 C   0  0  0  0  0  0  0  0  0  0  0  0
    4.8295   -2.7644   -4.6933 C   0  0  0  0  0  0  0  0  0  0  0  0
    3.8012   -3.7417   -1.9345 C   0  0  0  0  0  0  0  0  0  0  0  0
    4.2516   -4.9587   -2.5479 C   0  0  0  0  0  0  0  0  0  0  0  0
    4.5687   -5.9672   -3.0260 N   0  0  0  0  0  0  0  0  0  0  0  0
    2.8342   -3.7952   -0.9049 C   0  0  0  0  0  0  0  0  0  0  0  0
    2.4262   -2.5974   -0.2862 C   0  0  0  0  0  0  0  0  0  0  0  0
    1.4309   -2.6289    0.8549 C   0  0  0  0  0  0  0  0  0  0  0  0
    0.5727   -3.8908    0.8891 C   0  0  0  0  0  0  0  0  0  0  0  0
    1.4633   -5.1156    0.8052 C   0  0  0  0  0  0  0  0  0  0  0  0
    2.2093   -5.1261   -0.5241 C   0  0  0  0  0  0  0  0  0  0  0  0
    3.6306    1.7860    0.5739 H   0  0  0  0  0  0  0  0  0  0  0  0
    3.9858    1.3599   -1.1043 H   0  0  0  0  0  0  0  0  0  0  0  0
    4.7852    0.4931    0.2222 H   0  0  0  0  0  0  0  0  0  0  0  0
    2.4823   -0.2323    1.0029 H   0  0  0  0  0  0  0  0  0  0  0  0
    1.5765    0.6811   -1.7907 H   0  0  0  0  0  0  0  0  0  0  0  0
    1.2339    1.5441   -0.2797 H   0  0  0  0  0  0  0  0  0  0  0  0
    0.5561   -0.0598   -0.5580 H   0  0  0  0  0  0  0  0  0  0  0  0
    7.2389   -1.6557   -3.3003 H   0  0  0  0  0  0  0  0  0  0  0  0
    6.0637   -0.5422   -2.6018 H   0  0  0  0  0  0  0  0  0  0  0  0
    6.8957   -0.1647   -5.1363 H   0  0  0  0  0  0  0  0  0  0  0  0
    5.1683    0.0167   -4.7668 H   0  0  0  0  0  0  0  0  0  0  0  0
    6.5804   -2.4253   -5.9218 H   0  0  0  0  0  0  0  0  0  0  0  0
    5.1234   -1.6294   -6.5406 H   0  0  0  0  0  0  0  0  0  0  0  0
    4.9816   -3.8199   -4.9410 H   0  0  0  0  0  0  0  0  0  0  0  0
    3.7658   -2.5236   -4.8103 H   0  0  0  0  0  0  0  0  0  0  0  0
    0.7479   -1.7766    0.8070 H   0  0  0  0  0  0  0  0  0  0  0  0
    1.9922   -2.5515    1.7950 H   0  0  0  0  0  0  0  0  0  0  0  0
   -0.1370   -3.8879    0.0518 H   0  0  0  0  0  0  0  0  0  0  0  0
   -0.0170   -3.9143    1.8122 H   0  0  0  0  0  0  0  0  0  0  0  0
    0.8666   -6.0298    0.9010 H   0  0  0  0  0  0  0  0  0  0  0  0
    2.1796   -5.1109    1.6366 H   0  0  0  0  0  0  0  0  0  0  0  0
    1.5097   -5.4055   -1.3225 H   0  0  0  0  0  0  0  0  0  0  0  0
    2.9756   -5.9071   -0.4624 H   0  0  0  0  0  0  0  0  0  0  0  0
  1  2  1  0  0  0  0
  1 21  1  0  0  0  0
  1 22  1  0  0  0  0
  1 23  1  0  0  0  0
  2  3  1  0  0  0  0
  2  4  1  0  0  0  0
  2 24  1  0  0  0  0
  3 25  1  0  0  0  0
  3 26  1  0  0  0  0
  3 27  1  0  0  0  0
  4  5  2  0  0  0  0
  4 16  1  0  0  0  0
  5  6  1  0  0  0  0
  6  7  1  0  0  0  0
  6 12  2  0  0  0  0
  7  8  1  0  0  0  0
  7 11  1  0  0  0  0
  8  9  1  0  0  0  0
  8 28  1  0  0  0  0
  8 29  1  0  0  0  0
  9 10  1  0  0  0  0
  9 30  1  0  0  0  0
  9 31  1  0  0  0  0
 10 11  1  0  0  0  0
 10 32  1  0  0  0  0
 10 33  1  0  0  0  0
 11 34  1  0  0  0  0
 11 35  1  0  0  0  0
 12 13  1  0  0  0  0
 12 15  1  0  0  0  0
 13 14  3  0  0  0  0
 15 16  2  0  0  0  0
 15 20  1  0  0  0  0
 16 17  1  0  0  0  0
 17 18  1  0  0  0  0
 17 36  1  0  0  0  0
 17 37  1  0  0  0  0
 18 19  1  0  0  0  0
 18 38  1  0  0  0  0
 18 39  1  0  0  0  0
 19 20  1  0  0  0  0
 19 40  1  0  0  0  0
 19 41  1  0  0  0  0
 20 42  1  0  0  0  0
 20 43  1  0  0  0  0
M  END
$$$$
