
 OpenBabel09162610133D

 34 36  0  0  0  0  0  0  0  0999 V2000
    1.3087   -4.5104   -2.1302 C   0  0  0  0  0  0  0  0  0  0  0  0
    2.6729   -4.0932   -2.6027 C   0  0  0  0  0  0  0  0  0  0  0  0
    3.5403   -5.1594   -3.2147 C   0  0  0  0  0  0  0  0  0  0  0  0
    3.0760   -2.8118   -2.4700 C   0  0  0  0  0  0  0  0  0  0  0  0
    4.3643   -2.2403   -2.9887 C   0  0  0  0  0  0  0  0  0  0  0  0
    5.1705   -1.8212   -1.8875 O   0  0  0  0  0  0  0  0  0  0  0  0
    6.5307   -1.8410   -2.1457 C   0  0  0  0  0  0  0  0  0  0  0  0
    7.1495   -1.7379   -3.4013 C   0  0  0  0  0  0  0  0  0  0  0  0
    6.5277   -1.5466   -4.6038 O   0  0  0  0  0  0  0  0  0  0  0  0
    7.4821   -1.5581   -5.5659 C   0  0  0  0  0  0  0  0  0  0  0  0
    8.7234   -1.7356   -5.0073 C   0  0  0  0  0  0  0  0  0  0  0  0
    8.5230   -1.8326   -3.6025 C   0  0  0  0  0  0  0  0  0  0  0  0
    9.3670   -2.0074   -2.4891 C   0  0  0  0  0  0  0  0  0  0  0  0
    8.7957   -2.0615   -1.2094 C   0  0  0  0  0  0  0  0  0  0  0  0
    9.6313   -2.2254   -0.0290 C   0  0  0  0  0  0  0  0  0  0  0  0
    9.0680   -2.2739    1.1807 C   0  0  0  0  0  0  0  0  0  0  0  0
    7.6116   -2.1678    1.3808 C   0  0  0  0  0  0  0  0  0  0  0  0
    7.1352   -2.2026    2.5089 O   0  0  0  0  0  0  0  0  0  0  0  0
    6.8371   -2.0312    0.2401 O   0  0  0  0  0  0  0  0  0  0  0  0
    7.4081   -1.9720   -1.0573 C   0  0  0  0  0  0  0  0  0  0  0  0
    1.1690   -5.5941   -2.1964 H   0  0  0  0  0  0  0  0  0  0  0  0
    0.5365   -4.0424   -2.7499 H   0  0  0  0  0  0  0  0  0  0  0  0
    1.1520   -4.2232   -1.0863 H   0  0  0  0  0  0  0  0  0  0  0  0
    3.0885   -6.1526   -3.1349 H   0  0  0  0  0  0  0  0  0  0  0  0
    4.5079   -5.2093   -2.7016 H   0  0  0  0  0  0  0  0  0  0  0  0
    3.7092   -4.9600   -4.2780 H   0  0  0  0  0  0  0  0  0  0  0  0
    2.4140   -2.0905   -1.9957 H   0  0  0  0  0  0  0  0  0  0  0  0
    4.1332   -1.3697   -3.6134 H   0  0  0  0  0  0  0  0  0  0  0  0
    4.8734   -2.9917   -3.5998 H   0  0  0  0  0  0  0  0  0  0  0  0
    7.1230   -1.4345   -6.5782 H   0  0  0  0  0  0  0  0  0  0  0  0
    9.6594   -1.7875   -5.5454 H   0  0  0  0  0  0  0  0  0  0  0  0
   10.4405   -2.0920   -2.6302 H   0  0  0  0  0  0  0  0  0  0  0  0
   10.7059   -2.3091   -0.1473 H   0  0  0  0  0  0  0  0  0  0  0  0
    9.6579   -2.3943    2.0810 H   0  0  0  0  0  0  0  0  0  0  0  0
  1  2  1  0  0  0  0
  1 21  1  0  0  0  0
  1 22  1  0  0  0  0
  1 23  1  0  0  0  0
  2  3  1  0  0  0  0
  2  4  2  0  0  0  0
  3 24  1  0  0  0  0
  3 25  1  0  0  0  0
  3 26  1  0  0  0  0
  4  5  1  0  0  0  0
  4 27  1  0  0  0  0
  5  6  1  0  0  0  0
  5 28  1  0  0  0  0
  5 29  1  0  0  0  0
  6  7  1  0  0  0  0
  7  8  2  0  0  0  0
  7 20  1  0  0  0  0
  8  9  1  0  0  0  0
  8 12  1  0  0  0  0
  9 10  1  0  0  0  0
 10 11  2  0  0  0  0
 10 30  1  0  0  0  0
 11 12  1  0  0  0  0
 11 31  1  0  0  0  0
 12 13  2  0  0  0  0
 13 14  1  0  0  0  0
 13 32  1  0  0  0  0
 14 15  1  0  0  0  0
 14 20  2  0  0  0  0
 15 16  2  0  0  0  0
 15 33  1  0  0  0  0
 16 17  1  0  0  0  0
 16 34  1  0  0  0  0
 17 18  2  0  0  0  0
 17 19  1  0  0  0  0
 19 20  1  0  0  0  0
M  END
$$$$
