
 OpenBabel09162610133D

 27 30  0  0  0  0  0  0  0  0999 V2000
    1.0219   -0.0473    0.0822 O   0  0  0  0  0  0  0  0  0  0  0  0
    2.2291   -0.0600    0.0818 C   0  0  0  0  0  0  0  0  0  0  0  0
    3.1086   -1.2334    0.0812 C   0  0  0  0  0  0  0  0  0  0  0  0
    2.7868   -2.5773    0.0807 C   0  0  0  0  0  0  0  0  0  0  0  0
    3.8499   -3.4846    0.0800 C   0  0  0  0  0  0  0  0  0  0  0  0
    5.1814   -3.0264    0.0796 C   0  0  0  0  0  0  0  0  0  0  0  0
    6.4664   -4.1727    0.0785 Cl  0  0  0  0  0  0  0  0  0  0  0  0
    5.4825   -1.6603    0.0800 C   0  0  0  0  0  0  0  0  0  0  0  0
    4.4260   -0.7665    0.0811 C   0  0  0  0  0  0  0  0  0  0  0  0
    4.4518    0.6392    0.0813 N   0  0  0  0  0  0  0  0  0  0  0  0
    3.1657    1.1403    0.0817 C   0  0  0  0  0  0  0  0  0  0  0  0
    2.8311    2.3855    0.0818 N   0  0  0  0  0  0  0  0  0  0  0  0
    3.9017    3.3038    0.0812 C   0  0  0  0  0  0  0  0  0  0  0  0
    3.6141    4.6702    0.0802 C   0  0  0  0  0  0  0  0  0  0  0  0
    4.6449    5.6161    0.0792 C   0  0  0  0  0  0  0  0  0  0  0  0
    5.9778    5.2045    0.0793 C   0  0  0  0  0  0  0  0  0  0  0  0
    6.2840    3.8456    0.0804 C   0  0  0  0  0  0  0  0  0  0  0  0
    5.2482    2.9044    0.0811 C   0  0  0  0  0  0  0  0  0  0  0  0
    5.5599    1.4551    0.0813 C   0  0  0  0  0  0  0  0  0  0  0  0
    6.7273    1.0771    0.0813 O   0  0  0  0  0  0  0  0  0  0  0  0
    1.7541   -2.9118    0.0809 H   0  0  0  0  0  0  0  0  0  0  0  0
    3.6449   -4.5535    0.0796 H   0  0  0  0  0  0  0  0  0  0  0  0
    6.5155   -1.3262    0.0796 H   0  0  0  0  0  0  0  0  0  0  0  0
    2.5778    5.0004    0.0800 H   0  0  0  0  0  0  0  0  0  0  0  0
    4.4053    6.6771    0.0782 H   0  0  0  0  0  0  0  0  0  0  0  0
    6.7776    5.9416    0.0785 H   0  0  0  0  0  0  0  0  0  0  0  0
    7.3230    3.5227    0.0804 H   0  0  0  0  0  0  0  0  0  0  0  0
  1  2  2  0  0  0  0
  2  3  1  0  0  0  0
  2 11  1  0  0  0  0
  3  4  2  0  0  0  0
  3  9  1  0  0  0  0
  4  5  1  0  0  0  0
  4 21  1  0  0  0  0
  5  6  2  0  0  0  0
  5 22  1  0  0  0  0
  6  7  1  0  0  0  0
  6  8  1  0  0  0  0
  8  9  2  0  0  0  0
  8 23  1  0  0  0  0
  9 10  1  0  0  0  0
 10 11  1  0  0  0  0
 10 19  1  0  0  0  0
 11 12  2  0  0  0  0
 12 13  1  0  0  0  0
 13 14  1  0  0  0  0
 13 18  2  0  0  0  0
 14 15  2  0  0  0  0
 14 24  1  0  0  0  0
 15 16  1  0  0  0  0
 15 25  1  0  0  0  0
 16 17  2  0  0  0  0
 16 26  1  0  0  0  0
 17 18  1  0  0  0  0
 17 27  1  0  0  0  0
 18 19  1  0  0  0  0
 19 20  2  0  0  0  0
M  END
$$$$
