
 OpenBabel09162610133D

 31 34  0  0  0  0  0  0  0  0999 V2000
    2.4712   -0.6732   -0.0021 C   0  0  0  0  0  0  0  0  0  0  0  0
    2.4390    0.7164   -0.0000 C   0  0  0  0  0  0  0  0  0  0  0  0
    1.2108    1.3840    0.0024 C   0  0  0  0  0  0  0  0  0  0  0  0
    0.0061    0.6943    0.0036 C   0  0  0  0  0  0  0  0  0  0  0  0
   -1.1486    1.3767    0.0180 N   0  0  0  0  0  0  0  0  0  0  0  0
   -2.3055    0.6674    0.0222 C   0  0  0  0  0  0  0  0  0  0  0  0
   -2.4043   -0.7235   -0.0026 C   0  0  0  0  0  0  0  0  0  0  0  0
   -3.7047   -1.4278   -0.0089 C   0  0  0  0  0  0  0  0  0  0  0  0
   -4.8367   -0.8830   -0.6361 C   0  0  0  0  0  0  0  0  0  0  0  0
   -6.0674   -1.5569   -0.6406 C   0  0  0  0  0  0  0  0  0  0  0  0
   -6.2245   -2.7964   -0.0412 C   0  0  0  0  0  0  0  0  0  0  0  0
   -7.4128   -3.4138   -0.0786 N   0  0  0  0  0  0  0  0  0  0  0  0
   -7.4896   -4.6149    0.5149 C   0  0  0  0  0  0  0  0  0  0  0  0
   -6.4928   -5.2543    1.1421 N   0  0  0  0  0  0  0  0  0  0  0  0
   -5.3165   -4.6007    1.1623 C   0  0  0  0  0  0  0  0  0  0  0  0
   -5.1081   -3.3554    0.5848 C   0  0  0  0  0  0  0  0  0  0  0  0
   -3.8689   -2.6788    0.6087 C   0  0  0  0  0  0  0  0  0  0  0  0
   -1.1800   -1.4058   -0.0215 C   0  0  0  0  0  0  0  0  0  0  0  0
    0.0422   -0.7134   -0.0087 C   0  0  0  0  0  0  0  0  0  0  0  0
    1.2759   -1.3888   -0.0092 C   0  0  0  0  0  0  0  0  0  0  0  0
    3.4231   -1.1982    0.0001 H   0  0  0  0  0  0  0  0  0  0  0  0
    3.3647    1.2862    0.0015 H   0  0  0  0  0  0  0  0  0  0  0  0
    1.1917    2.4711    0.0050 H   0  0  0  0  0  0  0  0  0  0  0  0
   -3.1918    1.2965    0.0583 H   0  0  0  0  0  0  0  0  0  0  0  0
   -4.7846    0.0746   -1.1512 H   0  0  0  0  0  0  0  0  0  0  0  0
   -6.9228   -1.1000   -1.1343 H   0  0  0  0  0  0  0  0  0  0  0  0
   -8.4503   -5.1167    0.4823 H   0  0  0  0  0  0  0  0  0  0  0  0
   -4.5148   -5.1286    1.6720 H   0  0  0  0  0  0  0  0  0  0  0  0
   -3.0337   -3.1445    1.1292 H   0  0  0  0  0  0  0  0  0  0  0  0
   -1.1625   -2.4926   -0.0605 H   0  0  0  0  0  0  0  0  0  0  0  0
    1.3109   -2.4758   -0.0116 H   0  0  0  0  0  0  0  0  0  0  0  0
  1  2  2  0  0  0  0
  1 20  1  0  0  0  0
  1 21  1  0  0  0  0
  2  3  1  0  0  0  0
  2 22  1  0  0  0  0
  3  4  2  0  0  0  0
  3 23  1  0  0  0  0
  4  5  1  0  0  0  0
  4 19  1  0  0  0  0
  5  6  2  0  0  0  0
  6  7  1  0  0  0  0
  6 24  1  0  0  0  0
  7  8  1  0  0  0  0
  7 18  2  0  0  0  0
  8  9  2  0  0  0  0
  8 17  1  0  0  0  0
  9 10  1  0  0  0  0
  9 25  1  0  0  0  0
 10 11  2  0  0  0  0
 10 26  1  0  0  0  0
 11 12  1  0  0  0  0
 11 16  1  0  0  0  0
 12 13  2  0  0  0  0
 13 14  1  0  0  0  0
 13 27  1  0  0  0  0
 14 15  2  0  0  0  0
 15 16  1  0  0  0  0
 15 28  1  0  0  0  0
 16 17  2  0  0  0  0
 17 29  1  0  0  0  0
 18 19  1  0  0  0  0
 18 30  1  0  0  0  0
 19 20  2  0  0  0  0
 20 31  1  0  0  0  0
M  END
$$$$
