
 OpenBabel09162610133D

 40 42  0  0  0  0  0  0  0  0999 V2000
    5.8416   -0.8189    1.8156 C   0  0  0  0  0  0  0  0  0  0  0  0
    5.4047   -0.6475    0.3711 C   0  0  0  0  0  0  0  0  0  0  0  0
    5.5122    0.7432    0.0435 O   0  0  0  0  0  0  0  0  0  0  0  0
    4.4228    1.4916    0.3552 C   0  0  0  0  0  0  0  0  0  0  0  0
    3.3081    1.0749    0.6069 O   0  0  0  0  0  0  0  0  0  0  0  0
    4.8665    2.8922    0.5234 C   0  0  0  0  0  0  0  0  0  0  0  0
    5.8777    3.4210   -0.2823 C   0  0  0  0  0  0  0  0  0  0  0  0
    6.3350    4.7135   -0.0533 C   0  0  0  0  0  0  0  0  0  0  0  0
    5.7666    5.4699    0.9706 C   0  0  0  0  0  0  0  0  0  0  0  0
    6.1897    6.8524    1.2692 C   0  0  0  0  0  0  0  0  0  0  0  0
    6.1348    7.3609    2.5911 C   0  0  0  0  0  0  0  0  0  0  0  0
    6.5311    8.6667    2.9029 C   0  0  0  0  0  0  0  0  0  0  0  0
    6.9967    9.4719    1.8814 C   0  0  0  0  0  0  0  0  0  0  0  0
    7.0515    8.9994    0.5694 C   0  0  0  0  0  0  0  0  0  0  0  0
    6.6460    7.7118    0.2489 C   0  0  0  0  0  0  0  0  0  0  0  0
    7.5226   10.0690   -0.3641 C   0  0  0  0  0  0  0  0  0  0  0  0
    8.1819   11.0470    0.6173 C   0  0  0  0  0  0  0  0  0  0  0  0
    7.4310   10.9019    1.9497 C   0  0  0  0  0  0  0  0  0  0  0  0
    4.7867    4.9611    1.7624 N   0  0  0  0  0  0  0  0  0  0  0  0
    4.3430    3.6927    1.5399 C   0  0  0  0  0  0  0  0  0  0  0  0
    3.2903    3.2072    2.4940 C   0  0  0  0  0  0  0  0  0  0  0  0
    5.8104   -1.8675    2.1193 H   0  0  0  0  0  0  0  0  0  0  0  0
    5.2017   -0.2368    2.4882 H   0  0  0  0  0  0  0  0  0  0  0  0
    6.8606   -0.4384    1.9506 H   0  0  0  0  0  0  0  0  0  0  0  0
    4.3927   -1.0330    0.2069 H   0  0  0  0  0  0  0  0  0  0  0  0
    6.0792   -1.1963   -0.2936 H   0  0  0  0  0  0  0  0  0  0  0  0
    6.3259    2.8278   -1.0766 H   0  0  0  0  0  0  0  0  0  0  0  0
    7.1432    5.1086   -0.6612 H   0  0  0  0  0  0  0  0  0  0  0  0
    5.7681    6.7212    3.3938 H   0  0  0  0  0  0  0  0  0  0  0  0
    6.4666    9.0317    3.9232 H   0  0  0  0  0  0  0  0  0  0  0  0
    6.6711    7.3944   -0.7867 H   0  0  0  0  0  0  0  0  0  0  0  0
    6.6682   10.5292   -0.8714 H   0  0  0  0  0  0  0  0  0  0  0  0
    8.2401    9.6958   -1.1012 H   0  0  0  0  0  0  0  0  0  0  0  0
    8.1818   12.0762    0.2451 H   0  0  0  0  0  0  0  0  0  0  0  0
    9.2317   10.7555    0.7629 H   0  0  0  0  0  0  0  0  0  0  0  0
    6.5565   11.5597    1.9833 H   0  0  0  0  0  0  0  0  0  0  0  0
    8.0866   11.1024    2.8015 H   0  0  0  0  0  0  0  0  0  0  0  0
    3.0864    3.9608    3.2622 H   0  0  0  0  0  0  0  0  0  0  0  0
    3.6244    2.2994    3.0066 H   0  0  0  0  0  0  0  0  0  0  0  0
    2.3524    3.0132    1.9658 H   0  0  0  0  0  0  0  0  0  0  0  0
  1  2  1  0  0  0  0
  1 22  1  0  0  0  0
  1 23  1  0  0  0  0
  1 24  1  0  0  0  0
  2  3  1  0  0  0  0
  2 25  1  0  0  0  0
  2 26  1  0  0  0  0
  3  4  1  0  0  0  0
  4  5  2  0  0  0  0
  4  6  1  0  0  0  0
  6  7  2  0  0  0  0
  6 20  1  0  0  0  0
  7  8  1  0  0  0  0
  7 27  1  0  0  0  0
  8  9  2  0  0  0  0
  8 28  1  0  0  0  0
  9 10  1  0  0  0  0
  9 19  1  0  0  0  0
 10 11  2  0  0  0  0
 10 15  1  0  0  0  0
 11 12  1  0  0  0  0
 11 29  1  0  0  0  0
 12 13  2  0  0  0  0
 12 30  1  0  0  0  0
 13 14  1  0  0  0  0
 13 18  1  0  0  0  0
 14 15  2  0  0  0  0
 14 16  1  0  0  0  0
 15 31  1  0  0  0  0
 16 17  1  0  0  0  0
 16 32  1  0  0  0  0
 16 33  1  0  0  0  0
 17 18  1  0  0  0  0
 17 34  1  0  0  0  0
 17 35  1  0  0  0  0
 18 36  1  0  0  0  0
 18 37  1  0  0  0  0
 19 20  2  0  0  0  0
 20 21  1  0  0  0  0
 21 38  1  0  0  0  0
 21 39  1  0  0  0  0
 21 40  1  0  0  0  0
M  END
$$$$
