
 OpenBabel09162610133D

 31 32  0  0  0  0  0  0  0  0999 V2000
    0.9844    0.0949   -0.0274 N   0  0  0  0  0  0  0  0  0  0  0  0
    2.2454    0.0949   -0.0274 C   0  0  0  0  0  0  0  0  0  0  0  0
    3.7654    0.0949   -0.0274 C   0  0  0  0  0  0  0  0  0  0  0  0
    4.4024   -0.0301    1.1601 C   0  0  0  0  0  0  0  0  0  0  0  0
    3.7375   -0.1602    2.4475 C   0  0  0  0  0  0  0  0  0  0  0  0
    4.3730   -0.2824    3.6236 C   0  0  0  0  0  0  0  0  0  0  0  0
    3.6604   -0.4561    4.9034 C   0  0  0  0  0  0  0  0  0  0  0  0
    2.4457   -1.1546    4.9915 C   0  0  0  0  0  0  0  0  0  0  0  0
    1.8089   -1.3364    6.2214 C   0  0  0  0  0  0  0  0  0  0  0  0
    2.3864   -0.8348    7.3840 C   0  0  0  0  0  0  0  0  0  0  0  0
    3.5994   -0.1527    7.3161 C   0  0  0  0  0  0  0  0  0  0  0  0
    4.2350    0.0329    6.0835 C   0  0  0  0  0  0  0  0  0  0  0  0
    4.4964    0.2704   -1.3054 C   0  0  0  0  0  0  0  0  0  0  0  0
    3.9829   -0.2601   -2.5014 C   0  0  0  0  0  0  0  0  0  0  0  0
    4.6506   -0.0725   -3.7159 C   0  0  0  0  0  0  0  0  0  0  0  0
    5.8428    0.6482   -3.7565 C   0  0  0  0  0  0  0  0  0  0  0  0
    6.3604    1.1819   -2.5804 C   0  0  0  0  0  0  0  0  0  0  0  0
    7.8293    2.0768   -2.6245 Cl  0  0  0  0  0  0  0  0  0  0  0  0
    5.6940    1.0040   -1.3676 C   0  0  0  0  0  0  0  0  0  0  0  0
    5.4900   -0.0456    1.1970 H   0  0  0  0  0  0  0  0  0  0  0  0
    2.6490   -0.1517    2.4502 H   0  0  0  0  0  0  0  0  0  0  0  0
    5.4580   -0.2570    3.6810 H   0  0  0  0  0  0  0  0  0  0  0  0
    1.9787   -1.5781    4.1056 H   0  0  0  0  0  0  0  0  0  0  0  0
    0.8655   -1.8742    6.2675 H   0  0  0  0  0  0  0  0  0  0  0  0
    1.8935   -0.9806    8.3415 H   0  0  0  0  0  0  0  0  0  0  0  0
    4.0533    0.2345    8.2245 H   0  0  0  0  0  0  0  0  0  0  0  0
    5.1801    0.5701    6.0569 H   0  0  0  0  0  0  0  0  0  0  0  0
    3.0552   -0.8305   -2.5092 H   0  0  0  0  0  0  0  0  0  0  0  0
    4.2357   -0.4873   -4.6329 H   0  0  0  0  0  0  0  0  0  0  0  0
    6.3572    0.7904   -4.7024 H   0  0  0  0  0  0  0  0  0  0  0  0
    6.1145    1.4604   -0.4736 H   0  0  0  0  0  0  0  0  0  0  0  0
  1  2  3  0  0  0  0
  2  3  1  0  0  0  0
  3  4  2  0  0  0  0
  3 13  1  0  0  0  0
  4  5  1  0  0  0  0
  4 20  1  0  0  0  0
  5  6  2  0  0  0  0
  5 21  1  0  0  0  0
  6  7  1  0  0  0  0
  6 22  1  0  0  0  0
  7  8  2  0  0  0  0
  7 12  1  0  0  0  0
  8  9  1  0  0  0  0
  8 23  1  0  0  0  0
  9 10  2  0  0  0  0
  9 24  1  0  0  0  0
 10 11  1  0  0  0  0
 10 25  1  0  0  0  0
 11 12  2  0  0  0  0
 11 26  1  0  0  0  0
 12 27  1  0  0  0  0
 13 14  2  0  0  0  0
 13 19  1  0  0  0  0
 14 15  1  0  0  0  0
 14 28  1  0  0  0  0
 15 16  2  0  0  0  0
 15 29  1  0  0  0  0
 16 17  1  0  0  0  0
 16 30  1  0  0  0  0
 17 18  1  0  0  0  0
 17 19  2  0  0  0  0
 19 31  1  0  0  0  0
M  END
$$$$
