
 OpenBabel09162610133D

 39 42  0  0  0  0  0  0  0  0999 V2000
    0.9841    0.4409    1.0648 C   0  0  0  0  0  0  0  0  0  0  0  0
    2.4462    0.7050    1.2635 C   0  0  0  0  0  0  0  0  0  0  0  0
    3.0250    0.7262    2.5330 C   0  0  0  0  0  0  0  0  0  0  0  0
    4.4096    0.9016    2.6883 C   0  0  0  0  0  0  0  0  0  0  0  0
    5.2570    1.0409    1.5779 C   0  0  0  0  0  0  0  0  0  0  0  0
    6.7293    1.1760    1.6704 C   0  0  0  0  0  0  0  0  0  0  0  0
    7.4744    1.0646    0.5442 C   0  0  0  0  0  0  0  0  0  0  0  0
    6.8822    0.8786   -0.7051 N   0  0  0  0  0  0  0  0  0  0  0  0
    7.6423    0.5044   -1.8898 C   0  0  0  0  0  0  0  0  0  0  0  0
    5.5055    0.9872   -0.9026 C   0  0  0  0  0  0  0  0  0  0  0  0
    4.9763    1.0042   -2.0121 O   0  0  0  0  0  0  0  0  0  0  0  0
    4.6599    1.0084    0.3109 C   0  0  0  0  0  0  0  0  0  0  0  0
    3.2723    0.8684    0.1522 C   0  0  0  0  0  0  0  0  0  0  0  0
    8.9556    1.1349    0.6700 C   0  0  0  0  0  0  0  0  0  0  0  0
    9.7061    2.0144   -0.1315 C   0  0  0  0  0  0  0  0  0  0  0  0
   11.1020    2.0105   -0.0810 C   0  0  0  0  0  0  0  0  0  0  0  0
   11.7686    1.1450    0.7852 C   0  0  0  0  0  0  0  0  0  0  0  0
   11.0401    0.3062    1.6273 C   0  0  0  0  0  0  0  0  0  0  0  0
    9.6465    0.3271    1.5913 C   0  0  0  0  0  0  0  0  0  0  0  0
    8.9834   -0.5222    2.4357 O   0  0  0  0  0  0  0  0  0  0  0  0
    8.2258    0.1592    3.4509 C   0  0  0  0  0  0  0  0  0  0  0  0
    7.4096    1.3842    3.0090 C   0  0  0  0  0  0  0  0  0  0  0  0
    0.8501   -0.5037    0.5260 H   0  0  0  0  0  0  0  0  0  0  0  0
    0.5249    1.2491    0.4868 H   0  0  0  0  0  0  0  0  0  0  0  0
    0.4545    0.3614    2.0190 H   0  0  0  0  0  0  0  0  0  0  0  0
    2.4078    0.5841    3.4182 H   0  0  0  0  0  0  0  0  0  0  0  0
    4.7977    0.8824    3.7017 H   0  0  0  0  0  0  0  0  0  0  0  0
    8.6136    0.0683   -1.6488 H   0  0  0  0  0  0  0  0  0  0  0  0
    7.7589    1.3818   -2.5334 H   0  0  0  0  0  0  0  0  0  0  0  0
    7.0871   -0.2596   -2.4475 H   0  0  0  0  0  0  0  0  0  0  0  0
    2.8453    0.8364   -0.8495 H   0  0  0  0  0  0  0  0  0  0  0  0
    9.2036    2.6915   -0.8190 H   0  0  0  0  0  0  0  0  0  0  0  0
   11.6693    2.6715   -0.7316 H   0  0  0  0  0  0  0  0  0  0  0  0
   12.8550    1.1247    0.8053 H   0  0  0  0  0  0  0  0  0  0  0  0
   11.5556   -0.3642    2.3093 H   0  0  0  0  0  0  0  0  0  0  0  0
    8.9117    0.4440    4.2585 H   0  0  0  0  0  0  0  0  0  0  0  0
    7.5428   -0.5879    3.8720 H   0  0  0  0  0  0  0  0  0  0  0  0
    8.0759    2.2555    2.9300 H   0  0  0  0  0  0  0  0  0  0  0  0
    6.7200    1.6680    3.8091 H   0  0  0  0  0  0  0  0  0  0  0  0
  1  2  1  0  0  0  0
  1 23  1  0  0  0  0
  1 24  1  0  0  0  0
  1 25  1  0  0  0  0
  2  3  2  0  0  0  0
  2 13  1  0  0  0  0
  3  4  1  0  0  0  0
  3 26  1  0  0  0  0
  4  5  2  0  0  0  0
  4 27  1  0  0  0  0
  5  6  1  0  0  0  0
  5 12  1  0  0  0  0
  6  7  2  0  0  0  0
  6 22  1  0  0  0  0
  7  8  1  0  0  0  0
  7 14  1  0  0  0  0
  8  9  1  0  0  0  0
  8 10  1  0  0  0  0
  9 28  1  0  0  0  0
  9 29  1  0  0  0  0
  9 30  1  0  0  0  0
 10 11  2  0  0  0  0
 10 12  1  0  0  0  0
 12 13  2  0  0  0  0
 13 31  1  0  0  0  0
 14 15  2  0  0  0  0
 14 19  1  0  0  0  0
 15 16  1  0  0  0  0
 15 32  1  0  0  0  0
 16 17  2  0  0  0  0
 16 33  1  0  0  0  0
 17 18  1  0  0  0  0
 17 34  1  0  0  0  0
 18 19  2  0  0  0  0
 18 35  1  0  0  0  0
 19 20  1  0  0  0  0
 20 21  1  0  0  0  0
 21 22  1  0  0  0  0
 21 36  1  0  0  0  0
 21 37  1  0  0  0  0
 22 38  1  0  0  0  0
 22 39  1  0  0  0  0
M  END
$$$$
