
 OpenBabel09162610133D

 34 37  0  0  0  0  0  0  0  0999 V2000
    1.0556    0.1353    0.0107 O   0  0  0  0  0  0  0  0  0  0  0  0
    2.4164    0.0205   -0.0218 C   0  0  0  0  0  0  0  0  0  0  0  0
    3.0289   -1.2110    0.0211 C   0  0  0  0  0  0  0  0  0  0  0  0
    4.4309   -1.2884   -0.0409 C   0  0  0  0  0  0  0  0  0  0  0  0
    5.0732   -2.6337    0.0678 C   0  0  0  0  0  0  0  0  0  0  0  0
    4.5131   -3.7650   -0.5589 C   0  0  0  0  0  0  0  0  0  0  0  0
    5.0871   -5.0360   -0.4342 C   0  0  0  0  0  0  0  0  0  0  0  0
    6.2627   -5.2033    0.2885 C   0  0  0  0  0  0  0  0  0  0  0  0
    6.8407   -4.1084    0.9187 C   0  0  0  0  0  0  0  0  0  0  0  0
    6.2307   -2.8518    0.8390 C   0  0  0  0  0  0  0  0  0  0  0  0
    5.1517   -0.0562   -0.1629 C   0  0  0  0  0  0  0  0  0  0  0  0
    6.5581    0.0523   -0.3074 C   0  0  0  0  0  0  0  0  0  0  0  0
    7.2041    1.2852   -0.3056 C   0  0  0  0  0  0  0  0  0  0  0  0
    6.4581    2.4499   -0.2103 C   0  0  0  0  0  0  0  0  0  0  0  0
    5.0698    2.3723   -0.1663 C   0  0  0  0  0  0  0  0  0  0  0  0
    4.4072    1.1497   -0.1415 C   0  0  0  0  0  0  0  0  0  0  0  0
    3.0699    1.1845   -0.0854 N   0  0  0  0  0  0  0  0  0  0  0  0
    7.0179    3.7000   -0.1689 O   0  0  0  0  0  0  0  0  0  0  0  0
    8.4141    3.6348    0.1475 C   0  0  0  0  0  0  0  0  0  0  0  0
    9.1040    2.5570   -0.6734 C   0  0  0  0  0  0  0  0  0  0  0  0
    8.5715    1.2630   -0.3732 O   0  0  0  0  0  0  0  0  0  0  0  0
    0.6764   -0.7535    0.0188 H   0  0  0  0  0  0  0  0  0  0  0  0
    2.4278   -2.1083    0.1206 H   0  0  0  0  0  0  0  0  0  0  0  0
    3.6097   -3.6759   -1.1584 H   0  0  0  0  0  0  0  0  0  0  0  0
    4.6160   -5.8933   -0.9084 H   0  0  0  0  0  0  0  0  0  0  0  0
    6.7234   -6.1843    0.3673 H   0  0  0  0  0  0  0  0  0  0  0  0
    7.7625   -4.2271    1.4827 H   0  0  0  0  0  0  0  0  0  0  0  0
    6.6866   -2.0373    1.3985 H   0  0  0  0  0  0  0  0  0  0  0  0
    7.1807   -0.8293   -0.4292 H   0  0  0  0  0  0  0  0  0  0  0  0
    4.4831    3.2882   -0.1247 H   0  0  0  0  0  0  0  0  0  0  0  0
    8.5198    3.4498    1.2239 H   0  0  0  0  0  0  0  0  0  0  0  0
    8.8516    4.6134   -0.0738 H   0  0  0  0  0  0  0  0  0  0  0  0
   10.1742    2.5348   -0.4441 H   0  0  0  0  0  0  0  0  0  0  0  0
    8.9872    2.7345   -1.7488 H   0  0  0  0  0  0  0  0  0  0  0  0
  1  2  1  0  0  0  0
  1 22  1  0  0  0  0
  2  3  2  0  0  0  0
  2 17  1  0  0  0  0
  3  4  1  0  0  0  0
  3 23  1  0  0  0  0
  4  5  1  0  0  0  0
  4 11  2  0  0  0  0
  5  6  2  0  0  0  0
  5 10  1  0  0  0  0
  6  7  1  0  0  0  0
  6 24  1  0  0  0  0
  7  8  2  0  0  0  0
  7 25  1  0  0  0  0
  8  9  1  0  0  0  0
  8 26  1  0  0  0  0
  9 10  2  0  0  0  0
  9 27  1  0  0  0  0
 10 28  1  0  0  0  0
 11 12  1  0  0  0  0
 11 16  1  0  0  0  0
 12 13  2  0  0  0  0
 12 29  1  0  0  0  0
 13 14  1  0  0  0  0
 13 21  1  0  0  0  0
 14 15  2  0  0  0  0
 14 18  1  0  0  0  0
 15 16  1  0  0  0  0
 15 30  1  0  0  0  0
 16 17  2  0  0  0  0
 18 19  1  0  0  0  0
 19 20  1  0  0  0  0
 19 31  1  0  0  0  0
 19 32  1  0  0  0  0
 20 21  1  0  0  0  0
 20 33  1  0  0  0  0
 20 34  1  0  0  0  0
M  END
$$$$
