
 OpenBabel09162610133D

 25 27  0  0  0  0  0  0  0  0999 V2000
    1.6240   -0.2601    1.8151 N   0  0  0  0  0  0  0  0  0  0  0  0
    2.7065    0.0303    1.0927 C   0  0  0  0  0  0  0  0  0  0  0  0
    3.6780    0.8527    1.3984 N   0  0  0  0  0  0  0  0  0  0  0  0
    4.5469    0.8097    0.3338 C   0  0  0  0  0  0  0  0  0  0  0  0
    5.7440    1.6465    0.2646 C   0  0  0  0  0  0  0  0  0  0  0  0
    6.6891    1.6175   -0.7415 C   0  0  0  0  0  0  0  0  0  0  0  0
    7.6041    2.6016   -0.4925 N   0  0  0  0  0  0  0  0  0  0  0  0
    7.2739    3.2799    0.6580 C   0  0  0  0  0  0  0  0  0  0  0  0
    7.9002    4.3812    1.2551 C   0  0  0  0  0  0  0  0  0  0  0  0
    7.3522    4.8735    2.4419 C   0  0  0  0  0  0  0  0  0  0  0  0
    6.2328    4.2706    3.0086 C   0  0  0  0  0  0  0  0  0  0  0  0
    5.5334    4.9559    4.6291 Br  0  0  0  0  0  0  0  0  0  0  0  0
    5.6101    3.1758    2.3989 C   0  0  0  0  0  0  0  0  0  0  0  0
    6.1283    2.6728    1.1850 C   0  0  0  0  0  0  0  0  0  0  0  0
    4.0879   -0.0679   -0.6260 C   0  0  0  0  0  0  0  0  0  0  0  0
    2.9103   -0.5465   -0.1326 N   0  0  0  0  0  0  0  0  0  0  0  0
    1.4887    0.2278    2.6931 H   0  0  0  0  0  0  0  0  0  0  0  0
    0.8629   -0.8517    1.5141 H   0  0  0  0  0  0  0  0  0  0  0  0
    6.7756    0.9952   -1.6213 H   0  0  0  0  0  0  0  0  0  0  0  0
    8.3987    2.8205   -1.0772 H   0  0  0  0  0  0  0  0  0  0  0  0
    8.7741    4.8469    0.8114 H   0  0  0  0  0  0  0  0  0  0  0  0
    7.8135    5.7355    2.9180 H   0  0  0  0  0  0  0  0  0  0  0  0
    4.7323    2.7153    2.8430 H   0  0  0  0  0  0  0  0  0  0  0  0
    4.4722   -0.3622   -1.5908 H   0  0  0  0  0  0  0  0  0  0  0  0
    2.2849   -1.1974   -0.5789 H   0  0  0  0  0  0  0  0  0  0  0  0
  1  2  1  0  0  0  0
  1 17  1  0  0  0  0
  1 18  1  0  0  0  0
  2  3  2  0  0  0  0
  2 16  1  0  0  0  0
  3  4  1  0  0  0  0
  4  5  1  0  0  0  0
  4 15  2  0  0  0  0
  5  6  2  0  0  0  0
  5 14  1  0  0  0  0
  6  7  1  0  0  0  0
  6 19  1  0  0  0  0
  7  8  1  0  0  0  0
  7 20  1  0  0  0  0
  8  9  2  0  0  0  0
  8 14  1  0  0  0  0
  9 10  1  0  0  0  0
  9 21  1  0  0  0  0
 10 11  2  0  0  0  0
 10 22  1  0  0  0  0
 11 12  1  0  0  0  0
 11 13  1  0  0  0  0
 13 14  2  0  0  0  0
 13 23  1  0  0  0  0
 15 16  1  0  0  0  0
 15 24  1  0  0  0  0
 16 25  1  0  0  0  0
M  END
$$$$
