
 OpenBabel09162610133D

 29 30  0  0  0  0  0  0  0  0999 V2000
    1.0963   -0.0465   -0.3574 C   0  0  0  0  0  0  0  0  0  0  0  0
    2.4151   -0.0864   -0.1492 C   0  0  0  0  0  0  0  0  0  0  0  0
    3.2412   -1.2619    0.0497 C   0  0  0  0  0  0  0  0  0  0  0  0
    2.7756   -2.6751   -0.0720 C   0  0  0  0  0  0  0  0  0  0  0  0
    4.5191   -0.8931    0.2539 C   0  0  0  0  0  0  0  0  0  0  0  0
    5.6389   -1.7181    0.4567 C   0  0  0  0  0  0  0  0  0  0  0  0
    6.5291   -2.4434    0.6303 N   0  0  0  0  0  0  0  0  0  0  0  0
    4.5832    0.5748    0.1365 C   0  0  0  0  0  0  0  0  0  0  0  0
    5.5926    1.2479    0.2481 O   0  0  0  0  0  0  0  0  0  0  0  0
    3.2760    0.9949   -0.1425 N   0  0  0  0  0  0  0  0  0  0  0  0
    3.0000    2.3473   -0.4506 C   0  0  0  0  0  0  0  0  0  0  0  0
    2.1210    3.0614    0.3796 C   0  0  0  0  0  0  0  0  0  0  0  0
    1.8921    4.4228    0.1706 C   0  0  0  0  0  0  0  0  0  0  0  0
    2.5362    5.0846   -0.8690 C   0  0  0  0  0  0  0  0  0  0  0  0
    3.3870    4.3790   -1.7174 C   0  0  0  0  0  0  0  0  0  0  0  0
    3.6188    3.0000   -1.5355 C   0  0  0  0  0  0  0  0  0  0  0  0
    4.4528    2.2989   -2.5835 C   0  0  0  0  0  0  0  0  0  0  0  0
    4.4749    0.9381   -2.5097 F   0  0  0  0  0  0  0  0  0  0  0  0
    3.9888    2.5631   -3.8434 F   0  0  0  0  0  0  0  0  0  0  0  0
    5.7523    2.7010   -2.5879 F   0  0  0  0  0  0  0  0  0  0  0  0
    0.4829   -0.9405   -0.3639 H   0  0  0  0  0  0  0  0  0  0  0  0
    0.5664    0.8845   -0.5292 H   0  0  0  0  0  0  0  0  0  0  0  0
    1.7222   -2.7565   -0.3523 H   0  0  0  0  0  0  0  0  0  0  0  0
    2.9128   -3.2137    0.8701 H   0  0  0  0  0  0  0  0  0  0  0  0
    3.3458   -3.1917   -0.8536 H   0  0  0  0  0  0  0  0  0  0  0  0
    1.6413    2.5730    1.2252 H   0  0  0  0  0  0  0  0  0  0  0  0
    1.2262    4.9720    0.8318 H   0  0  0  0  0  0  0  0  0  0  0  0
    2.3729    6.1484   -1.0262 H   0  0  0  0  0  0  0  0  0  0  0  0
    3.8672    4.9035   -2.5437 H   0  0  0  0  0  0  0  0  0  0  0  0
  1  2  2  0  0  0  0
  1 21  1  0  0  0  0
  1 22  1  0  0  0  0
  2  3  1  0  0  0  0
  2 10  1  0  0  0  0
  3  4  1  0  0  0  0
  3  5  2  0  0  0  0
  4 23  1  0  0  0  0
  4 24  1  0  0  0  0
  4 25  1  0  0  0  0
  5  6  1  0  0  0  0
  5  8  1  0  0  0  0
  6  7  3  0  0  0  0
  8  9  2  0  0  0  0
  8 10  1  0  0  0  0
 10 11  1  0  0  0  0
 11 12  2  0  0  0  0
 11 16  1  0  0  0  0
 12 13  1  0  0  0  0
 12 26  1  0  0  0  0
 13 14  2  0  0  0  0
 13 27  1  0  0  0  0
 14 15  1  0  0  0  0
 14 28  1  0  0  0  0
 15 16  2  0  0  0  0
 15 29  1  0  0  0  0
 16 17  1  0  0  0  0
 17 18  1  0  0  0  0
 17 19  1  0  0  0  0
 17 20  1  0  0  0  0
M  END
$$$$
