
 OpenBabel09162610133D

 39 41  0  0  0  0  0  0  0  0999 V2000
    1.4018    0.0856    0.5578 C   0  0  0  0  0  0  0  0  0  0  0  0
    0.8975   -0.0293   -0.7339 C   0  0  0  0  0  0  0  0  0  0  0  0
   -0.4732    0.1257   -0.9788 C   0  0  0  0  0  0  0  0  0  0  0  0
   -1.3720    0.4183    0.0588 C   0  0  0  0  0  0  0  0  0  0  0  0
   -2.8385    0.5679   -0.1519 C   0  0  0  0  0  0  0  0  0  0  0  0
   -3.7096   -0.0011    0.8120 C   0  0  0  0  0  0  0  0  0  0  0  0
   -5.0937    0.1657    0.7680 C   0  0  0  0  0  0  0  0  0  0  0  0
   -5.6564    0.9036   -0.2570 C   0  0  0  0  0  0  0  0  0  0  0  0
   -4.8372    1.4405   -1.2475 C   0  0  0  0  0  0  0  0  0  0  0  0
   -3.4353    1.2711   -1.2283 C   0  0  0  0  0  0  0  0  0  0  0  0
   -2.6167    1.7833   -2.2207 O   0  0  0  0  0  0  0  0  0  0  0  0
   -3.2947    2.3823   -3.3261 C   0  0  0  0  0  0  0  0  0  0  0  0
   -2.3474    2.7893   -4.4503 C   0  0  0  0  0  0  0  0  0  0  0  0
   -3.1731    3.4874   -5.5331 C   0  0  0  0  0  0  0  0  0  0  0  0
   -2.4129    3.9456   -6.6720 N   0  0  0  0  0  0  0  0  0  0  0  0
   -1.8698    5.1896   -6.8285 C   0  0  0  0  0  0  0  0  0  0  0  0
   -1.3852    5.2036   -8.1157 C   0  0  0  0  0  0  0  0  0  0  0  0
   -1.6250    4.0060   -8.7388 N   0  0  0  0  0  0  0  0  0  0  0  0
   -2.2520    3.2713   -7.8481 C   0  0  0  0  0  0  0  0  0  0  0  0
   -0.8265    0.5400    1.3558 C   0  0  0  0  0  0  0  0  0  0  0  0
    0.5370    0.3667    1.6088 C   0  0  0  0  0  0  0  0  0  0  0  0
    2.4644   -0.0427    0.7470 H   0  0  0  0  0  0  0  0  0  0  0  0
    1.5721   -0.2465   -1.5591 H   0  0  0  0  0  0  0  0  0  0  0  0
   -0.8341    0.0065   -1.9985 H   0  0  0  0  0  0  0  0  0  0  0  0
   -3.3018   -0.5932    1.6308 H   0  0  0  0  0  0  0  0  0  0  0  0
   -5.7220   -0.2698    1.5397 H   0  0  0  0  0  0  0  0  0  0  0  0
   -6.7311    1.0591   -0.2951 H   0  0  0  0  0  0  0  0  0  0  0  0
   -5.3418    2.0043   -2.0248 H   0  0  0  0  0  0  0  0  0  0  0  0
   -3.8160    3.2817   -2.9738 H   0  0  0  0  0  0  0  0  0  0  0  0
   -4.0173    1.6692   -3.7473 H   0  0  0  0  0  0  0  0  0  0  0  0
   -1.8384    1.9057   -4.8532 H   0  0  0  0  0  0  0  0  0  0  0  0
   -1.5591    3.4474   -4.0664 H   0  0  0  0  0  0  0  0  0  0  0  0
   -3.6840    4.3644   -5.1157 H   0  0  0  0  0  0  0  0  0  0  0  0
   -3.9538    2.8159   -5.9124 H   0  0  0  0  0  0  0  0  0  0  0  0
   -1.8845    5.9409   -6.0517 H   0  0  0  0  0  0  0  0  0  0  0  0
   -0.8874    6.0152   -8.6303 H   0  0  0  0  0  0  0  0  0  0  0  0
   -2.6184    2.2656   -8.0090 H   0  0  0  0  0  0  0  0  0  0  0  0
   -1.4712    0.7778    2.2027 H   0  0  0  0  0  0  0  0  0  0  0  0
    0.9171    0.4550    2.6226 H   0  0  0  0  0  0  0  0  0  0  0  0
  1  2  2  0  0  0  0
  1 21  1  0  0  0  0
  1 22  1  0  0  0  0
  2  3  1  0  0  0  0
  2 23  1  0  0  0  0
  3  4  2  0  0  0  0
  3 24  1  0  0  0  0
  4  5  1  0  0  0  0
  4 20  1  0  0  0  0
  5  6  2  0  0  0  0
  5 10  1  0  0  0  0
  6  7  1  0  0  0  0
  6 25  1  0  0  0  0
  7  8  2  0  0  0  0
  7 26  1  0  0  0  0
  8  9  1  0  0  0  0
  8 27  1  0  0  0  0
  9 10  2  0  0  0  0
  9 28  1  0  0  0  0
 10 11  1  0  0  0  0
 11 12  1  0  0  0  0
 12 13  1  0  0  0  0
 12 29  1  0  0  0  0
 12 30  1  0  0  0  0
 13 14  1  0  0  0  0
 13 31  1  0  0  0  0
 13 32  1  0  0  0  0
 14 15  1  0  0  0  0
 14 33  1  0  0  0  0
 14 34  1  0  0  0  0
 15 16  1  0  0  0  0
 15 19  1  0  0  0  0
 16 17  2  0  0  0  0
 16 35  1  0  0  0  0
 17 18  1  0  0  0  0
 17 36  1  0  0  0  0
 18 19  2  0  0  0  0
 19 37  1  0  0  0  0
 20 21  2  0  0  0  0
 20 38  1  0  0  0  0
 21 39  1  0  0  0  0
M  END
$$$$
