
 OpenBabel09162610133D

 41 42  0  0  0  0  0  0  0  0999 V2000
    1.3330    0.3049   -0.8137 C   0  0  0  0  0  0  0  0  0  0  0  0
    2.2722    0.4504    0.3720 C   0  0  0  0  0  0  0  0  0  0  0  0
    3.1338    1.5626    0.1092 O   0  0  0  0  0  0  0  0  0  0  0  0
    4.2280    1.2508   -0.6492 C   0  0  0  0  0  0  0  0  0  0  0  0
    4.6894    0.1251   -0.7480 O   0  0  0  0  0  0  0  0  0  0  0  0
    4.6809    2.4024   -1.4344 C   0  0  0  0  0  0  0  0  0  0  0  0
    4.2083    3.7342   -1.3680 C   0  0  0  0  0  0  0  0  0  0  0  0
    4.8559    4.4724   -2.3326 C   0  0  0  0  0  0  0  0  0  0  0  0
    4.6921    5.9267   -2.6219 C   0  0  0  0  0  0  0  0  0  0  0  0
    5.7181    3.6210   -3.0234 N   0  0  0  0  0  0  0  0  0  0  0  0
    6.5771    4.1075   -4.1078 C   0  0  0  0  0  0  0  0  0  0  0  0
    6.8878    3.1631   -5.2688 C   0  0  0  0  0  0  0  0  0  0  0  0
    7.6765    3.6996   -6.4433 C   0  0  0  0  0  0  0  0  0  0  0  0
    8.1331    5.0164   -6.5531 C   0  0  0  0  0  0  0  0  0  0  0  0
    8.9452    5.3925   -7.6272 C   0  0  0  0  0  0  0  0  0  0  0  0
    9.3106    4.4600   -8.5974 C   0  0  0  0  0  0  0  0  0  0  0  0
    8.8566    3.1488   -8.5047 C   0  0  0  0  0  0  0  0  0  0  0  0
    8.0422    2.7742   -7.4386 C   0  0  0  0  0  0  0  0  0  0  0  0
    5.6457    2.3597   -2.4428 C   0  0  0  0  0  0  0  0  0  0  0  0
    6.4108    1.1301   -2.8076 C   0  0  0  0  0  0  0  0  0  0  0  0
    0.6003   -0.4870   -0.6469 H   0  0  0  0  0  0  0  0  0  0  0  0
    1.8932    0.0792   -1.7283 H   0  0  0  0  0  0  0  0  0  0  0  0
    0.8075    1.2486   -0.9980 H   0  0  0  0  0  0  0  0  0  0  0  0
    2.8284   -0.4747    0.5607 H   0  0  0  0  0  0  0  0  0  0  0  0
    1.7031    0.6796    1.2786 H   0  0  0  0  0  0  0  0  0  0  0  0
    3.4587    4.1152   -0.6844 H   0  0  0  0  0  0  0  0  0  0  0  0
    3.9972    6.3867   -1.9100 H   0  0  0  0  0  0  0  0  0  0  0  0
    4.2834    6.0828   -3.6245 H   0  0  0  0  0  0  0  0  0  0  0  0
    5.6483    6.4514   -2.5365 H   0  0  0  0  0  0  0  0  0  0  0  0
    7.4966    4.4623   -3.6272 H   0  0  0  0  0  0  0  0  0  0  0  0
    6.0698    4.9804   -4.5341 H   0  0  0  0  0  0  0  0  0  0  0  0
    5.9605    2.7069   -5.6351 H   0  0  0  0  0  0  0  0  0  0  0  0
    7.5405    2.3763   -4.9007 H   0  0  0  0  0  0  0  0  0  0  0  0
    7.8913    5.7666   -5.8059 H   0  0  0  0  0  0  0  0  0  0  0  0
    9.3076    6.4147   -7.6998 H   0  0  0  0  0  0  0  0  0  0  0  0
    9.9552    4.7533   -9.4214 H   0  0  0  0  0  0  0  0  0  0  0  0
    9.1460    2.4135   -9.2504 H   0  0  0  0  0  0  0  0  0  0  0  0
    7.7128    1.7384   -7.3662 H   0  0  0  0  0  0  0  0  0  0  0  0
    7.1764    1.2368   -3.5583 H   0  0  0  0  0  0  0  0  0  0  0  0
    5.7188    0.3556   -3.1581 H   0  0  0  0  0  0  0  0  0  0  0  0
    6.9318    0.7483   -1.9226 H   0  0  0  0  0  0  0  0  0  0  0  0
  1  2  1  0  0  0  0
  1 21  1  0  0  0  0
  1 22  1  0  0  0  0
  1 23  1  0  0  0  0
  2  3  1  0  0  0  0
  2 24  1  0  0  0  0
  2 25  1  0  0  0  0
  3  4  1  0  0  0  0
  4  5  2  0  0  0  0
  4  6  1  0  0  0  0
  6  7  1  0  0  0  0
  6 19  2  0  0  0  0
  7  8  2  0  0  0  0
  7 26  1  0  0  0  0
  8  9  1  0  0  0  0
  8 10  1  0  0  0  0
  9 27  1  0  0  0  0
  9 28  1  0  0  0  0
  9 29  1  0  0  0  0
 10 11  1  0  0  0  0
 10 19  1  0  0  0  0
 11 12  1  0  0  0  0
 11 30  1  0  0  0  0
 11 31  1  0  0  0  0
 12 13  1  0  0  0  0
 12 32  1  0  0  0  0
 12 33  1  0  0  0  0
 13 14  2  0  0  0  0
 13 18  1  0  0  0  0
 14 15  1  0  0  0  0
 14 34  1  0  0  0  0
 15 16  2  0  0  0  0
 15 35  1  0  0  0  0
 16 17  1  0  0  0  0
 16 36  1  0  0  0  0
 17 18  2  0  0  0  0
 17 37  1  0  0  0  0
 18 38  1  0  0  0  0
 19 20  1  0  0  0  0
 20 39  1  0  0  0  0
 20 40  1  0  0  0  0
 20 41  1  0  0  0  0
M  END
$$$$
