
 OpenBabel09162610133D

 32 35  0  0  0  0  0  0  0  0999 V2000
    2.4013   -0.7009   -0.0149 C   0  0  0  0  0  0  0  0  0  0  0  0
    2.4086    0.6905   -0.0049 C   0  0  0  0  0  0  0  0  0  0  0  0
    1.2021    1.3905    0.0021 C   0  0  0  0  0  0  0  0  0  0  0  0
   -0.0261    0.7085   -0.0074 C   0  0  0  0  0  0  0  0  0  0  0  0
   -1.2471    1.4056    0.0025 C   0  0  0  0  0  0  0  0  0  0  0  0
   -2.4863    0.7493   -0.0143 C   0  0  0  0  0  0  0  0  0  0  0  0
   -3.7150    1.4405    0.0897 N   0  0  0  0  0  0  0  0  0  0  0  0
   -3.9698    2.6810    0.5877 C   0  0  0  0  0  0  0  0  0  0  0  0
   -3.0996    3.4802    1.2263 N   0  0  0  0  0  0  0  0  0  0  0  0
   -3.8162    4.5587    1.5599 N   0  0  0  0  0  0  0  0  0  0  0  0
   -5.1205    4.5178    1.1677 C   0  0  0  0  0  0  0  0  0  0  0  0
   -6.1747    5.4157    1.3112 C   0  0  0  0  0  0  0  0  0  0  0  0
   -7.3844    5.0016    0.7651 C   0  0  0  0  0  0  0  0  0  0  0  0
   -7.4619    3.7613    0.1381 C   0  0  0  0  0  0  0  0  0  0  0  0
   -6.4459    2.8753   -0.0039 N   0  0  0  0  0  0  0  0  0  0  0  0
   -5.2637    3.2938    0.5278 C   0  0  0  0  0  0  0  0  0  0  0  0
   -2.4779   -0.6508   -0.0288 C   0  0  0  0  0  0  0  0  0  0  0  0
   -1.2720   -1.3675   -0.0299 C   0  0  0  0  0  0  0  0  0  0  0  0
   -0.0366   -0.7005   -0.0203 C   0  0  0  0  0  0  0  0  0  0  0  0
    1.1876   -1.3929   -0.0189 C   0  0  0  0  0  0  0  0  0  0  0  0
    3.3402   -1.2483   -0.0188 H   0  0  0  0  0  0  0  0  0  0  0  0
    3.3502    1.2329   -0.0004 H   0  0  0  0  0  0  0  0  0  0  0  0
    1.2223    2.4782    0.0171 H   0  0  0  0  0  0  0  0  0  0  0  0
   -1.2215    2.4922    0.0108 H   0  0  0  0  0  0  0  0  0  0  0  0
   -4.5095    0.9196   -0.2706 H   0  0  0  0  0  0  0  0  0  0  0  0
   -3.3459    5.2986    2.0672 H   0  0  0  0  0  0  0  0  0  0  0  0
   -6.0633    6.3701    1.8121 H   0  0  0  0  0  0  0  0  0  0  0  0
   -8.2612    5.6388    0.8280 H   0  0  0  0  0  0  0  0  0  0  0  0
   -8.4078    3.4351   -0.2906 H   0  0  0  0  0  0  0  0  0  0  0  0
   -3.4128   -1.2050   -0.0110 H   0  0  0  0  0  0  0  0  0  0  0  0
   -1.3060   -2.4545   -0.0251 H   0  0  0  0  0  0  0  0  0  0  0  0
    1.2034   -2.4802   -0.0213 H   0  0  0  0  0  0  0  0  0  0  0  0
  1  2  2  0  0  0  0
  1 20  1  0  0  0  0
  1 21  1  0  0  0  0
  2  3  1  0  0  0  0
  2 22  1  0  0  0  0
  3  4  2  0  0  0  0
  3 23  1  0  0  0  0
  4  5  1  0  0  0  0
  4 19  1  0  0  0  0
  5  6  2  0  0  0  0
  5 24  1  0  0  0  0
  6  7  1  0  0  0  0
  6 17  1  0  0  0  0
  7  8  1  0  0  0  0
  7 25  1  0  0  0  0
  8  9  2  0  0  0  0
  8 16  1  0  0  0  0
  9 10  1  0  0  0  0
 10 11  1  0  0  0  0
 10 26  1  0  0  0  0
 11 12  2  0  0  0  0
 11 16  1  0  0  0  0
 12 13  1  0  0  0  0
 12 27  1  0  0  0  0
 13 14  2  0  0  0  0
 13 28  1  0  0  0  0
 14 15  1  0  0  0  0
 14 29  1  0  0  0  0
 15 16  2  0  0  0  0
 17 18  2  0  0  0  0
 17 30  1  0  0  0  0
 18 19  1  0  0  0  0
 18 31  1  0  0  0  0
 19 20  2  0  0  0  0
 20 32  1  0  0  0  0
M  END
$$$$
