
 OpenBabel09162610133D

 28 30  0  0  0  0  0  0  0  0999 V2000
    0.8217   -0.0440   -0.0284 C   0  0  0  0  0  0  0  0  0  0  0  0
    2.3197    0.0633   -0.0278 C   0  0  0  0  0  0  0  0  0  0  0  0
    2.9398    1.3288   -0.0217 C   0  0  0  0  0  0  0  0  0  0  0  0
    4.3339    1.4533   -0.0247 C   0  0  0  0  0  0  0  0  0  0  0  0
    5.1036    0.3029   -0.0362 C   0  0  0  0  0  0  0  0  0  0  0  0
    6.8681    0.1860   -0.0598 S   0  0  0  0  0  0  0  0  0  0  0  0
    6.7748   -1.5172    0.0182 N   0  0  0  0  0  0  0  0  0  0  0  0
    7.9392   -2.2281   -0.0659 N   0  0  0  0  0  0  0  0  0  0  0  0
    7.9277   -3.4104    0.4596 C   0  0  0  0  0  0  0  0  0  0  0  0
    9.0649   -4.2820    0.3877 C   0  0  0  0  0  0  0  0  0  0  0  0
   10.3032   -4.1727   -0.2132 C   0  0  0  0  0  0  0  0  0  0  0  0
   10.9923   -5.3806    0.0601 C   0  0  0  0  0  0  0  0  0  0  0  0
   10.1359   -6.1486    0.8124 C   0  0  0  0  0  0  0  0  0  0  0  0
    8.9685   -5.4905    1.0201 O   0  0  0  0  0  0  0  0  0  0  0  0
    5.4788   -2.0471   -0.0407 C   0  0  0  0  0  0  0  0  0  0  0  0
    5.1282   -3.2177   -0.0963 O   0  0  0  0  0  0  0  0  0  0  0  0
    4.4951   -0.9487   -0.0351 C   0  0  0  0  0  0  0  0  0  0  0  0
    3.1114   -1.0935   -0.0322 C   0  0  0  0  0  0  0  0  0  0  0  0
    0.3534    0.9461   -0.0490 H   0  0  0  0  0  0  0  0  0  0  0  0
    0.4767   -0.5579    0.8741 H   0  0  0  0  0  0  0  0  0  0  0  0
    0.4800   -0.5913   -0.9125 H   0  0  0  0  0  0  0  0  0  0  0  0
    2.3311    2.2317   -0.0175 H   0  0  0  0  0  0  0  0  0  0  0  0
    4.7954    2.4359   -0.0197 H   0  0  0  0  0  0  0  0  0  0  0  0
    7.0683   -3.8115    1.0229 H   0  0  0  0  0  0  0  0  0  0  0  0
   10.6561   -3.3246   -0.7843 H   0  0  0  0  0  0  0  0  0  0  0  0
   11.9876   -5.6599   -0.2548 H   0  0  0  0  0  0  0  0  0  0  0  0
   10.1997   -7.1338    1.2533 H   0  0  0  0  0  0  0  0  0  0  0  0
    2.6646   -2.0850   -0.0359 H   0  0  0  0  0  0  0  0  0  0  0  0
  1  2  1  0  0  0  0
  1 19  1  0  0  0  0
  1 20  1  0  0  0  0
  1 21  1  0  0  0  0
  2  3  2  0  0  0  0
  2 18  1  0  0  0  0
  3  4  1  0  0  0  0
  3 22  1  0  0  0  0
  4  5  2  0  0  0  0
  4 23  1  0  0  0  0
  5  6  1  0  0  0  0
  5 17  1  0  0  0  0
  6  7  1  0  0  0  0
  7  8  1  0  0  0  0
  7 15  1  0  0  0  0
  8  9  2  0  0  0  0
  9 10  1  0  0  0  0
  9 24  1  0  0  0  0
 10 11  2  0  0  0  0
 10 14  1  0  0  0  0
 11 12  1  0  0  0  0
 11 25  1  0  0  0  0
 12 13  2  0  0  0  0
 12 26  1  0  0  0  0
 13 14  1  0  0  0  0
 13 27  1  0  0  0  0
 15 16  2  0  0  0  0
 15 17  1  0  0  0  0
 17 18  2  0  0  0  0
 18 28  1  0  0  0  0
M  END
$$$$
