
 OpenBabel09162610133D

 43 45  0  0  0  0  0  0  0  0999 V2000
    2.8267    0.6592    3.8065 C   0  0  0  0  0  0  0  0  0  0  0  0
    2.4100   -0.3976    2.7702 C   0  0  0  0  0  0  0  0  0  0  0  0
    2.6639   -1.8021    3.3467 C   0  0  0  0  0  0  0  0  0  0  0  0
    0.8939   -0.2575    2.5159 C   0  0  0  0  0  0  0  0  0  0  0  0
    3.1453   -0.1765    1.4197 C   0  0  0  0  0  0  0  0  0  0  0  0
    4.6374   -0.2812    1.4549 C   0  0  0  0  0  0  0  0  0  0  0  0
    5.3997    0.7742    1.7721 N   0  0  0  0  0  0  0  0  0  0  0  0
    6.7155    0.3257    1.6992 O   0  0  0  0  0  0  0  0  0  0  0  0
    6.7368   -0.9856    1.3253 C   0  0  0  0  0  0  0  0  0  0  0  0
    7.8543   -1.7183    1.1520 N   0  0  0  0  0  0  0  0  0  0  0  0
    7.5914   -3.0020    0.7833 C   0  0  0  0  0  0  0  0  0  0  0  0
    6.3248   -3.5598    0.6116 C   0  0  0  0  0  0  0  0  0  0  0  0
    6.2058   -4.9729    0.1934 C   0  0  0  0  0  0  0  0  0  0  0  0
    7.0170   -5.3627   -0.6396 O   0  0  0  0  0  0  0  0  0  0  0  0
    5.1995   -5.7901    0.7137 N   0  0  0  0  0  0  0  0  0  0  0  0
    4.3337   -5.5073    1.8697 C   0  0  0  0  0  0  0  0  0  0  0  0
    2.8538   -5.4808    1.4749 C   0  0  0  0  0  0  0  0  0  0  0  0
    2.3063   -7.0931    0.8223 S   0  0  0  0  0  0  0  0  0  0  0  0
    3.6108   -7.3180   -0.4397 C   0  0  0  0  0  0  0  0  0  0  0  0
    5.0173   -7.1266    0.1340 C   0  0  0  0  0  0  0  0  0  0  0  0
    5.2085   -2.7324    0.7408 C   0  0  0  0  0  0  0  0  0  0  0  0
    5.4295   -1.4116    1.1480 C   0  0  0  0  0  0  0  0  0  0  0  0
    2.2457    0.5573    4.7300 H   0  0  0  0  0  0  0  0  0  0  0  0
    2.6641    1.6719    3.4216 H   0  0  0  0  0  0  0  0  0  0  0  0
    3.8826    0.5646    4.0796 H   0  0  0  0  0  0  0  0  0  0  0  0
    2.1175   -1.9430    4.2877 H   0  0  0  0  0  0  0  0  0  0  0  0
    3.7228   -1.9734    3.5621 H   0  0  0  0  0  0  0  0  0  0  0  0
    2.3270   -2.5811    2.6540 H   0  0  0  0  0  0  0  0  0  0  0  0
    0.3230   -0.3658    3.4452 H   0  0  0  0  0  0  0  0  0  0  0  0
    0.5375   -1.0239    1.8177 H   0  0  0  0  0  0  0  0  0  0  0  0
    0.6521    0.7217    2.0888 H   0  0  0  0  0  0  0  0  0  0  0  0
    2.8770    0.8084    1.0140 H   0  0  0  0  0  0  0  0  0  0  0  0
    2.7685   -0.9057    0.6888 H   0  0  0  0  0  0  0  0  0  0  0  0
    8.4838   -3.6049    0.6135 H   0  0  0  0  0  0  0  0  0  0  0  0
    4.6120   -4.5708    2.3557 H   0  0  0  0  0  0  0  0  0  0  0  0
    4.5161   -6.2890    2.6181 H   0  0  0  0  0  0  0  0  0  0  0  0
    2.6654   -4.7299    0.7007 H   0  0  0  0  0  0  0  0  0  0  0  0
    2.2347   -5.2277    2.3406 H   0  0  0  0  0  0  0  0  0  0  0  0
    3.4264   -6.6010   -1.2470 H   0  0  0  0  0  0  0  0  0  0  0  0
    3.5105   -8.3246   -0.8562 H   0  0  0  0  0  0  0  0  0  0  0  0
    5.7438   -7.3057   -0.6653 H   0  0  0  0  0  0  0  0  0  0  0  0
    5.2240   -7.8634    0.9199 H   0  0  0  0  0  0  0  0  0  0  0  0
    4.2069   -3.0830    0.5393 H   0  0  0  0  0  0  0  0  0  0  0  0
  1  2  1  0  0  0  0
  1 23  1  0  0  0  0
  1 24  1  0  0  0  0
  1 25  1  0  0  0  0
  2  3  1  0  0  0  0
  2  4  1  0  0  0  0
  2  5  1  0  0  0  0
  3 26  1  0  0  0  0
  3 27  1  0  0  0  0
  3 28  1  0  0  0  0
  4 29  1  0  0  0  0
  4 30  1  0  0  0  0
  4 31  1  0  0  0  0
  5  6  1  0  0  0  0
  5 32  1  0  0  0  0
  5 33  1  0  0  0  0
  6  7  2  0  0  0  0
  6 22  1  0  0  0  0
  7  8  1  0  0  0  0
  8  9  1  0  0  0  0
  9 10  1  0  0  0  0
  9 22  2  0  0  0  0
 10 11  2  0  0  0  0
 11 12  1  0  0  0  0
 11 34  1  0  0  0  0
 12 13  1  0  0  0  0
 12 21  2  0  0  0  0
 13 14  2  0  0  0  0
 13 15  1  0  0  0  0
 15 16  1  0  0  0  0
 15 20  1  0  0  0  0
 16 17  1  0  0  0  0
 16 35  1  0  0  0  0
 16 36  1  0  0  0  0
 17 18  1  0  0  0  0
 17 37  1  0  0  0  0
 17 38  1  0  0  0  0
 18 19  1  0  0  0  0
 19 20  1  0  0  0  0
 19 39  1  0  0  0  0
 19 40  1  0  0  0  0
 20 41  1  0  0  0  0
 20 42  1  0  0  0  0
 21 22  1  0  0  0  0
 21 43  1  0  0  0  0
M  END
$$$$
