
 OpenBabel09162610133D

 33 35  0  0  0  0  0  0  0  0999 V2000
    2.2144   -3.7732    2.5334 C   0  0  0  0  0  0  0  0  0  0  0  0
    0.8887   -3.0715    2.4918 C   0  0  0  0  0  0  0  0  0  0  0  0
    0.4002   -2.3963    3.6162 C   0  0  0  0  0  0  0  0  0  0  0  0
   -0.8146   -1.7122    3.5596 C   0  0  0  0  0  0  0  0  0  0  0  0
   -1.5627   -1.7085    2.3818 C   0  0  0  0  0  0  0  0  0  0  0  0
   -1.1178   -2.4323    1.2679 C   0  0  0  0  0  0  0  0  0  0  0  0
   -1.9103   -2.4817    0.0058 C   0  0  0  0  0  0  0  0  0  0  0  0
   -1.2945   -2.5148   -1.0578 O   0  0  0  0  0  0  0  0  0  0  0  0
   -3.3108   -2.4957    0.1187 N   0  0  0  0  0  0  0  0  0  0  0  0
   -4.2154   -3.2045    0.9624 C   0  0  0  0  0  0  0  0  0  0  0  0
   -3.8354   -4.2831    2.1868 S   0  0  0  0  0  0  0  0  0  0  0  0
   -5.5254   -2.9436    0.5705 N   0  0  0  0  0  0  0  0  0  0  0  0
   -5.4044   -2.2802   -0.5447 C   0  0  0  0  0  0  0  0  0  0  0  0
   -6.5478   -1.7972   -1.3550 C   0  0  0  0  0  0  0  0  0  0  0  0
   -6.2372   -1.1281   -2.4858 C   0  0  0  0  0  0  0  0  0  0  0  0
   -7.2937   -0.5889   -3.4040 C   0  0  0  0  0  0  0  0  0  0  0  0
   -4.8376   -0.8895   -2.8680 C   0  0  0  0  0  0  0  0  0  0  0  0
   -3.8341   -1.3287   -2.0835 C   0  0  0  0  0  0  0  0  0  0  0  0
   -4.1089   -2.0359   -0.9399 N   0  0  0  0  0  0  0  0  0  0  0  0
    0.1235   -3.0833    1.3162 C   0  0  0  0  0  0  0  0  0  0  0  0
    2.6794   -3.6934    3.5219 H   0  0  0  0  0  0  0  0  0  0  0  0
    2.8992   -3.3268    1.8051 H   0  0  0  0  0  0  0  0  0  0  0  0
    2.0886   -4.8366    2.3074 H   0  0  0  0  0  0  0  0  0  0  0  0
    0.9667   -2.3928    4.5455 H   0  0  0  0  0  0  0  0  0  0  0  0
   -1.1809   -1.1867    4.4382 H   0  0  0  0  0  0  0  0  0  0  0  0
   -2.4954   -1.1514    2.3585 H   0  0  0  0  0  0  0  0  0  0  0  0
   -7.5516   -2.0008   -1.0096 H   0  0  0  0  0  0  0  0  0  0  0  0
   -8.3025   -0.7934   -3.0287 H   0  0  0  0  0  0  0  0  0  0  0  0
   -7.2114   -1.0460   -4.3961 H   0  0  0  0  0  0  0  0  0  0  0  0
   -7.1958    0.4969   -3.5106 H   0  0  0  0  0  0  0  0  0  0  0  0
   -4.6283   -0.3511   -3.7875 H   0  0  0  0  0  0  0  0  0  0  0  0
   -2.7914   -1.1659   -2.3304 H   0  0  0  0  0  0  0  0  0  0  0  0
    0.4925   -3.6081    0.4362 H   0  0  0  0  0  0  0  0  0  0  0  0
  1  2  1  0  0  0  0
  1 21  1  0  0  0  0
  1 22  1  0  0  0  0
  1 23  1  0  0  0  0
  2  3  2  0  0  0  0
  2 20  1  0  0  0  0
  3  4  1  0  0  0  0
  3 24  1  0  0  0  0
  4  5  2  0  0  0  0
  4 25  1  0  0  0  0
  5  6  1  0  0  0  0
  5 26  1  0  0  0  0
  6  7  1  0  0  0  0
  6 20  2  0  0  0  0
  7  8  2  0  0  0  0
  7  9  1  0  0  0  0
  9 10  1  0  0  0  0
  9 19  1  0  0  0  0
 10 11  2  0  0  0  0
 10 12  1  0  0  0  0
 12 13  2  0  0  0  0
 13 14  1  0  0  0  0
 13 19  1  0  0  0  0
 14 15  2  0  0  0  0
 14 27  1  0  0  0  0
 15 16  1  0  0  0  0
 15 17  1  0  0  0  0
 16 28  1  0  0  0  0
 16 29  1  0  0  0  0
 16 30  1  0  0  0  0
 17 18  2  0  0  0  0
 17 31  1  0  0  0  0
 18 19  1  0  0  0  0
 18 32  1  0  0  0  0
 20 33  1  0  0  0  0
M  END
$$$$
