
 OpenBabel09162610133D

 35 37  0  0  0  0  0  0  0  0999 V2000
   -2.3274   -1.2079   -0.2233 N   0  0  0  0  0  0  0  0  0  0  0  0
   -1.2197   -0.3737   -0.0274 C   0  0  0  0  0  0  0  0  0  0  0  0
   -1.1026    0.8129   -0.7453 C   0  0  0  0  0  0  0  0  0  0  0  0
    0.0678    1.5748   -0.6766 C   0  0  0  0  0  0  0  0  0  0  0  0
    1.1611    1.1609    0.1026 C   0  0  0  0  0  0  0  0  0  0  0  0
    2.4182    1.9389    0.0747 C   0  0  0  0  0  0  0  0  0  0  0  0
    2.4818    3.2793   -0.0077 C   0  0  0  0  0  0  0  0  0  0  0  0
    3.7663    3.9879   -0.0946 C   0  0  0  0  0  0  0  0  0  0  0  0
    4.3115    4.1732   -1.3655 C   0  0  0  0  0  0  0  0  0  0  0  0
    5.5105    4.8464   -1.4715 C   0  0  0  0  0  0  0  0  0  0  0  0
    6.1887    5.3404   -0.4157 N   0  0  0  0  0  0  0  0  0  0  0  0
    5.6701    5.1634    0.8104 C   0  0  0  0  0  0  0  0  0  0  0  0
    6.3676    5.6735    1.8972 C   0  0  0  0  0  0  0  0  0  0  0  0
    5.9026    5.5341    3.2062 C   0  0  0  0  0  0  0  0  0  0  0  0
    4.7094    4.8675    3.4446 C   0  0  0  0  0  0  0  0  0  0  0  0
    3.9868    4.3473    2.3712 C   0  0  0  0  0  0  0  0  0  0  0  0
    4.4501    4.4863    1.0407 C   0  0  0  0  0  0  0  0  0  0  0  0
    1.0579   -0.0506    0.8224 C   0  0  0  0  0  0  0  0  0  0  0  0
    2.1640   -0.6221    1.4875 N   0  0  0  0  0  0  0  0  0  0  0  0
   -0.1080   -0.8275    0.6884 C   0  0  0  0  0  0  0  0  0  0  0  0
   -3.1743   -0.7130   -0.4845 H   0  0  0  0  0  0  0  0  0  0  0  0
   -2.4846   -1.8664    0.5332 H   0  0  0  0  0  0  0  0  0  0  0  0
   -1.9116    1.1466   -1.3892 H   0  0  0  0  0  0  0  0  0  0  0  0
    0.1263    2.4772   -1.2795 H   0  0  0  0  0  0  0  0  0  0  0  0
    3.3337    1.3530    0.1076 H   0  0  0  0  0  0  0  0  0  0  0  0
    1.5969    3.9076   -0.0382 H   0  0  0  0  0  0  0  0  0  0  0  0
    3.8146    3.8039   -2.2562 H   0  0  0  0  0  0  0  0  0  0  0  0
    5.9746    5.0159   -2.4380 H   0  0  0  0  0  0  0  0  0  0  0  0
    7.3042    6.1978    1.7174 H   0  0  0  0  0  0  0  0  0  0  0  0
    6.4756    5.9485    4.0320 H   0  0  0  0  0  0  0  0  0  0  0  0
    4.3391    4.7528    4.4597 H   0  0  0  0  0  0  0  0  0  0  0  0
    3.0527    3.8288    2.5777 H   0  0  0  0  0  0  0  0  0  0  0  0
    2.8109    0.0670    1.8588 H   0  0  0  0  0  0  0  0  0  0  0  0
    1.9042   -1.3129    2.1854 H   0  0  0  0  0  0  0  0  0  0  0  0
   -0.1483   -1.8081    1.1556 H   0  0  0  0  0  0  0  0  0  0  0  0
  1  2  1  0  0  0  0
  1 21  1  0  0  0  0
  1 22  1  0  0  0  0
  2  3  2  0  0  0  0
  2 20  1  0  0  0  0
  3  4  1  0  0  0  0
  3 23  1  0  0  0  0
  4  5  2  0  0  0  0
  4 24  1  0  0  0  0
  5  6  1  0  0  0  0
  5 18  1  0  0  0  0
  6  7  2  0  0  0  0
  6 25  1  0  0  0  0
  7  8  1  0  0  0  0
  7 26  1  0  0  0  0
  8  9  2  0  0  0  0
  8 17  1  0  0  0  0
  9 10  1  0  0  0  0
  9 27  1  0  0  0  0
 10 11  2  0  0  0  0
 10 28  1  0  0  0  0
 11 12  1  0  0  0  0
 12 13  1  0  0  0  0
 12 17  2  0  0  0  0
 13 14  2  0  0  0  0
 13 29  1  0  0  0  0
 14 15  1  0  0  0  0
 14 30  1  0  0  0  0
 15 16  2  0  0  0  0
 15 31  1  0  0  0  0
 16 17  1  0  0  0  0
 16 32  1  0  0  0  0
 18 19  1  0  0  0  0
 18 20  2  0  0  0  0
 19 33  1  0  0  0  0
 19 34  1  0  0  0  0
 20 35  1  0  0  0  0
M  END
$$$$
