
 OpenBabel09162610133D

 32 34  0  0  0  0  0  0  0  0999 V2000
    1.6532   -1.2860   -0.5354 C   0  0  0  0  0  0  0  0  0  0  0  0
    2.9524   -0.1262   -0.0560 S   0  0  0  0  0  0  0  0  0  0  0  0
    3.3658   -0.7553    1.5344 C   0  0  0  0  0  0  0  0  0  0  0  0
    3.1996   -2.0262    1.7370 N   0  0  0  0  0  0  0  0  0  0  0  0
    3.5569   -2.4952    2.9630 C   0  0  0  0  0  0  0  0  0  0  0  0
    3.5435   -3.7703    3.4702 C   0  0  0  0  0  0  0  0  0  0  0  0
    4.0260   -3.6512    4.7842 C   0  0  0  0  0  0  0  0  0  0  0  0
    4.2057   -4.7392    5.7760 C   0  0  0  0  0  0  0  0  0  0  0  0
    4.3318   -2.3861    5.0942 N   0  0  0  0  0  0  0  0  0  0  0  0
    4.0598   -1.6647    3.9716 N   0  0  0  0  0  0  0  0  0  0  0  0
    4.2323   -0.2863    3.7412 C   0  0  0  0  0  0  0  0  0  0  0  0
    4.7962    0.5906    4.7906 C   0  0  0  0  0  0  0  0  0  0  0  0
    3.9591    1.2706    5.6864 C   0  0  0  0  0  0  0  0  0  0  0  0
    4.4955    2.2003    6.5821 C   0  0  0  0  0  0  0  0  0  0  0  0
    5.8668    2.4511    6.5943 C   0  0  0  0  0  0  0  0  0  0  0  0
    6.7082    1.7603    5.7246 C   0  0  0  0  0  0  0  0  0  0  0  0
    6.1768    0.8322    4.8266 C   0  0  0  0  0  0  0  0  0  0  0  0
    3.9055    0.2316    2.5312 C   0  0  0  0  0  0  0  0  0  0  0  0
    4.0585    1.6069    2.2023 C   0  0  0  0  0  0  0  0  0  0  0  0
    4.1835    2.7314    1.9374 N   0  0  0  0  0  0  0  0  0  0  0  0
    1.2744   -1.0116   -1.5233 H   0  0  0  0  0  0  0  0  0  0  0  0
    0.8262   -1.2402    0.1785 H   0  0  0  0  0  0  0  0  0  0  0  0
    2.0340   -2.3095   -0.5894 H   0  0  0  0  0  0  0  0  0  0  0  0
    3.2273   -4.6620    2.9485 H   0  0  0  0  0  0  0  0  0  0  0  0
    3.9149   -5.7069    5.3523 H   0  0  0  0  0  0  0  0  0  0  0  0
    3.5862   -4.5600    6.6599 H   0  0  0  0  0  0  0  0  0  0  0  0
    5.2523   -4.8103    6.0880 H   0  0  0  0  0  0  0  0  0  0  0  0
    2.8854    1.0995    5.6874 H   0  0  0  0  0  0  0  0  0  0  0  0
    3.8420    2.7406    7.2631 H   0  0  0  0  0  0  0  0  0  0  0  0
    6.2800    3.1875    7.2794 H   0  0  0  0  0  0  0  0  0  0  0  0
    7.7778    1.9546    5.7358 H   0  0  0  0  0  0  0  0  0  0  0  0
    6.8493    0.3159    4.1456 H   0  0  0  0  0  0  0  0  0  0  0  0
  1  2  1  0  0  0  0
  1 21  1  0  0  0  0
  1 22  1  0  0  0  0
  1 23  1  0  0  0  0
  2  3  1  0  0  0  0
  3  4  2  0  0  0  0
  3 18  1  0  0  0  0
  4  5  1  0  0  0  0
  5  6  2  0  0  0  0
  5 10  1  0  0  0  0
  6  7  1  0  0  0  0
  6 24  1  0  0  0  0
  7  8  1  0  0  0  0
  7  9  2  0  0  0  0
  8 25  1  0  0  0  0
  8 26  1  0  0  0  0
  8 27  1  0  0  0  0
  9 10  1  0  0  0  0
 10 11  1  0  0  0  0
 11 12  1  0  0  0  0
 11 18  2  0  0  0  0
 12 13  2  0  0  0  0
 12 17  1  0  0  0  0
 13 14  1  0  0  0  0
 13 28  1  0  0  0  0
 14 15  2  0  0  0  0
 14 29  1  0  0  0  0
 15 16  1  0  0  0  0
 15 30  1  0  0  0  0
 16 17  2  0  0  0  0
 16 31  1  0  0  0  0
 17 32  1  0  0  0  0
 18 19  1  0  0  0  0
 19 20  3  0  0  0  0
M  END
$$$$
