
 OpenBabel09162610133D

 30 32  0  0  0  0  0  0  0  0999 V2000
    3.0751    1.2082   -0.5125 N   0  0  0  0  0  0  0  0  0  0  0  0
    2.4804    0.0803   -0.0119 C   0  0  0  0  0  0  0  0  0  0  0  0
    1.4072   -0.2828   -0.4927 O   0  0  0  0  0  0  0  0  0  0  0  0
    3.1894   -0.6245    1.0432 C   0  0  0  0  0  0  0  0  0  0  0  0
    4.6486   -0.0019    1.7002 S   0  0  0  0  0  0  0  0  0  0  0  0
    4.8407   -1.3374    2.7315 C   0  0  0  0  0  0  0  0  0  0  0  0
    5.9237   -1.4254    3.5276 N   0  0  0  0  0  0  0  0  0  0  0  0
    5.9912   -2.5388    4.2924 C   0  0  0  0  0  0  0  0  0  0  0  0
    7.2158   -2.6585    5.1180 C   0  0  0  0  0  0  0  0  0  0  0  0
    7.8757   -1.5125    5.6012 C   0  0  0  0  0  0  0  0  0  0  0  0
    9.0370   -1.6089    6.3742 C   0  0  0  0  0  0  0  0  0  0  0  0
    9.5688   -2.8578    6.6794 C   0  0  0  0  0  0  0  0  0  0  0  0
    8.9444   -4.0077    6.2067 C   0  0  0  0  0  0  0  0  0  0  0  0
    7.7840   -3.9077    5.4323 C   0  0  0  0  0  0  0  0  0  0  0  0
    4.9923   -3.5126    4.3012 C   0  0  0  0  0  0  0  0  0  0  0  0
    3.8813   -3.3808    3.4669 C   0  0  0  0  0  0  0  0  0  0  0  0
    3.8021   -2.2516    2.6293 C   0  0  0  0  0  0  0  0  0  0  0  0
    2.8502   -1.8246    1.6457 C   0  0  0  0  0  0  0  0  0  0  0  0
    1.7461   -2.5364    1.3262 N   0  0  0  0  0  0  0  0  0  0  0  0
    2.6255    1.6820   -1.2821 H   0  0  0  0  0  0  0  0  0  0  0  0
    3.9882    1.5071   -0.2031 H   0  0  0  0  0  0  0  0  0  0  0  0
    7.4818   -0.5234    5.3706 H   0  0  0  0  0  0  0  0  0  0  0  0
    9.5250   -0.7059    6.7314 H   0  0  0  0  0  0  0  0  0  0  0  0
   10.4730   -2.9341    7.2770 H   0  0  0  0  0  0  0  0  0  0  0  0
    9.3634   -4.9852    6.4310 H   0  0  0  0  0  0  0  0  0  0  0  0
    7.3423   -4.8277    5.0568 H   0  0  0  0  0  0  0  0  0  0  0  0
    5.0588   -4.3779    4.9531 H   0  0  0  0  0  0  0  0  0  0  0  0
    3.1043   -4.1380    3.4603 H   0  0  0  0  0  0  0  0  0  0  0  0
    1.5576   -3.4706    1.6703 H   0  0  0  0  0  0  0  0  0  0  0  0
    1.1326   -2.2377    0.5632 H   0  0  0  0  0  0  0  0  0  0  0  0
  1  2  1  0  0  0  0
  1 20  1  0  0  0  0
  1 21  1  0  0  0  0
  2  3  2  0  0  0  0
  2  4  1  0  0  0  0
  4  5  1  0  0  0  0
  4 18  2  0  0  0  0
  5  6  1  0  0  0  0
  6  7  1  0  0  0  0
  6 17  2  0  0  0  0
  7  8  2  0  0  0  0
  8  9  1  0  0  0  0
  8 15  1  0  0  0  0
  9 10  2  0  0  0  0
  9 14  1  0  0  0  0
 10 11  1  0  0  0  0
 10 22  1  0  0  0  0
 11 12  2  0  0  0  0
 11 23  1  0  0  0  0
 12 13  1  0  0  0  0
 12 24  1  0  0  0  0
 13 14  2  0  0  0  0
 13 25  1  0  0  0  0
 14 26  1  0  0  0  0
 15 16  2  0  0  0  0
 15 27  1  0  0  0  0
 16 17  1  0  0  0  0
 16 28  1  0  0  0  0
 17 18  1  0  0  0  0
 18 19  1  0  0  0  0
 19 29  1  0  0  0  0
 19 30  1  0  0  0  0
M  END
$$$$
