
 OpenBabel09162610133D

 36 38  0  0  0  0  0  0  0  0999 V2000
    5.0440   -1.2659   -5.1032 C   0  0  0  0  0  0  0  0  0  0  0  0
    4.9366   -1.3097   -3.6850 O   0  0  0  0  0  0  0  0  0  0  0  0
    4.3970   -0.2141   -3.0754 C   0  0  0  0  0  0  0  0  0  0  0  0
    4.2274   -0.2983   -1.7001 C   0  0  0  0  0  0  0  0  0  0  0  0
    3.6989    0.6832   -0.9350 N   0  0  0  0  0  0  0  0  0  0  0  0
    3.3121    1.8072   -1.5838 C   0  0  0  0  0  0  0  0  0  0  0  0
    3.4328    2.0224   -2.9595 C   0  0  0  0  0  0  0  0  0  0  0  0
    2.9636    3.2666   -3.6051 C   0  0  0  0  0  0  0  0  0  0  0  0
    3.1011    4.5186   -2.9861 C   0  0  0  0  0  0  0  0  0  0  0  0
    2.6157    5.6909   -3.5874 C   0  0  0  0  0  0  0  0  0  0  0  0
    1.9730    5.6469   -4.8270 C   0  0  0  0  0  0  0  0  0  0  0  0
    1.8645    4.4118   -5.4765 C   0  0  0  0  0  0  0  0  0  0  0  0
    2.3517    3.2421   -4.8686 C   0  0  0  0  0  0  0  0  0  0  0  0
    1.3016    4.3627   -6.8668 C   0  0  0  0  0  0  0  0  0  0  0  0
    0.1549    5.3401   -6.9753 C   0  0  0  0  0  0  0  0  0  0  0  0
    0.5833    6.7285   -6.5580 C   0  0  0  0  0  0  0  0  0  0  0  0
    0.1114    7.7128   -7.1295 O   0  0  0  0  0  0  0  0  0  0  0  0
    1.4312    6.8098   -5.4532 N   0  0  0  0  0  0  0  0  0  0  0  0
    1.7466    8.1268   -4.9213 C   0  0  0  0  0  0  0  0  0  0  0  0
    4.0033    0.9700   -3.6985 C   0  0  0  0  0  0  0  0  0  0  0  0
    5.4527   -2.2242   -5.4381 H   0  0  0  0  0  0  0  0  0  0  0  0
    5.7365   -0.4790   -5.4197 H   0  0  0  0  0  0  0  0  0  0  0  0
    4.0624   -1.1406   -5.5720 H   0  0  0  0  0  0  0  0  0  0  0  0
    4.5205   -1.1947   -1.1605 H   0  0  0  0  0  0  0  0  0  0  0  0
    2.8673    2.5553   -0.9319 H   0  0  0  0  0  0  0  0  0  0  0  0
    3.5936    4.6071   -2.0196 H   0  0  0  0  0  0  0  0  0  0  0  0
    2.7414    6.6227   -3.0442 H   0  0  0  0  0  0  0  0  0  0  0  0
    2.2288    2.2973   -5.3950 H   0  0  0  0  0  0  0  0  0  0  0  0
    0.9497    3.3551   -7.1147 H   0  0  0  0  0  0  0  0  0  0  0  0
    2.0996    4.6212   -7.5744 H   0  0  0  0  0  0  0  0  0  0  0  0
   -0.6867    5.0386   -6.3404 H   0  0  0  0  0  0  0  0  0  0  0  0
   -0.1972    5.3756   -8.0120 H   0  0  0  0  0  0  0  0  0  0  0  0
    1.3348    8.9273   -5.5422 H   0  0  0  0  0  0  0  0  0  0  0  0
    2.8334    8.2544   -4.8868 H   0  0  0  0  0  0  0  0  0  0  0  0
    1.3187    8.2269   -3.9190 H   0  0  0  0  0  0  0  0  0  0  0  0
    4.1392    1.0967   -4.7672 H   0  0  0  0  0  0  0  0  0  0  0  0
  1  2  1  0  0  0  0
  1 21  1  0  0  0  0
  1 22  1  0  0  0  0
  1 23  1  0  0  0  0
  2  3  1  0  0  0  0
  3  4  2  0  0  0  0
  3 20  1  0  0  0  0
  4  5  1  0  0  0  0
  4 24  1  0  0  0  0
  5  6  2  0  0  0  0
  6  7  1  0  0  0  0
  6 25  1  0  0  0  0
  7  8  1  0  0  0  0
  7 20  2  0  0  0  0
  8  9  2  0  0  0  0
  8 13  1  0  0  0  0
  9 10  1  0  0  0  0
  9 26  1  0  0  0  0
 10 11  2  0  0  0  0
 10 27  1  0  0  0  0
 11 12  1  0  0  0  0
 11 18  1  0  0  0  0
 12 13  2  0  0  0  0
 12 14  1  0  0  0  0
 13 28  1  0  0  0  0
 14 15  1  0  0  0  0
 14 29  1  0  0  0  0
 14 30  1  0  0  0  0
 15 16  1  0  0  0  0
 15 31  1  0  0  0  0
 15 32  1  0  0  0  0
 16 17  2  0  0  0  0
 16 18  1  0  0  0  0
 18 19  1  0  0  0  0
 19 33  1  0  0  0  0
 19 34  1  0  0  0  0
 19 35  1  0  0  0  0
 20 36  1  0  0  0  0
M  END
$$$$
