
 OpenBabel09162610133D

 32 35  0  0  0  0  0  0  0  0999 V2000
    0.9432    0.1507   -0.0393 O   0  0  0  0  0  0  0  0  0  0  0  0
    2.1675    0.1238   -0.0263 C   0  0  0  0  0  0  0  0  0  0  0  0
    2.9422    1.3650   -0.0056 C   0  0  0  0  0  0  0  0  0  0  0  0
    4.2782    1.2890    0.0025 C   0  0  0  0  0  0  0  0  0  0  0  0
    5.0475    2.5383    0.0280 C   0  0  0  0  0  0  0  0  0  0  0  0
    5.3881    3.1347    1.2435 C   0  0  0  0  0  0  0  0  0  0  0  0
    5.9828    4.3863    1.2187 C   0  0  0  0  0  0  0  0  0  0  0  0
    6.2619    5.0627    0.0843 N   0  0  0  0  0  0  0  0  0  0  0  0
    5.9357    4.4607   -1.0790 C   0  0  0  0  0  0  0  0  0  0  0  0
    5.3342    3.2149   -1.1593 C   0  0  0  0  0  0  0  0  0  0  0  0
    5.0125    0.1151   -0.0083 O   0  0  0  0  0  0  0  0  0  0  0  0
    4.3267   -1.0888   -0.0209 C   0  0  0  0  0  0  0  0  0  0  0  0
    2.9294   -1.1312   -0.0283 C   0  0  0  0  0  0  0  0  0  0  0  0
    2.2444   -2.3467   -0.0349 C   0  0  0  0  0  0  0  0  0  0  0  0
    2.9606   -3.5393   -0.0342 C   0  0  0  0  0  0  0  0  0  0  0  0
    4.3623   -3.5315   -0.0288 C   0  0  0  0  0  0  0  0  0  0  0  0
    5.0652   -4.7459   -0.0282 C   0  0  0  0  0  0  0  0  0  0  0  0
    6.4580   -4.7642   -0.0229 C   0  0  0  0  0  0  0  0  0  0  0  0
    7.1644   -3.5667   -0.0187 C   0  0  0  0  0  0  0  0  0  0  0  0
    6.4793   -2.3472   -0.0188 C   0  0  0  0  0  0  0  0  0  0  0  0
    5.0683   -2.2973   -0.0231 C   0  0  0  0  0  0  0  0  0  0  0  0
    2.3878    2.2949    0.0040 H   0  0  0  0  0  0  0  0  0  0  0  0
    5.1723    2.6550    2.1921 H   0  0  0  0  0  0  0  0  0  0  0  0
    6.2438    4.9017    2.1391 H   0  0  0  0  0  0  0  0  0  0  0  0
    6.1633    5.0325   -1.9745 H   0  0  0  0  0  0  0  0  0  0  0  0
    5.0734    2.7994   -2.1267 H   0  0  0  0  0  0  0  0  0  0  0  0
    1.1563   -2.3675   -0.0387 H   0  0  0  0  0  0  0  0  0  0  0  0
    2.4112   -4.4791   -0.0374 H   0  0  0  0  0  0  0  0  0  0  0  0
    4.5300   -5.6940   -0.0316 H   0  0  0  0  0  0  0  0  0  0  0  0
    6.9878   -5.7135   -0.0222 H   0  0  0  0  0  0  0  0  0  0  0  0
    8.2516   -3.5806   -0.0150 H   0  0  0  0  0  0  0  0  0  0  0  0
    7.0604   -1.4270   -0.0157 H   0  0  0  0  0  0  0  0  0  0  0  0
  1  2  2  0  0  0  0
  2  3  1  0  0  0  0
  2 13  1  0  0  0  0
  3  4  2  0  0  0  0
  3 22  1  0  0  0  0
  4  5  1  0  0  0  0
  4 11  1  0  0  0  0
  5  6  2  0  0  0  0
  5 10  1  0  0  0  0
  6  7  1  0  0  0  0
  6 23  1  0  0  0  0
  7  8  2  0  0  0  0
  7 24  1  0  0  0  0
  8  9  1  0  0  0  0
  9 10  2  0  0  0  0
  9 25  1  0  0  0  0
 10 26  1  0  0  0  0
 11 12  1  0  0  0  0
 12 13  2  0  0  0  0
 12 21  1  0  0  0  0
 13 14  1  0  0  0  0
 14 15  2  0  0  0  0
 14 27  1  0  0  0  0
 15 16  1  0  0  0  0
 15 28  1  0  0  0  0
 16 17  1  0  0  0  0
 16 21  2  0  0  0  0
 17 18  2  0  0  0  0
 17 29  1  0  0  0  0
 18 19  1  0  0  0  0
 18 30  1  0  0  0  0
 19 20  2  0  0  0  0
 19 31  1  0  0  0  0
 20 21  1  0  0  0  0
 20 32  1  0  0  0  0
M  END
$$$$
