
 OpenBabel09162610133D

 36 38  0  0  0  0  0  0  0  0999 V2000
    0.9535   -1.4608    0.3160 C   0  0  0  0  0  0  0  0  0  0  0  0
    2.3720   -1.4519    0.3887 O   0  0  0  0  0  0  0  0  0  0  0  0
    2.9373   -0.7598   -0.7157 C   0  0  0  0  0  0  0  0  0  0  0  0
    4.3772   -0.9593   -0.7425 N   0  0  0  0  0  0  0  0  0  0  0  0
    5.2532    0.0930   -0.7349 C   0  0  0  0  0  0  0  0  0  0  0  0
    6.4922   -0.3048   -0.8452 N   0  0  0  0  0  0  0  0  0  0  0  0
    6.4298   -1.6800   -0.9209 C   0  0  0  0  0  0  0  0  0  0  0  0
    7.6548   -2.4637   -1.0261 C   0  0  0  0  0  0  0  0  0  0  0  0
    8.7975   -2.0377   -0.3306 C   0  0  0  0  0  0  0  0  0  0  0  0
    9.9812   -2.7726   -0.3790 C   0  0  0  0  0  0  0  0  0  0  0  0
   10.0427   -3.9442   -1.1310 C   0  0  0  0  0  0  0  0  0  0  0  0
    8.9247   -4.3655   -1.8511 C   0  0  0  0  0  0  0  0  0  0  0  0
    7.7417   -3.6196   -1.8114 C   0  0  0  0  0  0  0  0  0  0  0  0
    5.1081   -2.1374   -0.8389 C   0  0  0  0  0  0  0  0  0  0  0  0
    4.5521   -3.5029   -0.7712 C   0  0  0  0  0  0  0  0  0  0  0  0
    5.1836   -4.4831    0.0120 C   0  0  0  0  0  0  0  0  0  0  0  0
    4.7143   -5.8000    0.0467 C   0  0  0  0  0  0  0  0  0  0  0  0
    3.5731   -6.1508   -0.6662 C   0  0  0  0  0  0  0  0  0  0  0  0
    2.9162   -5.1898   -1.4284 C   0  0  0  0  0  0  0  0  0  0  0  0
    3.4159   -3.8841   -1.4976 C   0  0  0  0  0  0  0  0  0  0  0  0
    0.5638   -1.9895    1.1891 H   0  0  0  0  0  0  0  0  0  0  0  0
    0.6199   -1.9846   -0.5859 H   0  0  0  0  0  0  0  0  0  0  0  0
    0.5625   -0.4384    0.3198 H   0  0  0  0  0  0  0  0  0  0  0  0
    2.7346    0.3125   -0.6117 H   0  0  0  0  0  0  0  0  0  0  0  0
    2.5360   -1.1019   -1.6744 H   0  0  0  0  0  0  0  0  0  0  0  0
    4.9349    1.1244   -0.6524 H   0  0  0  0  0  0  0  0  0  0  0  0
    8.7583   -1.1242    0.2615 H   0  0  0  0  0  0  0  0  0  0  0  0
   10.8545   -2.4305    0.1706 H   0  0  0  0  0  0  0  0  0  0  0  0
   10.9595   -4.5219   -1.1645 H   0  0  0  0  0  0  0  0  0  0  0  0
    8.9710   -5.2735   -2.4441 H   0  0  0  0  0  0  0  0  0  0  0  0
    6.8891   -3.9592   -2.3938 H   0  0  0  0  0  0  0  0  0  0  0  0
    6.0693   -4.2362    0.5944 H   0  0  0  0  0  0  0  0  0  0  0  0
    5.2449   -6.5472    0.6311 H   0  0  0  0  0  0  0  0  0  0  0  0
    3.1996   -7.1707   -0.6309 H   0  0  0  0  0  0  0  0  0  0  0  0
    2.0198   -5.4572   -1.9815 H   0  0  0  0  0  0  0  0  0  0  0  0
    2.9023   -3.1805   -2.1422 H   0  0  0  0  0  0  0  0  0  0  0  0
  1  2  1  0  0  0  0
  1 21  1  0  0  0  0
  1 22  1  0  0  0  0
  1 23  1  0  0  0  0
  2  3  1  0  0  0  0
  3  4  1  0  0  0  0
  3 24  1  0  0  0  0
  3 25  1  0  0  0  0
  4  5  1  0  0  0  0
  4 14  1  0  0  0  0
  5  6  2  0  0  0  0
  5 26  1  0  0  0  0
  6  7  1  0  0  0  0
  7  8  1  0  0  0  0
  7 14  2  0  0  0  0
  8  9  2  0  0  0  0
  8 13  1  0  0  0  0
  9 10  1  0  0  0  0
  9 27  1  0  0  0  0
 10 11  2  0  0  0  0
 10 28  1  0  0  0  0
 11 12  1  0  0  0  0
 11 29  1  0  0  0  0
 12 13  2  0  0  0  0
 12 30  1  0  0  0  0
 13 31  1  0  0  0  0
 14 15  1  0  0  0  0
 15 16  2  0  0  0  0
 15 20  1  0  0  0  0
 16 17  1  0  0  0  0
 16 32  1  0  0  0  0
 17 18  2  0  0  0  0
 17 33  1  0  0  0  0
 18 19  1  0  0  0  0
 18 34  1  0  0  0  0
 19 20  2  0  0  0  0
 19 35  1  0  0  0  0
 20 36  1  0  0  0  0
M  END
$$$$
