
 OpenBabel09162610133D

 48 49  0  0  0  0  0  0  0  0999 V2000
    1.0440   -0.1811   -0.2346 C   0  0  0  0  0  0  0  0  0  0  0  0
    2.5853   -0.0562   -0.1171 C   0  0  0  0  0  0  0  0  0  0  0  0
    3.2304   -0.5677   -1.4263 C   0  0  0  0  0  0  0  0  0  0  0  0
    2.8884    1.4559   -0.0485 C   0  0  0  0  0  0  0  0  0  0  0  0
    3.0484   -0.9148    1.0879 C   0  0  0  0  0  0  0  0  0  0  0  0
    2.8067   -2.3087    1.0272 C   0  0  0  0  0  0  0  0  0  0  0  0
    3.1212   -3.1713    2.0836 C   0  0  0  0  0  0  0  0  0  0  0  0
    2.8504   -4.6104    1.9314 C   0  0  0  0  0  0  0  0  0  0  0  0
    3.5581   -5.5851    2.5286 C   0  0  0  0  0  0  0  0  0  0  0  0
    3.3240   -6.9814    2.3787 C   0  0  0  0  0  0  0  0  0  0  0  0
    2.4159   -7.5751    1.5907 N   0  0  0  0  0  0  0  0  0  0  0  0
    2.6500   -8.8742    1.8408 N   0  0  0  0  0  0  0  0  0  0  0  0
    3.6547   -9.0220    2.7510 C   0  0  0  0  0  0  0  0  0  0  0  0
    4.1225  -10.1653    3.2152 O   0  0  0  0  0  0  0  0  0  0  0  0
    4.1022   -7.8482    3.1072 N   0  0  0  0  0  0  0  0  0  0  0  0
    3.6294   -2.6230    3.2618 C   0  0  0  0  0  0  0  0  0  0  0  0
    3.9173   -1.2525    3.3996 C   0  0  0  0  0  0  0  0  0  0  0  0
    4.4938   -0.7056    4.7316 C   0  0  0  0  0  0  0  0  0  0  0  0
    4.6475   -1.7904    5.8330 C   0  0  0  0  0  0  0  0  0  0  0  0
    5.9023   -0.1119    4.5157 C   0  0  0  0  0  0  0  0  0  0  0  0
    3.5621    0.3667    5.3420 C   0  0  0  0  0  0  0  0  0  0  0  0
    3.6497   -0.4337    2.2707 C   0  0  0  0  0  0  0  0  0  0  0  0
    4.0205    0.8786    2.3393 O   0  0  0  0  0  0  0  0  0  0  0  0
    0.6568    0.4389   -1.0523 H   0  0  0  0  0  0  0  0  0  0  0  0
    0.5531    0.1424    0.6902 H   0  0  0  0  0  0  0  0  0  0  0  0
    0.7219   -1.2081   -0.4363 H   0  0  0  0  0  0  0  0  0  0  0  0
    2.9253    0.0473   -2.2818 H   0  0  0  0  0  0  0  0  0  0  0  0
    2.9424   -1.5967   -1.6669 H   0  0  0  0  0  0  0  0  0  0  0  0
    4.3242   -0.5350   -1.3656 H   0  0  0  0  0  0  0  0  0  0  0  0
    2.5086    1.9735   -0.9386 H   0  0  0  0  0  0  0  0  0  0  0  0
    3.9655    1.6526   -0.0071 H   0  0  0  0  0  0  0  0  0  0  0  0
    2.4035    1.9317    0.8104 H   0  0  0  0  0  0  0  0  0  0  0  0
    2.3642   -2.7393    0.1330 H   0  0  0  0  0  0  0  0  0  0  0  0
    2.0347   -4.8771    1.2612 H   0  0  0  0  0  0  0  0  0  0  0  0
    4.3928   -5.3326    3.1768 H   0  0  0  0  0  0  0  0  0  0  0  0
    2.0988   -9.5762    1.3653 H   0  0  0  0  0  0  0  0  0  0  0  0
    3.6383  -10.9028    2.8186 H   0  0  0  0  0  0  0  0  0  0  0  0
    3.8028   -3.3039    4.0919 H   0  0  0  0  0  0  0  0  0  0  0  0
    5.3437   -2.5810    5.5302 H   0  0  0  0  0  0  0  0  0  0  0  0
    3.6836   -2.2526    6.0797 H   0  0  0  0  0  0  0  0  0  0  0  0
    5.0399   -1.3611    6.7627 H   0  0  0  0  0  0  0  0  0  0  0  0
    6.5826   -0.8594    4.0913 H   0  0  0  0  0  0  0  0  0  0  0  0
    6.3333    0.2287    5.4648 H   0  0  0  0  0  0  0  0  0  0  0  0
    5.9028    0.7518    3.8455 H   0  0  0  0  0  0  0  0  0  0  0  0
    2.5439   -0.0204    5.4663 H   0  0  0  0  0  0  0  0  0  0  0  0
    3.5005    1.2768    4.7422 H   0  0  0  0  0  0  0  0  0  0  0  0
    3.9195    0.6811    6.3302 H   0  0  0  0  0  0  0  0  0  0  0  0
    3.2729    1.3476    2.7446 H   0  0  0  0  0  0  0  0  0  0  0  0
  1  2  1  0  0  0  0
  1 24  1  0  0  0  0
  1 25  1  0  0  0  0
  1 26  1  0  0  0  0
  2  3  1  0  0  0  0
  2  4  1  0  0  0  0
  2  5  1  0  0  0  0
  3 27  1  0  0  0  0
  3 28  1  0  0  0  0
  3 29  1  0  0  0  0
  4 30  1  0  0  0  0
  4 31  1  0  0  0  0
  4 32  1  0  0  0  0
  5  6  2  0  0  0  0
  5 22  1  0  0  0  0
  6  7  1  0  0  0  0
  6 33  1  0  0  0  0
  7  8  1  0  0  0  0
  7 16  2  0  0  0  0
  8  9  2  0  0  0  0
  8 34  1  0  0  0  0
  9 10  1  0  0  0  0
  9 35  1  0  0  0  0
 10 11  2  0  0  0  0
 10 15  1  0  0  0  0
 11 12  1  0  0  0  0
 12 13  1  0  0  0  0
 12 36  1  0  0  0  0
 13 14  1  0  0  0  0
 13 15  2  0  0  0  0
 14 37  1  0  0  0  0
 16 17  1  0  0  0  0
 16 38  1  0  0  0  0
 17 18  1  0  0  0  0
 17 22  2  0  0  0  0
 18 19  1  0  0  0  0
 18 20  1  0  0  0  0
 18 21  1  0  0  0  0
 19 39  1  0  0  0  0
 19 40  1  0  0  0  0
 19 41  1  0  0  0  0
 20 42  1  0  0  0  0
 20 43  1  0  0  0  0
 20 44  1  0  0  0  0
 21 45  1  0  0  0  0
 21 46  1  0  0  0  0
 21 47  1  0  0  0  0
 22 23  1  0  0  0  0
 23 48  1  0  0  0  0
M  END
$$$$
