
 OpenBabel09162610133D

 29 31  0  0  0  0  0  0  0  0999 V2000
    1.0249    0.0635    0.0444 C   0  0  0  0  0  0  0  0  0  0  0  0
    2.5302    0.0745    0.0443 C   0  0  0  0  0  0  0  0  0  0  0  0
    3.2162   -1.0831    0.0724 C   0  0  0  0  0  0  0  0  0  0  0  0
    4.7153   -1.0514    0.0725 C   0  0  0  0  0  0  0  0  0  0  0  0
    5.4073   -2.3751    0.0972 C   0  0  0  0  0  0  0  0  0  0  0  0
    6.6262   -2.4864    0.7755 C   0  0  0  0  0  0  0  0  0  0  0  0
    7.2794   -3.7177    0.8535 C   0  0  0  0  0  0  0  0  0  0  0  0
    6.7267   -4.8442    0.2426 C   0  0  0  0  0  0  0  0  0  0  0  0
    5.5249   -4.7466   -0.4721 C   0  0  0  0  0  0  0  0  0  0  0  0
    4.9210   -5.9454   -1.1628 C   0  0  0  0  0  0  0  0  0  0  0  0
    5.6599   -7.0812   -1.0387 F   0  0  0  0  0  0  0  0  0  0  0  0
    3.6838   -6.2462   -0.6798 F   0  0  0  0  0  0  0  0  0  0  0  0
    4.7599   -5.7437   -2.4994 F   0  0  0  0  0  0  0  0  0  0  0  0
    4.8731   -3.5018   -0.5439 C   0  0  0  0  0  0  0  0  0  0  0  0
    5.4269    0.0383    0.0837 N   0  0  0  0  0  0  0  0  0  0  0  0
    4.6684    1.1721    0.0598 N   0  0  0  0  0  0  0  0  0  0  0  0
    5.1189    2.4613    0.0582 C   0  0  0  0  0  0  0  0  0  0  0  0
    4.1034    3.2961    0.0313 N   0  0  0  0  0  0  0  0  0  0  0  0
    2.9479    2.5442    0.0143 N   0  0  0  0  0  0  0  0  0  0  0  0
    3.2941    1.2730    0.0319 C   0  0  0  0  0  0  0  0  0  0  0  0
    0.6188   -0.9539    0.0416 H   0  0  0  0  0  0  0  0  0  0  0  0
    0.6427    0.5760   -0.8444 H   0  0  0  0  0  0  0  0  0  0  0  0
    0.6418    0.5745    0.9331 H   0  0  0  0  0  0  0  0  0  0  0  0
    2.7036   -2.0359    0.1255 H   0  0  0  0  0  0  0  0  0  0  0  0
    7.0705   -1.6171    1.2568 H   0  0  0  0  0  0  0  0  0  0  0  0
    8.2206   -3.7984    1.3935 H   0  0  0  0  0  0  0  0  0  0  0  0
    7.2460   -5.7991    0.3194 H   0  0  0  0  0  0  0  0  0  0  0  0
    3.9557   -3.4303   -1.1248 H   0  0  0  0  0  0  0  0  0  0  0  0
    6.1662    2.7159    0.0774 H   0  0  0  0  0  0  0  0  0  0  0  0
  1  2  1  0  0  0  0
  1 21  1  0  0  0  0
  1 22  1  0  0  0  0
  1 23  1  0  0  0  0
  2  3  2  0  0  0  0
  2 20  1  0  0  0  0
  3  4  1  0  0  0  0
  3 24  1  0  0  0  0
  4  5  1  0  0  0  0
  4 15  2  0  0  0  0
  5  6  2  0  0  0  0
  5 14  1  0  0  0  0
  6  7  1  0  0  0  0
  6 25  1  0  0  0  0
  7  8  2  0  0  0  0
  7 26  1  0  0  0  0
  8  9  1  0  0  0  0
  8 27  1  0  0  0  0
  9 10  1  0  0  0  0
  9 14  2  0  0  0  0
 10 11  1  0  0  0  0
 10 12  1  0  0  0  0
 10 13  1  0  0  0  0
 14 28  1  0  0  0  0
 15 16  1  0  0  0  0
 16 17  1  0  0  0  0
 16 20  1  0  0  0  0
 17 18  2  0  0  0  0
 17 29  1  0  0  0  0
 18 19  1  0  0  0  0
 19 20  2  0  0  0  0
M  END
$$$$
