
 OpenBabel09162610133D

 31 33  0  0  1  0  0  0  0  0999 V2000
    1.0224    0.0404    0.1593 C   0  0  0  0  0  0  0  0  0  0  0  0
    2.5447   -0.1328    0.0699 C   0  0  2  0  0  0  0  0  0  0  0  0
    3.0597    0.2915   -1.3149 C   0  0  0  0  0  0  0  0  0  0  0  0
    2.6688   -0.6978   -2.3970 C   0  0  0  0  0  0  0  0  0  0  0  0
    2.4379   -0.3331   -3.5468 O   0  0  0  0  0  0  0  0  0  0  0  0
    2.6594   -2.1217   -2.0011 C   0  0  0  0  0  0  0  0  0  0  0  0
    2.4741   -3.4186   -3.0843 S   0  0  0  0  0  0  0  0  0  0  0  0
    2.6373   -4.5100   -1.7045 C   0  0  0  0  0  0  0  0  0  0  0  0
    2.5642   -5.7776   -1.9255 N   0  0  0  0  0  0  0  0  0  0  0  0
    2.6635   -6.7944   -0.9675 C   0  0  0  0  0  0  0  0  0  0  0  0
    2.2747   -6.7000    0.3704 C   0  0  0  0  0  0  0  0  0  0  0  0
    2.3123   -7.8252    1.2065 C   0  0  0  0  0  0  0  0  0  0  0  0
    2.7243   -9.0602    0.7097 C   0  0  0  0  0  0  0  0  0  0  0  0
    3.1093   -9.1719   -0.6226 C   0  0  0  0  0  0  0  0  0  0  0  0
    3.0808   -8.0445   -1.4461 C   0  0  0  0  0  0  0  0  0  0  0  0
    2.8384   -3.9024   -0.4774 O   0  0  0  0  0  0  0  0  0  0  0  0
    2.8246   -2.5143   -0.7397 C   0  0  0  0  0  0  0  0  0  0  0  0
    2.9759   -1.5758    0.4181 C   0  0  0  0  0  0  0  0  0  0  0  0
    0.7255    1.0462   -0.1584 H   0  0  0  0  0  0  0  0  0  0  0  0
    0.6831   -0.0922    1.1920 H   0  0  0  0  0  0  0  0  0  0  0  0
    0.4857   -0.6807   -0.4650 H   0  0  0  0  0  0  0  0  0  0  0  0
    2.9851    0.5434    0.8142 H   0  0  0  0  0  0  0  0  0  0  0  0
    4.1539    0.3587   -1.3095 H   0  0  0  0  0  0  0  0  0  0  0  0
    2.6642    1.2778   -1.5816 H   0  0  0  0  0  0  0  0  0  0  0  0
    1.9044   -5.7682    0.7860 H   0  0  0  0  0  0  0  0  0  0  0  0
    1.9980   -7.7407    2.2437 H   0  0  0  0  0  0  0  0  0  0  0  0
    2.7265   -9.9374    1.3513 H   0  0  0  0  0  0  0  0  0  0  0  0
    3.4146  -10.1309   -1.0278 H   0  0  0  0  0  0  0  0  0  0  0  0
    3.3604   -8.1438   -2.4930 H   0  0  0  0  0  0  0  0  0  0  0  0
    4.0300   -1.5732    0.7203 H   0  0  0  0  0  0  0  0  0  0  0  0
    2.3971   -1.9394    1.2750 H   0  0  0  0  0  0  0  0  0  0  0  0
  1  2  1  0  0  0  0
  1 19  1  0  0  0  0
  1 20  1  0  0  0  0
  1 21  1  0  0  0  0
  2  3  1  0  0  0  0
  2 18  1  0  0  0  0
  2 22  1  1  0  0  0
  3  4  1  0  0  0  0
  3 23  1  0  0  0  0
  3 24  1  0  0  0  0
  4  5  2  0  0  0  0
  4  6  1  0  0  0  0
  6  7  1  0  0  0  0
  6 17  2  0  0  0  0
  7  8  1  0  0  0  0
  8  9  2  0  0  0  0
  8 16  1  0  0  0  0
  9 10  1  0  0  0  0
 10 11  2  0  0  0  0
 10 15  1  0  0  0  0
 11 12  1  0  0  0  0
 11 25  1  0  0  0  0
 12 13  2  0  0  0  0
 12 26  1  0  0  0  0
 13 14  1  0  0  0  0
 13 27  1  0  0  0  0
 14 15  2  0  0  0  0
 14 28  1  0  0  0  0
 15 29  1  0  0  0  0
 16 17  1  0  0  0  0
 17 18  1  0  0  0  0
 18 30  1  0  0  0  0
 18 31  1  0  0  0  0
M  END
$$$$
