
 OpenBabel09162610133D

 34 37  0  0  0  0  0  0  0  0999 V2000
   -2.3836   -0.7117    0.0492 C   0  0  0  0  0  0  0  0  0  0  0  0
   -2.3294    0.6668    0.0496 C   0  0  0  0  0  0  0  0  0  0  0  0
   -1.1797    1.3784    0.0305 N   0  0  0  0  0  0  0  0  0  0  0  0
    0.0021    0.7126    0.0129 C   0  0  0  0  0  0  0  0  0  0  0  0
    1.2354    1.3965   -0.0074 C   0  0  0  0  0  0  0  0  0  0  0  0
    1.1519    2.7738   -0.0134 O   0  0  0  0  0  0  0  0  0  0  0  0
    2.3712    3.5184   -0.0338 C   0  0  0  0  0  0  0  0  0  0  0  0
    2.0206    4.9717   -0.0350 C   0  0  0  0  0  0  0  0  0  0  0  0
    2.8615    5.9903   -0.0545 N   0  0  0  0  0  0  0  0  0  0  0  0
    2.0754    7.1191   -0.0493 C   0  0  0  0  0  0  0  0  0  0  0  0
    2.4450    8.4722   -0.0632 C   0  0  0  0  0  0  0  0  0  0  0  0
    1.4371    9.4457   -0.0540 C   0  0  0  0  0  0  0  0  0  0  0  0
    0.0885    9.0797   -0.0338 C   0  0  0  0  0  0  0  0  0  0  0  0
   -0.2997    7.7344   -0.0201 C   0  0  0  0  0  0  0  0  0  0  0  0
    0.7259    6.7860   -0.0269 C   0  0  0  0  0  0  0  0  0  0  0  0
    0.7198    5.4169   -0.0148 N   0  0  0  0  0  0  0  0  0  0  0  0
    2.4492    0.6928   -0.0204 C   0  0  0  0  0  0  0  0  0  0  0  0
    2.4552   -0.6992   -0.0146 C   0  0  0  0  0  0  0  0  0  0  0  0
    1.2524   -1.3949    0.0014 C   0  0  0  0  0  0  0  0  0  0  0  0
    0.0321   -0.7026    0.0149 C   0  0  0  0  0  0  0  0  0  0  0  0
   -1.1816   -1.4040    0.0312 C   0  0  0  0  0  0  0  0  0  0  0  0
   -3.3337   -1.2337    0.0634 H   0  0  0  0  0  0  0  0  0  0  0  0
   -3.2388    1.2607    0.0660 H   0  0  0  0  0  0  0  0  0  0  0  0
    2.9417    3.2921   -0.9419 H   0  0  0  0  0  0  0  0  0  0  0  0
    2.9663    3.2998    0.8601 H   0  0  0  0  0  0  0  0  0  0  0  0
    3.4932    8.7477   -0.0810 H   0  0  0  0  0  0  0  0  0  0  0  0
    1.7108   10.4981   -0.0637 H   0  0  0  0  0  0  0  0  0  0  0  0
   -0.6754    9.8548   -0.0286 H   0  0  0  0  0  0  0  0  0  0  0  0
   -1.3458    7.4491   -0.0050 H   0  0  0  0  0  0  0  0  0  0  0  0
   -0.0910    4.8114    0.0050 H   0  0  0  0  0  0  0  0  0  0  0  0
    3.4091    1.1983   -0.0345 H   0  0  0  0  0  0  0  0  0  0  0  0
    3.3982   -1.2409   -0.0227 H   0  0  0  0  0  0  0  0  0  0  0  0
    1.2719   -2.4828    0.0047 H   0  0  0  0  0  0  0  0  0  0  0  0
   -1.1954   -2.4914    0.0303 H   0  0  0  0  0  0  0  0  0  0  0  0
  1  2  2  0  0  0  0
  1 21  1  0  0  0  0
  1 22  1  0  0  0  0
  2  3  1  0  0  0  0
  2 23  1  0  0  0  0
  3  4  2  0  0  0  0
  4  5  1  0  0  0  0
  4 20  1  0  0  0  0
  5  6  1  0  0  0  0
  5 17  2  0  0  0  0
  6  7  1  0  0  0  0
  7  8  1  0  0  0  0
  7 24  1  0  0  0  0
  7 25  1  0  0  0  0
  8  9  2  0  0  0  0
  8 16  1  0  0  0  0
  9 10  1  0  0  0  0
 10 11  2  0  0  0  0
 10 15  1  0  0  0  0
 11 12  1  0  0  0  0
 11 26  1  0  0  0  0
 12 13  2  0  0  0  0
 12 27  1  0  0  0  0
 13 14  1  0  0  0  0
 13 28  1  0  0  0  0
 14 15  2  0  0  0  0
 14 29  1  0  0  0  0
 15 16  1  0  0  0  0
 16 30  1  0  0  0  0
 17 18  1  0  0  0  0
 17 31  1  0  0  0  0
 18 19  2  0  0  0  0
 18 32  1  0  0  0  0
 19 20  1  0  0  0  0
 19 33  1  0  0  0  0
 20 21  2  0  0  0  0
 21 34  1  0  0  0  0
M  END
$$$$
