
 OpenBabel09162610133D

 32 35  0  0  0  0  0  0  0  0999 V2000
    1.3324    0.0455    0.9462 C   0  0  0  0  0  0  0  0  0  0  0  0
    2.4234   -0.0360    0.0317 O   0  0  0  0  0  0  0  0  0  0  0  0
    3.0531    1.1537   -0.2316 C   0  0  0  0  0  0  0  0  0  0  0  0
    2.6716    2.3768    0.3119 C   0  0  0  0  0  0  0  0  0  0  0  0
    3.3777    3.5465    0.0180 C   0  0  0  0  0  0  0  0  0  0  0  0
    4.4946    3.4950   -0.8388 C   0  0  0  0  0  0  0  0  0  0  0  0
    4.8585    2.2601   -1.3708 C   0  0  0  0  0  0  0  0  0  0  0  0
    4.1583    1.0769   -1.0878 C   0  0  0  0  0  0  0  0  0  0  0  0
    5.9664    2.4714   -2.1558 N   0  0  0  0  0  0  0  0  0  0  0  0
    6.3366    3.8006   -2.1563 C   0  0  0  0  0  0  0  0  0  0  0  0
    7.4036    4.4717   -2.8181 C   0  0  0  0  0  0  0  0  0  0  0  0
    8.3200    3.8080   -3.6509 C   0  0  0  0  0  0  0  0  0  0  0  0
    9.3219    4.5580   -4.2484 C   0  0  0  0  0  0  0  0  0  0  0  0
    9.4736    5.8885   -4.0805 N   0  0  0  0  0  0  0  0  0  0  0  0
    8.5804    6.5066   -3.2738 C   0  0  0  0  0  0  0  0  0  0  0  0
    7.5310    5.8630   -2.6173 C   0  0  0  0  0  0  0  0  0  0  0  0
    6.6355    6.5487   -1.7927 C   0  0  0  0  0  0  0  0  0  0  0  0
    5.5939    5.8662   -1.1544 C   0  0  0  0  0  0  0  0  0  0  0  0
    4.6811    6.5785   -0.3096 C   0  0  0  0  0  0  0  0  0  0  0  0
    3.9573    7.1711    0.3670 N   0  0  0  0  0  0  0  0  0  0  0  0
    5.4266    4.4722   -1.3293 C   0  0  0  0  0  0  0  0  0  0  0  0
    0.9129   -0.9558    1.0673 H   0  0  0  0  0  0  0  0  0  0  0  0
    0.5432    0.6963    0.5526 H   0  0  0  0  0  0  0  0  0  0  0  0
    1.6642    0.3874    1.9344 H   0  0  0  0  0  0  0  0  0  0  0  0
    1.8343    2.4601    0.9971 H   0  0  0  0  0  0  0  0  0  0  0  0
    3.0534    4.4759    0.4758 H   0  0  0  0  0  0  0  0  0  0  0  0
    4.4692    0.1215   -1.5013 H   0  0  0  0  0  0  0  0  0  0  0  0
    6.4441    1.7418   -2.6641 H   0  0  0  0  0  0  0  0  0  0  0  0
    8.2697    2.7430   -3.8394 H   0  0  0  0  0  0  0  0  0  0  0  0
   10.0558    4.0929   -4.9012 H   0  0  0  0  0  0  0  0  0  0  0  0
    8.7402    7.5770   -3.1671 H   0  0  0  0  0  0  0  0  0  0  0  0
    6.7433    7.6218   -1.6419 H   0  0  0  0  0  0  0  0  0  0  0  0
  1  2  1  0  0  0  0
  1 22  1  0  0  0  0
  1 23  1  0  0  0  0
  1 24  1  0  0  0  0
  2  3  1  0  0  0  0
  3  4  2  0  0  0  0
  3  8  1  0  0  0  0
  4  5  1  0  0  0  0
  4 25  1  0  0  0  0
  5  6  2  0  0  0  0
  5 26  1  0  0  0  0
  6  7  1  0  0  0  0
  6 21  1  0  0  0  0
  7  8  2  0  0  0  0
  7  9  1  0  0  0  0
  8 27  1  0  0  0  0
  9 10  1  0  0  0  0
  9 28  1  0  0  0  0
 10 11  2  0  0  0  0
 10 21  1  0  0  0  0
 11 12  1  0  0  0  0
 11 16  1  0  0  0  0
 12 13  2  0  0  0  0
 12 29  1  0  0  0  0
 13 14  1  0  0  0  0
 13 30  1  0  0  0  0
 14 15  2  0  0  0  0
 15 16  1  0  0  0  0
 15 31  1  0  0  0  0
 16 17  2  0  0  0  0
 17 18  1  0  0  0  0
 17 32  1  0  0  0  0
 18 19  1  0  0  0  0
 18 21  2  0  0  0  0
 19 20  3  0  0  0  0
M  END
$$$$
