
 OpenBabel09162610133D

 33 37  0  0  0  0  0  0  0  0999 V2000
    1.3438   -0.4730   -0.5962 O   0  0  0  0  0  0  0  0  0  0  0  0
    2.5311   -0.3726   -0.3435 C   0  0  0  0  0  0  0  0  0  0  0  0
    3.1818    0.9130   -0.2434 C   0  0  0  0  0  0  0  0  0  0  0  0
    2.5906    2.1514   -0.3009 N   0  0  0  0  0  0  0  0  0  0  0  0
    3.5465    3.1383   -0.1591 C   0  0  0  0  0  0  0  0  0  0  0  0
    3.4218    4.5328   -0.1147 C   0  0  0  0  0  0  0  0  0  0  0  0
    4.5955    5.2876    0.0138 C   0  0  0  0  0  0  0  0  0  0  0  0
    5.8440    4.6743    0.0876 C   0  0  0  0  0  0  0  0  0  0  0  0
    5.9512    3.2825    0.0644 C   0  0  0  0  0  0  0  0  0  0  0  0
    4.7847    2.5011   -0.0481 C   0  0  0  0  0  0  0  0  0  0  0  0
    4.5295    1.1073   -0.0384 C   0  0  0  0  0  0  0  0  0  0  0  0
    5.4193   -0.0060    0.1668 C   0  0  0  0  0  0  0  0  0  0  0  0
    6.6350    0.1011    0.2542 O   0  0  0  0  0  0  0  0  0  0  0  0
    4.7603   -1.3252    0.2921 C   0  0  0  0  0  0  0  0  0  0  0  0
    5.5181   -2.3702    0.7735 C   0  0  0  0  0  0  0  0  0  0  0  0
    5.0439   -3.6211    0.9208 N   0  0  0  0  0  0  0  0  0  0  0  0
    3.8030   -3.8879    0.4962 C   0  0  0  0  0  0  0  0  0  0  0  0
    3.3913   -5.2085    0.5860 C   0  0  0  0  0  0  0  0  0  0  0  0
    2.1646   -5.6311    0.0828 C   0  0  0  0  0  0  0  0  0  0  0  0
    1.3190   -4.7078   -0.5105 C   0  0  0  0  0  0  0  0  0  0  0  0
    1.6867   -3.3601   -0.5556 C   0  0  0  0  0  0  0  0  0  0  0  0
    2.9337   -2.9089   -0.0446 C   0  0  0  0  0  0  0  0  0  0  0  0
    3.4175   -1.5667   -0.0508 C   0  0  0  0  0  0  0  0  0  0  0  0
    1.5962    2.3124   -0.4068 H   0  0  0  0  0  0  0  0  0  0  0  0
    2.4547    5.0220   -0.1709 H   0  0  0  0  0  0  0  0  0  0  0  0
    4.5335    6.3726    0.0548 H   0  0  0  0  0  0  0  0  0  0  0  0
    6.7448    5.2779    0.1738 H   0  0  0  0  0  0  0  0  0  0  0  0
    6.9262    2.8063    0.1348 H   0  0  0  0  0  0  0  0  0  0  0  0
    6.5533   -2.2345    1.0819 H   0  0  0  0  0  0  0  0  0  0  0  0
    4.0601   -5.9367    1.0418 H   0  0  0  0  0  0  0  0  0  0  0  0
    1.8868   -6.6803    0.1397 H   0  0  0  0  0  0  0  0  0  0  0  0
    0.3760   -5.0312   -0.9433 H   0  0  0  0  0  0  0  0  0  0  0  0
    0.9954   -2.6750   -1.0409 H   0  0  0  0  0  0  0  0  0  0  0  0
  1  2  2  0  0  0  0
  2  3  1  0  0  0  0
  2 23  1  0  0  0  0
  3  4  1  0  0  0  0
  3 11  2  0  0  0  0
  4  5  1  0  0  0  0
  4 24  1  0  0  0  0
  5  6  1  0  0  0  0
  5 10  2  0  0  0  0
  6  7  2  0  0  0  0
  6 25  1  0  0  0  0
  7  8  1  0  0  0  0
  7 26  1  0  0  0  0
  8  9  2  0  0  0  0
  8 27  1  0  0  0  0
  9 10  1  0  0  0  0
  9 28  1  0  0  0  0
 10 11  1  0  0  0  0
 11 12  1  0  0  0  0
 12 13  2  0  0  0  0
 12 14  1  0  0  0  0
 14 15  1  0  0  0  0
 14 23  2  0  0  0  0
 15 16  2  0  0  0  0
 15 29  1  0  0  0  0
 16 17  1  0  0  0  0
 17 18  1  0  0  0  0
 17 22  2  0  0  0  0
 18 19  2  0  0  0  0
 18 30  1  0  0  0  0
 19 20  1  0  0  0  0
 19 31  1  0  0  0  0
 20 21  2  0  0  0  0
 20 32  1  0  0  0  0
 21 22  1  0  0  0  0
 21 33  1  0  0  0  0
 22 23  1  0  0  0  0
M  END
$$$$
