
 OpenBabel09162610133D

 36 37  0  0  1  0  0  0  0  0999 V2000
    1.6234   -0.2887   -1.3769 C   0  0  0  0  0  0  0  0  0  0  0  0
    2.3824   -0.1359   -0.2819 C   0  0  0  0  0  0  0  0  0  0  0  0
    3.1028   -1.2656    0.4168 C   0  0  0  0  0  0  0  0  0  0  0  0
    4.6423   -1.0529    0.5766 C   0  0  1  0  0  0  0  0  0  0  0  0
    4.9774    0.1461    1.4619 C   0  0  0  0  0  0  0  0  0  0  0  0
    4.5642    0.2101    2.8028 C   0  0  0  0  0  0  0  0  0  0  0  0
    4.8702    1.3253    3.5883 C   0  0  0  0  0  0  0  0  0  0  0  0
    5.5969    2.3838    3.0506 C   0  0  0  0  0  0  0  0  0  0  0  0
    6.0096    2.3410    1.7213 C   0  0  0  0  0  0  0  0  0  0  0  0
    5.6894    1.2371    0.9331 C   0  0  0  0  0  0  0  0  0  0  0  0
    5.4239   -2.2785    0.9541 N   0  0  0  0  0  0  0  0  0  0  0  0
    4.9192   -3.1506    1.9196 C   0  0  0  0  0  0  0  0  0  0  0  0
    5.7261   -4.2841    2.5086 C   0  0  0  0  0  0  0  0  0  0  0  0
    3.7795   -3.0207    2.3817 O   0  0  0  0  0  0  0  0  0  0  0  0
    6.6891   -2.4790    0.3897 C   0  0  0  0  0  0  0  0  0  0  0  0
    7.5764   -1.6095   -0.2246 C   0  0  0  0  0  0  0  0  0  0  0  0
    8.7187   -2.3607   -0.5969 C   0  0  0  0  0  0  0  0  0  0  0  0
    8.4380   -3.6612   -0.2531 C   0  0  0  0  0  0  0  0  0  0  0  0
    7.2071   -3.7411    0.3154 O   0  0  0  0  0  0  0  0  0  0  0  0
    1.0885    0.5533   -1.8012 H   0  0  0  0  0  0  0  0  0  0  0  0
    1.4920   -1.2575   -1.8495 H   0  0  0  0  0  0  0  0  0  0  0  0
    2.4458    0.8478    0.1782 H   0  0  0  0  0  0  0  0  0  0  0  0
    2.9292   -2.2053   -0.1245 H   0  0  0  0  0  0  0  0  0  0  0  0
    2.6093   -1.3622    1.3895 H   0  0  0  0  0  0  0  0  0  0  0  0
    4.9780   -0.8092   -0.4417 H   0  0  0  0  0  0  0  0  0  0  0  0
    3.9894   -0.5991    3.2453 H   0  0  0  0  0  0  0  0  0  0  0  0
    4.5309    1.3666    4.6226 H   0  0  0  0  0  0  0  0  0  0  0  0
    5.8367    3.2473    3.6690 H   0  0  0  0  0  0  0  0  0  0  0  0
    6.5688    3.1701    1.3001 H   0  0  0  0  0  0  0  0  0  0  0  0
    5.9958    1.2422   -0.1104 H   0  0  0  0  0  0  0  0  0  0  0  0
    6.8038   -4.2179    2.3888 H   0  0  0  0  0  0  0  0  0  0  0  0
    5.3525   -5.2313    2.1075 H   0  0  0  0  0  0  0  0  0  0  0  0
    5.5632   -4.2789    3.5930 H   0  0  0  0  0  0  0  0  0  0  0  0
    7.4576   -0.5466   -0.3443 H   0  0  0  0  0  0  0  0  0  0  0  0
    9.6269   -2.0012   -1.0556 H   0  0  0  0  0  0  0  0  0  0  0  0
    8.9779   -4.5908   -0.3336 H   0  0  0  0  0  0  0  0  0  0  0  0
  1  2  2  0  0  0  0
  1 20  1  0  0  0  0
  1 21  1  0  0  0  0
  2  3  1  0  0  0  0
  2 22  1  0  0  0  0
  3  4  1  0  0  0  0
  3 23  1  0  0  0  0
  3 24  1  0  0  0  0
  4  5  1  0  0  0  0
  4 11  1  0  0  0  0
  4 25  1  6  0  0  0
  5  6  2  0  0  0  0
  5 10  1  0  0  0  0
  6  7  1  0  0  0  0
  6 26  1  0  0  0  0
  7  8  2  0  0  0  0
  7 27  1  0  0  0  0
  8  9  1  0  0  0  0
  8 28  1  0  0  0  0
  9 10  2  0  0  0  0
  9 29  1  0  0  0  0
 10 30  1  0  0  0  0
 11 12  1  0  0  0  0
 11 15  1  0  0  0  0
 12 13  1  0  0  0  0
 12 14  2  0  0  0  0
 13 31  1  0  0  0  0
 13 32  1  0  0  0  0
 13 33  1  0  0  0  0
 15 16  2  0  0  0  0
 15 19  1  0  0  0  0
 16 17  1  0  0  0  0
 16 34  1  0  0  0  0
 17 18  2  0  0  0  0
 17 35  1  0  0  0  0
 18 19  1  0  0  0  0
 18 36  1  0  0  0  0
M  END
$$$$
