
 OpenBabel09162610133D

 31 34  0  0  0  0  0  0  0  0999 V2000
    1.1900   -0.3358   -0.2561 Cl  0  0  0  0  0  0  0  0  0  0  0  0
    2.9080   -0.2127   -0.1159 C   0  0  0  0  0  0  0  0  0  0  0  0
    3.6862   -0.9296   -1.0297 C   0  0  0  0  0  0  0  0  0  0  0  0
    5.0745   -0.8746   -0.9549 C   0  0  0  0  0  0  0  0  0  0  0  0
    5.6913   -0.1246    0.0462 C   0  0  0  0  0  0  0  0  0  0  0  0
    4.9312    0.6123    0.9666 C   0  0  0  0  0  0  0  0  0  0  0  0
    3.5163    0.5865    0.8604 C   0  0  0  0  0  0  0  0  0  0  0  0
    2.6995    1.4713    1.7745 C   0  0  0  0  0  0  0  0  0  0  0  0
    3.5393    2.5372    2.3592 N   0  0  0  0  0  0  0  0  0  0  0  0
    4.7022    1.9131    2.9799 C   0  0  0  0  0  0  0  0  0  0  0  0
    5.5936    1.4316    1.9314 N   0  0  0  0  0  0  0  0  0  0  0  0
    6.2352    2.6016    1.2949 C   0  0  0  0  0  0  0  0  0  0  0  0
    5.1917    3.5955    0.8360 C   0  0  0  0  0  0  0  0  0  0  0  0
    5.4771    4.5527   -0.1492 C   0  0  0  0  0  0  0  0  0  0  0  0
    7.0676    4.7446   -0.7992 Cl  0  0  0  0  0  0  0  0  0  0  0  0
    4.4675    5.3740   -0.6508 C   0  0  0  0  0  0  0  0  0  0  0  0
    3.1728    5.2732   -0.1502 C   0  0  0  0  0  0  0  0  0  0  0  0
    2.8886    4.3673    0.8720 C   0  0  0  0  0  0  0  0  0  0  0  0
    3.8843    3.5184    1.3787 C   0  0  0  0  0  0  0  0  0  0  0  0
    3.2110   -1.5221   -1.8067 H   0  0  0  0  0  0  0  0  0  0  0  0
    5.6784   -1.4145   -1.6794 H   0  0  0  0  0  0  0  0  0  0  0  0
    6.7773   -0.1000    0.0973 H   0  0  0  0  0  0  0  0  0  0  0  0
    2.2923    0.8539    2.5894 H   0  0  0  0  0  0  0  0  0  0  0  0
    1.8389    1.9091    1.2554 H   0  0  0  0  0  0  0  0  0  0  0  0
    4.4035    1.0835    3.6370 H   0  0  0  0  0  0  0  0  0  0  0  0
    5.2138    2.6284    3.6392 H   0  0  0  0  0  0  0  0  0  0  0  0
    6.8802    2.2781    0.4721 H   0  0  0  0  0  0  0  0  0  0  0  0
    6.8864    3.0931    2.0314 H   0  0  0  0  0  0  0  0  0  0  0  0
    4.6828    6.0880   -1.4416 H   0  0  0  0  0  0  0  0  0  0  0  0
    2.3812    5.8984   -0.5557 H   0  0  0  0  0  0  0  0  0  0  0  0
    1.8761    4.3076    1.2624 H   0  0  0  0  0  0  0  0  0  0  0  0
  1  2  1  0  0  0  0
  2  3  2  0  0  0  0
  2  7  1  0  0  0  0
  3  4  1  0  0  0  0
  3 20  1  0  0  0  0
  4  5  2  0  0  0  0
  4 21  1  0  0  0  0
  5  6  1  0  0  0  0
  5 22  1  0  0  0  0
  6  7  2  0  0  0  0
  6 11  1  0  0  0  0
  7  8  1  0  0  0  0
  8  9  1  0  0  0  0
  8 23  1  0  0  0  0
  8 24  1  0  0  0  0
  9 10  1  0  0  0  0
  9 19  1  0  0  0  0
 10 11  1  0  0  0  0
 10 25  1  0  0  0  0
 10 26  1  0  0  0  0
 11 12  1  0  0  0  0
 12 13  1  0  0  0  0
 12 27  1  0  0  0  0
 12 28  1  0  0  0  0
 13 14  2  0  0  0  0
 13 19  1  0  0  0  0
 14 15  1  0  0  0  0
 14 16  1  0  0  0  0
 16 17  2  0  0  0  0
 16 29  1  0  0  0  0
 17 18  1  0  0  0  0
 17 30  1  0  0  0  0
 18 19  2  0  0  0  0
 18 31  1  0  0  0  0
M  END
$$$$
