
 OpenBabel09162610133D

 37 40  0  0  0  0  0  0  0  0999 V2000
    1.4021   -0.5240   -0.8566 C   0  0  0  0  0  0  0  0  0  0  0  0
    1.9339   -0.4427   -2.1796 O   0  0  0  0  0  0  0  0  0  0  0  0
    2.6764    0.6886   -2.4023 C   0  0  0  0  0  0  0  0  0  0  0  0
    2.3060    1.9522   -1.9381 C   0  0  0  0  0  0  0  0  0  0  0  0
    3.1464    3.0535   -2.1179 C   0  0  0  0  0  0  0  0  0  0  0  0
    4.3530    2.8191   -2.7734 C   0  0  0  0  0  0  0  0  0  0  0  0
    5.3355    3.7409   -2.9311 O   0  0  0  0  0  0  0  0  0  0  0  0
    6.3631    3.1215   -3.5665 C   0  0  0  0  0  0  0  0  0  0  0  0
    7.5978    3.7162   -3.8211 C   0  0  0  0  0  0  0  0  0  0  0  0
    8.5519    2.9271   -4.4619 C   0  0  0  0  0  0  0  0  0  0  0  0
    8.2393    1.6400   -4.8953 C   0  0  0  0  0  0  0  0  0  0  0  0
    6.9712    1.0802   -4.6660 C   0  0  0  0  0  0  0  0  0  0  0  0
    6.0211    1.8146   -3.9173 C   0  0  0  0  0  0  0  0  0  0  0  0
    4.7291    1.5985   -3.3266 C   0  0  0  0  0  0  0  0  0  0  0  0
    3.8529    0.5076   -3.1471 C   0  0  0  0  0  0  0  0  0  0  0  0
    6.6372   -0.2116   -5.2405 C   0  0  0  0  0  0  0  0  0  0  0  0
    7.5396   -0.7751   -6.0541 C   0  0  0  0  0  0  0  0  0  0  0  0
    8.9012   -0.1771   -6.3308 C   0  0  0  0  0  0  0  0  0  0  0  0
    9.0051    0.2920   -7.7870 C   0  0  0  0  0  0  0  0  0  0  0  0
    9.9651   -1.2489   -6.0599 C   0  0  0  0  0  0  0  0  0  0  0  0
    9.2525    0.9592   -5.5148 O   0  0  0  0  0  0  0  0  0  0  0  0
    1.1899   -1.5760   -0.6430 H   0  0  0  0  0  0  0  0  0  0  0  0
    0.4618    0.0316   -0.7887 H   0  0  0  0  0  0  0  0  0  0  0  0
    2.1154   -0.1714   -0.1015 H   0  0  0  0  0  0  0  0  0  0  0  0
    1.3641    2.0999   -1.4176 H   0  0  0  0  0  0  0  0  0  0  0  0
    2.8950    4.0362   -1.7372 H   0  0  0  0  0  0  0  0  0  0  0  0
    7.8099    4.7299   -3.5032 H   0  0  0  0  0  0  0  0  0  0  0  0
    9.5449    3.3296   -4.6480 H   0  0  0  0  0  0  0  0  0  0  0  0
    4.1057   -0.4844   -3.5055 H   0  0  0  0  0  0  0  0  0  0  0  0
    5.6653   -0.6574   -5.0919 H   0  0  0  0  0  0  0  0  0  0  0  0
    7.2896   -1.7060   -6.5566 H   0  0  0  0  0  0  0  0  0  0  0  0
    8.8052   -0.5163   -8.4975 H   0  0  0  0  0  0  0  0  0  0  0  0
   10.0061    0.6919   -7.9922 H   0  0  0  0  0  0  0  0  0  0  0  0
    8.3038    1.1110   -7.9866 H   0  0  0  0  0  0  0  0  0  0  0  0
    9.8599   -2.1068   -6.7339 H   0  0  0  0  0  0  0  0  0  0  0  0
    9.8969   -1.6158   -5.0284 H   0  0  0  0  0  0  0  0  0  0  0  0
   10.9754   -0.8404   -6.1765 H   0  0  0  0  0  0  0  0  0  0  0  0
  1  2  1  0  0  0  0
  1 22  1  0  0  0  0
  1 23  1  0  0  0  0
  1 24  1  0  0  0  0
  2  3  1  0  0  0  0
  3  4  2  0  0  0  0
  3 15  1  0  0  0  0
  4  5  1  0  0  0  0
  4 25  1  0  0  0  0
  5  6  2  0  0  0  0
  5 26  1  0  0  0  0
  6  7  1  0  0  0  0
  6 14  1  0  0  0  0
  7  8  1  0  0  0  0
  8  9  1  0  0  0  0
  8 13  2  0  0  0  0
  9 10  2  0  0  0  0
  9 27  1  0  0  0  0
 10 11  1  0  0  0  0
 10 28  1  0  0  0  0
 11 12  2  0  0  0  0
 11 21  1  0  0  0  0
 12 13  1  0  0  0  0
 12 16  1  0  0  0  0
 13 14  1  0  0  0  0
 14 15  2  0  0  0  0
 15 29  1  0  0  0  0
 16 17  2  0  0  0  0
 16 30  1  0  0  0  0
 17 18  1  0  0  0  0
 17 31  1  0  0  0  0
 18 19  1  0  0  0  0
 18 20  1  0  0  0  0
 18 21  1  0  0  0  0
 19 32  1  0  0  0  0
 19 33  1  0  0  0  0
 19 34  1  0  0  0  0
 20 35  1  0  0  0  0
 20 36  1  0  0  0  0
 20 37  1  0  0  0  0
M  END
$$$$
