
 OpenBabel09162610133D

 32 35  0  0  0  0  0  0  0  0999 V2000
   -4.0164    4.0130    1.7672 C   0  0  0  0  0  0  0  0  0  0  0  0
   -4.9668    3.0098    1.5947 C   0  0  0  0  0  0  0  0  0  0  0  0
   -4.5907    1.7704    1.0693 C   0  0  0  0  0  0  0  0  0  0  0  0
   -3.2599    1.5193    0.7056 C   0  0  0  0  0  0  0  0  0  0  0  0
   -2.7943    0.2331    0.2955 N   0  0  0  0  0  0  0  0  0  0  0  0
   -3.6759   -0.7649   -0.1069 C   0  0  0  0  0  0  0  0  0  0  0  0
   -4.3065   -0.7426   -1.3381 N   0  0  0  0  0  0  0  0  0  0  0  0
   -5.1545   -1.7488   -1.7246 C   0  0  0  0  0  0  0  0  0  0  0  0
   -5.5167   -2.7769   -1.0150 N   0  0  0  0  0  0  0  0  0  0  0  0
   -4.9460   -2.8198    0.2384 C   0  0  0  0  0  0  0  0  0  0  0  0
   -5.1557   -3.6792    1.2288 C   0  0  0  0  0  0  0  0  0  0  0  0
   -5.9806   -4.8202    1.4464 C   0  0  0  0  0  0  0  0  0  0  0  0
   -5.9026   -5.4481    2.6311 C   0  0  0  0  0  0  0  0  0  0  0  0
   -4.9968   -4.9912    3.6766 C   0  0  0  0  0  0  0  0  0  0  0  0
   -4.1994   -3.9168    3.5397 C   0  0  0  0  0  0  0  0  0  0  0  0
   -4.2338   -3.1644    2.2670 C   0  0  0  0  0  0  0  0  0  0  0  0
   -3.5445   -2.1047    1.9561 N   0  0  0  0  0  0  0  0  0  0  0  0
   -3.9746   -1.8234    0.6771 C   0  0  0  0  0  0  0  0  0  0  0  0
   -2.3135    2.5360    0.8944 C   0  0  0  0  0  0  0  0  0  0  0  0
   -2.6895    3.7777    1.4143 C   0  0  0  0  0  0  0  0  0  0  0  0
   -4.3079    4.9723    2.1867 H   0  0  0  0  0  0  0  0  0  0  0  0
   -5.9998    3.1820    1.8857 H   0  0  0  0  0  0  0  0  0  0  0  0
   -5.3490    0.9970    0.9792 H   0  0  0  0  0  0  0  0  0  0  0  0
   -2.2884   -0.1328    1.1123 H   0  0  0  0  0  0  0  0  0  0  0  0
   -4.0345    0.0104   -1.9545 H   0  0  0  0  0  0  0  0  0  0  0  0
   -5.5348   -1.6238   -2.7517 H   0  0  0  0  0  0  0  0  0  0  0  0
   -6.6536   -5.1419    0.6599 H   0  0  0  0  0  0  0  0  0  0  0  0
   -6.5210   -6.3163    2.8394 H   0  0  0  0  0  0  0  0  0  0  0  0
   -4.9863   -5.5619    4.6013 H   0  0  0  0  0  0  0  0  0  0  0  0
   -3.5287   -3.5719    4.3148 H   0  0  0  0  0  0  0  0  0  0  0  0
   -1.2713    2.3597    0.6401 H   0  0  0  0  0  0  0  0  0  0  0  0
   -1.9436    4.5552    1.5561 H   0  0  0  0  0  0  0  0  0  0  0  0
  1  2  2  0  0  0  0
  1 20  1  0  0  0  0
  1 21  1  0  0  0  0
  2  3  1  0  0  0  0
  2 22  1  0  0  0  0
  3  4  2  0  0  0  0
  3 23  1  0  0  0  0
  4  5  1  0  0  0  0
  4 19  1  0  0  0  0
  5  6  1  0  0  0  0
  5 24  1  0  0  0  0
  6  7  1  0  0  0  0
  6 18  2  0  0  0  0
  7  8  1  0  0  0  0
  7 25  1  0  0  0  0
  8  9  2  0  0  0  0
  8 26  1  0  0  0  0
  9 10  1  0  0  0  0
 10 11  2  0  0  0  0
 10 18  1  0  0  0  0
 11 12  1  0  0  0  0
 11 16  1  0  0  0  0
 12 13  2  0  0  0  0
 12 27  1  0  0  0  0
 13 14  1  0  0  0  0
 13 28  1  0  0  0  0
 14 15  2  0  0  0  0
 14 29  1  0  0  0  0
 15 16  1  0  0  0  0
 15 30  1  0  0  0  0
 16 17  2  0  0  0  0
 17 18  1  0  0  0  0
 19 20  2  0  0  0  0
 19 31  1  0  0  0  0
 20 32  1  0  0  0  0
M  END
$$$$
