
 OpenBabel09162610133D

 34 36  0  0  0  0  0  0  0  0999 V2000
    1.1144    0.1431   -0.2968 O   0  0  0  0  0  0  0  0  0  0  0  0
    2.2838    0.1100    0.0624 C   0  0  0  0  0  0  0  0  0  0  0  0
    3.0714    1.3483    0.3178 C   0  0  0  0  0  0  0  0  0  0  0  0
    2.4650    2.5272    0.5266 C   0  0  0  0  0  0  0  0  0  0  0  0
    3.2060    3.7629    0.7084 C   0  0  0  0  0  0  0  0  0  0  0  0
    4.0893    3.9297    1.7035 C   0  0  0  0  0  0  0  0  0  0  0  0
    4.7902    5.2060    1.7835 C   0  0  0  0  0  0  0  0  0  0  0  0
    5.5524    5.5407    2.9070 C   0  0  0  0  0  0  0  0  0  0  0  0
    6.2612    6.7438    2.9405 C   0  0  0  0  0  0  0  0  0  0  0  0
    6.2233    7.6090    1.8467 C   0  0  0  0  0  0  0  0  0  0  0  0
    5.4675    7.2774    0.7211 C   0  0  0  0  0  0  0  0  0  0  0  0
    4.7397    6.0874    0.6984 C   0  0  0  0  0  0  0  0  0  0  0  0
    4.0328    5.8115   -0.4424 O   0  0  0  0  0  0  0  0  0  0  0  0
    2.9451    4.8818   -0.2769 C   0  0  0  0  0  0  0  0  0  0  0  0
    2.9984   -1.1907    0.2048 C   0  0  0  0  0  0  0  0  0  0  0  0
    2.6360   -2.2582   -0.6297 C   0  0  0  0  0  0  0  0  0  0  0  0
    3.2839   -3.4938   -0.5110 C   0  0  0  0  0  0  0  0  0  0  0  0
    4.2728   -3.6590    0.4491 C   0  0  0  0  0  0  0  0  0  0  0  0
    4.8898   -4.8430    0.5689 F   0  0  0  0  0  0  0  0  0  0  0  0
    4.6297   -2.6153    1.2977 C   0  0  0  0  0  0  0  0  0  0  0  0
    3.9908   -1.3779    1.1794 C   0  0  0  0  0  0  0  0  0  0  0  0
    4.1523    1.2717    0.2855 H   0  0  0  0  0  0  0  0  0  0  0  0
    1.3779    2.5978    0.5321 H   0  0  0  0  0  0  0  0  0  0  0  0
    4.2993    3.1667    2.4441 H   0  0  0  0  0  0  0  0  0  0  0  0
    5.6022    4.8709    3.7614 H   0  0  0  0  0  0  0  0  0  0  0  0
    6.8509    7.0015    3.8168 H   0  0  0  0  0  0  0  0  0  0  0  0
    6.7838    8.5399    1.8702 H   0  0  0  0  0  0  0  0  0  0  0  0
    5.4436    7.9462   -0.1346 H   0  0  0  0  0  0  0  0  0  0  0  0
    2.7541    4.4647   -1.2724 H   0  0  0  0  0  0  0  0  0  0  0  0
    2.0529    5.4489    0.0163 H   0  0  0  0  0  0  0  0  0  0  0  0
    1.8567   -2.1307   -1.3786 H   0  0  0  0  0  0  0  0  0  0  0  0
    3.0179   -4.3247   -1.1578 H   0  0  0  0  0  0  0  0  0  0  0  0
    5.3954   -2.7731    2.0511 H   0  0  0  0  0  0  0  0  0  0  0  0
    4.2603   -0.5818    1.8684 H   0  0  0  0  0  0  0  0  0  0  0  0
  1  2  2  0  0  0  0
  2  3  1  0  0  0  0
  2 15  1  0  0  0  0
  3  4  2  0  0  0  0
  3 22  1  0  0  0  0
  4  5  1  0  0  0  0
  4 23  1  0  0  0  0
  5  6  2  0  0  0  0
  5 14  1  0  0  0  0
  6  7  1  0  0  0  0
  6 24  1  0  0  0  0
  7  8  2  0  0  0  0
  7 12  1  0  0  0  0
  8  9  1  0  0  0  0
  8 25  1  0  0  0  0
  9 10  2  0  0  0  0
  9 26  1  0  0  0  0
 10 11  1  0  0  0  0
 10 27  1  0  0  0  0
 11 12  2  0  0  0  0
 11 28  1  0  0  0  0
 12 13  1  0  0  0  0
 13 14  1  0  0  0  0
 14 29  1  0  0  0  0
 14 30  1  0  0  0  0
 15 16  2  0  0  0  0
 15 21  1  0  0  0  0
 16 17  1  0  0  0  0
 16 31  1  0  0  0  0
 17 18  2  0  0  0  0
 17 32  1  0  0  0  0
 18 19  1  0  0  0  0
 18 20  1  0  0  0  0
 20 21  2  0  0  0  0
 20 33  1  0  0  0  0
 21 34  1  0  0  0  0
M  END
$$$$
