
 OpenBabel09162610133D

 24 25  0  0  0  0  0  0  0  0999 V2000
    1.2634    0.1917    0.0603 C   0  0  0  0  0  0  0  0  0  0  0  0
    2.7439    0.1123    0.0543 C   0  0  0  0  0  0  0  0  0  0  0  0
    3.3453   -1.0780    0.0520 N   0  0  0  0  0  0  0  0  0  0  0  0
    4.6907   -0.8207    0.1049 N   0  0  0  0  0  0  0  0  0  0  0  0
    5.5936   -1.9208    0.2384 C   0  0  0  0  0  0  0  0  0  0  0  0
    6.7824   -1.6379    0.3918 O   0  0  0  0  0  0  0  0  0  0  0  0
    5.1273   -3.2996    0.2338 C   0  0  0  0  0  0  0  0  0  0  0  0
    4.0164   -3.9384   -0.2938 C   0  0  0  0  0  0  0  0  0  0  0  0
    4.1033   -5.3024    0.0757 C   0  0  0  0  0  0  0  0  0  0  0  0
    5.2682   -5.4276    0.7903 C   0  0  0  0  0  0  0  0  0  0  0  0
    5.9049   -4.2339    0.8735 O   0  0  0  0  0  0  0  0  0  0  0  0
    4.9315    0.5565    0.0633 C   0  0  0  0  0  0  0  0  0  0  0  0
    6.2672    1.2103    0.0590 C   0  0  0  0  0  0  0  0  0  0  0  0
    3.6877    1.1471    0.0548 C   0  0  0  0  0  0  0  0  0  0  0  0
    3.2865    2.9781    0.0563 Br  0  0  0  0  0  0  0  0  0  0  0  0
    0.8095   -0.8049    0.0626 H   0  0  0  0  0  0  0  0  0  0  0  0
    0.9021    0.7220   -0.8269 H   0  0  0  0  0  0  0  0  0  0  0  0
    0.9116    0.7202    0.9518 H   0  0  0  0  0  0  0  0  0  0  0  0
    3.2256   -3.4754   -0.8689 H   0  0  0  0  0  0  0  0  0  0  0  0
    3.3993   -6.0926   -0.1476 H   0  0  0  0  0  0  0  0  0  0  0  0
    5.7609   -6.2558    1.2811 H   0  0  0  0  0  0  0  0  0  0  0  0
    7.1101    0.5330   -0.0633 H   0  0  0  0  0  0  0  0  0  0  0  0
    6.4143    1.7655    0.9919 H   0  0  0  0  0  0  0  0  0  0  0  0
    6.3259    1.9263   -0.7686 H   0  0  0  0  0  0  0  0  0  0  0  0
  1  2  1  0  0  0  0
  1 16  1  0  0  0  0
  1 17  1  0  0  0  0
  1 18  1  0  0  0  0
  2  3  2  0  0  0  0
  2 14  1  0  0  0  0
  3  4  1  0  0  0  0
  4  5  1  0  0  0  0
  4 12  1  0  0  0  0
  5  6  2  0  0  0  0
  5  7  1  0  0  0  0
  7  8  2  0  0  0  0
  7 11  1  0  0  0  0
  8  9  1  0  0  0  0
  8 19  1  0  0  0  0
  9 10  2  0  0  0  0
  9 20  1  0  0  0  0
 10 11  1  0  0  0  0
 10 21  1  0  0  0  0
 12 13  1  0  0  0  0
 12 14  2  0  0  0  0
 13 22  1  0  0  0  0
 13 23  1  0  0  0  0
 13 24  1  0  0  0  0
 14 15  1  0  0  0  0
M  END
$$$$
