
 OpenBabel09162610133D

 35 38  0  0  0  0  0  0  0  0999 V2000
    1.0729    0.0705    0.0521 C   0  0  0  0  0  0  0  0  0  0  0  0
    2.5781    0.0291    0.0485 C   0  0  0  0  0  0  0  0  0  0  0  0
    3.2942    1.2363    0.0476 C   0  0  0  0  0  0  0  0  0  0  0  0
    4.6923    1.2506    0.0374 C   0  0  0  0  0  0  0  0  0  0  0  0
    5.3776    2.4771    0.0348 N   0  0  0  0  0  0  0  0  0  0  0  0
    6.7438    2.5315    0.0180 C   0  0  0  0  0  0  0  0  0  0  0  0
    7.3693    3.6637    0.0088 N   0  0  0  0  0  0  0  0  0  0  0  0
    7.5004    1.3033    0.0102 C   0  0  0  0  0  0  0  0  0  0  0  0
    8.8456    1.0086   -0.0049 C   0  0  0  0  0  0  0  0  0  0  0  0
    9.9120    1.9050   -0.0185 C   0  0  0  0  0  0  0  0  0  0  0  0
   11.1492    1.2222   -0.0314 C   0  0  0  0  0  0  0  0  0  0  0  0
   11.2779   -0.2101   -0.0302 C   0  0  0  0  0  0  0  0  0  0  0  0
   10.1830   -1.1065   -0.0164 C   0  0  0  0  0  0  0  0  0  0  0  0
    8.9812   -0.4082   -0.0043 C   0  0  0  0  0  0  0  0  0  0  0  0
    7.7242   -0.9607    0.0100 C   0  0  0  0  0  0  0  0  0  0  0  0
    6.8148    0.0859    0.0179 N   0  0  0  0  0  0  0  0  0  0  0  0
    5.3888    0.0251    0.0305 C   0  0  0  0  0  0  0  0  0  0  0  0
    4.6897   -1.1878    0.0342 C   0  0  0  0  0  0  0  0  0  0  0  0
    3.2815   -1.1933    0.0428 C   0  0  0  0  0  0  0  0  0  0  0  0
    2.5426   -2.5057    0.0454 C   0  0  0  0  0  0  0  0  0  0  0  0
    0.6983    1.0998    0.0577 H   0  0  0  0  0  0  0  0  0  0  0  0
    0.6797   -0.4263    0.9446 H   0  0  0  0  0  0  0  0  0  0  0  0
    0.6769   -0.4174   -0.8440 H   0  0  0  0  0  0  0  0  0  0  0  0
    2.7492    2.1778    0.0539 H   0  0  0  0  0  0  0  0  0  0  0  0
    4.8361    3.3249    0.0346 H   0  0  0  0  0  0  0  0  0  0  0  0
    6.6971    4.4297    0.0162 H   0  0  0  0  0  0  0  0  0  0  0  0
    9.8292    2.9830   -0.0195 H   0  0  0  0  0  0  0  0  0  0  0  0
   12.0620    1.8187   -0.0429 H   0  0  0  0  0  0  0  0  0  0  0  0
   12.2861   -0.6257   -0.0407 H   0  0  0  0  0  0  0  0  0  0  0  0
   10.2949   -2.1807   -0.0157 H   0  0  0  0  0  0  0  0  0  0  0  0
    7.4069   -1.9924    0.0148 H   0  0  0  0  0  0  0  0  0  0  0  0
    5.2162   -2.1376    0.0292 H   0  0  0  0  0  0  0  0  0  0  0  0
    3.2292   -3.3582    0.0401 H   0  0  0  0  0  0  0  0  0  0  0  0
    1.9092   -2.5856   -0.8441 H   0  0  0  0  0  0  0  0  0  0  0  0
    1.9202   -2.5880    0.9425 H   0  0  0  0  0  0  0  0  0  0  0  0
  1  2  1  0  0  0  0
  1 21  1  0  0  0  0
  1 22  1  0  0  0  0
  1 23  1  0  0  0  0
  2  3  2  0  0  0  0
  2 19  1  0  0  0  0
  3  4  1  0  0  0  0
  3 24  1  0  0  0  0
  4  5  1  0  0  0  0
  4 17  2  0  0  0  0
  5  6  1  0  0  0  0
  5 25  1  0  0  0  0
  6  7  2  0  0  0  0
  6  8  1  0  0  0  0
  7 26  1  0  0  0  0
  8  9  2  0  0  0  0
  8 16  1  0  0  0  0
  9 10  1  0  0  0  0
  9 14  1  0  0  0  0
 10 11  2  0  0  0  0
 10 27  1  0  0  0  0
 11 12  1  0  0  0  0
 11 28  1  0  0  0  0
 12 13  2  0  0  0  0
 12 29  1  0  0  0  0
 13 14  1  0  0  0  0
 13 30  1  0  0  0  0
 14 15  2  0  0  0  0
 15 16  1  0  0  0  0
 15 31  1  0  0  0  0
 16 17  1  0  0  0  0
 17 18  1  0  0  0  0
 18 19  2  0  0  0  0
 18 32  1  0  0  0  0
 19 20  1  0  0  0  0
 20 33  1  0  0  0  0
 20 34  1  0  0  0  0
 20 35  1  0  0  0  0
M  END
$$$$
