
 OpenBabel09162610133D

 30 33  0  0  0  0  0  0  0  0999 V2000
    0.8762    0.1927   -0.0025 O   0  0  0  0  0  0  0  0  0  0  0  0
    2.2092    0.0742   -0.0101 C   0  0  0  0  0  0  0  0  0  0  0  0
    2.7258   -1.1117   -0.0174 N   0  0  0  0  0  0  0  0  0  0  0  0
    4.0944   -1.1558   -0.0197 C   0  0  0  0  0  0  0  0  0  0  0  0
    5.0310   -2.1754   -0.0059 C   0  0  0  0  0  0  0  0  0  0  0  0
    4.7329   -3.5939    0.0236 C   0  0  0  0  0  0  0  0  0  0  0  0
    3.6106   -4.1082   -0.6471 C   0  0  0  0  0  0  0  0  0  0  0  0
    3.2851   -5.4649   -0.5654 C   0  0  0  0  0  0  0  0  0  0  0  0
    4.0834   -6.3292    0.1797 C   0  0  0  0  0  0  0  0  0  0  0  0
    5.2139   -5.8378    0.8304 C   0  0  0  0  0  0  0  0  0  0  0  0
    5.5339   -4.4817    0.7471 C   0  0  0  0  0  0  0  0  0  0  0  0
    6.6151   -4.0496    1.4135 F   0  0  0  0  0  0  0  0  0  0  0  0
    6.2970   -1.6409    0.0045 N   0  0  0  0  0  0  0  0  0  0  0  0
    6.1927   -0.3161   -0.0118 N   0  0  0  0  0  0  0  0  0  0  0  0
    4.8816   -0.0159   -0.0144 N   0  0  0  0  0  0  0  0  0  0  0  0
    4.3416    1.2780   -0.0093 C   0  0  0  0  0  0  0  0  0  0  0  0
    5.1293    2.4278   -0.0023 C   0  0  0  0  0  0  0  0  0  0  0  0
    4.4943    3.6717    0.0037 C   0  0  0  0  0  0  0  0  0  0  0  0
    3.0961    3.7577    0.0025 C   0  0  0  0  0  0  0  0  0  0  0  0
    2.3142    2.5998   -0.0033 C   0  0  0  0  0  0  0  0  0  0  0  0
    2.9422    1.3554   -0.0083 C   0  0  0  0  0  0  0  0  0  0  0  0
    0.5027   -0.7054    0.0083 H   0  0  0  0  0  0  0  0  0  0  0  0
    2.9707   -3.4541   -1.2360 H   0  0  0  0  0  0  0  0  0  0  0  0
    2.4029   -5.8404   -1.0785 H   0  0  0  0  0  0  0  0  0  0  0  0
    3.8239   -7.3820    0.2547 H   0  0  0  0  0  0  0  0  0  0  0  0
    5.8458   -6.4991    1.4152 H   0  0  0  0  0  0  0  0  0  0  0  0
    6.2159    2.3722    0.0001 H   0  0  0  0  0  0  0  0  0  0  0  0
    5.0896    4.5827    0.0103 H   0  0  0  0  0  0  0  0  0  0  0  0
    2.6144    4.7335    0.0068 H   0  0  0  0  0  0  0  0  0  0  0  0
    1.2299    2.6767   -0.0027 H   0  0  0  0  0  0  0  0  0  0  0  0
  1  2  1  0  0  0  0
  1 22  1  0  0  0  0
  2  3  2  0  0  0  0
  2 21  1  0  0  0  0
  3  4  1  0  0  0  0
  4  5  2  0  0  0  0
  4 15  1  0  0  0  0
  5  6  1  0  0  0  0
  5 13  1  0  0  0  0
  6  7  2  0  0  0  0
  6 11  1  0  0  0  0
  7  8  1  0  0  0  0
  7 23  1  0  0  0  0
  8  9  2  0  0  0  0
  8 24  1  0  0  0  0
  9 10  1  0  0  0  0
  9 25  1  0  0  0  0
 10 11  2  0  0  0  0
 10 26  1  0  0  0  0
 11 12  1  0  0  0  0
 13 14  2  0  0  0  0
 14 15  1  0  0  0  0
 15 16  1  0  0  0  0
 16 17  1  0  0  0  0
 16 21  2  0  0  0  0
 17 18  2  0  0  0  0
 17 27  1  0  0  0  0
 18 19  1  0  0  0  0
 18 28  1  0  0  0  0
 19 20  2  0  0  0  0
 19 29  1  0  0  0  0
 20 21  1  0  0  0  0
 20 30  1  0  0  0  0
M  END
$$$$
