
 OpenBabel09162610133D

 44 45  0  0  0  0  0  0  0  0999 V2000
    2.6212    0.0447   -0.0133 C   0  0  0  0  0  0  0  0  0  0  0  0
    1.1220    0.0699   -0.0242 C   0  0  0  0  0  0  0  0  0  0  0  0
    0.4182    1.2563    0.1233 C   0  0  0  0  0  0  0  0  0  0  0  0
   -0.9796    1.2483    0.1294 C   0  0  0  0  0  0  0  0  0  0  0  0
   -1.7340    0.0586   -0.0017 C   0  0  0  0  0  0  0  0  0  0  0  0
   -3.2824    0.1352   -0.0358 C   0  0  0  0  0  0  0  0  0  0  0  0
   -3.7498   -0.0782   -1.4898 C   0  0  0  0  0  0  0  0  0  0  0  0
   -3.9634   -0.8961    0.8928 C   0  0  0  0  0  0  0  0  0  0  0  0
   -3.8449    1.5123    0.4196 C   0  0  0  0  0  0  0  0  0  0  0  0
   -1.0054   -1.1479   -0.1675 C   0  0  0  0  0  0  0  0  0  0  0  0
   -1.7192   -2.3151   -0.3239 O   0  0  0  0  0  0  0  0  0  0  0  0
   -0.9910   -3.5008   -0.6441 C   0  0  0  0  0  0  0  0  0  0  0  0
   -1.8881   -4.7310   -0.5588 C   0  0  0  0  0  0  0  0  0  0  0  0
   -3.1280   -4.6468   -1.4408 C   0  0  0  0  0  0  0  0  0  0  0  0
   -3.8177   -5.9243   -1.4907 N   0  0  0  0  0  0  0  0  0  0  0  0
   -3.6755   -6.8831   -2.4566 C   0  0  0  0  0  0  0  0  0  0  0  0
   -4.4809   -7.9205   -2.0460 C   0  0  0  0  0  0  0  0  0  0  0  0
   -5.1071   -7.6117   -0.8666 N   0  0  0  0  0  0  0  0  0  0  0  0
   -4.6896   -6.4049   -0.5580 C   0  0  0  0  0  0  0  0  0  0  0  0
    0.4035   -1.1212   -0.1695 C   0  0  0  0  0  0  0  0  0  0  0  0
    3.0408    1.0558    0.0012 H   0  0  0  0  0  0  0  0  0  0  0  0
    2.9982   -0.4591   -0.9094 H   0  0  0  0  0  0  0  0  0  0  0  0
    2.9809   -0.4856    0.8744 H   0  0  0  0  0  0  0  0  0  0  0  0
    0.9437    2.2027    0.2294 H   0  0  0  0  0  0  0  0  0  0  0  0
   -1.4607    2.2168    0.2315 H   0  0  0  0  0  0  0  0  0  0  0  0
   -3.4264   -1.0469   -1.8906 H   0  0  0  0  0  0  0  0  0  0  0  0
   -3.3479    0.6976   -2.1505 H   0  0  0  0  0  0  0  0  0  0  0  0
   -4.8427   -0.0431   -1.5647 H   0  0  0  0  0  0  0  0  0  0  0  0
   -3.7631   -1.9336    0.6220 H   0  0  0  0  0  0  0  0  0  0  0  0
   -5.0556   -0.7879    0.8571 H   0  0  0  0  0  0  0  0  0  0  0  0
   -3.6516   -0.7543    1.9334 H   0  0  0  0  0  0  0  0  0  0  0  0
   -3.5566    2.3215   -0.2612 H   0  0  0  0  0  0  0  0  0  0  0  0
   -3.5012    1.7700    1.4278 H   0  0  0  0  0  0  0  0  0  0  0  0
   -4.9418    1.5057    0.4411 H   0  0  0  0  0  0  0  0  0  0  0  0
   -0.1815   -3.6678    0.0752 H   0  0  0  0  0  0  0  0  0  0  0  0
   -0.5772   -3.4105   -1.6557 H   0  0  0  0  0  0  0  0  0  0  0  0
   -2.2046   -4.8720    0.4822 H   0  0  0  0  0  0  0  0  0  0  0  0
   -1.2917   -5.6119   -0.8291 H   0  0  0  0  0  0  0  0  0  0  0  0
   -2.8664   -4.3739   -2.4691 H   0  0  0  0  0  0  0  0  0  0  0  0
   -3.8404   -3.9050   -1.0633 H   0  0  0  0  0  0  0  0  0  0  0  0
   -3.0348   -6.7620   -3.3175 H   0  0  0  0  0  0  0  0  0  0  0  0
   -4.6406   -8.8726   -2.5362 H   0  0  0  0  0  0  0  0  0  0  0  0
   -4.9765   -5.8457    0.3243 H   0  0  0  0  0  0  0  0  0  0  0  0
    0.9891   -2.0268   -0.2860 H   0  0  0  0  0  0  0  0  0  0  0  0
  1  2  1  0  0  0  0
  1 21  1  0  0  0  0
  1 22  1  0  0  0  0
  1 23  1  0  0  0  0
  2  3  2  0  0  0  0
  2 20  1  0  0  0  0
  3  4  1  0  0  0  0
  3 24  1  0  0  0  0
  4  5  2  0  0  0  0
  4 25  1  0  0  0  0
  5  6  1  0  0  0  0
  5 10  1  0  0  0  0
  6  7  1  0  0  0  0
  6  8  1  0  0  0  0
  6  9  1  0  0  0  0
  7 26  1  0  0  0  0
  7 27  1  0  0  0  0
  7 28  1  0  0  0  0
  8 29  1  0  0  0  0
  8 30  1  0  0  0  0
  8 31  1  0  0  0  0
  9 32  1  0  0  0  0
  9 33  1  0  0  0  0
  9 34  1  0  0  0  0
 10 11  1  0  0  0  0
 10 20  2  0  0  0  0
 11 12  1  0  0  0  0
 12 13  1  0  0  0  0
 12 35  1  0  0  0  0
 12 36  1  0  0  0  0
 13 14  1  0  0  0  0
 13 37  1  0  0  0  0
 13 38  1  0  0  0  0
 14 15  1  0  0  0  0
 14 39  1  0  0  0  0
 14 40  1  0  0  0  0
 15 16  1  0  0  0  0
 15 19  1  0  0  0  0
 16 17  2  0  0  0  0
 16 41  1  0  0  0  0
 17 18  1  0  0  0  0
 17 42  1  0  0  0  0
 18 19  2  0  0  0  0
 19 43  1  0  0  0  0
 20 44  1  0  0  0  0
M  END
$$$$
