
 OpenBabel09162610133D

 30 33  0  0  0  0  0  0  0  0999 V2000
    0.8049    0.1813    0.2121 F   0  0  0  0  0  0  0  0  0  0  0  0
    2.1317    0.1180    0.0543 C   0  0  0  0  0  0  0  0  0  0  0  0
    2.8726    1.2910    0.0211 C   0  0  0  0  0  0  0  0  0  0  0  0
    4.2601    1.2157   -0.1063 C   0  0  0  0  0  0  0  0  0  0  0  0
    4.9113   -0.0087   -0.1852 C   0  0  0  0  0  0  0  0  0  0  0  0
    6.2480   -0.0198   -0.2177 N   0  0  0  0  0  0  0  0  0  0  0  0
    6.9056   -1.2076   -0.2253 C   0  0  0  0  0  0  0  0  0  0  0  0
    8.3579   -1.0957   -0.0054 C   0  0  0  0  0  0  0  0  0  0  0  0
    9.3088   -1.9211   -0.6522 C   0  0  0  0  0  0  0  0  0  0  0  0
   10.6843   -1.7808   -0.4030 C   0  0  0  0  0  0  0  0  0  0  0  0
   11.0828   -0.8082    0.4882 C   0  0  0  0  0  0  0  0  0  0  0  0
   10.1752   -0.0033    1.1260 C   0  0  0  0  0  0  0  0  0  0  0  0
    8.8230   -0.1256    0.9066 C   0  0  0  0  0  0  0  0  0  0  0  0
   10.7602    0.8924    1.9641 O   0  0  0  0  0  0  0  0  0  0  0  0
   12.1514    0.6331    1.6931 C   0  0  0  0  0  0  0  0  0  0  0  0
   12.3637   -0.5135    0.8399 O   0  0  0  0  0  0  0  0  0  0  0  0
    6.2312   -2.4208   -0.2960 C   0  0  0  0  0  0  0  0  0  0  0  0
    4.8363   -2.4098   -0.2750 C   0  0  0  0  0  0  0  0  0  0  0  0
    4.1497   -1.1920   -0.1833 C   0  0  0  0  0  0  0  0  0  0  0  0
    2.7523   -1.1206   -0.0597 C   0  0  0  0  0  0  0  0  0  0  0  0
    2.3766    2.2514    0.1094 H   0  0  0  0  0  0  0  0  0  0  0  0
    4.8491    2.1275   -0.1169 H   0  0  0  0  0  0  0  0  0  0  0  0
    8.9856   -2.6689   -1.3741 H   0  0  0  0  0  0  0  0  0  0  0  0
   11.4131   -2.4071   -0.9049 H   0  0  0  0  0  0  0  0  0  0  0  0
    8.1295    0.5259    1.4303 H   0  0  0  0  0  0  0  0  0  0  0  0
   12.6706    0.4717    2.6435 H   0  0  0  0  0  0  0  0  0  0  0  0
   12.5773    1.5169    1.2032 H   0  0  0  0  0  0  0  0  0  0  0  0
    6.7655   -3.3642   -0.2960 H   0  0  0  0  0  0  0  0  0  0  0  0
    4.2955   -3.3530   -0.2848 H   0  0  0  0  0  0  0  0  0  0  0  0
    2.1418   -2.0191   -0.0238 H   0  0  0  0  0  0  0  0  0  0  0  0
  1  2  1  0  0  0  0
  2  3  2  0  0  0  0
  2 20  1  0  0  0  0
  3  4  1  0  0  0  0
  3 21  1  0  0  0  0
  4  5  2  0  0  0  0
  4 22  1  0  0  0  0
  5  6  1  0  0  0  0
  5 19  1  0  0  0  0
  6  7  2  0  0  0  0
  7  8  1  0  0  0  0
  7 17  1  0  0  0  0
  8  9  2  0  0  0  0
  8 13  1  0  0  0  0
  9 10  1  0  0  0  0
  9 23  1  0  0  0  0
 10 11  2  0  0  0  0
 10 24  1  0  0  0  0
 11 12  1  0  0  0  0
 11 16  1  0  0  0  0
 12 13  2  0  0  0  0
 12 14  1  0  0  0  0
 13 25  1  0  0  0  0
 14 15  1  0  0  0  0
 15 16  1  0  0  0  0
 15 26  1  0  0  0  0
 15 27  1  0  0  0  0
 17 18  2  0  0  0  0
 17 28  1  0  0  0  0
 18 19  1  0  0  0  0
 18 29  1  0  0  0  0
 19 20  2  0  0  0  0
 20 30  1  0  0  0  0
M  END
$$$$
