
 OpenBabel09162610133D

 31 35  0  0  0  0  0  0  0  0999 V2000
    1.0926   -0.0047   -0.0609 O   0  0  0  0  0  0  0  0  0  0  0  0
    2.3184    0.0087   -0.0617 C   0  0  0  0  0  0  0  0  0  0  0  0
    3.0328    1.3015   -0.0626 C   0  0  0  0  0  0  0  0  0  0  0  0
    2.3268    2.5075   -0.0629 C   0  0  0  0  0  0  0  0  0  0  0  0
    3.0318    3.7052   -0.0637 C   0  0  0  0  0  0  0  0  0  0  0  0
    4.4146    3.6483   -0.0640 C   0  0  0  0  0  0  0  0  0  0  0  0
    5.1188    2.4943   -0.0638 N   0  0  0  0  0  0  0  0  0  0  0  0
    4.4255    1.3227   -0.0631 C   0  0  0  0  0  0  0  0  0  0  0  0
    5.1898    0.0600   -0.0634 C   0  0  0  0  0  0  0  0  0  0  0  0
    6.5438    0.1385   -0.0643 N   0  0  0  0  0  0  0  0  0  0  0  0
    7.2395   -1.0113   -0.0650 C   0  0  0  0  0  0  0  0  0  0  0  0
    6.6489   -2.2637   -0.0650 C   0  0  0  0  0  0  0  0  0  0  0  0
    5.2430   -2.3762   -0.0642 C   0  0  0  0  0  0  0  0  0  0  0  0
    4.5156   -1.1696   -0.0631 C   0  0  0  0  0  0  0  0  0  0  0  0
    3.1284   -1.2445   -0.0621 C   0  0  0  0  0  0  0  0  0  0  0  0
    2.4298   -2.4030   -0.0616 N   0  0  0  0  0  0  0  0  0  0  0  0
    3.1068   -3.5534   -0.0630 C   0  0  0  0  0  0  0  0  0  0  0  0
    2.3685   -4.7291   -0.0632 C   0  0  0  0  0  0  0  0  0  0  0  0
    2.9791   -5.9837   -0.0656 C   0  0  0  0  0  0  0  0  0  0  0  0
    4.3618   -6.0624   -0.0676 C   0  0  0  0  0  0  0  0  0  0  0  0
    5.1355   -7.5977   -0.0715 Cl  0  0  0  0  0  0  0  0  0  0  0  0
    5.1285   -4.8978   -0.0668 C   0  0  0  0  0  0  0  0  0  0  0  0
    4.5209   -3.6160   -0.0646 C   0  0  0  0  0  0  0  0  0  0  0  0
    1.2390    2.5121   -0.0627 H   0  0  0  0  0  0  0  0  0  0  0  0
    2.5154    4.6591   -0.0640 H   0  0  0  0  0  0  0  0  0  0  0  0
    5.0142    4.5548   -0.0645 H   0  0  0  0  0  0  0  0  0  0  0  0
    8.3205   -0.8989   -0.0656 H   0  0  0  0  0  0  0  0  0  0  0  0
    7.2988   -3.1318   -0.0656 H   0  0  0  0  0  0  0  0  0  0  0  0
    1.2813   -4.6667   -0.0617 H   0  0  0  0  0  0  0  0  0  0  0  0
    2.3683   -6.8824   -0.0661 H   0  0  0  0  0  0  0  0  0  0  0  0
    6.2097   -5.0017   -0.0684 H   0  0  0  0  0  0  0  0  0  0  0  0
  1  2  2  0  0  0  0
  2  3  1  0  0  0  0
  2 15  1  0  0  0  0
  3  4  1  0  0  0  0
  3  8  2  0  0  0  0
  4  5  2  0  0  0  0
  4 24  1  0  0  0  0
  5  6  1  0  0  0  0
  5 25  1  0  0  0  0
  6  7  2  0  0  0  0
  6 26  1  0  0  0  0
  7  8  1  0  0  0  0
  8  9  1  0  0  0  0
  9 10  2  0  0  0  0
  9 14  1  0  0  0  0
 10 11  1  0  0  0  0
 11 12  2  0  0  0  0
 11 27  1  0  0  0  0
 12 13  1  0  0  0  0
 12 28  1  0  0  0  0
 13 14  1  0  0  0  0
 13 23  2  0  0  0  0
 14 15  2  0  0  0  0
 15 16  1  0  0  0  0
 16 17  2  0  0  0  0
 17 18  1  0  0  0  0
 17 23  1  0  0  0  0
 18 19  2  0  0  0  0
 18 29  1  0  0  0  0
 19 20  1  0  0  0  0
 19 30  1  0  0  0  0
 20 21  1  0  0  0  0
 20 22  2  0  0  0  0
 22 23  1  0  0  0  0
 22 31  1  0  0  0  0
M  END
$$$$
