
 OpenBabel09162610133D

 36 39  0  0  0  0  0  0  0  0999 V2000
    1.0876   -0.1309   -0.3631 C   0  0  0  0  0  0  0  0  0  0  0  0
    2.4323    0.0590    0.0652 O   0  0  0  0  0  0  0  0  0  0  0  0
    2.9453   -0.9389    0.8416 C   0  0  0  0  0  0  0  0  0  0  0  0
    2.5459   -2.2790    0.8212 C   0  0  0  0  0  0  0  0  0  0  0  0
    3.1584   -3.2372    1.6599 C   0  0  0  0  0  0  0  0  0  0  0  0
    4.1872   -2.8860    2.5406 C   0  0  0  0  0  0  0  0  0  0  0  0
    4.6007   -1.5660    2.5600 C   0  0  0  0  0  0  0  0  0  0  0  0
    3.9760   -0.6171    1.7032 C   0  0  0  0  0  0  0  0  0  0  0  0
    4.6575    0.5986    1.9710 C   0  0  0  0  0  0  0  0  0  0  0  0
    4.7088    1.8641    1.5333 N   0  0  0  0  0  0  0  0  0  0  0  0
    5.6865    2.5642    2.1587 N   0  0  0  0  0  0  0  0  0  0  0  0
    6.2727    1.6854    2.9978 C   0  0  0  0  0  0  0  0  0  0  0  0
    7.3295    1.8947    3.8180 N   0  0  0  0  0  0  0  0  0  0  0  0
    8.3902    2.8261    3.7203 C   0  0  0  0  0  0  0  0  0  0  0  0
    8.5151    3.7440    2.6706 C   0  0  0  0  0  0  0  0  0  0  0  0
    9.6024    4.6196    2.5976 C   0  0  0  0  0  0  0  0  0  0  0  0
   10.5773    4.6073    3.5896 C   0  0  0  0  0  0  0  0  0  0  0  0
   10.4528    3.7331    4.6651 C   0  0  0  0  0  0  0  0  0  0  0  0
    9.3636    2.8579    4.7332 C   0  0  0  0  0  0  0  0  0  0  0  0
    5.6323    0.4378    2.9129 C   0  0  0  0  0  0  0  0  0  0  0  0
    5.7192   -0.9562    3.4315 C   0  0  0  0  0  0  0  0  0  0  0  0
    0.7615    0.7894   -0.8573 H   0  0  0  0  0  0  0  0  0  0  0  0
    0.4243   -0.3065    0.4908 H   0  0  0  0  0  0  0  0  0  0  0  0
    1.0112   -0.9412   -1.0948 H   0  0  0  0  0  0  0  0  0  0  0  0
    1.7691   -2.6251    0.1461 H   0  0  0  0  0  0  0  0  0  0  0  0
    2.8250   -4.2729    1.6133 H   0  0  0  0  0  0  0  0  0  0  0  0
    4.6494   -3.6334    3.1787 H   0  0  0  0  0  0  0  0  0  0  0  0
    4.1495    2.3201    0.8197 H   0  0  0  0  0  0  0  0  0  0  0  0
    7.5424    1.1693    4.4907 H   0  0  0  0  0  0  0  0  0  0  0  0
    7.7762    3.7795    1.8755 H   0  0  0  0  0  0  0  0  0  0  0  0
    9.6821    5.3052    1.7585 H   0  0  0  0  0  0  0  0  0  0  0  0
   11.4271    5.2808    3.5255 H   0  0  0  0  0  0  0  0  0  0  0  0
   11.2036    3.7289    5.4504 H   0  0  0  0  0  0  0  0  0  0  0  0
    9.2884    2.1909    5.5879 H   0  0  0  0  0  0  0  0  0  0  0  0
    5.4648   -1.0189    4.4929 H   0  0  0  0  0  0  0  0  0  0  0  0
    6.6836   -1.4189    3.2081 H   0  0  0  0  0  0  0  0  0  0  0  0
  1  2  1  0  0  0  0
  1 22  1  0  0  0  0
  1 23  1  0  0  0  0
  1 24  1  0  0  0  0
  2  3  1  0  0  0  0
  3  4  2  0  0  0  0
  3  8  1  0  0  0  0
  4  5  1  0  0  0  0
  4 25  1  0  0  0  0
  5  6  2  0  0  0  0
  5 26  1  0  0  0  0
  6  7  1  0  0  0  0
  6 27  1  0  0  0  0
  7  8  2  0  0  0  0
  7 21  1  0  0  0  0
  8  9  1  0  0  0  0
  9 10  1  0  0  0  0
  9 20  2  0  0  0  0
 10 11  1  0  0  0  0
 10 28  1  0  0  0  0
 11 12  2  0  0  0  0
 12 13  1  0  0  0  0
 12 20  1  0  0  0  0
 13 14  1  0  0  0  0
 13 29  1  0  0  0  0
 14 15  2  0  0  0  0
 14 19  1  0  0  0  0
 15 16  1  0  0  0  0
 15 30  1  0  0  0  0
 16 17  2  0  0  0  0
 16 31  1  0  0  0  0
 17 18  1  0  0  0  0
 17 32  1  0  0  0  0
 18 19  2  0  0  0  0
 18 33  1  0  0  0  0
 19 34  1  0  0  0  0
 20 21  1  0  0  0  0
 21 35  1  0  0  0  0
 21 36  1  0  0  0  0
M  END
$$$$
