
 OpenBabel09162610133D

 37 40  0  0  0  0  0  0  0  0999 V2000
    1.0600   -0.3744   -2.0652 C   0  0  0  0  0  0  0  0  0  0  0  0
    2.4824   -0.3192   -1.9954 O   0  0  0  0  0  0  0  0  0  0  0  0
    3.0183   -0.8639   -0.8796 C   0  0  0  0  0  0  0  0  0  0  0  0
    2.4021   -1.2824    0.0881 O   0  0  0  0  0  0  0  0  0  0  0  0
    4.4904   -0.8478   -0.9485 C   0  0  0  0  0  0  0  0  0  0  0  0
    5.2452   -0.8275    0.2412 C   0  0  0  0  0  0  0  0  0  0  0  0
    6.6446   -0.8286    0.2100 C   0  0  0  0  0  0  0  0  0  0  0  0
    7.3432   -0.8658   -1.0032 C   0  0  0  0  0  0  0  0  0  0  0  0
    6.5629   -0.9076   -2.1546 C   0  0  0  0  0  0  0  0  0  0  0  0
    7.0030   -0.9836   -3.4445 O   0  0  0  0  0  0  0  0  0  0  0  0
    5.8519   -1.0479   -4.1849 C   0  0  0  0  0  0  0  0  0  0  0  0
    5.9617   -1.1572   -5.6357 C   0  0  0  0  0  0  0  0  0  0  0  0
    4.9656   -0.5450   -6.4071 C   0  0  0  0  0  0  0  0  0  0  0  0
    4.9521   -0.6702   -7.7943 C   0  0  0  0  0  0  0  0  0  0  0  0
    5.9287   -1.4256   -8.4528 C   0  0  0  0  0  0  0  0  0  0  0  0
    5.8655   -1.5685   -9.8481 C   0  0  0  0  0  0  0  0  0  0  0  0
    6.8042   -2.3344  -10.5337 C   0  0  0  0  0  0  0  0  0  0  0  0
    7.8214   -2.9635   -9.8311 C   0  0  0  0  0  0  0  0  0  0  0  0
    7.9000   -2.8282   -8.4414 C   0  0  0  0  0  0  0  0  0  0  0  0
    6.9581   -2.0601   -7.7107 C   0  0  0  0  0  0  0  0  0  0  0  0
    6.9575   -1.9022   -6.2931 C   0  0  0  0  0  0  0  0  0  0  0  0
    7.9013   -2.5206   -5.5070 O   0  0  0  0  0  0  0  0  0  0  0  0
    4.7427   -0.9637   -3.4741 N   0  0  0  0  0  0  0  0  0  0  0  0
    5.1766   -0.8965   -2.1729 C   0  0  0  0  0  0  0  0  0  0  0  0
    0.7525    0.0730   -3.0149 H   0  0  0  0  0  0  0  0  0  0  0  0
    0.6105    0.1983   -1.2489 H   0  0  0  0  0  0  0  0  0  0  0  0
    0.7187   -1.4140   -2.0478 H   0  0  0  0  0  0  0  0  0  0  0  0
    4.7312   -0.8095    1.2019 H   0  0  0  0  0  0  0  0  0  0  0  0
    7.2012   -0.8083    1.1456 H   0  0  0  0  0  0  0  0  0  0  0  0
    8.4255   -0.8787   -1.0497 H   0  0  0  0  0  0  0  0  0  0  0  0
    4.1740    0.0250   -5.9199 H   0  0  0  0  0  0  0  0  0  0  0  0
    4.1539   -0.1855   -8.3528 H   0  0  0  0  0  0  0  0  0  0  0  0
    5.0703   -1.0890  -10.4157 H   0  0  0  0  0  0  0  0  0  0  0  0
    6.7347   -2.4442  -11.6127 H   0  0  0  0  0  0  0  0  0  0  0  0
    8.5543   -3.5682  -10.3604 H   0  0  0  0  0  0  0  0  0  0  0  0
    8.7094   -3.3557   -7.9479 H   0  0  0  0  0  0  0  0  0  0  0  0
    8.6024   -2.8979   -6.0547 H   0  0  0  0  0  0  0  0  0  0  0  0
  1  2  1  0  0  0  0
  1 25  1  0  0  0  0
  1 26  1  0  0  0  0
  1 27  1  0  0  0  0
  2  3  1  0  0  0  0
  3  4  2  0  0  0  0
  3  5  1  0  0  0  0
  5  6  2  0  0  0  0
  5 24  1  0  0  0  0
  6  7  1  0  0  0  0
  6 28  1  0  0  0  0
  7  8  2  0  0  0  0
  7 29  1  0  0  0  0
  8  9  1  0  0  0  0
  8 30  1  0  0  0  0
  9 10  1  0  0  0  0
  9 24  2  0  0  0  0
 10 11  1  0  0  0  0
 11 12  1  0  0  0  0
 11 23  2  0  0  0  0
 12 13  2  0  0  0  0
 12 21  1  0  0  0  0
 13 14  1  0  0  0  0
 13 31  1  0  0  0  0
 14 15  2  0  0  0  0
 14 32  1  0  0  0  0
 15 16  1  0  0  0  0
 15 20  1  0  0  0  0
 16 17  2  0  0  0  0
 16 33  1  0  0  0  0
 17 18  1  0  0  0  0
 17 34  1  0  0  0  0
 18 19  2  0  0  0  0
 18 35  1  0  0  0  0
 19 20  1  0  0  0  0
 19 36  1  0  0  0  0
 20 21  2  0  0  0  0
 21 22  1  0  0  0  0
 22 37  1  0  0  0  0
 23 24  1  0  0  0  0
M  END
$$$$
