
 OpenBabel09162610133D

 38 40  0  0  0  0  0  0  0  0999 V2000
    1.0297    0.0890   -0.2295 C   0  0  0  0  0  0  0  0  0  0  0  0
    2.5548    0.0536   -0.1011 C   0  0  0  0  0  0  0  0  0  0  0  0
    3.2283    0.3426   -1.4429 C   0  0  0  0  0  0  0  0  0  0  0  0
    3.0165    0.9546    0.9489 N   0  0  0  0  0  0  0  0  0  0  0  0
    2.8294    2.3124    0.9621 C   0  0  0  0  0  0  0  0  0  0  0  0
    3.2338    2.8533    2.0869 N   0  0  0  0  0  0  0  0  0  0  0  0
    3.7193    1.8065    2.8314 C   0  0  0  0  0  0  0  0  0  0  0  0
    4.2423    1.8121    4.1342 C   0  0  0  0  0  0  0  0  0  0  0  0
    4.7132    0.6235    4.7200 C   0  0  0  0  0  0  0  0  0  0  0  0
    5.1197    0.6683    6.0632 N   0  0  0  0  0  0  0  0  0  0  0  0
    6.1324   -0.2782    6.5399 C   0  0  0  0  0  0  0  0  0  0  0  0
    6.4709    0.0067    7.9962 C   0  0  0  0  0  0  0  0  0  0  0  0
    5.4961   -0.1378    8.9839 C   0  0  0  0  0  0  0  0  0  0  0  0
    5.8241    0.1534   10.3066 C   0  0  0  0  0  0  0  0  0  0  0  0
    7.1099    0.5767   10.6108 C   0  0  0  0  0  0  0  0  0  0  0  0
    8.0211    0.6925    9.5752 C   0  0  0  0  0  0  0  0  0  0  0  0
    7.7314    0.4209    8.2808 N   0  0  0  0  0  0  0  0  0  0  0  0
    4.6027   -0.5648    3.9849 C   0  0  0  0  0  0  0  0  0  0  0  0
    4.0715   -0.6027    2.6813 C   0  0  0  0  0  0  0  0  0  0  0  0
    3.6272    0.6053    2.1338 C   0  0  0  0  0  0  0  0  0  0  0  0
    0.6837   -0.6436   -0.9659 H   0  0  0  0  0  0  0  0  0  0  0  0
    0.6716    1.0755   -0.5459 H   0  0  0  0  0  0  0  0  0  0  0  0
    0.5525   -0.1440    0.7289 H   0  0  0  0  0  0  0  0  0  0  0  0
    2.8378   -0.9610    0.1998 H   0  0  0  0  0  0  0  0  0  0  0  0
    2.9768    1.3405   -1.8185 H   0  0  0  0  0  0  0  0  0  0  0  0
    2.9129   -0.3867   -2.1973 H   0  0  0  0  0  0  0  0  0  0  0  0
    4.3183    0.2845   -1.3534 H   0  0  0  0  0  0  0  0  0  0  0  0
    2.3770    2.8515    0.1392 H   0  0  0  0  0  0  0  0  0  0  0  0
    4.2693    2.7522    4.6725 H   0  0  0  0  0  0  0  0  0  0  0  0
    5.3726    1.6171    6.3355 H   0  0  0  0  0  0  0  0  0  0  0  0
    7.0433   -0.1797    5.9371 H   0  0  0  0  0  0  0  0  0  0  0  0
    5.7831   -1.3141    6.4706 H   0  0  0  0  0  0  0  0  0  0  0  0
    4.4911   -0.4571    8.7236 H   0  0  0  0  0  0  0  0  0  0  0  0
    5.0772    0.0563   11.0897 H   0  0  0  0  0  0  0  0  0  0  0  0
    7.3970    0.8147   11.6296 H   0  0  0  0  0  0  0  0  0  0  0  0
    9.0402    1.0192    9.7617 H   0  0  0  0  0  0  0  0  0  0  0  0
    4.9075   -1.5116    4.4234 H   0  0  0  0  0  0  0  0  0  0  0  0
    3.9952   -1.5423    2.1454 H   0  0  0  0  0  0  0  0  0  0  0  0
  1  2  1  0  0  0  0
  1 21  1  0  0  0  0
  1 22  1  0  0  0  0
  1 23  1  0  0  0  0
  2  3  1  0  0  0  0
  2  4  1  0  0  0  0
  2 24  1  0  0  0  0
  3 25  1  0  0  0  0
  3 26  1  0  0  0  0
  3 27  1  0  0  0  0
  4  5  1  0  0  0  0
  4 20  1  0  0  0  0
  5  6  2  0  0  0  0
  5 28  1  0  0  0  0
  6  7  1  0  0  0  0
  7  8  1  0  0  0  0
  7 20  2  0  0  0  0
  8  9  2  0  0  0  0
  8 29  1  0  0  0  0
  9 10  1  0  0  0  0
  9 18  1  0  0  0  0
 10 11  1  0  0  0  0
 10 30  1  0  0  0  0
 11 12  1  0  0  0  0
 11 31  1  0  0  0  0
 11 32  1  0  0  0  0
 12 13  2  0  0  0  0
 12 17  1  0  0  0  0
 13 14  1  0  0  0  0
 13 33  1  0  0  0  0
 14 15  2  0  0  0  0
 14 34  1  0  0  0  0
 15 16  1  0  0  0  0
 15 35  1  0  0  0  0
 16 17  2  0  0  0  0
 16 36  1  0  0  0  0
 18 19  2  0  0  0  0
 18 37  1  0  0  0  0
 19 20  1  0  0  0  0
 19 38  1  0  0  0  0
M  END
$$$$
