
 OpenBabel09162610133D

 37 39  0  0  0  0  0  0  0  0999 V2000
    1.3696   -0.3996    0.0738 C   0  0  0  0  0  0  0  0  0  0  0  0
    2.6751    0.2472   -0.0265 N   0  0  0  0  0  0  0  0  0  0  0  0
    3.4162    0.0529   -1.2666 C   0  0  0  0  0  0  0  0  0  0  0  0
    3.3255    0.6934    1.1213 C   0  0  0  0  0  0  0  0  0  0  0  0
    2.7710    0.5233    2.3971 C   0  0  0  0  0  0  0  0  0  0  0  0
    3.3964    0.9865    3.5641 C   0  0  0  0  0  0  0  0  0  0  0  0
    4.6132    1.6585    3.5066 C   0  0  0  0  0  0  0  0  0  0  0  0
    5.2862    2.1486    4.6484 N   0  0  0  0  0  0  0  0  0  0  0  0
    4.8329    2.1198    5.9605 C   0  0  0  0  0  0  0  0  0  0  0  0
    3.7319    1.7133    6.3194 O   0  0  0  0  0  0  0  0  0  0  0  0
    5.7835    2.6263    6.9337 C   0  0  0  0  0  0  0  0  0  0  0  0
    5.6469    2.7730    8.3027 C   0  0  0  0  0  0  0  0  0  0  0  0
    6.8797    3.2628    8.7937 C   0  0  0  0  0  0  0  0  0  0  0  0
    7.3931    3.5978   10.0588 C   0  0  0  0  0  0  0  0  0  0  0  0
    8.7172    4.0481   10.1484 C   0  0  0  0  0  0  0  0  0  0  0  0
    9.5144    4.1673    9.0070 C   0  0  0  0  0  0  0  0  0  0  0  0
    9.0181    3.8442    7.7382 C   0  0  0  0  0  0  0  0  0  0  0  0
    7.7006    3.3974    7.6798 C   0  0  0  0  0  0  0  0  0  0  0  0
    7.0373    3.0208    6.5465 O   0  0  0  0  0  0  0  0  0  0  0  0
    5.1937    1.8413    2.2513 C   0  0  0  0  0  0  0  0  0  0  0  0
    4.5574    1.3667    1.0842 C   0  0  0  0  0  0  0  0  0  0  0  0
    0.9654   -0.6558   -0.9110 H   0  0  0  0  0  0  0  0  0  0  0  0
    0.6396    0.2735    0.5391 H   0  0  0  0  0  0  0  0  0  0  0  0
    1.4301   -1.3278    0.6523 H   0  0  0  0  0  0  0  0  0  0  0  0
    2.7966   -0.4184   -2.0382 H   0  0  0  0  0  0  0  0  0  0  0  0
    4.2842   -0.5973   -1.1117 H   0  0  0  0  0  0  0  0  0  0  0  0
    3.7462    1.0125   -1.6778 H   0  0  0  0  0  0  0  0  0  0  0  0
    1.8249    0.0072    2.5331 H   0  0  0  0  0  0  0  0  0  0  0  0
    2.8910    0.7862    4.5003 H   0  0  0  0  0  0  0  0  0  0  0  0
    6.1942    2.5771    4.5096 H   0  0  0  0  0  0  0  0  0  0  0  0
    4.7576    2.5316    8.8693 H   0  0  0  0  0  0  0  0  0  0  0  0
    6.7814    3.5048   10.9515 H   0  0  0  0  0  0  0  0  0  0  0  0
    9.1291    4.3049   11.1227 H   0  0  0  0  0  0  0  0  0  0  0  0
   10.5407    4.5154    9.1063 H   0  0  0  0  0  0  0  0  0  0  0  0
    9.6267    3.9291    6.8463 H   0  0  0  0  0  0  0  0  0  0  0  0
    6.1403    2.3645    2.1454 H   0  0  0  0  0  0  0  0  0  0  0  0
    5.0504    1.5592    0.1348 H   0  0  0  0  0  0  0  0  0  0  0  0
  1  2  1  0  0  0  0
  1 22  1  0  0  0  0
  1 23  1  0  0  0  0
  1 24  1  0  0  0  0
  2  3  1  0  0  0  0
  2  4  1  0  0  0  0
  3 25  1  0  0  0  0
  3 26  1  0  0  0  0
  3 27  1  0  0  0  0
  4  5  2  0  0  0  0
  4 21  1  0  0  0  0
  5  6  1  0  0  0  0
  5 28  1  0  0  0  0
  6  7  2  0  0  0  0
  6 29  1  0  0  0  0
  7  8  1  0  0  0  0
  7 20  1  0  0  0  0
  8  9  1  0  0  0  0
  8 30  1  0  0  0  0
  9 10  2  0  0  0  0
  9 11  1  0  0  0  0
 11 12  2  0  0  0  0
 11 19  1  0  0  0  0
 12 13  1  0  0  0  0
 12 31  1  0  0  0  0
 13 14  2  0  0  0  0
 13 18  1  0  0  0  0
 14 15  1  0  0  0  0
 14 32  1  0  0  0  0
 15 16  2  0  0  0  0
 15 33  1  0  0  0  0
 16 17  1  0  0  0  0
 16 34  1  0  0  0  0
 17 18  2  0  0  0  0
 17 35  1  0  0  0  0
 18 19  1  0  0  0  0
 20 21  2  0  0  0  0
 20 36  1  0  0  0  0
 21 37  1  0  0  0  0
M  END
$$$$
