
 OpenBabel09162610133D

 34 37  0  0  0  0  0  0  0  0999 V2000
    1.0720   -0.0179   -0.0557 C   0  0  0  0  0  0  0  0  0  0  0  0
    2.5712   -0.0507   -0.0401 C   0  0  0  0  0  0  0  0  0  0  0  0
    3.2571   -1.2784   -0.0105 C   0  0  0  0  0  0  0  0  0  0  0  0
    4.6484   -1.3407    0.0230 C   0  0  0  0  0  0  0  0  0  0  0  0
    5.4113   -0.1710    0.0376 C   0  0  0  0  0  0  0  0  0  0  0  0
    4.7628    1.0784    0.0039 C   0  0  0  0  0  0  0  0  0  0  0  0
    5.2160    2.4312    0.0166 C   0  0  0  0  0  0  0  0  0  0  0  0
    4.1135    3.2558   -0.0745 C   0  0  0  0  0  0  0  0  0  0  0  0
    3.0065    2.4393   -0.0768 N   0  0  0  0  0  0  0  0  0  0  0  0
    3.3693    1.1098   -0.0424 C   0  0  0  0  0  0  0  0  0  0  0  0
    4.0720    4.7187   -0.1050 C   0  0  0  0  0  0  0  0  0  0  0  0
    3.0465    5.3562   -0.8293 C   0  0  0  0  0  0  0  0  0  0  0  0
    2.9221    6.7463   -0.8371 C   0  0  0  0  0  0  0  0  0  0  0  0
    3.8104    7.5233   -0.1054 C   0  0  0  0  0  0  0  0  0  0  0  0
    4.8351    6.9103    0.6155 C   0  0  0  0  0  0  0  0  0  0  0  0
    5.0030    5.5150    0.5970 C   0  0  0  0  0  0  0  0  0  0  0  0
    6.1002    5.0362    1.3441 N   0  0  0  0  0  0  0  0  0  0  0  0
    6.8075    3.8678    1.2617 C   0  0  0  0  0  0  0  0  0  0  0  0
    7.7017    3.6695    2.0912 O   0  0  0  0  0  0  0  0  0  0  0  0
    6.6088    2.9298    0.0922 C   0  0  0  0  0  0  0  0  0  0  0  0
    0.6458   -1.0262   -0.0747 H   0  0  0  0  0  0  0  0  0  0  0  0
    0.7155    0.5162   -0.9418 H   0  0  0  0  0  0  0  0  0  0  0  0
    0.7003    0.4883    0.8410 H   0  0  0  0  0  0  0  0  0  0  0  0
    2.6957   -2.2114   -0.0111 H   0  0  0  0  0  0  0  0  0  0  0  0
    5.1469   -2.3067    0.0448 H   0  0  0  0  0  0  0  0  0  0  0  0
    6.4949   -0.2319    0.0731 H   0  0  0  0  0  0  0  0  0  0  0  0
    2.0516    2.7630   -0.0868 H   0  0  0  0  0  0  0  0  0  0  0  0
    2.3361    4.7740   -1.4119 H   0  0  0  0  0  0  0  0  0  0  0  0
    2.1299    7.2195   -1.4121 H   0  0  0  0  0  0  0  0  0  0  0  0
    3.7166    8.6064   -0.1038 H   0  0  0  0  0  0  0  0  0  0  0  0
    5.5281    7.5426    1.1660 H   0  0  0  0  0  0  0  0  0  0  0  0
    6.4925    5.6584    2.0398 H   0  0  0  0  0  0  0  0  0  0  0  0
    7.3138    2.0983    0.2004 H   0  0  0  0  0  0  0  0  0  0  0  0
    6.8788    3.4598   -0.8286 H   0  0  0  0  0  0  0  0  0  0  0  0
  1  2  1  0  0  0  0
  1 21  1  0  0  0  0
  1 22  1  0  0  0  0
  1 23  1  0  0  0  0
  2  3  2  0  0  0  0
  2 10  1  0  0  0  0
  3  4  1  0  0  0  0
  3 24  1  0  0  0  0
  4  5  2  0  0  0  0
  4 25  1  0  0  0  0
  5  6  1  0  0  0  0
  5 26  1  0  0  0  0
  6  7  1  0  0  0  0
  6 10  2  0  0  0  0
  7  8  2  0  0  0  0
  7 20  1  0  0  0  0
  8  9  1  0  0  0  0
  8 11  1  0  0  0  0
  9 10  1  0  0  0  0
  9 27  1  0  0  0  0
 11 12  2  0  0  0  0
 11 16  1  0  0  0  0
 12 13  1  0  0  0  0
 12 28  1  0  0  0  0
 13 14  2  0  0  0  0
 13 29  1  0  0  0  0
 14 15  1  0  0  0  0
 14 30  1  0  0  0  0
 15 16  2  0  0  0  0
 15 31  1  0  0  0  0
 16 17  1  0  0  0  0
 17 18  1  0  0  0  0
 17 32  1  0  0  0  0
 18 19  2  0  0  0  0
 18 20  1  0  0  0  0
 20 33  1  0  0  0  0
 20 34  1  0  0  0  0
M  END
$$$$
