
 OpenBabel09162610133D

 39 41  0  0  0  0  0  0  0  0999 V2000
    2.8909    0.3865    1.3129 C   0  0  0  0  0  0  0  0  0  0  0  0
    1.5254    0.2547    0.8699 N   0  0  0  0  0  0  0  0  0  0  0  0
    0.8945    1.1178    0.0222 C   0  0  0  0  0  0  0  0  0  0  0  0
    1.3252    2.1208   -0.5268 O   0  0  0  0  0  0  0  0  0  0  0  0
   -0.4710    0.6194   -0.1344 C   0  0  0  0  0  0  0  0  0  0  0  0
   -1.5292    1.1103   -0.8665 C   0  0  0  0  0  0  0  0  0  0  0  0
   -2.7318    0.3924   -0.8024 C   0  0  0  0  0  0  0  0  0  0  0  0
   -2.8571   -0.8002   -0.0359 C   0  0  0  0  0  0  0  0  0  0  0  0
   -4.1923   -1.4753   -0.0292 C   0  0  0  0  0  0  0  0  0  0  0  0
   -5.1929   -0.7883   -0.2077 O   0  0  0  0  0  0  0  0  0  0  0  0
   -4.2359   -2.8478    0.1590 N   0  0  0  0  0  0  0  0  0  0  0  0
   -5.5080   -3.5878    0.1597 C   0  0  0  0  0  0  0  0  0  0  0  0
   -5.4183   -4.8240    1.0721 C   0  0  0  0  0  0  0  0  0  0  0  0
   -6.6949   -5.6613    1.0477 C   0  0  0  0  0  0  0  0  0  0  0  0
   -7.0430   -6.0939   -0.3683 C   0  0  0  0  0  0  0  0  0  0  0  0
   -7.1715   -4.8836   -1.2875 C   0  0  0  0  0  0  0  0  0  0  0  0
   -5.9132   -4.0087   -1.2651 C   0  0  0  0  0  0  0  0  0  0  0  0
   -1.7638   -1.2660    0.7077 C   0  0  0  0  0  0  0  0  0  0  0  0
   -0.5914   -0.5284    0.6316 C   0  0  0  0  0  0  0  0  0  0  0  0
    0.6981   -0.7554    1.2798 C   0  0  0  0  0  0  0  0  0  0  0  0
    0.9235   -1.6858    2.0285 O   0  0  0  0  0  0  0  0  0  0  0  0
    3.3738    1.2481    0.8458 H   0  0  0  0  0  0  0  0  0  0  0  0
    3.4343   -0.5293    1.0625 H   0  0  0  0  0  0  0  0  0  0  0  0
    2.8945    0.5021    2.4008 H   0  0  0  0  0  0  0  0  0  0  0  0
   -1.4359    2.0126   -1.4634 H   0  0  0  0  0  0  0  0  0  0  0  0
   -3.5908    0.7611   -1.3641 H   0  0  0  0  0  0  0  0  0  0  0  0
   -3.3849   -3.3898    0.0968 H   0  0  0  0  0  0  0  0  0  0  0  0
   -6.2767   -2.9115    0.5570 H   0  0  0  0  0  0  0  0  0  0  0  0
   -5.2283   -4.5317    2.1098 H   0  0  0  0  0  0  0  0  0  0  0  0
   -4.5708   -5.4483    0.7601 H   0  0  0  0  0  0  0  0  0  0  0  0
   -7.5236   -5.0796    1.4705 H   0  0  0  0  0  0  0  0  0  0  0  0
   -6.5662   -6.5437    1.6847 H   0  0  0  0  0  0  0  0  0  0  0  0
   -7.9799   -6.6631   -0.3610 H   0  0  0  0  0  0  0  0  0  0  0  0
   -6.2632   -6.7658   -0.7480 H   0  0  0  0  0  0  0  0  0  0  0  0
   -8.0383   -4.2856   -0.9799 H   0  0  0  0  0  0  0  0  0  0  0  0
   -7.3679   -5.2256   -2.3102 H   0  0  0  0  0  0  0  0  0  0  0  0
   -6.0791   -3.1230   -1.8893 H   0  0  0  0  0  0  0  0  0  0  0  0
   -5.0890   -4.5647   -1.7306 H   0  0  0  0  0  0  0  0  0  0  0  0
   -1.8047   -2.1467    1.3380 H   0  0  0  0  0  0  0  0  0  0  0  0
  1  2  1  0  0  0  0
  1 22  1  0  0  0  0
  1 23  1  0  0  0  0
  1 24  1  0  0  0  0
  2  3  1  0  0  0  0
  2 20  1  0  0  0  0
  3  4  2  0  0  0  0
  3  5  1  0  0  0  0
  5  6  2  0  0  0  0
  5 19  1  0  0  0  0
  6  7  1  0  0  0  0
  6 25  1  0  0  0  0
  7  8  2  0  0  0  0
  7 26  1  0  0  0  0
  8  9  1  0  0  0  0
  8 18  1  0  0  0  0
  9 10  2  0  0  0  0
  9 11  1  0  0  0  0
 11 12  1  0  0  0  0
 11 27  1  0  0  0  0
 12 13  1  0  0  0  0
 12 17  1  0  0  0  0
 12 28  1  0  0  0  0
 13 14  1  0  0  0  0
 13 29  1  0  0  0  0
 13 30  1  0  0  0  0
 14 15  1  0  0  0  0
 14 31  1  0  0  0  0
 14 32  1  0  0  0  0
 15 16  1  0  0  0  0
 15 33  1  0  0  0  0
 15 34  1  0  0  0  0
 16 17  1  0  0  0  0
 16 35  1  0  0  0  0
 16 36  1  0  0  0  0
 17 37  1  0  0  0  0
 17 38  1  0  0  0  0
 18 19  2  0  0  0  0
 18 39  1  0  0  0  0
 19 20  1  0  0  0  0
 20 21  2  0  0  0  0
M  END
$$$$
