
 OpenBabel09162610133D

 30 33  0  0  0  0  0  0  0  0999 V2000
    1.0869    0.0094    0.0486 N   0  0  0  0  0  0  0  0  0  0  0  0
    2.3478    0.0094    0.0486 C   0  0  0  0  0  0  0  0  0  0  0  0
    3.8678    0.0094    0.0486 C   0  0  0  0  0  0  0  0  0  0  0  0
    4.6278   -0.9726   -0.8281 C   0  0  0  0  0  0  0  0  0  0  0  0
    5.2583   -1.7872   -1.5554 N   0  0  0  0  0  0  0  0  0  0  0  0
    4.6180    0.8822    0.7547 C   0  0  0  0  0  0  0  0  0  0  0  0
    4.0734    2.0155    1.6275 C   0  0  0  0  0  0  0  0  0  0  0  0
    2.8786    2.2028    1.8005 O   0  0  0  0  0  0  0  0  0  0  0  0
    5.2592    2.7144    2.1147 C   0  0  0  0  0  0  0  0  0  0  0  0
    5.3839    3.8528    2.9321 C   0  0  0  0  0  0  0  0  0  0  0  0
    4.2677    4.5136    3.4490 C   0  0  0  0  0  0  0  0  0  0  0  0
    4.4446    5.6409    4.2555 C   0  0  0  0  0  0  0  0  0  0  0  0
    5.7262    6.1120    4.5451 C   0  0  0  0  0  0  0  0  0  0  0  0
    6.8449    5.4581    4.0317 C   0  0  0  0  0  0  0  0  0  0  0  0
    6.6996    4.3236    3.2242 C   0  0  0  0  0  0  0  0  0  0  0  0
    7.8369    3.6710    2.7204 C   0  0  0  0  0  0  0  0  0  0  0  0
    7.6983    2.5335    1.9245 C   0  0  0  0  0  0  0  0  0  0  0  0
    8.7658    1.8085    1.3865 C   0  0  0  0  0  0  0  0  0  0  0  0
    8.5098    0.6726    0.6135 C   0  0  0  0  0  0  0  0  0  0  0  0
    7.2035    0.2412    0.3397 C   0  0  0  0  0  0  0  0  0  0  0  0
    6.1420    0.9891    0.8561 C   0  0  0  0  0  0  0  0  0  0  0  0
    6.4208    2.0977    1.6492 C   0  0  0  0  0  0  0  0  0  0  0  0
    3.2550    4.1766    3.2451 H   0  0  0  0  0  0  0  0  0  0  0  0
    3.5767    6.1563    4.6616 H   0  0  0  0  0  0  0  0  0  0  0  0
    5.8531    6.9906    5.1728 H   0  0  0  0  0  0  0  0  0  0  0  0
    7.8334    5.8452    4.2722 H   0  0  0  0  0  0  0  0  0  0  0  0
    8.8314    4.0471    2.9518 H   0  0  0  0  0  0  0  0  0  0  0  0
    9.7941    2.1121    1.5671 H   0  0  0  0  0  0  0  0  0  0  0  0
    9.3476    0.1033    0.2115 H   0  0  0  0  0  0  0  0  0  0  0  0
    7.0775   -0.6576   -0.2517 H   0  0  0  0  0  0  0  0  0  0  0  0
  1  2  3  0  0  0  0
  2  3  1  0  0  0  0
  3  4  1  0  0  0  0
  3  6  2  0  0  0  0
  4  5  3  0  0  0  0
  6  7  1  0  0  0  0
  6 21  1  0  0  0  0
  7  8  2  0  0  0  0
  7  9  1  0  0  0  0
  9 10  1  0  0  0  0
  9 22  2  0  0  0  0
 10 11  2  0  0  0  0
 10 15  1  0  0  0  0
 11 12  1  0  0  0  0
 11 23  1  0  0  0  0
 12 13  2  0  0  0  0
 12 24  1  0  0  0  0
 13 14  1  0  0  0  0
 13 25  1  0  0  0  0
 14 15  2  0  0  0  0
 14 26  1  0  0  0  0
 15 16  1  0  0  0  0
 16 17  2  0  0  0  0
 16 27  1  0  0  0  0
 17 18  1  0  0  0  0
 17 22  1  0  0  0  0
 18 19  2  0  0  0  0
 18 28  1  0  0  0  0
 19 20  1  0  0  0  0
 19 29  1  0  0  0  0
 20 21  2  0  0  0  0
 20 30  1  0  0  0  0
 21 22  1  0  0  0  0
M  END
$$$$
