
 OpenBabel09162610133D

 41 44  0  0  0  0  0  0  0  0999 V2000
   -2.5051    0.5130   -0.0085 C   0  0  0  0  0  0  0  0  0  0  0  0
   -1.0547    0.2431    0.3849 C   0  0  0  0  0  0  0  0  0  0  0  0
   -0.5423   -1.0056   -0.3332 C   0  0  0  0  0  0  0  0  0  0  0  0
    0.9290   -1.2671   -0.0343 C   0  0  0  0  0  0  0  0  0  0  0  0
    1.7540   -0.0890   -0.3125 N   0  0  0  0  0  0  0  0  0  0  0  0
    2.9455   -0.0814   -1.0582 C   0  0  0  0  0  0  0  0  0  0  0  0
    3.4999    0.9814   -1.3494 O   0  0  0  0  0  0  0  0  0  0  0  0
    3.4926   -1.3475   -1.5209 C   0  0  0  0  0  0  0  0  0  0  0  0
    4.2287   -1.6597   -2.6517 C   0  0  0  0  0  0  0  0  0  0  0  0
    4.4032   -3.0759   -2.6626 C   0  0  0  0  0  0  0  0  0  0  0  0
    3.8226   -3.5206   -1.4833 C   0  0  0  0  0  0  0  0  0  0  0  0
    3.7216   -4.8521   -1.0973 C   0  0  0  0  0  0  0  0  0  0  0  0
    4.2438   -5.7988   -1.9805 C   0  0  0  0  0  0  0  0  0  0  0  0
    4.8630   -5.4212   -3.1827 C   0  0  0  0  0  0  0  0  0  0  0  0
    5.3891   -6.3829   -4.0562 C   0  0  0  0  0  0  0  0  0  0  0  0
    6.0095   -6.0028   -5.2484 C   0  0  0  0  0  0  0  0  0  0  0  0
    6.1109   -4.6555   -5.5902 C   0  0  0  0  0  0  0  0  0  0  0  0
    5.5885   -3.6769   -4.7442 C   0  0  0  0  0  0  0  0  0  0  0  0
    4.9623   -4.0473   -3.5380 C   0  0  0  0  0  0  0  0  0  0  0  0
    3.3404   -2.4770   -0.7652 O   0  0  0  0  0  0  0  0  0  0  0  0
    1.3165    1.1416    0.3426 C   0  0  0  0  0  0  0  0  0  0  0  0
   -0.1558    1.4428    0.0541 C   0  0  0  0  0  0  0  0  0  0  0  0
   -3.1362   -0.3517    0.2245 H   0  0  0  0  0  0  0  0  0  0  0  0
   -2.5948    0.7132   -1.0819 H   0  0  0  0  0  0  0  0  0  0  0  0
   -2.9024    1.3765    0.5334 H   0  0  0  0  0  0  0  0  0  0  0  0
   -1.0190    0.0640    1.4676 H   0  0  0  0  0  0  0  0  0  0  0  0
   -0.6659   -0.8842   -1.4177 H   0  0  0  0  0  0  0  0  0  0  0  0
   -1.1323   -1.8822   -0.0408 H   0  0  0  0  0  0  0  0  0  0  0  0
    1.2073   -2.1254   -0.6414 H   0  0  0  0  0  0  0  0  0  0  0  0
    1.0741   -1.5288    1.0204 H   0  0  0  0  0  0  0  0  0  0  0  0
    4.5332   -0.9511   -3.4095 H   0  0  0  0  0  0  0  0  0  0  0  0
    3.2394   -5.1347   -0.1694 H   0  0  0  0  0  0  0  0  0  0  0  0
    4.1597   -6.8517   -1.7169 H   0  0  0  0  0  0  0  0  0  0  0  0
    5.3212   -7.4417   -3.8141 H   0  0  0  0  0  0  0  0  0  0  0  0
    6.4152   -6.7633   -5.9112 H   0  0  0  0  0  0  0  0  0  0  0  0
    6.5976   -4.3672   -6.5183 H   0  0  0  0  0  0  0  0  0  0  0  0
    5.6735   -2.6316   -5.0290 H   0  0  0  0  0  0  0  0  0  0  0  0
    1.9283    1.9967    0.0375 H   0  0  0  0  0  0  0  0  0  0  0  0
    1.4681    1.0046    1.4187 H   0  0  0  0  0  0  0  0  0  0  0  0
   -0.2669    1.7047   -1.0061 H   0  0  0  0  0  0  0  0  0  0  0  0
   -0.4708    2.3168    0.6365 H   0  0  0  0  0  0  0  0  0  0  0  0
  1  2  1  0  0  0  0
  1 23  1  0  0  0  0
  1 24  1  0  0  0  0
  1 25  1  0  0  0  0
  2  3  1  0  0  0  0
  2 22  1  0  0  0  0
  2 26  1  0  0  0  0
  3  4  1  0  0  0  0
  3 27  1  0  0  0  0
  3 28  1  0  0  0  0
  4  5  1  0  0  0  0
  4 29  1  0  0  0  0
  4 30  1  0  0  0  0
  5  6  1  0  0  0  0
  5 21  1  0  0  0  0
  6  7  2  0  0  0  0
  6  8  1  0  0  0  0
  8  9  2  0  0  0  0
  8 20  1  0  0  0  0
  9 10  1  0  0  0  0
  9 31  1  0  0  0  0
 10 11  2  0  0  0  0
 10 19  1  0  0  0  0
 11 12  1  0  0  0  0
 11 20  1  0  0  0  0
 12 13  2  0  0  0  0
 12 32  1  0  0  0  0
 13 14  1  0  0  0  0
 13 33  1  0  0  0  0
 14 15  1  0  0  0  0
 14 19  2  0  0  0  0
 15 16  2  0  0  0  0
 15 34  1  0  0  0  0
 16 17  1  0  0  0  0
 16 35  1  0  0  0  0
 17 18  2  0  0  0  0
 17 36  1  0  0  0  0
 18 19  1  0  0  0  0
 18 37  1  0  0  0  0
 21 22  1  0  0  0  0
 21 38  1  0  0  0  0
 21 39  1  0  0  0  0
 22 40  1  0  0  0  0
 22 41  1  0  0  0  0
M  END
$$$$
