
 OpenBabel09162610133D

 37 40  0  0  0  0  0  0  0  0999 V2000
    0.9094   -0.0417    0.1008 C   0  0  0  0  0  0  0  0  0  0  0  0
    2.3562   -0.0492    0.0868 N   0  0  0  0  0  0  0  0  0  0  0  0
    3.1770    1.0699    0.0835 C   0  0  0  0  0  0  0  0  0  0  0  0
    2.8791    2.4429    0.1055 C   0  0  0  0  0  0  0  0  0  0  0  0
    3.9421    3.3518    0.0959 C   0  0  0  0  0  0  0  0  0  0  0  0
    5.2623    2.9123    0.0661 C   0  0  0  0  0  0  0  0  0  0  0  0
    5.5555    1.5457    0.0417 C   0  0  0  0  0  0  0  0  0  0  0  0
    4.5026    0.6088    0.0492 C   0  0  0  0  0  0  0  0  0  0  0  0
    4.4290   -0.7997    0.0282 C   0  0  0  0  0  0  0  0  0  0  0  0
    5.4931   -1.7038   -0.0208 N   0  0  0  0  0  0  0  0  0  0  0  0
    5.1115   -2.9430   -0.0116 C   0  0  0  0  0  0  0  0  0  0  0  0
    3.8131   -3.4284    0.0349 N   0  0  0  0  0  0  0  0  0  0  0  0
    3.5737   -4.8616    0.0757 C   0  0  0  0  0  0  0  0  0  0  0  0
    3.5673   -5.3894    1.4953 C   0  0  0  0  0  0  0  0  0  0  0  0
    2.3819   -5.3764    2.2500 C   0  0  0  0  0  0  0  0  0  0  0  0
    2.3841   -5.7985    3.5804 C   0  0  0  0  0  0  0  0  0  0  0  0
    3.5695   -6.2338    4.1585 C   0  0  0  0  0  0  0  0  0  0  0  0
    3.5760   -6.6208    5.4408 F   0  0  0  0  0  0  0  0  0  0  0  0
    4.7505   -6.2679    3.4274 C   0  0  0  0  0  0  0  0  0  0  0  0
    4.7518   -5.8464    2.0962 C   0  0  0  0  0  0  0  0  0  0  0  0
    2.7236   -2.5643    0.0726 C   0  0  0  0  0  0  0  0  0  0  0  0
    1.5551   -2.9371    0.1054 O   0  0  0  0  0  0  0  0  0  0  0  0
    3.1213   -1.1894    0.0651 C   0  0  0  0  0  0  0  0  0  0  0  0
    0.5313    0.9813    0.0983 H   0  0  0  0  0  0  0  0  0  0  0  0
    0.5705   -0.5517    1.0062 H   0  0  0  0  0  0  0  0  0  0  0  0
    0.5547   -0.5589   -0.7946 H   0  0  0  0  0  0  0  0  0  0  0  0
    1.8571    2.8062    0.1298 H   0  0  0  0  0  0  0  0  0  0  0  0
    3.7320    4.4189    0.1128 H   0  0  0  0  0  0  0  0  0  0  0  0
    6.0738    3.6361    0.0614 H   0  0  0  0  0  0  0  0  0  0  0  0
    6.5858    1.2026    0.0185 H   0  0  0  0  0  0  0  0  0  0  0  0
    5.8801   -3.7326   -0.0504 H   0  0  0  0  0  0  0  0  0  0  0  0
    4.3544   -5.3739   -0.5004 H   0  0  0  0  0  0  0  0  0  0  0  0
    2.6204   -5.1000   -0.4114 H   0  0  0  0  0  0  0  0  0  0  0  0
    1.4504   -5.0237    1.8087 H   0  0  0  0  0  0  0  0  0  0  0  0
    1.4731   -5.7795    4.1699 H   0  0  0  0  0  0  0  0  0  0  0  0
    5.6638   -6.6130    3.9020 H   0  0  0  0  0  0  0  0  0  0  0  0
    5.6850   -5.8702    1.5382 H   0  0  0  0  0  0  0  0  0  0  0  0
  1  2  1  0  0  0  0
  1 24  1  0  0  0  0
  1 25  1  0  0  0  0
  1 26  1  0  0  0  0
  2  3  1  0  0  0  0
  2 23  1  0  0  0  0
  3  4  2  0  0  0  0
  3  8  1  0  0  0  0
  4  5  1  0  0  0  0
  4 27  1  0  0  0  0
  5  6  2  0  0  0  0
  5 28  1  0  0  0  0
  6  7  1  0  0  0  0
  6 29  1  0  0  0  0
  7  8  2  0  0  0  0
  7 30  1  0  0  0  0
  8  9  1  0  0  0  0
  9 10  1  0  0  0  0
  9 23  2  0  0  0  0
 10 11  2  0  0  0  0
 11 12  1  0  0  0  0
 11 31  1  0  0  0  0
 12 13  1  0  0  0  0
 12 21  1  0  0  0  0
 13 14  1  0  0  0  0
 13 32  1  0  0  0  0
 13 33  1  0  0  0  0
 14 15  2  0  0  0  0
 14 20  1  0  0  0  0
 15 16  1  0  0  0  0
 15 34  1  0  0  0  0
 16 17  2  0  0  0  0
 16 35  1  0  0  0  0
 17 18  1  0  0  0  0
 17 19  1  0  0  0  0
 19 20  2  0  0  0  0
 19 36  1  0  0  0  0
 20 37  1  0  0  0  0
 21 22  2  0  0  0  0
 21 23  1  0  0  0  0
M  END
$$$$
