
 OpenBabel09162610133D

 33 34  0  0  0  0  0  0  0  0999 V2000
    1.2460   -0.4260   -0.4524 C   0  0  0  0  0  0  0  0  0  0  0  0
    2.5066    0.0636   -0.0097 O   0  0  0  0  0  0  0  0  0  0  0  0
    3.1425   -0.6570    0.9620 C   0  0  0  0  0  0  0  0  0  0  0  0
    2.6581   -1.8138    1.5637 C   0  0  0  0  0  0  0  0  0  0  0  0
    3.3945   -2.4488    2.5692 C   0  0  0  0  0  0  0  0  0  0  0  0
    4.6380   -1.9505    2.9771 C   0  0  0  0  0  0  0  0  0  0  0  0
    5.3620   -2.4973    4.0035 O   0  0  0  0  0  0  0  0  0  0  0  0
    4.7944   -3.5872    4.7218 C   0  0  0  0  0  0  0  0  0  0  0  0
    5.1629   -0.8179    2.3223 C   0  0  0  0  0  0  0  0  0  0  0  0
    6.5213   -0.2430    2.5743 C   0  0  0  0  0  0  0  0  0  0  0  0
    6.7260    0.9585    2.4427 O   0  0  0  0  0  0  0  0  0  0  0  0
    7.6260   -1.1867    2.9049 C   0  0  0  0  0  0  0  0  0  0  0  0
    8.8836   -0.7682    3.1280 C   0  0  0  0  0  0  0  0  0  0  0  0
    9.9393   -1.6390    3.5547 C   0  0  0  0  0  0  0  0  0  0  0  0
    9.7735   -2.7988    4.3768 C   0  0  0  0  0  0  0  0  0  0  0  0
   10.9708   -3.4148    4.6659 C   0  0  0  0  0  0  0  0  0  0  0  0
   12.2926   -2.6160    3.9330 S   0  0  0  0  0  0  0  0  0  0  0  0
   11.2659   -1.4265    3.2446 C   0  0  0  0  0  0  0  0  0  0  0  0
    4.3901   -0.1625    1.3468 C   0  0  0  0  0  0  0  0  0  0  0  0
    0.8885    0.2353   -1.2471 H   0  0  0  0  0  0  0  0  0  0  0  0
    0.5090   -0.4052    0.3577 H   0  0  0  0  0  0  0  0  0  0  0  0
    1.3391   -1.4322   -0.8750 H   0  0  0  0  0  0  0  0  0  0  0  0
    1.7033   -2.2479    1.2846 H   0  0  0  0  0  0  0  0  0  0  0  0
    2.9585   -3.3375    3.0146 H   0  0  0  0  0  0  0  0  0  0  0  0
    5.5200   -3.9039    5.4771 H   0  0  0  0  0  0  0  0  0  0  0  0
    4.6106   -4.4442    4.0655 H   0  0  0  0  0  0  0  0  0  0  0  0
    3.8809   -3.2800    5.2413 H   0  0  0  0  0  0  0  0  0  0  0  0
    7.3920   -2.2397    2.9611 H   0  0  0  0  0  0  0  0  0  0  0  0
    9.1219    0.2869    2.9991 H   0  0  0  0  0  0  0  0  0  0  0  0
    8.8258   -3.1545    4.7629 H   0  0  0  0  0  0  0  0  0  0  0  0
   11.1306   -4.2927    5.2771 H   0  0  0  0  0  0  0  0  0  0  0  0
   11.6984   -0.6390    2.6429 H   0  0  0  0  0  0  0  0  0  0  0  0
    4.7712    0.7392    0.8686 H   0  0  0  0  0  0  0  0  0  0  0  0
  1  2  1  0  0  0  0
  1 20  1  0  0  0  0
  1 21  1  0  0  0  0
  1 22  1  0  0  0  0
  2  3  1  0  0  0  0
  3  4  2  0  0  0  0
  3 19  1  0  0  0  0
  4  5  1  0  0  0  0
  4 23  1  0  0  0  0
  5  6  2  0  0  0  0
  5 24  1  0  0  0  0
  6  7  1  0  0  0  0
  6  9  1  0  0  0  0
  7  8  1  0  0  0  0
  8 25  1  0  0  0  0
  8 26  1  0  0  0  0
  8 27  1  0  0  0  0
  9 10  1  0  0  0  0
  9 19  2  0  0  0  0
 10 11  2  0  0  0  0
 10 12  1  0  0  0  0
 12 13  2  0  0  0  0
 12 28  1  0  0  0  0
 13 14  1  0  0  0  0
 13 29  1  0  0  0  0
 14 15  1  0  0  0  0
 14 18  2  0  0  0  0
 15 16  2  0  0  0  0
 15 30  1  0  0  0  0
 16 17  1  0  0  0  0
 16 31  1  0  0  0  0
 17 18  1  0  0  0  0
 18 32  1  0  0  0  0
 19 33  1  0  0  0  0
M  END
$$$$
