
 OpenBabel09162610133D

 25 26  0  0  0  0  0  0  0  0999 V2000
   -1.5628   -0.1251   -0.4027 Br  0  0  0  0  0  0  0  0  0  0  0  0
    0.3225   -0.1028   -0.2734 C   0  0  0  0  0  0  0  0  0  0  0  0
    0.9841   -1.1248    0.4028 C   0  0  0  0  0  0  0  0  0  0  0  0
    2.3805   -1.0998    0.5157 C   0  0  0  0  0  0  0  0  0  0  0  0
    3.1216   -0.0582   -0.0531 C   0  0  0  0  0  0  0  0  0  0  0  0
    4.8941    0.1116    0.1067 S   0  0  0  0  0  0  0  0  0  0  0  0
    5.4778   -1.6172    0.0938 C   0  0  0  0  0  0  0  0  0  0  0  0
    6.9847   -1.6809    0.1673 C   0  0  0  0  0  0  0  0  0  0  0  0
    7.6410   -1.6693    1.4024 C   0  0  0  0  0  0  0  0  0  0  0  0
    9.0263   -1.7189    1.4254 C   0  0  0  0  0  0  0  0  0  0  0  0
    9.7934   -1.7762    0.3166 N   0  0  0  0  0  0  0  0  0  0  0  0
    9.1449   -1.7704   -0.8676 C   0  0  0  0  0  0  0  0  0  0  0  0
    7.7641   -1.7227   -0.9935 C   0  0  0  0  0  0  0  0  0  0  0  0
    2.4370    0.9638   -0.7268 C   0  0  0  0  0  0  0  0  0  0  0  0
    1.0431    0.9429   -0.8411 C   0  0  0  0  0  0  0  0  0  0  0  0
    0.4239   -1.9367    0.8598 H   0  0  0  0  0  0  0  0  0  0  0  0
    2.8595   -1.8933    1.0795 H   0  0  0  0  0  0  0  0  0  0  0  0
    5.1258   -2.1190   -0.8145 H   0  0  0  0  0  0  0  0  0  0  0  0
    5.0638   -2.1613    0.9490 H   0  0  0  0  0  0  0  0  0  0  0  0
    7.0878   -1.6157    2.3349 H   0  0  0  0  0  0  0  0  0  0  0  0
    9.5713   -1.7109    2.3654 H   0  0  0  0  0  0  0  0  0  0  0  0
    9.7861   -1.8050   -1.7434 H   0  0  0  0  0  0  0  0  0  0  0  0
    7.3122   -1.7127   -1.9805 H   0  0  0  0  0  0  0  0  0  0  0  0
    2.9849    1.7970   -1.1631 H   0  0  0  0  0  0  0  0  0  0  0  0
    0.5359    1.7505   -1.3624 H   0  0  0  0  0  0  0  0  0  0  0  0
  1  2  1  0  0  0  0
  2  3  2  0  0  0  0
  2 15  1  0  0  0  0
  3  4  1  0  0  0  0
  3 16  1  0  0  0  0
  4  5  2  0  0  0  0
  4 17  1  0  0  0  0
  5  6  1  0  0  0  0
  5 14  1  0  0  0  0
  6  7  1  0  0  0  0
  7  8  1  0  0  0  0
  7 18  1  0  0  0  0
  7 19  1  0  0  0  0
  8  9  2  0  0  0  0
  8 13  1  0  0  0  0
  9 10  1  0  0  0  0
  9 20  1  0  0  0  0
 10 11  2  0  0  0  0
 10 21  1  0  0  0  0
 11 12  1  0  0  0  0
 12 13  2  0  0  0  0
 12 22  1  0  0  0  0
 13 23  1  0  0  0  0
 14 15  2  0  0  0  0
 14 24  1  0  0  0  0
 15 25  1  0  0  0  0
M  END
$$$$
