
 OpenBabel09162610133D

 29 30  0  0  0  0  0  0  0  0999 V2000
    1.1235    0.2130   -0.1876 C   0  0  0  0  0  0  0  0  0  0  0  0
    2.6156    0.0963   -0.1042 C   0  0  0  0  0  0  0  0  0  0  0  0
    3.2256   -1.1382   -0.0886 C   0  0  0  0  0  0  0  0  0  0  0  0
    4.5940   -1.1118   -0.0495 C   0  0  0  0  0  0  0  0  0  0  0  0
    5.3272   -2.2615   -0.0244 O   0  0  0  0  0  0  0  0  0  0  0  0
    5.3200    0.0051   -0.0368 N   0  0  0  0  0  0  0  0  0  0  0  0
    4.6587    1.1668   -0.0437 C   0  0  0  0  0  0  0  0  0  0  0  0
    5.3529    2.3727    0.0177 N   0  0  0  0  0  0  0  0  0  0  0  0
    6.7128    2.6555   -0.1565 C   0  0  0  0  0  0  0  0  0  0  0  0
    7.2658    3.7829    0.4634 C   0  0  0  0  0  0  0  0  0  0  0  0
    8.6367    4.0475    0.3891 C   0  0  0  0  0  0  0  0  0  0  0  0
    9.4784    3.1899   -0.3176 C   0  0  0  0  0  0  0  0  0  0  0  0
    8.9550    2.0598   -0.9550 C   0  0  0  0  0  0  0  0  0  0  0  0
    9.8285    1.1179   -1.7429 C   0  0  0  0  0  0  0  0  0  0  0  0
   11.1288    1.5221   -1.8212 F   0  0  0  0  0  0  0  0  0  0  0  0
    9.8639   -0.1385   -1.2198 F   0  0  0  0  0  0  0  0  0  0  0  0
    9.4124    0.9749   -3.0334 F   0  0  0  0  0  0  0  0  0  0  0  0
    7.5779    1.8009   -0.8519 C   0  0  0  0  0  0  0  0  0  0  0  0
    3.3167    1.2520   -0.0656 N   0  0  0  0  0  0  0  0  0  0  0  0
    0.6400   -0.7696   -0.1748 H   0  0  0  0  0  0  0  0  0  0  0  0
    0.8432    0.7167   -1.1182 H   0  0  0  0  0  0  0  0  0  0  0  0
    0.7436    0.7902    0.6602 H   0  0  0  0  0  0  0  0  0  0  0  0
    2.6613   -2.0585   -0.1116 H   0  0  0  0  0  0  0  0  0  0  0  0
    4.7220   -3.0148    0.0284 H   0  0  0  0  0  0  0  0  0  0  0  0
    4.7237    3.1466    0.1649 H   0  0  0  0  0  0  0  0  0  0  0  0
    6.6333    4.4542    1.0391 H   0  0  0  0  0  0  0  0  0  0  0  0
    9.0483    4.9177    0.8941 H   0  0  0  0  0  0  0  0  0  0  0  0
   10.5447    3.4045   -0.3651 H   0  0  0  0  0  0  0  0  0  0  0  0
    7.1817    0.9148   -1.3468 H   0  0  0  0  0  0  0  0  0  0  0  0
  1  2  1  0  0  0  0
  1 20  1  0  0  0  0
  1 21  1  0  0  0  0
  1 22  1  0  0  0  0
  2  3  2  0  0  0  0
  2 19  1  0  0  0  0
  3  4  1  0  0  0  0
  3 23  1  0  0  0  0
  4  5  1  0  0  0  0
  4  6  2  0  0  0  0
  5 24  1  0  0  0  0
  6  7  1  0  0  0  0
  7  8  1  0  0  0  0
  7 19  2  0  0  0  0
  8  9  1  0  0  0  0
  8 25  1  0  0  0  0
  9 10  2  0  0  0  0
  9 18  1  0  0  0  0
 10 11  1  0  0  0  0
 10 26  1  0  0  0  0
 11 12  2  0  0  0  0
 11 27  1  0  0  0  0
 12 13  1  0  0  0  0
 12 28  1  0  0  0  0
 13 14  1  0  0  0  0
 13 18  2  0  0  0  0
 14 15  1  0  0  0  0
 14 16  1  0  0  0  0
 14 17  1  0  0  0  0
 18 29  1  0  0  0  0
M  END
$$$$
