
 OpenBabel09162610133D

 33 35  0  0  1  0  0  0  0  0999 V2000
    1.0832   -0.0359    0.0423 N   0  0  0  0  0  0  0  0  0  0  0  0
    2.3442   -0.0359    0.0423 C   0  0  0  0  0  0  0  0  0  0  0  0
    3.8642   -0.0359    0.0423 C   0  0  0  0  0  0  0  0  0  0  0  0
    4.6049   -1.1543   -0.0456 C   0  0  0  0  0  0  0  0  0  0  0  0
    4.1046   -2.4305   -0.1453 N   0  0  0  0  0  0  0  0  0  0  0  0
    5.9993   -1.1113   -0.0286 O   0  0  0  0  0  0  0  0  0  0  0  0
    6.6539    0.0997   -0.0260 C   0  0  0  0  0  0  0  0  0  0  0  0
    8.0510    0.0702   -0.0724 C   0  0  0  0  0  0  0  0  0  0  0  0
    8.7933    1.2555   -0.0425 C   0  0  0  0  0  0  0  0  0  0  0  0
   10.1847    1.2292   -0.1937 N   0  0  0  0  0  0  0  0  0  0  0  0
    8.1134    2.4734   -0.0894 C   0  0  0  0  0  0  0  0  0  0  0  0
    6.7204    2.5104   -0.0404 C   0  0  0  0  0  0  0  0  0  0  0  0
    5.9818    1.3192    0.0190 C   0  0  0  0  0  0  0  0  0  0  0  0
    4.4783    1.3437    0.1402 C   0  0  2  0  0  0  0  0  0  0  0  0
    4.0296    2.0728    1.4104 C   0  0  0  0  0  0  0  0  0  0  0  0
    3.2229    3.2198    1.3168 C   0  0  0  0  0  0  0  0  0  0  0  0
    2.8157    3.8954    2.4693 C   0  0  0  0  0  0  0  0  0  0  0  0
    3.2084    3.4297    3.7219 C   0  0  0  0  0  0  0  0  0  0  0  0
    2.7152    4.2692    5.1398 Cl  0  0  0  0  0  0  0  0  0  0  0  0
    4.0020    2.2902    3.8337 C   0  0  0  0  0  0  0  0  0  0  0  0
    4.4105    1.6130    2.6838 C   0  0  0  0  0  0  0  0  0  0  0  0
    3.1626   -2.5688    0.2108 H   0  0  0  0  0  0  0  0  0  0  0  0
    4.7669   -3.1306    0.1797 H   0  0  0  0  0  0  0  0  0  0  0  0
    8.5597   -0.8881   -0.1263 H   0  0  0  0  0  0  0  0  0  0  0  0
   10.6205    0.3860    0.1665 H   0  0  0  0  0  0  0  0  0  0  0  0
   10.6475    2.0698    0.1399 H   0  0  0  0  0  0  0  0  0  0  0  0
    8.6638    3.4094   -0.1515 H   0  0  0  0  0  0  0  0  0  0  0  0
    6.2167    3.4753   -0.0400 H   0  0  0  0  0  0  0  0  0  0  0  0
    4.1180    1.9065   -0.7346 H   0  0  0  0  0  0  0  0  0  0  0  0
    2.9028    3.5971    0.3472 H   0  0  0  0  0  0  0  0  0  0  0  0
    2.1928    4.7820    2.3831 H   0  0  0  0  0  0  0  0  0  0  0  0
    4.3074    1.9262    4.8108 H   0  0  0  0  0  0  0  0  0  0  0  0
    5.0357    0.7278    2.7890 H   0  0  0  0  0  0  0  0  0  0  0  0
  1  2  3  0  0  0  0
  2  3  1  0  0  0  0
  3  4  2  0  0  0  0
  3 14  1  0  0  0  0
  4  5  1  0  0  0  0
  4  6  1  0  0  0  0
  5 22  1  0  0  0  0
  5 23  1  0  0  0  0
  6  7  1  0  0  0  0
  7  8  1  0  0  0  0
  7 13  2  0  0  0  0
  8  9  2  0  0  0  0
  8 24  1  0  0  0  0
  9 10  1  0  0  0  0
  9 11  1  0  0  0  0
 10 25  1  0  0  0  0
 10 26  1  0  0  0  0
 11 12  2  0  0  0  0
 11 27  1  0  0  0  0
 12 13  1  0  0  0  0
 12 28  1  0  0  0  0
 13 14  1  0  0  0  0
 14 15  1  0  0  0  0
 14 29  1  6  0  0  0
 15 16  2  0  0  0  0
 15 21  1  0  0  0  0
 16 17  1  0  0  0  0
 16 30  1  0  0  0  0
 17 18  2  0  0  0  0
 17 31  1  0  0  0  0
 18 19  1  0  0  0  0
 18 20  1  0  0  0  0
 20 21  2  0  0  0  0
 20 32  1  0  0  0  0
 21 33  1  0  0  0  0
M  END
$$$$
