
 OpenBabel09162610133D

 28 29  0  0  0  0  0  0  0  0999 V2000
    1.0927    0.2761   -0.4028 O   0  0  0  0  0  0  0  0  0  0  0  0
    2.2523   -0.0051   -0.1300 C   0  0  0  0  0  0  0  0  0  0  0  0
    3.0529    0.7779    0.8456 C   0  0  0  0  0  0  0  0  0  0  0  0
    2.4459    1.5417    1.7665 C   0  0  0  0  0  0  0  0  0  0  0  0
    3.1713    2.3169    2.7963 C   0  0  0  0  0  0  0  0  0  0  0  0
    4.3749    1.8422    3.3488 C   0  0  0  0  0  0  0  0  0  0  0  0
    4.9073    0.6794    2.9380 F   0  0  0  0  0  0  0  0  0  0  0  0
    5.0618    2.5362    4.3443 C   0  0  0  0  0  0  0  0  0  0  0  0
    4.5478    3.7295    4.8353 C   0  0  0  0  0  0  0  0  0  0  0  0
    3.3492    4.2214    4.3212 C   0  0  0  0  0  0  0  0  0  0  0  0
    2.6650    3.5238    3.3138 C   0  0  0  0  0  0  0  0  0  0  0  0
    1.1940    4.2354    2.7381 Cl  0  0  0  0  0  0  0  0  0  0  0  0
    2.9366   -1.1406   -0.8026 C   0  0  0  0  0  0  0  0  0  0  0  0
    2.5716   -1.4507   -2.1193 C   0  0  0  0  0  0  0  0  0  0  0  0
    3.1819   -2.5184   -2.7796 C   0  0  0  0  0  0  0  0  0  0  0  0
    4.1415   -3.2763   -2.1175 C   0  0  0  0  0  0  0  0  0  0  0  0
    4.7216   -4.3042   -2.7502 F   0  0  0  0  0  0  0  0  0  0  0  0
    4.5038   -2.9897   -0.8056 C   0  0  0  0  0  0  0  0  0  0  0  0
    3.8997   -1.9202   -0.1412 C   0  0  0  0  0  0  0  0  0  0  0  0
    4.1302    0.6948    0.7783 H   0  0  0  0  0  0  0  0  0  0  0  0
    1.3587    1.6038    1.7818 H   0  0  0  0  0  0  0  0  0  0  0  0
    5.9915    2.1296    4.7316 H   0  0  0  0  0  0  0  0  0  0  0  0
    5.0737    4.2716    5.6167 H   0  0  0  0  0  0  0  0  0  0  0  0
    2.9473    5.1551    4.7101 H   0  0  0  0  0  0  0  0  0  0  0  0
    1.8142   -0.8594   -2.6303 H   0  0  0  0  0  0  0  0  0  0  0  0
    2.9111   -2.7653   -3.8014 H   0  0  0  0  0  0  0  0  0  0  0  0
    5.2461   -3.6060   -0.3072 H   0  0  0  0  0  0  0  0  0  0  0  0
    4.1727   -1.7243    0.8928 H   0  0  0  0  0  0  0  0  0  0  0  0
  1  2  2  0  0  0  0
  2  3  1  0  0  0  0
  2 13  1  0  0  0  0
  3  4  2  0  0  0  0
  3 20  1  0  0  0  0
  4  5  1  0  0  0  0
  4 21  1  0  0  0  0
  5  6  2  0  0  0  0
  5 11  1  0  0  0  0
  6  7  1  0  0  0  0
  6  8  1  0  0  0  0
  8  9  2  0  0  0  0
  8 22  1  0  0  0  0
  9 10  1  0  0  0  0
  9 23  1  0  0  0  0
 10 11  2  0  0  0  0
 10 24  1  0  0  0  0
 11 12  1  0  0  0  0
 13 14  2  0  0  0  0
 13 19  1  0  0  0  0
 14 15  1  0  0  0  0
 14 25  1  0  0  0  0
 15 16  2  0  0  0  0
 15 26  1  0  0  0  0
 16 17  1  0  0  0  0
 16 18  1  0  0  0  0
 18 19  2  0  0  0  0
 18 27  1  0  0  0  0
 19 28  1  0  0  0  0
M  END
$$$$
