
 OpenBabel09162610133D

 45 48  0  0  0  0  0  0  0  0999 V2000
    3.5487    0.2754   -0.9634 C   0  0  0  0  0  0  0  0  0  0  0  0
    2.4292    0.0230    0.0389 C   0  0  0  0  0  0  0  0  0  0  0  0
    2.8536   -0.8599    1.1258 N   0  0  0  0  0  0  0  0  0  0  0  0
    2.7284   -2.2147    0.9247 C   0  0  0  0  0  0  0  0  0  0  0  0
    2.3451   -2.7174   -0.1285 O   0  0  0  0  0  0  0  0  0  0  0  0
    3.0566   -3.0757    2.0552 C   0  0  0  0  0  0  0  0  0  0  0  0
    2.7896   -4.4208    1.9189 C   0  0  0  0  0  0  0  0  0  0  0  0
    3.0363   -5.3273    2.8737 N   0  0  0  0  0  0  0  0  0  0  0  0
    3.5401   -4.9224    4.0424 C   0  0  0  0  0  0  0  0  0  0  0  0
    3.7612   -5.9289    4.9962 C   0  0  0  0  0  0  0  0  0  0  0  0
    3.4369   -7.3807    4.7236 C   0  0  0  0  0  0  0  0  0  0  0  0
    4.2839   -5.6345    6.2579 C   0  0  0  0  0  0  0  0  0  0  0  0
    4.5195   -4.3251    6.6001 C   0  0  0  0  0  0  0  0  0  0  0  0
    4.2613   -3.3159    5.6685 C   0  0  0  0  0  0  0  0  0  0  0  0
    3.8249   -3.5502    4.3245 C   0  0  0  0  0  0  0  0  0  0  0  0
    3.6060   -2.5821    3.2406 C   0  0  0  0  0  0  0  0  0  0  0  0
    3.9148   -1.1502    3.2469 N   0  0  0  0  0  0  0  0  0  0  0  0
    4.6119   -0.5273    4.3751 C   0  0  0  0  0  0  0  0  0  0  0  0
    3.6566    0.1120    5.3880 C   0  0  0  0  0  0  0  0  0  0  0  0
    4.5440    0.9618    6.2922 C   0  0  0  0  0  0  0  0  0  0  0  0
    5.8803    1.1123    5.5634 C   0  0  0  0  0  0  0  0  0  0  0  0
    5.6354    0.6012    4.1425 C   0  0  0  0  0  0  0  0  0  0  0  0
    3.4327   -0.2897    2.2450 C   0  0  0  0  0  0  0  0  0  0  0  0
    3.5134    0.9374    2.3290 O   0  0  0  0  0  0  0  0  0  0  0  0
    3.1915    0.9169   -1.7755 H   0  0  0  0  0  0  0  0  0  0  0  0
    3.9071   -0.6610   -1.4025 H   0  0  0  0  0  0  0  0  0  0  0  0
    4.4017    0.7700   -0.4879 H   0  0  0  0  0  0  0  0  0  0  0  0
    1.5743   -0.4246   -0.4803 H   0  0  0  0  0  0  0  0  0  0  0  0
    2.0846    0.9799    0.4466 H   0  0  0  0  0  0  0  0  0  0  0  0
    2.3549   -4.8321    1.0095 H   0  0  0  0  0  0  0  0  0  0  0  0
    2.9872   -7.5520    3.7420 H   0  0  0  0  0  0  0  0  0  0  0  0
    2.7214   -7.7426    5.4724 H   0  0  0  0  0  0  0  0  0  0  0  0
    4.3480   -7.9849    4.7826 H   0  0  0  0  0  0  0  0  0  0  0  0
    4.4732   -6.4263    6.9787 H   0  0  0  0  0  0  0  0  0  0  0  0
    4.8857   -4.0741    7.5923 H   0  0  0  0  0  0  0  0  0  0  0  0
    4.3955   -2.3268    6.0767 H   0  0  0  0  0  0  0  0  0  0  0  0
    5.2584   -1.2865    4.8110 H   0  0  0  0  0  0  0  0  0  0  0  0
    3.0707   -0.6172    5.9547 H   0  0  0  0  0  0  0  0  0  0  0  0
    2.9289    0.7595    4.8838 H   0  0  0  0  0  0  0  0  0  0  0  0
    4.6916    0.4773    7.2638 H   0  0  0  0  0  0  0  0  0  0  0  0
    4.0776    1.9350    6.4787 H   0  0  0  0  0  0  0  0  0  0  0  0
    6.6385    0.4940    6.0589 H   0  0  0  0  0  0  0  0  0  0  0  0
    6.2382    2.1462    5.5747 H   0  0  0  0  0  0  0  0  0  0  0  0
    6.5547    0.2352    3.6745 H   0  0  0  0  0  0  0  0  0  0  0  0
    5.2703    1.4357    3.5427 H   0  0  0  0  0  0  0  0  0  0  0  0
  1  2  1  0  0  0  0
  1 25  1  0  0  0  0
  1 26  1  0  0  0  0
  1 27  1  0  0  0  0
  2  3  1  0  0  0  0
  2 28  1  0  0  0  0
  2 29  1  0  0  0  0
  3  4  1  0  0  0  0
  3 23  1  0  0  0  0
  4  5  2  0  0  0  0
  4  6  1  0  0  0  0
  6  7  2  0  0  0  0
  6 16  1  0  0  0  0
  7  8  1  0  0  0  0
  7 30  1  0  0  0  0
  8  9  2  0  0  0  0
  9 10  1  0  0  0  0
  9 15  1  0  0  0  0
 10 11  1  0  0  0  0
 10 12  2  0  0  0  0
 11 31  1  0  0  0  0
 11 32  1  0  0  0  0
 11 33  1  0  0  0  0
 12 13  1  0  0  0  0
 12 34  1  0  0  0  0
 13 14  2  0  0  0  0
 13 35  1  0  0  0  0
 14 15  1  0  0  0  0
 14 36  1  0  0  0  0
 15 16  2  0  0  0  0
 16 17  1  0  0  0  0
 17 18  1  0  0  0  0
 17 23  1  0  0  0  0
 18 19  1  0  0  0  0
 18 22  1  0  0  0  0
 18 37  1  0  0  0  0
 19 20  1  0  0  0  0
 19 38  1  0  0  0  0
 19 39  1  0  0  0  0
 20 21  1  0  0  0  0
 20 40  1  0  0  0  0
 20 41  1  0  0  0  0
 21 22  1  0  0  0  0
 21 42  1  0  0  0  0
 21 43  1  0  0  0  0
 22 44  1  0  0  0  0
 22 45  1  0  0  0  0
 23 24  2  0  0  0  0
M  END
$$$$
