
 OpenBabel09162610133D

 32 35  0  0  0  0  0  0  0  0999 V2000
    1.1543    0.0364   -0.2985 N   0  0  0  0  0  0  0  0  0  0  0  0
    2.4331    0.3701    0.0275 C   0  0  0  0  0  0  0  0  0  0  0  0
    3.0030    1.2487   -0.6139 O   0  0  0  0  0  0  0  0  0  0  0  0
    3.0398   -0.3312    1.1621 C   0  0  0  0  0  0  0  0  0  0  0  0
    2.7207   -1.5923    1.7696 C   0  0  0  0  0  0  0  0  0  0  0  0
    3.5789   -1.7920    2.8438 C   0  0  0  0  0  0  0  0  0  0  0  0
    4.4317   -0.7097    2.9242 N   0  0  0  0  0  0  0  0  0  0  0  0
    5.4517   -0.4474    3.8455 C   0  0  0  0  0  0  0  0  0  0  0  0
    6.1757    0.6798    3.7474 C   0  0  0  0  0  0  0  0  0  0  0  0
    5.8847    1.6040    2.6703 C   0  0  0  0  0  0  0  0  0  0  0  0
    4.9048    1.3599    1.7818 C   0  0  0  0  0  0  0  0  0  0  0  0
    4.1195    0.1672    1.8860 C   0  0  0  0  0  0  0  0  0  0  0  0
    3.5474   -2.9518    3.7047 C   0  0  0  0  0  0  0  0  0  0  0  0
    4.2838   -3.1346    4.6674 O   0  0  0  0  0  0  0  0  0  0  0  0
    2.5280   -3.9852    3.3608 C   0  0  0  0  0  0  0  0  0  0  0  0
    2.4276   -5.1430    4.1454 C   0  0  0  0  0  0  0  0  0  0  0  0
    1.4834   -6.1239    3.8332 C   0  0  0  0  0  0  0  0  0  0  0  0
    0.6394   -5.9594    2.7361 C   0  0  0  0  0  0  0  0  0  0  0  0
    0.7298   -4.8088    1.9525 C   0  0  0  0  0  0  0  0  0  0  0  0
    1.6694   -3.8145    2.2650 C   0  0  0  0  0  0  0  0  0  0  0  0
    1.7183   -2.5881    1.4253 C   0  0  0  0  0  0  0  0  0  0  0  0
    0.9246   -2.4457    0.5017 O   0  0  0  0  0  0  0  0  0  0  0  0
    0.7882    0.4391   -1.1483 H   0  0  0  0  0  0  0  0  0  0  0  0
    0.7431   -0.8403    0.0095 H   0  0  0  0  0  0  0  0  0  0  0  0
    5.6316   -1.1713    4.6307 H   0  0  0  0  0  0  0  0  0  0  0  0
    6.9696    0.9166    4.4467 H   0  0  0  0  0  0  0  0  0  0  0  0
    6.4842    2.5062    2.5958 H   0  0  0  0  0  0  0  0  0  0  0  0
    4.7079    2.0675    0.9807 H   0  0  0  0  0  0  0  0  0  0  0  0
    3.0821   -5.2866    5.0040 H   0  0  0  0  0  0  0  0  0  0  0  0
    1.4070   -7.0194    4.4469 H   0  0  0  0  0  0  0  0  0  0  0  0
   -0.0930   -6.7264    2.4916 H   0  0  0  0  0  0  0  0  0  0  0  0
    0.0628   -4.6914    1.0995 H   0  0  0  0  0  0  0  0  0  0  0  0
  1  2  1  0  0  0  0
  1 23  1  0  0  0  0
  1 24  1  0  0  0  0
  2  3  2  0  0  0  0
  2  4  1  0  0  0  0
  4  5  1  0  0  0  0
  4 12  2  0  0  0  0
  5  6  2  0  0  0  0
  5 21  1  0  0  0  0
  6  7  1  0  0  0  0
  6 13  1  0  0  0  0
  7  8  1  0  0  0  0
  7 12  1  0  0  0  0
  8  9  2  0  0  0  0
  8 25  1  0  0  0  0
  9 10  1  0  0  0  0
  9 26  1  0  0  0  0
 10 11  2  0  0  0  0
 10 27  1  0  0  0  0
 11 12  1  0  0  0  0
 11 28  1  0  0  0  0
 13 14  2  0  0  0  0
 13 15  1  0  0  0  0
 15 16  2  0  0  0  0
 15 20  1  0  0  0  0
 16 17  1  0  0  0  0
 16 29  1  0  0  0  0
 17 18  2  0  0  0  0
 17 30  1  0  0  0  0
 18 19  1  0  0  0  0
 18 31  1  0  0  0  0
 19 20  2  0  0  0  0
 19 32  1  0  0  0  0
 20 21  1  0  0  0  0
 21 22  2  0  0  0  0
M  END
$$$$
