
 OpenBabel09162610133D

 33 35  0  0  0  0  0  0  0  0999 V2000
    1.0635   -0.1096   -0.0188 O   0  0  0  0  0  0  0  0  0  0  0  0
    2.2755    0.0444   -0.1022 C   0  0  0  0  0  0  0  0  0  0  0  0
    3.0329   -0.2473   -1.3444 C   0  0  0  0  0  0  0  0  0  0  0  0
    2.4006   -0.3568   -2.5198 C   0  0  0  0  0  0  0  0  0  0  0  0
    3.1467   -0.6390   -3.6962 C   0  0  0  0  0  0  0  0  0  0  0  0
    2.6969   -0.7910   -5.0021 C   0  0  0  0  0  0  0  0  0  0  0  0
    3.8174   -1.0778   -5.8187 C   0  0  0  0  0  0  0  0  0  0  0  0
    4.9014   -1.0814   -4.9815 C   0  0  0  0  0  0  0  0  0  0  0  0
    4.5154   -0.8162   -3.7118 O   0  0  0  0  0  0  0  0  0  0  0  0
    3.0732    0.4892    1.0688 C   0  0  0  0  0  0  0  0  0  0  0  0
    2.6696    0.1041    2.3485 C   0  0  0  0  0  0  0  0  0  0  0  0
    3.4213    0.4832    3.4679 C   0  0  0  0  0  0  0  0  0  0  0  0
    4.5772    1.2671    3.3198 C   0  0  0  0  0  0  0  0  0  0  0  0
    5.3568    1.6479    4.4573 N   0  0  0  0  0  0  0  0  0  0  0  0
    5.1259    1.2946    5.7750 C   0  0  0  0  0  0  0  0  0  0  0  0
    6.0981    1.8511    6.5773 C   0  0  0  0  0  0  0  0  0  0  0  0
    6.9646    2.5755    5.7396 C   0  0  0  0  0  0  0  0  0  0  0  0
    6.4943    2.4373    4.4520 C   0  0  0  0  0  0  0  0  0  0  0  0
    4.9570    1.6737    2.0320 C   0  0  0  0  0  0  0  0  0  0  0  0
    4.2078    1.2907    0.9149 C   0  0  0  0  0  0  0  0  0  0  0  0
    4.1063   -0.3764   -1.2640 H   0  0  0  0  0  0  0  0  0  0  0  0
    1.3237   -0.2306   -2.5924 H   0  0  0  0  0  0  0  0  0  0  0  0
    1.6667   -0.7086   -5.3214 H   0  0  0  0  0  0  0  0  0  0  0  0
    3.8301   -1.2610   -6.8841 H   0  0  0  0  0  0  0  0  0  0  0  0
    5.9601   -1.2482   -5.1228 H   0  0  0  0  0  0  0  0  0  0  0  0
    1.7750   -0.5026    2.4796 H   0  0  0  0  0  0  0  0  0  0  0  0
    3.0690    0.1468    4.4381 H   0  0  0  0  0  0  0  0  0  0  0  0
    4.2932    0.6696    6.0599 H   0  0  0  0  0  0  0  0  0  0  0  0
    6.1684    1.7408    7.6517 H   0  0  0  0  0  0  0  0  0  0  0  0
    7.8399    3.1406    6.0332 H   0  0  0  0  0  0  0  0  0  0  0  0
    6.8970    2.8538    3.5415 H   0  0  0  0  0  0  0  0  0  0  0  0
    5.8325    2.2894    1.8518 H   0  0  0  0  0  0  0  0  0  0  0  0
    4.5224    1.6409   -0.0653 H   0  0  0  0  0  0  0  0  0  0  0  0
  1  2  2  0  0  0  0
  2  3  1  0  0  0  0
  2 10  1  0  0  0  0
  3  4  2  0  0  0  0
  3 21  1  0  0  0  0
  4  5  1  0  0  0  0
  4 22  1  0  0  0  0
  5  6  2  0  0  0  0
  5  9  1  0  0  0  0
  6  7  1  0  0  0  0
  6 23  1  0  0  0  0
  7  8  2  0  0  0  0
  7 24  1  0  0  0  0
  8  9  1  0  0  0  0
  8 25  1  0  0  0  0
 10 11  2  0  0  0  0
 10 20  1  0  0  0  0
 11 12  1  0  0  0  0
 11 26  1  0  0  0  0
 12 13  2  0  0  0  0
 12 27  1  0  0  0  0
 13 14  1  0  0  0  0
 13 19  1  0  0  0  0
 14 15  1  0  0  0  0
 14 18  1  0  0  0  0
 15 16  2  0  0  0  0
 15 28  1  0  0  0  0
 16 17  1  0  0  0  0
 16 29  1  0  0  0  0
 17 18  2  0  0  0  0
 17 30  1  0  0  0  0
 18 31  1  0  0  0  0
 19 20  2  0  0  0  0
 19 32  1  0  0  0  0
 20 33  1  0  0  0  0
M  END
$$$$
