
 OpenBabel09162610133D

 30 33  0  0  0  0  0  0  0  0999 V2000
    1.5999    0.9582    0.2921 O   0  0  0  0  0  0  0  0  0  0  0  0
    2.7764    0.6472    0.1374 C   0  0  0  0  0  0  0  0  0  0  0  0
    3.1730   -0.7722    0.1001 C   0  0  0  0  0  0  0  0  0  0  0  0
    4.4341   -1.1740   -0.1152 C   0  0  0  0  0  0  0  0  0  0  0  0
    4.7254   -2.6179   -0.0349 C   0  0  0  0  0  0  0  0  0  0  0  0
    4.6442   -3.4308   -1.1709 C   0  0  0  0  0  0  0  0  0  0  0  0
    5.0762   -4.7571   -1.1087 C   0  0  0  0  0  0  0  0  0  0  0  0
    5.5808   -5.2756    0.0842 C   0  0  0  0  0  0  0  0  0  0  0  0
    5.6400   -4.4753    1.2249 C   0  0  0  0  0  0  0  0  0  0  0  0
    5.2099   -3.1505    1.1670 C   0  0  0  0  0  0  0  0  0  0  0  0
    5.4584   -0.1435   -0.3414 C   0  0  0  0  0  0  0  0  0  0  0  0
    6.8006   -0.4770   -0.6408 C   0  0  0  0  0  0  0  0  0  0  0  0
    7.7725    0.5133   -0.7951 C   0  0  0  0  0  0  0  0  0  0  0  0
    7.3814    1.8251   -0.6358 C   0  0  0  0  0  0  0  0  0  0  0  0
    6.0789    2.1700   -0.3615 C   0  0  0  0  0  0  0  0  0  0  0  0
    5.1052    1.2007   -0.2267 C   0  0  0  0  0  0  0  0  0  0  0  0
    3.7831    1.5911    0.0214 O   0  0  0  0  0  0  0  0  0  0  0  0
    5.9191    3.5146   -0.2441 O   0  0  0  0  0  0  0  0  0  0  0  0
    7.2757    3.9703   -0.4203 C   0  0  0  0  0  0  0  0  0  0  0  0
    8.2006    2.9055   -0.7230 O   0  0  0  0  0  0  0  0  0  0  0  0
    2.3647   -1.4711    0.2866 H   0  0  0  0  0  0  0  0  0  0  0  0
    4.2829   -3.0293   -2.1142 H   0  0  0  0  0  0  0  0  0  0  0  0
    5.0376   -5.3826   -1.9977 H   0  0  0  0  0  0  0  0  0  0  0  0
    5.9373   -6.3015    0.1237 H   0  0  0  0  0  0  0  0  0  0  0  0
    6.0387   -4.8770    2.1529 H   0  0  0  0  0  0  0  0  0  0  0  0
    5.2886   -2.5256    2.0548 H   0  0  0  0  0  0  0  0  0  0  0  0
    7.1014   -1.5173   -0.7515 H   0  0  0  0  0  0  0  0  0  0  0  0
    8.8020    0.2586   -1.0199 H   0  0  0  0  0  0  0  0  0  0  0  0
    7.6034    4.4636    0.5022 H   0  0  0  0  0  0  0  0  0  0  0  0
    7.3003    4.6984   -1.2380 H   0  0  0  0  0  0  0  0  0  0  0  0
  1  2  2  0  0  0  0
  2  3  1  0  0  0  0
  2 17  1  0  0  0  0
  3  4  2  0  0  0  0
  3 21  1  0  0  0  0
  4  5  1  0  0  0  0
  4 11  1  0  0  0  0
  5  6  2  0  0  0  0
  5 10  1  0  0  0  0
  6  7  1  0  0  0  0
  6 22  1  0  0  0  0
  7  8  2  0  0  0  0
  7 23  1  0  0  0  0
  8  9  1  0  0  0  0
  8 24  1  0  0  0  0
  9 10  2  0  0  0  0
  9 25  1  0  0  0  0
 10 26  1  0  0  0  0
 11 12  1  0  0  0  0
 11 16  2  0  0  0  0
 12 13  2  0  0  0  0
 12 27  1  0  0  0  0
 13 14  1  0  0  0  0
 13 28  1  0  0  0  0
 14 15  2  0  0  0  0
 14 20  1  0  0  0  0
 15 16  1  0  0  0  0
 15 18  1  0  0  0  0
 16 17  1  0  0  0  0
 18 19  1  0  0  0  0
 19 20  1  0  0  0  0
 19 29  1  0  0  0  0
 19 30  1  0  0  0  0
M  END
$$$$
