
 OpenBabel09162610133D

 35 38  0  0  0  0  0  0  0  0999 V2000
    2.9485   -3.2667    0.3235 C   0  0  0  0  0  0  0  0  0  0  0  0
    3.2585   -2.1531    1.3105 C   0  0  0  0  0  0  0  0  0  0  0  0
    3.8580   -0.9899    0.6949 N   0  0  0  0  0  0  0  0  0  0  0  0
    3.2450   -0.4433   -0.3643 N   0  0  0  0  0  0  0  0  0  0  0  0
    3.7523    0.8011   -0.4430 C   0  0  0  0  0  0  0  0  0  0  0  0
    2.9668    1.7881   -1.1877 C   0  0  0  0  0  0  0  0  0  0  0  0
    2.7971    3.0796   -0.6813 C   0  0  0  0  0  0  0  0  0  0  0  0
    1.7327    3.8698   -1.1239 C   0  0  0  0  0  0  0  0  0  0  0  0
    0.8503    3.3867   -2.0926 C   0  0  0  0  0  0  0  0  0  0  0  0
    1.0610    2.1358   -2.6642 C   0  0  0  0  0  0  0  0  0  0  0  0
    2.1220    1.3455   -2.2252 C   0  0  0  0  0  0  0  0  0  0  0  0
    4.8767    0.9415    0.4306 C   0  0  0  0  0  0  0  0  0  0  0  0
    5.7669    1.9445    0.6859 N   0  0  0  0  0  0  0  0  0  0  0  0
    6.5962    1.6949    1.7292 C   0  0  0  0  0  0  0  0  0  0  0  0
    7.5936    2.6121    2.0366 C   0  0  0  0  0  0  0  0  0  0  0  0
    8.4415    2.4415    3.1364 C   0  0  0  0  0  0  0  0  0  0  0  0
    8.2774    1.3380    3.9623 C   0  0  0  0  0  0  0  0  0  0  0  0
    7.3099    0.3909    3.6505 C   0  0  0  0  0  0  0  0  0  0  0  0
    6.4892    0.5328    2.5375 C   0  0  0  0  0  0  0  0  0  0  0  0
    5.6243   -0.4635    2.2821 N   0  0  0  0  0  0  0  0  0  0  0  0
    4.8609   -0.2154    1.1988 C   0  0  0  0  0  0  0  0  0  0  0  0
    2.4453   -4.0939    0.8336 H   0  0  0  0  0  0  0  0  0  0  0  0
    3.8669   -3.6473   -0.1355 H   0  0  0  0  0  0  0  0  0  0  0  0
    2.2887   -2.9244   -0.4824 H   0  0  0  0  0  0  0  0  0  0  0  0
    3.9244   -2.5176    2.0968 H   0  0  0  0  0  0  0  0  0  0  0  0
    2.3316   -1.8029    1.7827 H   0  0  0  0  0  0  0  0  0  0  0  0
    3.4255    3.4464    0.1275 H   0  0  0  0  0  0  0  0  0  0  0  0
    1.5574    4.8417   -0.6707 H   0  0  0  0  0  0  0  0  0  0  0  0
   -0.0161    3.9747   -2.3821 H   0  0  0  0  0  0  0  0  0  0  0  0
    0.3693    1.7458   -3.4066 H   0  0  0  0  0  0  0  0  0  0  0  0
    2.2291    0.3389   -2.6232 H   0  0  0  0  0  0  0  0  0  0  0  0
    7.7231    3.4852    1.3985 H   0  0  0  0  0  0  0  0  0  0  0  0
    9.2163    3.1732    3.3504 H   0  0  0  0  0  0  0  0  0  0  0  0
    8.9076    1.2047    4.8406 H   0  0  0  0  0  0  0  0  0  0  0  0
    7.1837   -0.4816    4.2915 H   0  0  0  0  0  0  0  0  0  0  0  0
  1  2  1  0  0  0  0
  1 22  1  0  0  0  0
  1 23  1  0  0  0  0
  1 24  1  0  0  0  0
  2  3  1  0  0  0  0
  2 25  1  0  0  0  0
  2 26  1  0  0  0  0
  3  4  1  0  0  0  0
  3 21  1  0  0  0  0
  4  5  2  0  0  0  0
  5  6  1  0  0  0  0
  5 12  1  0  0  0  0
  6  7  2  0  0  0  0
  6 11  1  0  0  0  0
  7  8  1  0  0  0  0
  7 27  1  0  0  0  0
  8  9  2  0  0  0  0
  8 28  1  0  0  0  0
  9 10  1  0  0  0  0
  9 29  1  0  0  0  0
 10 11  2  0  0  0  0
 10 30  1  0  0  0  0
 11 31  1  0  0  0  0
 12 13  1  0  0  0  0
 12 21  2  0  0  0  0
 13 14  2  0  0  0  0
 14 15  1  0  0  0  0
 14 19  1  0  0  0  0
 15 16  2  0  0  0  0
 15 32  1  0  0  0  0
 16 17  1  0  0  0  0
 16 33  1  0  0  0  0
 17 18  2  0  0  0  0
 17 34  1  0  0  0  0
 18 19  1  0  0  0  0
 18 35  1  0  0  0  0
 19 20  2  0  0  0  0
 20 21  1  0  0  0  0
M  END
$$$$
