
 OpenBabel09162610133D

 37 40  0  0  0  0  0  0  0  0999 V2000
    0.4986   -0.2709   -0.2261 C   0  0  0  0  0  0  0  0  0  0  0  0
    1.8545   -0.2616   -0.6518 O   0  0  0  0  0  0  0  0  0  0  0  0
    2.3105    0.8955   -1.2200 C   0  0  0  0  0  0  0  0  0  0  0  0
    1.5249    1.9623   -1.6606 C   0  0  0  0  0  0  0  0  0  0  0  0
    2.1206    3.1217   -2.1792 C   0  0  0  0  0  0  0  0  0  0  0  0
    3.5118    3.2194   -2.2894 C   0  0  0  0  0  0  0  0  0  0  0  0
    4.1944    4.4483   -2.7609 C   0  0  0  0  0  0  0  0  0  0  0  0
    5.0673    4.9834   -1.8936 C   0  0  0  0  0  0  0  0  0  0  0  0
    5.9855    6.0789   -2.2251 C   0  0  0  0  0  0  0  0  0  0  0  0
    6.6695    6.6137   -1.3582 O   0  0  0  0  0  0  0  0  0  0  0  0
    6.1103    6.3876   -3.5647 O   0  0  0  0  0  0  0  0  0  0  0  0
    5.1147    5.9802   -4.4751 C   0  0  0  0  0  0  0  0  0  0  0  0
    5.2020    6.5571   -5.7419 C   0  0  0  0  0  0  0  0  0  0  0  0
    4.1177    6.3269   -6.5768 C   0  0  0  0  0  0  0  0  0  0  0  0
    3.9788    6.8163   -7.8368 O   0  0  0  0  0  0  0  0  0  0  0  0
    2.7317    6.4850   -8.2525 C   0  0  0  0  0  0  0  0  0  0  0  0
    2.0442    5.8119   -7.2606 C   0  0  0  0  0  0  0  0  0  0  0  0
    0.6017    5.4750   -7.2784 C   0  0  0  0  0  0  0  0  0  0  0  0
    2.9917    5.6000   -6.2101 C   0  0  0  0  0  0  0  0  0  0  0  0
    3.0014    4.9294   -4.9641 C   0  0  0  0  0  0  0  0  0  0  0  0
    4.0844    5.1115   -4.0815 C   0  0  0  0  0  0  0  0  0  0  0  0
    4.2898    2.1169   -1.8886 C   0  0  0  0  0  0  0  0  0  0  0  0
    3.6941    0.9747   -1.3519 C   0  0  0  0  0  0  0  0  0  0  0  0
    0.3474   -1.1647    0.3880 H   0  0  0  0  0  0  0  0  0  0  0  0
   -0.1729   -0.3353   -1.0871 H   0  0  0  0  0  0  0  0  0  0  0  0
    0.2610    0.5997    0.3951 H   0  0  0  0  0  0  0  0  0  0  0  0
    0.4402    1.9245   -1.6069 H   0  0  0  0  0  0  0  0  0  0  0  0
    1.4834    3.9508   -2.4724 H   0  0  0  0  0  0  0  0  0  0  0  0
    5.1975    4.6006   -0.8866 H   0  0  0  0  0  0  0  0  0  0  0  0
    6.0242    7.1972   -6.0396 H   0  0  0  0  0  0  0  0  0  0  0  0
    2.4632    6.8424   -9.2358 H   0  0  0  0  0  0  0  0  0  0  0  0
    0.3333    4.9185   -8.1821 H   0  0  0  0  0  0  0  0  0  0  0  0
    0.0136    6.4002   -7.2620 H   0  0  0  0  0  0  0  0  0  0  0  0
    0.3103    4.8853   -6.4057 H   0  0  0  0  0  0  0  0  0  0  0  0
    2.1534    4.3083   -4.6986 H   0  0  0  0  0  0  0  0  0  0  0  0
    5.3750    2.1461   -1.9676 H   0  0  0  0  0  0  0  0  0  0  0  0
    4.3172    0.1490   -1.0168 H   0  0  0  0  0  0  0  0  0  0  0  0
  1  2  1  0  0  0  0
  1 24  1  0  0  0  0
  1 25  1  0  0  0  0
  1 26  1  0  0  0  0
  2  3  1  0  0  0  0
  3  4  2  0  0  0  0
  3 23  1  0  0  0  0
  4  5  1  0  0  0  0
  4 27  1  0  0  0  0
  5  6  2  0  0  0  0
  5 28  1  0  0  0  0
  6  7  1  0  0  0  0
  6 22  1  0  0  0  0
  7  8  2  0  0  0  0
  7 21  1  0  0  0  0
  8  9  1  0  0  0  0
  8 29  1  0  0  0  0
  9 10  2  0  0  0  0
  9 11  1  0  0  0  0
 11 12  1  0  0  0  0
 12 13  1  0  0  0  0
 12 21  2  0  0  0  0
 13 14  2  0  0  0  0
 13 30  1  0  0  0  0
 14 15  1  0  0  0  0
 14 19  1  0  0  0  0
 15 16  1  0  0  0  0
 16 17  2  0  0  0  0
 16 31  1  0  0  0  0
 17 18  1  0  0  0  0
 17 19  1  0  0  0  0
 18 32  1  0  0  0  0
 18 33  1  0  0  0  0
 18 34  1  0  0  0  0
 19 20  2  0  0  0  0
 20 21  1  0  0  0  0
 20 35  1  0  0  0  0
 22 23  2  0  0  0  0
 22 36  1  0  0  0  0
 23 37  1  0  0  0  0
M  END
$$$$
