
 OpenBabel09162610133D

 34 36  0  0  0  0  0  0  0  0999 V2000
    0.5513   -1.9432    3.6477 C   0  0  0  0  0  0  0  0  0  0  0  0
   -0.3135   -1.4777    2.5106 C   0  0  0  0  0  0  0  0  0  0  0  0
   -0.0963   -1.9697    1.2089 C   0  0  0  0  0  0  0  0  0  0  0  0
   -0.9291   -1.6025    0.1431 C   0  0  0  0  0  0  0  0  0  0  0  0
   -2.0309   -0.7909    0.3918 C   0  0  0  0  0  0  0  0  0  0  0  0
   -2.9672   -0.4443   -0.6035 N   0  0  0  0  0  0  0  0  0  0  0  0
   -2.6287    0.2254   -1.7625 C   0  0  0  0  0  0  0  0  0  0  0  0
   -1.5603    0.3580   -2.3226 O   0  0  0  0  0  0  0  0  0  0  0  0
   -3.8504    0.9365   -2.1795 C   0  0  0  0  0  0  0  0  0  0  0  0
   -4.0349    1.9456   -3.0997 C   0  0  0  0  0  0  0  0  0  0  0  0
   -5.2702    2.6178   -3.0801 C   0  0  0  0  0  0  0  0  0  0  0  0
   -6.3070    2.2533   -2.1891 C   0  0  0  0  0  0  0  0  0  0  0  0
   -7.4258    3.0791   -2.0351 N   0  0  0  0  0  0  0  0  0  0  0  0
   -6.0806    1.2376   -1.2643 C   0  0  0  0  0  0  0  0  0  0  0  0
   -4.8537    0.6045   -1.2941 C   0  0  0  0  0  0  0  0  0  0  0  0
   -4.3023   -0.3001   -0.3071 C   0  0  0  0  0  0  0  0  0  0  0  0
   -4.9695   -0.7515    0.6076 O   0  0  0  0  0  0  0  0  0  0  0  0
   -2.2159   -0.2628    1.6787 C   0  0  0  0  0  0  0  0  0  0  0  0
   -1.3449   -0.5529    2.7296 C   0  0  0  0  0  0  0  0  0  0  0  0
   -1.5870    0.1093    4.0564 C   0  0  0  0  0  0  0  0  0  0  0  0
    1.1875   -2.7829    3.3520 H   0  0  0  0  0  0  0  0  0  0  0  0
   -0.0775   -2.2922    4.4749 H   0  0  0  0  0  0  0  0  0  0  0  0
    1.1925   -1.1299    3.9994 H   0  0  0  0  0  0  0  0  0  0  0  0
    0.7224   -2.6623    1.0196 H   0  0  0  0  0  0  0  0  0  0  0  0
   -0.7429   -2.0043   -0.8487 H   0  0  0  0  0  0  0  0  0  0  0  0
   -3.2278    2.2692   -3.7509 H   0  0  0  0  0  0  0  0  0  0  0  0
   -5.4079    3.4778   -3.7358 H   0  0  0  0  0  0  0  0  0  0  0  0
   -7.6907    3.6050   -2.8612 H   0  0  0  0  0  0  0  0  0  0  0  0
   -8.2207    2.6337   -1.5844 H   0  0  0  0  0  0  0  0  0  0  0  0
   -6.8001    0.9944   -0.4882 H   0  0  0  0  0  0  0  0  0  0  0  0
   -3.0403    0.4238    1.8659 H   0  0  0  0  0  0  0  0  0  0  0  0
   -2.1957    1.0142    3.9360 H   0  0  0  0  0  0  0  0  0  0  0  0
   -0.6450    0.4312    4.5099 H   0  0  0  0  0  0  0  0  0  0  0  0
   -2.1124   -0.5705    4.7315 H   0  0  0  0  0  0  0  0  0  0  0  0
  1  2  1  0  0  0  0
  1 21  1  0  0  0  0
  1 22  1  0  0  0  0
  1 23  1  0  0  0  0
  2  3  2  0  0  0  0
  2 19  1  0  0  0  0
  3  4  1  0  0  0  0
  3 24  1  0  0  0  0
  4  5  2  0  0  0  0
  4 25  1  0  0  0  0
  5  6  1  0  0  0  0
  5 18  1  0  0  0  0
  6  7  1  0  0  0  0
  6 16  1  0  0  0  0
  7  8  2  0  0  0  0
  7  9  1  0  0  0  0
  9 10  1  0  0  0  0
  9 15  2  0  0  0  0
 10 11  2  0  0  0  0
 10 26  1  0  0  0  0
 11 12  1  0  0  0  0
 11 27  1  0  0  0  0
 12 13  1  0  0  0  0
 12 14  2  0  0  0  0
 13 28  1  0  0  0  0
 13 29  1  0  0  0  0
 14 15  1  0  0  0  0
 14 30  1  0  0  0  0
 15 16  1  0  0  0  0
 16 17  2  0  0  0  0
 18 19  2  0  0  0  0
 18 31  1  0  0  0  0
 19 20  1  0  0  0  0
 20 32  1  0  0  0  0
 20 33  1  0  0  0  0
 20 34  1  0  0  0  0
M  END
$$$$
