
 OpenBabel09162610133D

 26 27  0  0  0  0  0  0  0  0999 V2000
    1.2784   -0.0517   -0.5982 C   0  0  0  0  0  0  0  0  0  0  0  0
    2.6579   -0.1842   -0.2425 O   0  0  0  0  0  0  0  0  0  0  0  0
    3.1195   -1.4650   -0.3072 C   0  0  0  0  0  0  0  0  0  0  0  0
    2.4308   -2.4047   -0.6704 O   0  0  0  0  0  0  0  0  0  0  0  0
    4.4050   -1.4812    0.1385 N   0  0  0  0  0  0  0  0  0  0  0  0
    5.1928   -2.5865    0.3031 C   0  0  0  0  0  0  0  0  0  0  0  0
    6.2910   -2.5537    1.0219 N   0  0  0  0  0  0  0  0  0  0  0  0
    6.8415   -3.8248    1.0844 C   0  0  0  0  0  0  0  0  0  0  0  0
    7.9607   -4.2165    1.8455 C   0  0  0  0  0  0  0  0  0  0  0  0
    8.3907   -5.5544    1.8269 C   0  0  0  0  0  0  0  0  0  0  0  0
    7.7530   -6.4935    1.0197 C   0  0  0  0  0  0  0  0  0  0  0  0
    8.0685   -7.8140    0.9281 O   0  0  0  0  0  0  0  0  0  0  0  0
    9.4203   -8.2290    1.0394 C   0  0  0  0  0  0  0  0  0  0  0  0
   10.3094   -7.2180    1.1107 F   0  0  0  0  0  0  0  0  0  0  0  0
    9.5571   -9.0074    2.1357 F   0  0  0  0  0  0  0  0  0  0  0  0
    9.7295   -8.9753   -0.0465 F   0  0  0  0  0  0  0  0  0  0  0  0
    6.6272   -6.1231    0.2737 C   0  0  0  0  0  0  0  0  0  0  0  0
    6.1861   -4.7930    0.3254 C   0  0  0  0  0  0  0  0  0  0  0  0
    4.8336   -4.0733   -0.4474 S   0  0  0  0  0  0  0  0  0  0  0  0
    1.0498    1.0162   -0.6777 H   0  0  0  0  0  0  0  0  0  0  0  0
    0.6513   -0.4845    0.1872 H   0  0  0  0  0  0  0  0  0  0  0  0
    1.0686   -0.5195   -1.5642 H   0  0  0  0  0  0  0  0  0  0  0  0
    4.7577   -0.6271    0.5414 H   0  0  0  0  0  0  0  0  0  0  0  0
    8.4707   -3.4834    2.4622 H   0  0  0  0  0  0  0  0  0  0  0  0
    9.2222   -5.8257    2.4722 H   0  0  0  0  0  0  0  0  0  0  0  0
    6.0964   -6.8561   -0.3281 H   0  0  0  0  0  0  0  0  0  0  0  0
  1  2  1  0  0  0  0
  1 20  1  0  0  0  0
  1 21  1  0  0  0  0
  1 22  1  0  0  0  0
  2  3  1  0  0  0  0
  3  4  2  0  0  0  0
  3  5  1  0  0  0  0
  5  6  1  0  0  0  0
  5 23  1  0  0  0  0
  6  7  2  0  0  0  0
  6 19  1  0  0  0  0
  7  8  1  0  0  0  0
  8  9  1  0  0  0  0
  8 18  2  0  0  0  0
  9 10  2  0  0  0  0
  9 24  1  0  0  0  0
 10 11  1  0  0  0  0
 10 25  1  0  0  0  0
 11 12  1  0  0  0  0
 11 17  2  0  0  0  0
 12 13  1  0  0  0  0
 13 14  1  0  0  0  0
 13 15  1  0  0  0  0
 13 16  1  0  0  0  0
 17 18  1  0  0  0  0
 17 26  1  0  0  0  0
 18 19  1  0  0  0  0
M  END
$$$$
