
 OpenBabel09162610133D

 39 40  0  0  1  0  0  0  0  0999 V2000
    3.1426    1.4947    0.4114 C   0  0  0  0  0  0  0  0  0  0  0  0
    2.3353    0.1974    0.3625 C   0  0  0  0  0  0  0  0  0  0  0  0
    3.0296   -1.0612    0.9672 C   0  0  0  0  0  0  0  0  0  0  0  0
    3.2249   -0.8256    2.5004 C   0  0  0  0  0  0  0  0  0  0  0  0
    3.8271   -1.9763    3.3023 C   0  0  0  0  0  0  0  0  0  0  0  0
    4.3900   -1.2393    0.2749 C   0  0  0  0  0  0  0  0  0  0  0  0
    5.4138   -0.7691    0.7841 O   0  0  0  0  0  0  0  0  0  0  0  0
    4.4513   -1.8962   -1.1068 C   0  0  0  0  0  0  0  0  0  0  0  0
    4.2712   -0.8449   -2.2127 C   0  0  0  0  0  0  0  0  0  0  0  0
    5.8370   -2.5450   -1.2739 C   0  0  0  0  0  0  0  0  0  0  0  0
    3.3779   -2.9401   -1.3197 C   0  0  0  0  0  0  0  0  0  0  0  0
    3.4811   -3.8745   -2.1046 O   0  0  0  0  0  0  0  0  0  0  0  0
    2.1985   -2.6593   -0.7191 O   0  0  0  0  0  0  0  0  0  0  0  0
    2.2650   -2.3773    0.6863 C   0  0  2  0  0  0  0  0  0  0  0  0
    0.8211   -2.3885    1.1463 C   0  0  0  0  0  0  0  0  0  0  0  0
   -0.2793   -1.7573    0.5893 C   0  0  0  0  0  0  0  0  0  0  0  0
   -1.4843   -2.0065    1.3050 C   0  0  0  0  0  0  0  0  0  0  0  0
   -1.2830   -2.8593    2.3654 C   0  0  0  0  0  0  0  0  0  0  0  0
    0.3484   -3.3456    2.4947 S   0  0  0  0  0  0  0  0  0  0  0  0
    2.5797    2.2969   -0.0779 H   0  0  0  0  0  0  0  0  0  0  0  0
    4.1001    1.4066   -0.1074 H   0  0  0  0  0  0  0  0  0  0  0  0
    3.3328    1.8137    1.4395 H   0  0  0  0  0  0  0  0  0  0  0  0
    2.0455    0.0161   -0.6759 H   0  0  0  0  0  0  0  0  0  0  0  0
    1.4015    0.3932    0.9041 H   0  0  0  0  0  0  0  0  0  0  0  0
    2.2601   -0.5650    2.9541 H   0  0  0  0  0  0  0  0  0  0  0  0
    3.8758    0.0420    2.6625 H   0  0  0  0  0  0  0  0  0  0  0  0
    3.1743   -2.8498    3.3299 H   0  0  0  0  0  0  0  0  0  0  0  0
    3.9762   -1.6589    4.3402 H   0  0  0  0  0  0  0  0  0  0  0  0
    4.7985   -2.2849    2.9056 H   0  0  0  0  0  0  0  0  0  0  0  0
    4.8337    0.0700   -2.0002 H   0  0  0  0  0  0  0  0  0  0  0  0
    3.2218   -0.5682   -2.3528 H   0  0  0  0  0  0  0  0  0  0  0  0
    4.6116   -1.2301   -3.1818 H   0  0  0  0  0  0  0  0  0  0  0  0
    6.6343   -1.7918   -1.2421 H   0  0  0  0  0  0  0  0  0  0  0  0
    5.9287   -3.0687   -2.2324 H   0  0  0  0  0  0  0  0  0  0  0  0
    6.0348   -3.2728   -0.4791 H   0  0  0  0  0  0  0  0  0  0  0  0
    2.7932   -3.2277    1.1390 H   0  0  0  0  0  0  0  0  0  0  0  0
   -0.2243   -1.1342   -0.2958 H   0  0  0  0  0  0  0  0  0  0  0  0
   -2.4516   -1.5933    1.0462 H   0  0  0  0  0  0  0  0  0  0  0  0
   -2.0192   -3.2304    3.0642 H   0  0  0  0  0  0  0  0  0  0  0  0
  1  2  1  0  0  0  0
  1 20  1  0  0  0  0
  1 21  1  0  0  0  0
  1 22  1  0  0  0  0
  2  3  1  0  0  0  0
  2 23  1  0  0  0  0
  2 24  1  0  0  0  0
  3  4  1  0  0  0  0
  3  6  1  0  0  0  0
  3 14  1  0  0  0  0
  4  5  1  0  0  0  0
  4 25  1  0  0  0  0
  4 26  1  0  0  0  0
  5 27  1  0  0  0  0
  5 28  1  0  0  0  0
  5 29  1  0  0  0  0
  6  7  2  0  0  0  0
  6  8  1  0  0  0  0
  8  9  1  0  0  0  0
  8 10  1  0  0  0  0
  8 11  1  0  0  0  0
  9 30  1  0  0  0  0
  9 31  1  0  0  0  0
  9 32  1  0  0  0  0
 10 33  1  0  0  0  0
 10 34  1  0  0  0  0
 10 35  1  0  0  0  0
 11 12  2  0  0  0  0
 11 13  1  0  0  0  0
 13 14  1  0  0  0  0
 14 15  1  0  0  0  0
 14 36  1  1  0  0  0
 15 16  2  0  0  0  0
 15 19  1  0  0  0  0
 16 17  1  0  0  0  0
 16 37  1  0  0  0  0
 17 18  2  0  0  0  0
 17 38  1  0  0  0  0
 18 19  1  0  0  0  0
 18 39  1  0  0  0  0
M  END
$$$$
