
 OpenBabel09162610133D

 36 38  0  0  0  0  0  0  0  0999 V2000
    1.1666   -0.4387    0.2138 C   0  0  0  0  0  0  0  0  0  0  0  0
    2.5991    0.0429    0.0413 C   0  0  0  0  0  0  0  0  0  0  0  0
    3.0089    0.9731    1.1574 C   0  0  0  0  0  0  0  0  0  0  0  0
    2.7918    2.3583    1.0296 C   0  0  0  0  0  0  0  0  0  0  0  0
    3.1244    3.2537    2.0537 C   0  0  0  0  0  0  0  0  0  0  0  0
    3.6686    2.6838    3.1957 C   0  0  0  0  0  0  0  0  0  0  0  0
    4.0615    3.3297    4.3257 O   0  0  0  0  0  0  0  0  0  0  0  0
    4.4937    2.3264    5.1555 C   0  0  0  0  0  0  0  0  0  0  0  0
    5.0154    2.7341    6.4602 C   0  0  0  0  0  0  0  0  0  0  0  0
    6.0310    1.9560    7.0437 C   0  0  0  0  0  0  0  0  0  0  0  0
    6.5827    2.2855    8.2831 C   0  0  0  0  0  0  0  0  0  0  0  0
    7.6868    1.5795    8.7744 N   0  0  0  0  0  0  0  0  0  0  0  0
    6.1747    3.4676    8.9044 C   0  0  0  0  0  0  0  0  0  0  0  0
    5.1462    4.2605    8.3699 C   0  0  0  0  0  0  0  0  0  0  0  0
    4.7197    5.4959    9.1109 C   0  0  0  0  0  0  0  0  0  0  0  0
    4.5639    3.8739    7.1510 C   0  0  0  0  0  0  0  0  0  0  0  0
    3.5283    4.5986    6.6191 O   0  0  0  0  0  0  0  0  0  0  0  0
    4.4495    1.1162    4.6178 N   0  0  0  0  0  0  0  0  0  0  0  0
    3.9027    1.3334    3.3761 C   0  0  0  0  0  0  0  0  0  0  0  0
    3.5707    0.4478    2.3406 C   0  0  0  0  0  0  0  0  0  0  0  0
    0.8900   -1.1074   -0.6073 H   0  0  0  0  0  0  0  0  0  0  0  0
    0.4630    0.4008    0.2195 H   0  0  0  0  0  0  0  0  0  0  0  0
    1.0424   -0.9860    1.1544 H   0  0  0  0  0  0  0  0  0  0  0  0
    2.7044    0.5548   -0.9232 H   0  0  0  0  0  0  0  0  0  0  0  0
    3.2804   -0.8154    0.0062 H   0  0  0  0  0  0  0  0  0  0  0  0
    2.3496    2.7552    0.1169 H   0  0  0  0  0  0  0  0  0  0  0  0
    2.9613    4.3202    1.9713 H   0  0  0  0  0  0  0  0  0  0  0  0
    6.3999    1.0824    6.5087 H   0  0  0  0  0  0  0  0  0  0  0  0
    7.7246    0.6126    8.4656 H   0  0  0  0  0  0  0  0  0  0  0  0
    7.8199    1.6661    9.7771 H   0  0  0  0  0  0  0  0  0  0  0  0
    6.6624    3.7738    9.8276 H   0  0  0  0  0  0  0  0  0  0  0  0
    5.2641    5.6128   10.0534 H   0  0  0  0  0  0  0  0  0  0  0  0
    3.6531    5.4448    9.3525 H   0  0  0  0  0  0  0  0  0  0  0  0
    4.9149    6.3857    8.5032 H   0  0  0  0  0  0  0  0  0  0  0  0
    3.4018    5.4217    7.1116 H   0  0  0  0  0  0  0  0  0  0  0  0
    3.7397   -0.6161    2.4661 H   0  0  0  0  0  0  0  0  0  0  0  0
  1  2  1  0  0  0  0
  1 21  1  0  0  0  0
  1 22  1  0  0  0  0
  1 23  1  0  0  0  0
  2  3  1  0  0  0  0
  2 24  1  0  0  0  0
  2 25  1  0  0  0  0
  3  4  2  0  0  0  0
  3 20  1  0  0  0  0
  4  5  1  0  0  0  0
  4 26  1  0  0  0  0
  5  6  2  0  0  0  0
  5 27  1  0  0  0  0
  6  7  1  0  0  0  0
  6 19  1  0  0  0  0
  7  8  1  0  0  0  0
  8  9  1  0  0  0  0
  8 18  2  0  0  0  0
  9 10  2  0  0  0  0
  9 16  1  0  0  0  0
 10 11  1  0  0  0  0
 10 28  1  0  0  0  0
 11 12  1  0  0  0  0
 11 13  2  0  0  0  0
 12 29  1  0  0  0  0
 12 30  1  0  0  0  0
 13 14  1  0  0  0  0
 13 31  1  0  0  0  0
 14 15  1  0  0  0  0
 14 16  2  0  0  0  0
 15 32  1  0  0  0  0
 15 33  1  0  0  0  0
 15 34  1  0  0  0  0
 16 17  1  0  0  0  0
 17 35  1  0  0  0  0
 18 19  1  0  0  0  0
 19 20  2  0  0  0  0
 20 36  1  0  0  0  0
M  END
$$$$
