
 OpenBabel09162610133D

 33 35  0  0  0  0  0  0  0  0999 V2000
    1.0753    0.2598    0.1511 C   0  0  0  0  0  0  0  0  0  0  0  0
    2.5796    0.1464    0.1309 C   0  0  0  0  0  0  0  0  0  0  0  0
    3.2576    1.2536    0.1258 N   0  0  0  0  0  0  0  0  0  0  0  0
    4.6498    1.1845    0.0415 C   0  0  0  0  0  0  0  0  0  0  0  0
    5.3825    2.3702   -0.0419 C   0  0  0  0  0  0  0  0  0  0  0  0
    6.7734    2.3408   -0.1781 C   0  0  0  0  0  0  0  0  0  0  0  0
    7.4455    1.1207   -0.2293 C   0  0  0  0  0  0  0  0  0  0  0  0
    6.7276   -0.0684   -0.1229 C   0  0  0  0  0  0  0  0  0  0  0  0
    5.3341   -0.0249    0.0165 C   0  0  0  0  0  0  0  0  0  0  0  0
    4.5490   -1.2604    0.1553 C   0  0  0  0  0  0  0  0  0  0  0  0
    5.1651   -2.3091    0.3585 O   0  0  0  0  0  0  0  0  0  0  0  0
    3.1536   -1.1200    0.0809 N   0  0  0  0  0  0  0  0  0  0  0  0
    2.3082   -2.2406    0.2066 N   0  0  0  0  0  0  0  0  0  0  0  0
    2.7511   -3.3599   -0.2842 C   0  0  0  0  0  0  0  0  0  0  0  0
    2.0893   -4.6720   -0.0993 C   0  0  0  0  0  0  0  0  0  0  0  0
    0.9046   -4.8102    0.6276 C   0  0  0  0  0  0  0  0  0  0  0  0
    0.3372   -6.0813    0.7869 C   0  0  0  0  0  0  0  0  0  0  0  0
    0.9571   -7.1938    0.2262 C   0  0  0  0  0  0  0  0  0  0  0  0
    0.4088   -8.4052    0.3840 F   0  0  0  0  0  0  0  0  0  0  0  0
    2.1420   -7.0666   -0.4901 C   0  0  0  0  0  0  0  0  0  0  0  0
    2.7125   -5.8021   -0.6519 C   0  0  0  0  0  0  0  0  0  0  0  0
    0.7868    1.3120    0.2580 H   0  0  0  0  0  0  0  0  0  0  0  0
    0.6519   -0.3001    0.9874 H   0  0  0  0  0  0  0  0  0  0  0  0
    0.6657   -0.1108   -0.7925 H   0  0  0  0  0  0  0  0  0  0  0  0
    4.8611    3.3236   -0.0049 H   0  0  0  0  0  0  0  0  0  0  0  0
    7.3294    3.2727   -0.2496 H   0  0  0  0  0  0  0  0  0  0  0  0
    8.5263    1.0956   -0.3476 H   0  0  0  0  0  0  0  0  0  0  0  0
    7.2494   -1.0223   -0.1522 H   0  0  0  0  0  0  0  0  0  0  0  0
    3.6692   -3.4067   -0.8949 H   0  0  0  0  0  0  0  0  0  0  0  0
    0.4259   -3.9461    1.0785 H   0  0  0  0  0  0  0  0  0  0  0  0
   -0.5816   -6.2122    1.3507 H   0  0  0  0  0  0  0  0  0  0  0  0
    2.6153   -7.9489   -0.9106 H   0  0  0  0  0  0  0  0  0  0  0  0
    3.6491   -5.7115   -1.1979 H   0  0  0  0  0  0  0  0  0  0  0  0
  1  2  1  0  0  0  0
  1 22  1  0  0  0  0
  1 23  1  0  0  0  0
  1 24  1  0  0  0  0
  2  3  2  0  0  0  0
  2 12  1  0  0  0  0
  3  4  1  0  0  0  0
  4  5  2  0  0  0  0
  4  9  1  0  0  0  0
  5  6  1  0  0  0  0
  5 25  1  0  0  0  0
  6  7  2  0  0  0  0
  6 26  1  0  0  0  0
  7  8  1  0  0  0  0
  7 27  1  0  0  0  0
  8  9  2  0  0  0  0
  8 28  1  0  0  0  0
  9 10  1  0  0  0  0
 10 11  2  0  0  0  0
 10 12  1  0  0  0  0
 12 13  1  0  0  0  0
 13 14  2  0  0  0  0
 14 15  1  0  0  0  0
 14 29  1  0  0  0  0
 15 16  2  0  0  0  0
 15 21  1  0  0  0  0
 16 17  1  0  0  0  0
 16 30  1  0  0  0  0
 17 18  2  0  0  0  0
 17 31  1  0  0  0  0
 18 19  1  0  0  0  0
 18 20  1  0  0  0  0
 20 21  2  0  0  0  0
 20 32  1  0  0  0  0
 21 33  1  0  0  0  0
M  END
$$$$
