
 OpenBabel09162610133D

 31 33  0  0  0  0  0  0  0  0999 V2000
    4.8189   -0.0526    1.1353 C   0  0  0  0  0  0  0  0  0  0  0  0
    3.6397   -0.1374    0.1803 C   0  0  0  0  0  0  0  0  0  0  0  0
    3.7215   -1.3049   -0.6689 N   0  0  0  0  0  0  0  0  0  0  0  0
    3.3024   -2.5816   -0.3938 C   0  0  0  0  0  0  0  0  0  0  0  0
    2.4899   -3.0960    1.0431 S   0  0  0  0  0  0  0  0  0  0  0  0
    3.5659   -3.3631   -1.4142 N   0  0  0  0  0  0  0  0  0  0  0  0
    4.1092   -2.5860   -2.4060 N   0  0  0  0  0  0  0  0  0  0  0  0
    4.1623   -1.3416   -1.9737 C   0  0  0  0  0  0  0  0  0  0  0  0
    4.4284   -0.2209   -2.8260 C   0  0  0  0  0  0  0  0  0  0  0  0
    5.4411    0.7470   -2.7759 C   0  0  0  0  0  0  0  0  0  0  0  0
    5.2545    1.6446   -3.8331 C   0  0  0  0  0  0  0  0  0  0  0  0
    5.8960    2.7644   -4.3802 C   0  0  0  0  0  0  0  0  0  0  0  0
    7.1858    3.4142   -3.9796 C   0  0  0  0  0  0  0  0  0  0  0  0
    8.2227    2.5305   -4.0114 F   0  0  0  0  0  0  0  0  0  0  0  0
    7.5435    4.4511   -4.7794 F   0  0  0  0  0  0  0  0  0  0  0  0
    7.1410    3.9052   -2.7099 F   0  0  0  0  0  0  0  0  0  0  0  0
    5.1758    3.2012   -5.4558 N   0  0  0  0  0  0  0  0  0  0  0  0
    4.1685    2.2959   -5.5873 N   0  0  0  0  0  0  0  0  0  0  0  0
    3.2960    2.3328   -6.7327 C   0  0  0  0  0  0  0  0  0  0  0  0
    4.1949    1.3786   -4.6041 C   0  0  0  0  0  0  0  0  0  0  0  0
    3.3395    0.0306   -4.1766 S   0  0  0  0  0  0  0  0  0  0  0  0
    4.7508    0.8525    1.7455 H   0  0  0  0  0  0  0  0  0  0  0  0
    5.7682   -0.0298    0.5898 H   0  0  0  0  0  0  0  0  0  0  0  0
    4.8500   -0.9134    1.8107 H   0  0  0  0  0  0  0  0  0  0  0  0
    3.5994    0.7568   -0.4491 H   0  0  0  0  0  0  0  0  0  0  0  0
    2.6928   -0.1705    0.7289 H   0  0  0  0  0  0  0  0  0  0  0  0
    2.8510   -2.1258    1.8888 H   0  0  0  0  0  0  0  0  0  0  0  0
    6.2354    0.7619   -2.0430 H   0  0  0  0  0  0  0  0  0  0  0  0
    3.5499    3.1921   -7.3574 H   0  0  0  0  0  0  0  0  0  0  0  0
    2.2641    2.4133   -6.3829 H   0  0  0  0  0  0  0  0  0  0  0  0
    3.4416    1.4078   -7.2970 H   0  0  0  0  0  0  0  0  0  0  0  0
  1  2  1  0  0  0  0
  1 22  1  0  0  0  0
  1 23  1  0  0  0  0
  1 24  1  0  0  0  0
  2  3  1  0  0  0  0
  2 25  1  0  0  0  0
  2 26  1  0  0  0  0
  3  4  1  0  0  0  0
  3  8  1  0  0  0  0
  4  5  1  0  0  0  0
  4  6  2  0  0  0  0
  5 27  1  0  0  0  0
  6  7  1  0  0  0  0
  7  8  2  0  0  0  0
  8  9  1  0  0  0  0
  9 10  2  0  0  0  0
  9 21  1  0  0  0  0
 10 11  1  0  0  0  0
 10 28  1  0  0  0  0
 11 12  1  0  0  0  0
 11 20  2  0  0  0  0
 12 13  1  0  0  0  0
 12 17  2  0  0  0  0
 13 14  1  0  0  0  0
 13 15  1  0  0  0  0
 13 16  1  0  0  0  0
 17 18  1  0  0  0  0
 18 19  1  0  0  0  0
 18 20  1  0  0  0  0
 19 29  1  0  0  0  0
 19 30  1  0  0  0  0
 19 31  1  0  0  0  0
 20 21  1  0  0  0  0
M  END
$$$$
