
 OpenBabel09162610133D

 30 32  0  0  0  0  0  0  0  0999 V2000
    2.8122    0.9057   -0.6174 O   0  0  0  0  0  0  0  0  0  0  0  0
    2.3077   -0.0714   -0.0687 C   0  0  0  0  0  0  0  0  0  0  0  0
    0.8227   -0.2064   -0.1393 C   0  0  0  0  0  0  0  0  0  0  0  0
    0.1555    0.2762   -1.2729 C   0  0  0  0  0  0  0  0  0  0  0  0
   -1.2336    0.1734   -1.3624 C   0  0  0  0  0  0  0  0  0  0  0  0
   -1.9602   -0.4026   -0.3207 C   0  0  0  0  0  0  0  0  0  0  0  0
   -1.3038   -0.8642    0.8193 C   0  0  0  0  0  0  0  0  0  0  0  0
    0.0838   -0.7572    0.9174 C   0  0  0  0  0  0  0  0  0  0  0  0
    3.0705   -1.0834    0.6323 C   0  0  0  0  0  0  0  0  0  0  0  0
    2.8433   -2.4359    0.7872 C   0  0  0  0  0  0  0  0  0  0  0  0
    3.7718   -3.1178    1.5484 N   0  0  0  0  0  0  0  0  0  0  0  0
    4.7131   -2.2912    1.9637 C   0  0  0  0  0  0  0  0  0  0  0  0
    5.8825   -2.6970    2.7589 C   0  0  0  0  0  0  0  0  0  0  0  0
    6.4074   -3.9880    2.5886 C   0  0  0  0  0  0  0  0  0  0  0  0
    7.5404   -4.4011    3.2934 C   0  0  0  0  0  0  0  0  0  0  0  0
    8.1559   -3.5330    4.1918 C   0  0  0  0  0  0  0  0  0  0  0  0
    7.6322   -2.2587    4.3958 C   0  0  0  0  0  0  0  0  0  0  0  0
    6.5009   -1.8439    3.6870 C   0  0  0  0  0  0  0  0  0  0  0  0
    4.5303   -0.6648    1.4223 S   0  0  0  0  0  0  0  0  0  0  0  0
    0.7141    0.7354   -2.0858 H   0  0  0  0  0  0  0  0  0  0  0  0
   -1.7500    0.5484   -2.2434 H   0  0  0  0  0  0  0  0  0  0  0  0
   -3.0426   -0.4805   -0.3923 H   0  0  0  0  0  0  0  0  0  0  0  0
   -1.8743   -1.2978    1.6371 H   0  0  0  0  0  0  0  0  0  0  0  0
    0.5676   -1.0932    1.8318 H   0  0  0  0  0  0  0  0  0  0  0  0
    2.0120   -2.9893    0.3660 H   0  0  0  0  0  0  0  0  0  0  0  0
    5.9372   -4.6768    1.8883 H   0  0  0  0  0  0  0  0  0  0  0  0
    7.9424   -5.3985    3.1357 H   0  0  0  0  0  0  0  0  0  0  0  0
    9.0418   -3.8508    4.7354 H   0  0  0  0  0  0  0  0  0  0  0  0
    8.1045   -1.5838    5.1053 H   0  0  0  0  0  0  0  0  0  0  0  0
    6.1102   -0.8468    3.8768 H   0  0  0  0  0  0  0  0  0  0  0  0
  1  2  2  0  0  0  0
  2  3  1  0  0  0  0
  2  9  1  0  0  0  0
  3  4  2  0  0  0  0
  3  8  1  0  0  0  0
  4  5  1  0  0  0  0
  4 20  1  0  0  0  0
  5  6  2  0  0  0  0
  5 21  1  0  0  0  0
  6  7  1  0  0  0  0
  6 22  1  0  0  0  0
  7  8  2  0  0  0  0
  7 23  1  0  0  0  0
  8 24  1  0  0  0  0
  9 10  2  0  0  0  0
  9 19  1  0  0  0  0
 10 11  1  0  0  0  0
 10 25  1  0  0  0  0
 11 12  2  0  0  0  0
 12 13  1  0  0  0  0
 12 19  1  0  0  0  0
 13 14  2  0  0  0  0
 13 18  1  0  0  0  0
 14 15  1  0  0  0  0
 14 26  1  0  0  0  0
 15 16  2  0  0  0  0
 15 27  1  0  0  0  0
 16 17  1  0  0  0  0
 16 28  1  0  0  0  0
 17 18  2  0  0  0  0
 17 29  1  0  0  0  0
 18 30  1  0  0  0  0
M  END
$$$$
