
 OpenBabel09162610133D

 32 34  0  0  0  0  0  0  0  0999 V2000
    1.3034    0.7864    2.0509 C   0  0  0  0  0  0  0  0  0  0  0  0
    0.3505    0.4101    0.9551 C   0  0  0  0  0  0  0  0  0  0  0  0
    0.0660    1.2910   -0.0946 C   0  0  0  0  0  0  0  0  0  0  0  0
   -0.8174    0.9217   -1.1123 C   0  0  0  0  0  0  0  0  0  0  0  0
   -1.4316   -0.3315   -1.0910 C   0  0  0  0  0  0  0  0  0  0  0  0
   -1.1641   -1.2134   -0.0410 C   0  0  0  0  0  0  0  0  0  0  0  0
   -1.8200   -2.5242    0.0515 C   0  0  0  0  0  0  0  0  0  0  0  0
   -1.6647   -3.3809    1.0083 N   0  0  0  0  0  0  0  0  0  0  0  0
   -2.5036   -4.3965    0.6456 C   0  0  0  0  0  0  0  0  0  0  0  0
   -2.7475   -5.5086    1.3475 C   0  0  0  0  0  0  0  0  0  0  0  0
   -2.1258   -5.7283    2.6527 C   0  0  0  0  0  0  0  0  0  0  0  0
   -2.7508   -5.2781    3.8168 C   0  0  0  0  0  0  0  0  0  0  0  0
   -2.1132   -5.4329    5.0450 C   0  0  0  0  0  0  0  0  0  0  0  0
   -0.8675   -6.0392    5.0670 C   0  0  0  0  0  0  0  0  0  0  0  0
   -0.2321   -6.4921    3.9645 N   0  0  0  0  0  0  0  0  0  0  0  0
   -0.8719   -6.3175    2.7823 C   0  0  0  0  0  0  0  0  0  0  0  0
   -3.1740   -4.0791   -0.6430 C   0  0  0  0  0  0  0  0  0  0  0  0
   -3.9831   -4.7286   -1.2715 O   0  0  0  0  0  0  0  0  0  0  0  0
   -2.6743   -2.8476   -0.9484 O   0  0  0  0  0  0  0  0  0  0  0  0
   -0.2709   -0.8438    0.9745 C   0  0  0  0  0  0  0  0  0  0  0  0
    1.6853    1.8041    1.9196 H   0  0  0  0  0  0  0  0  0  0  0  0
    2.1589    0.1033    2.0575 H   0  0  0  0  0  0  0  0  0  0  0  0
    0.7993    0.7403    3.0219 H   0  0  0  0  0  0  0  0  0  0  0  0
    0.5296    2.2745   -0.1266 H   0  0  0  0  0  0  0  0  0  0  0  0
   -1.0301    1.6159   -1.9213 H   0  0  0  0  0  0  0  0  0  0  0  0
   -2.1169   -0.5990   -1.8912 H   0  0  0  0  0  0  0  0  0  0  0  0
   -3.4446   -6.2626    0.9961 H   0  0  0  0  0  0  0  0  0  0  0  0
   -3.7192   -4.7872    3.7713 H   0  0  0  0  0  0  0  0  0  0  0  0
   -2.5730   -5.0786    5.9605 H   0  0  0  0  0  0  0  0  0  0  0  0
   -0.3290   -6.1749    6.0005 H   0  0  0  0  0  0  0  0  0  0  0  0
   -0.3207   -6.6678    1.9140 H   0  0  0  0  0  0  0  0  0  0  0  0
   -0.0596   -1.5341    1.7915 H   0  0  0  0  0  0  0  0  0  0  0  0
  1  2  1  0  0  0  0
  1 21  1  0  0  0  0
  1 22  1  0  0  0  0
  1 23  1  0  0  0  0
  2  3  2  0  0  0  0
  2 20  1  0  0  0  0
  3  4  1  0  0  0  0
  3 24  1  0  0  0  0
  4  5  2  0  0  0  0
  4 25  1  0  0  0  0
  5  6  1  0  0  0  0
  5 26  1  0  0  0  0
  6  7  1  0  0  0  0
  6 20  2  0  0  0  0
  7  8  2  0  0  0  0
  7 19  1  0  0  0  0
  8  9  1  0  0  0  0
  9 10  2  0  0  0  0
  9 17  1  0  0  0  0
 10 11  1  0  0  0  0
 10 27  1  0  0  0  0
 11 12  2  0  0  0  0
 11 16  1  0  0  0  0
 12 13  1  0  0  0  0
 12 28  1  0  0  0  0
 13 14  2  0  0  0  0
 13 29  1  0  0  0  0
 14 15  1  0  0  0  0
 14 30  1  0  0  0  0
 15 16  2  0  0  0  0
 16 31  1  0  0  0  0
 17 18  2  0  0  0  0
 17 19  1  0  0  0  0
 20 32  1  0  0  0  0
M  END
$$$$
