
 OpenBabel09162610133D

 36 39  0  0  0  0  0  0  0  0999 V2000
   -3.5101   -0.6377    0.1054 C   0  0  0  0  0  0  0  0  0  0  0  0
   -2.1243   -0.0709    0.1351 C   0  0  0  0  0  0  0  0  0  0  0  0
   -1.9000    1.2932    0.1001 C   0  0  0  0  0  0  0  0  0  0  0  0
   -0.5877    1.7357    0.0612 C   0  0  0  0  0  0  0  0  0  0  0  0
    0.4709    0.8157    0.0162 C   0  0  0  0  0  0  0  0  0  0  0  0
    1.7865    1.2779   -0.0860 C   0  0  0  0  0  0  0  0  0  0  0  0
    2.8265    0.3782   -0.2480 C   0  0  0  0  0  0  0  0  0  0  0  0
    2.5520   -0.9869   -0.2790 C   0  0  0  0  0  0  0  0  0  0  0  0
    1.2532   -1.4991   -0.0624 C   0  0  0  0  0  0  0  0  0  0  0  0
    1.0298   -2.9924   -0.0163 C   0  0  0  0  0  0  0  0  0  0  0  0
   -0.0890   -3.5254   -0.6967 C   0  0  0  0  0  0  0  0  0  0  0  0
   -0.4047   -4.8796   -0.6743 C   0  0  0  0  0  0  0  0  0  0  0  0
    0.4375   -5.7681   -0.0277 C   0  0  0  0  0  0  0  0  0  0  0  0
    1.5966   -5.3161    0.6098 C   0  0  0  0  0  0  0  0  0  0  0  0
    2.4513   -6.2674    1.1929 C   0  0  0  0  0  0  0  0  0  0  0  0
    3.6203   -5.8845    1.8413 C   0  0  0  0  0  0  0  0  0  0  0  0
    3.9183   -4.5383    1.9619 C   0  0  0  0  0  0  0  0  0  0  0  0
    3.0572   -3.5799    1.4138 C   0  0  0  0  0  0  0  0  0  0  0  0
    1.8983   -3.9236    0.6661 C   0  0  0  0  0  0  0  0  0  0  0  0
    0.1797   -0.5693    0.0503 C   0  0  0  0  0  0  0  0  0  0  0  0
   -1.1107   -0.9687    0.1501 N   0  0  0  0  0  0  0  0  0  0  0  0
   -4.2719    0.1473    0.0991 H   0  0  0  0  0  0  0  0  0  0  0  0
   -3.6743   -1.2709    0.9824 H   0  0  0  0  0  0  0  0  0  0  0  0
   -3.6403   -1.2438   -0.7970 H   0  0  0  0  0  0  0  0  0  0  0  0
   -2.7225    1.9971    0.0845 H   0  0  0  0  0  0  0  0  0  0  0  0
   -0.3942    2.8058    0.0296 H   0  0  0  0  0  0  0  0  0  0  0  0
    2.0057    2.3437   -0.0769 H   0  0  0  0  0  0  0  0  0  0  0  0
    3.8469    0.7333   -0.3635 H   0  0  0  0  0  0  0  0  0  0  0  0
    3.3811   -1.6657   -0.4750 H   0  0  0  0  0  0  0  0  0  0  0  0
   -0.7579   -2.8703   -1.2522 H   0  0  0  0  0  0  0  0  0  0  0  0
   -1.3051   -5.2352   -1.1672 H   0  0  0  0  0  0  0  0  0  0  0  0
    0.1801   -6.8247   -0.0295 H   0  0  0  0  0  0  0  0  0  0  0  0
    2.2157   -7.3282    1.1331 H   0  0  0  0  0  0  0  0  0  0  0  0
    4.2832   -6.6357    2.2615 H   0  0  0  0  0  0  0  0  0  0  0  0
    4.8178   -4.2236    2.4843 H   0  0  0  0  0  0  0  0  0  0  0  0
    3.3194   -2.5409    1.5860 H   0  0  0  0  0  0  0  0  0  0  0  0
  1  2  1  0  0  0  0
  1 22  1  0  0  0  0
  1 23  1  0  0  0  0
  1 24  1  0  0  0  0
  2  3  2  0  0  0  0
  2 21  1  0  0  0  0
  3  4  1  0  0  0  0
  3 25  1  0  0  0  0
  4  5  2  0  0  0  0
  4 26  1  0  0  0  0
  5  6  1  0  0  0  0
  5 20  1  0  0  0  0
  6  7  2  0  0  0  0
  6 27  1  0  0  0  0
  7  8  1  0  0  0  0
  7 28  1  0  0  0  0
  8  9  2  0  0  0  0
  8 29  1  0  0  0  0
  9 10  1  0  0  0  0
  9 20  1  0  0  0  0
 10 11  2  0  0  0  0
 10 19  1  0  0  0  0
 11 12  1  0  0  0  0
 11 30  1  0  0  0  0
 12 13  2  0  0  0  0
 12 31  1  0  0  0  0
 13 14  1  0  0  0  0
 13 32  1  0  0  0  0
 14 15  1  0  0  0  0
 14 19  2  0  0  0  0
 15 16  2  0  0  0  0
 15 33  1  0  0  0  0
 16 17  1  0  0  0  0
 16 34  1  0  0  0  0
 17 18  2  0  0  0  0
 17 35  1  0  0  0  0
 18 19  1  0  0  0  0
 18 36  1  0  0  0  0
 20 21  2  0  0  0  0
M  END
$$$$
