
 OpenBabel09162610133D

 36 38  0  0  0  0  0  0  0  0999 V2000
    2.5430    1.1049   -0.0620 C   0  0  0  0  0  0  0  0  0  0  0  0
    1.2574    0.3310   -0.0601 C   0  0  0  0  0  0  0  0  0  0  0  0
    1.1856   -0.9524   -0.6080 C   0  0  0  0  0  0  0  0  0  0  0  0
   -0.0206   -1.6545   -0.6044 C   0  0  0  0  0  0  0  0  0  0  0  0
   -1.1700   -1.0814   -0.0429 C   0  0  0  0  0  0  0  0  0  0  0  0
   -2.3771   -1.8268   -0.0525 N   0  0  0  0  0  0  0  0  0  0  0  0
   -2.7203   -2.6646    0.9958 C   0  0  0  0  0  0  0  0  0  0  0  0
   -1.7794   -2.8497    2.1687 C   0  0  0  0  0  0  0  0  0  0  0  0
   -3.8342   -3.3263    1.0454 N   0  0  0  0  0  0  0  0  0  0  0  0
   -4.7697   -3.1456    0.0224 C   0  0  0  0  0  0  0  0  0  0  0  0
   -6.0196   -3.7581    0.1408 C   0  0  0  0  0  0  0  0  0  0  0  0
   -7.0106   -3.5466   -0.8211 C   0  0  0  0  0  0  0  0  0  0  0  0
   -6.7510   -2.7331   -1.9235 C   0  0  0  0  0  0  0  0  0  0  0  0
   -5.4994   -2.1339   -2.0633 C   0  0  0  0  0  0  0  0  0  0  0  0
   -4.5200   -2.3389   -1.0838 C   0  0  0  0  0  0  0  0  0  0  0  0
   -3.2114   -1.6656   -1.1621 C   0  0  0  0  0  0  0  0  0  0  0  0
   -2.9423   -1.0073   -2.1663 O   0  0  0  0  0  0  0  0  0  0  0  0
   -1.1186    0.2104    0.5134 C   0  0  0  0  0  0  0  0  0  0  0  0
   -2.3139    0.9006    1.1086 C   0  0  0  0  0  0  0  0  0  0  0  0
    0.1019    0.9060    0.4881 C   0  0  0  0  0  0  0  0  0  0  0  0
    3.3635    0.5203   -0.4909 H   0  0  0  0  0  0  0  0  0  0  0  0
    2.8228    1.3724    0.9622 H   0  0  0  0  0  0  0  0  0  0  0  0
    2.4331    2.0186   -0.6548 H   0  0  0  0  0  0  0  0  0  0  0  0
    2.0666   -1.4130   -1.0503 H   0  0  0  0  0  0  0  0  0  0  0  0
   -0.0625   -2.6464   -1.0486 H   0  0  0  0  0  0  0  0  0  0  0  0
   -0.9326   -2.1660    2.1861 H   0  0  0  0  0  0  0  0  0  0  0  0
   -1.4018   -3.8764    2.1577 H   0  0  0  0  0  0  0  0  0  0  0  0
   -2.3471   -2.7046    3.0942 H   0  0  0  0  0  0  0  0  0  0  0  0
   -6.2264   -4.3879    1.0027 H   0  0  0  0  0  0  0  0  0  0  0  0
   -7.9878   -4.0086   -0.7020 H   0  0  0  0  0  0  0  0  0  0  0  0
   -7.5254   -2.5577   -2.6665 H   0  0  0  0  0  0  0  0  0  0  0  0
   -5.2968   -1.4930   -2.9189 H   0  0  0  0  0  0  0  0  0  0  0  0
   -3.1746    0.2375    1.2261 H   0  0  0  0  0  0  0  0  0  0  0  0
   -2.6166    1.7384    0.4725 H   0  0  0  0  0  0  0  0  0  0  0  0
   -2.0664    1.2812    2.1061 H   0  0  0  0  0  0  0  0  0  0  0  0
    0.1518    1.9143    0.8979 H   0  0  0  0  0  0  0  0  0  0  0  0
  1  2  1  0  0  0  0
  1 21  1  0  0  0  0
  1 22  1  0  0  0  0
  1 23  1  0  0  0  0
  2  3  2  0  0  0  0
  2 20  1  0  0  0  0
  3  4  1  0  0  0  0
  3 24  1  0  0  0  0
  4  5  2  0  0  0  0
  4 25  1  0  0  0  0
  5  6  1  0  0  0  0
  5 18  1  0  0  0  0
  6  7  1  0  0  0  0
  6 16  1  0  0  0  0
  7  8  1  0  0  0  0
  7  9  2  0  0  0  0
  8 26  1  0  0  0  0
  8 27  1  0  0  0  0
  8 28  1  0  0  0  0
  9 10  1  0  0  0  0
 10 11  2  0  0  0  0
 10 15  1  0  0  0  0
 11 12  1  0  0  0  0
 11 29  1  0  0  0  0
 12 13  2  0  0  0  0
 12 30  1  0  0  0  0
 13 14  1  0  0  0  0
 13 31  1  0  0  0  0
 14 15  2  0  0  0  0
 14 32  1  0  0  0  0
 15 16  1  0  0  0  0
 16 17  2  0  0  0  0
 18 19  1  0  0  0  0
 18 20  2  0  0  0  0
 19 33  1  0  0  0  0
 19 34  1  0  0  0  0
 19 35  1  0  0  0  0
 20 36  1  0  0  0  0
M  END
$$$$
