
 OpenBabel09162610133D

 40 41  0  0  1  0  0  0  0  0999 V2000
    1.1930    2.0903   -3.9763 C   0  0  0  0  0  0  0  0  0  0  0  0
    2.7103    2.0601   -3.9660 C   0  0  0  0  0  0  0  0  0  0  0  0
    3.2563    1.1871   -3.1688 N   0  0  0  0  0  0  0  0  0  0  0  0
    4.6233    1.0820   -3.1312 N   0  0  0  0  0  0  0  0  0  0  0  0
    5.2696    0.1606   -2.3104 C   0  0  0  0  0  0  0  0  0  0  0  0
    4.3995   -0.8795   -1.2982 S   0  0  0  0  0  0  0  0  0  0  0  0
    6.6763    0.1939   -2.3591 N   0  0  0  0  0  0  0  0  0  0  0  0
    7.5377   -0.6931   -1.5419 C   0  0  0  0  0  0  0  0  0  0  0  0
    8.5189    0.1367   -0.6889 C   0  0  1  0  0  0  0  0  0  0  0  0
    9.4771   -0.7636    0.0800 C   0  0  0  0  0  0  0  0  0  0  0  0
    9.3081    1.0068   -1.5250 O   0  0  0  0  0  0  0  0  0  0  0  0
    8.4623    1.9058   -2.2653 C   0  0  1  0  0  0  0  0  0  0  0  0
    9.3573    2.8148   -3.0961 C   0  0  0  0  0  0  0  0  0  0  0  0
    7.4922    1.1180   -3.1667 C   0  0  0  0  0  0  0  0  0  0  0  0
    3.4182    3.0296   -4.8724 C   0  0  0  0  0  0  0  0  0  0  0  0
    2.8337    4.2378   -5.2357 C   0  0  0  0  0  0  0  0  0  0  0  0
    3.5454    5.1003   -6.0657 C   0  0  0  0  0  0  0  0  0  0  0  0
    4.8056    4.7252   -6.5221 C   0  0  0  0  0  0  0  0  0  0  0  0
    5.3100    3.5026   -6.1182 C   0  0  0  0  0  0  0  0  0  0  0  0
    4.6584    2.6534   -5.2921 N   0  0  0  0  0  0  0  0  0  0  0  0
    0.7909    1.2936   -3.3405 H   0  0  0  0  0  0  0  0  0  0  0  0
    0.8266    1.9324   -4.9954 H   0  0  0  0  0  0  0  0  0  0  0  0
    0.8217    3.0436   -3.5920 H   0  0  0  0  0  0  0  0  0  0  0  0
    5.1054    1.5426   -3.8970 H   0  0  0  0  0  0  0  0  0  0  0  0
    8.0937   -1.3167   -2.2536 H   0  0  0  0  0  0  0  0  0  0  0  0
    6.9719   -1.3654   -0.8961 H   0  0  0  0  0  0  0  0  0  0  0  0
    7.9653    0.7575    0.0270 H   0  0  0  0  0  0  0  0  0  0  0  0
   10.0974   -1.3545   -0.6029 H   0  0  0  0  0  0  0  0  0  0  0  0
    8.9365   -1.4459    0.7432 H   0  0  0  0  0  0  0  0  0  0  0  0
   10.1635   -0.1620    0.6859 H   0  0  0  0  0  0  0  0  0  0  0  0
    7.8990    2.5191   -1.5508 H   0  0  0  0  0  0  0  0  0  0  0  0
    9.9890    2.2323   -3.7757 H   0  0  0  0  0  0  0  0  0  0  0  0
   10.0324    3.3827   -2.4471 H   0  0  0  0  0  0  0  0  0  0  0  0
    8.7655    3.5219   -3.6857 H   0  0  0  0  0  0  0  0  0  0  0  0
    8.0568    0.4909   -3.8685 H   0  0  0  0  0  0  0  0  0  0  0  0
    6.9018    1.8170   -3.7536 H   0  0  0  0  0  0  0  0  0  0  0  0
    1.8554    4.5380   -4.8760 H   0  0  0  0  0  0  0  0  0  0  0  0
    3.1220    6.0590   -6.3544 H   0  0  0  0  0  0  0  0  0  0  0  0
    5.3783    5.3748   -7.1752 H   0  0  0  0  0  0  0  0  0  0  0  0
    6.2843    3.1629   -6.4596 H   0  0  0  0  0  0  0  0  0  0  0  0
  1  2  1  0  0  0  0
  1 21  1  0  0  0  0
  1 22  1  0  0  0  0
  1 23  1  0  0  0  0
  2  3  2  0  0  0  0
  2 15  1  0  0  0  0
  3  4  1  0  0  0  0
  4  5  1  0  0  0  0
  4 24  1  0  0  0  0
  5  6  2  0  0  0  0
  5  7  1  0  0  0  0
  7  8  1  0  0  0  0
  7 14  1  0  0  0  0
  8  9  1  0  0  0  0
  8 25  1  0  0  0  0
  8 26  1  0  0  0  0
  9 10  1  0  0  0  0
  9 11  1  0  0  0  0
  9 27  1  1  0  0  0
 10 28  1  0  0  0  0
 10 29  1  0  0  0  0
 10 30  1  0  0  0  0
 11 12  1  0  0  0  0
 12 13  1  0  0  0  0
 12 14  1  0  0  0  0
 12 31  1  1  0  0  0
 13 32  1  0  0  0  0
 13 33  1  0  0  0  0
 13 34  1  0  0  0  0
 14 35  1  0  0  0  0
 14 36  1  0  0  0  0
 15 16  2  0  0  0  0
 15 20  1  0  0  0  0
 16 17  1  0  0  0  0
 16 37  1  0  0  0  0
 17 18  2  0  0  0  0
 17 38  1  0  0  0  0
 18 19  1  0  0  0  0
 18 39  1  0  0  0  0
 19 20  2  0  0  0  0
 19 40  1  0  0  0  0
M  END
$$$$
