
 OpenBabel09162610133D

 33 35  0  0  0  0  0  0  0  0999 V2000
    1.2619    1.9990   -1.7567 C   0  0  0  0  0  0  0  0  0  0  0  0
    2.6750    1.8725   -1.6123 O   0  0  0  0  0  0  0  0  0  0  0  0
    3.0685    0.8156   -0.8600 C   0  0  0  0  0  0  0  0  0  0  0  0
    2.3244    0.0155   -0.3193 O   0  0  0  0  0  0  0  0  0  0  0  0
    4.5498    0.7585   -0.8302 C   0  0  0  0  0  0  0  0  0  0  0  0
    5.2356    1.9749   -0.8530 C   0  0  0  0  0  0  0  0  0  0  0  0
    6.6107    1.9473   -0.9003 C   0  0  0  0  0  0  0  0  0  0  0  0
    7.4108    3.1550   -1.0327 C   0  0  0  0  0  0  0  0  0  0  0  0
    8.7683    3.3841   -1.1198 C   0  0  0  0  0  0  0  0  0  0  0  0
    8.9381    4.7797   -1.2624 C   0  0  0  0  0  0  0  0  0  0  0  0
    7.6755    5.3287   -1.2377 C   0  0  0  0  0  0  0  0  0  0  0  0
    7.1758    6.7163   -1.3018 C   0  0  0  0  0  0  0  0  0  0  0  0
    6.7392    4.3462   -1.1115 O   0  0  0  0  0  0  0  0  0  0  0  0
    7.3197    0.7955   -0.8760 N   0  0  0  0  0  0  0  0  0  0  0  0
    6.6654   -0.3750   -0.8253 C   0  0  0  0  0  0  0  0  0  0  0  0
    7.4269   -1.5373   -0.8174 C   0  0  0  0  0  0  0  0  0  0  0  0
    6.8455   -2.8054   -0.7912 C   0  0  0  0  0  0  0  0  0  0  0  0
    5.4652   -2.9220   -0.7793 C   0  0  0  0  0  0  0  0  0  0  0  0
    4.6784   -1.7693   -0.7891 C   0  0  0  0  0  0  0  0  0  0  0  0
    5.2591   -0.4716   -0.8051 C   0  0  0  0  0  0  0  0  0  0  0  0
    1.0572    2.9033   -2.3365 H   0  0  0  0  0  0  0  0  0  0  0  0
    0.7810    2.0976   -0.7787 H   0  0  0  0  0  0  0  0  0  0  0  0
    0.8647    1.1380   -2.3023 H   0  0  0  0  0  0  0  0  0  0  0  0
    4.7065    2.9225   -0.8624 H   0  0  0  0  0  0  0  0  0  0  0  0
    9.5313    2.6191   -1.0846 H   0  0  0  0  0  0  0  0  0  0  0  0
    9.8680    5.3217   -1.3574 H   0  0  0  0  0  0  0  0  0  0  0  0
    8.0050    7.4198   -1.4272 H   0  0  0  0  0  0  0  0  0  0  0  0
    6.6505    6.9750   -0.3772 H   0  0  0  0  0  0  0  0  0  0  0  0
    6.4875    6.8471   -2.1419 H   0  0  0  0  0  0  0  0  0  0  0  0
    8.5113   -1.4537   -0.8397 H   0  0  0  0  0  0  0  0  0  0  0  0
    7.4734   -3.6924   -0.7863 H   0  0  0  0  0  0  0  0  0  0  0  0
    4.9962   -3.9032   -0.7644 H   0  0  0  0  0  0  0  0  0  0  0  0
    3.5982   -1.9002   -0.7871 H   0  0  0  0  0  0  0  0  0  0  0  0
  1  2  1  0  0  0  0
  1 21  1  0  0  0  0
  1 22  1  0  0  0  0
  1 23  1  0  0  0  0
  2  3  1  0  0  0  0
  3  4  2  0  0  0  0
  3  5  1  0  0  0  0
  5  6  2  0  0  0  0
  5 20  1  0  0  0  0
  6  7  1  0  0  0  0
  6 24  1  0  0  0  0
  7  8  1  0  0  0  0
  7 14  2  0  0  0  0
  8  9  2  0  0  0  0
  8 13  1  0  0  0  0
  9 10  1  0  0  0  0
  9 25  1  0  0  0  0
 10 11  2  0  0  0  0
 10 26  1  0  0  0  0
 11 12  1  0  0  0  0
 11 13  1  0  0  0  0
 12 27  1  0  0  0  0
 12 28  1  0  0  0  0
 12 29  1  0  0  0  0
 14 15  1  0  0  0  0
 15 16  1  0  0  0  0
 15 20  2  0  0  0  0
 16 17  2  0  0  0  0
 16 30  1  0  0  0  0
 17 18  1  0  0  0  0
 17 31  1  0  0  0  0
 18 19  2  0  0  0  0
 18 32  1  0  0  0  0
 19 20  1  0  0  0  0
 19 33  1  0  0  0  0
M  END
$$$$
