
 OpenBabel09162610133D

 34 36  0  0  0  0  0  0  0  0999 V2000
    4.0653    0.9949    2.1640 C   0  0  0  0  0  0  0  0  0  0  0  0
    4.0117    0.1741    0.8893 C   0  0  0  0  0  0  0  0  0  0  0  0
    3.2899   -0.9009    0.7312 N   0  0  0  0  0  0  0  0  0  0  0  0
    2.6101   -1.3100    1.8701 N   0  0  0  0  0  0  0  0  0  0  0  0
    1.6138   -2.1264    1.6884 C   0  0  0  0  0  0  0  0  0  0  0  0
    1.0361   -2.6975    0.0935 S   0  0  0  0  0  0  0  0  0  0  0  0
   -0.3424   -3.5168    0.8674 C   0  0  0  0  0  0  0  0  0  0  0  0
   -1.3750   -4.1873    0.2275 C   0  0  0  0  0  0  0  0  0  0  0  0
   -2.3893   -4.7379    1.0088 C   0  0  0  0  0  0  0  0  0  0  0  0
   -2.3482   -4.6175    2.4026 C   0  0  0  0  0  0  0  0  0  0  0  0
   -1.2946   -3.9430    3.0337 C   0  0  0  0  0  0  0  0  0  0  0  0
   -0.2805   -3.3797    2.2671 C   0  0  0  0  0  0  0  0  0  0  0  0
    0.8300   -2.6558    2.7076 N   0  0  0  0  0  0  0  0  0  0  0  0
    1.0919   -2.3461    4.0955 C   0  0  0  0  0  0  0  0  0  0  0  0
    4.8626    0.6598   -0.2426 C   0  0  0  0  0  0  0  0  0  0  0  0
    4.8550   -0.0017   -1.4667 C   0  0  0  0  0  0  0  0  0  0  0  0
    5.7098    0.4498   -2.4683 C   0  0  0  0  0  0  0  0  0  0  0  0
    6.5413    1.5369   -2.2202 C   0  0  0  0  0  0  0  0  0  0  0  0
    6.4747    2.1416   -0.9751 C   0  0  0  0  0  0  0  0  0  0  0  0
    5.6559    1.7321    0.0168 N   0  0  0  0  0  0  0  0  0  0  0  0
    3.4656    0.5729    2.9723 H   0  0  0  0  0  0  0  0  0  0  0  0
    3.6884    2.0019    1.9593 H   0  0  0  0  0  0  0  0  0  0  0  0
    5.0992    1.0622    2.5171 H   0  0  0  0  0  0  0  0  0  0  0  0
   -1.3995   -4.2725   -0.8536 H   0  0  0  0  0  0  0  0  0  0  0  0
   -3.2173   -5.2592    0.5341 H   0  0  0  0  0  0  0  0  0  0  0  0
   -3.1483   -5.0471    3.0026 H   0  0  0  0  0  0  0  0  0  0  0  0
   -1.3043   -3.8691    4.1149 H   0  0  0  0  0  0  0  0  0  0  0  0
    0.4714   -2.9069    4.7990 H   0  0  0  0  0  0  0  0  0  0  0  0
    0.9323   -1.2789    4.2831 H   0  0  0  0  0  0  0  0  0  0  0  0
    2.1332   -2.5835    4.3425 H   0  0  0  0  0  0  0  0  0  0  0  0
    4.2069   -0.8548   -1.6375 H   0  0  0  0  0  0  0  0  0  0  0  0
    5.7332   -0.0513   -3.4327 H   0  0  0  0  0  0  0  0  0  0  0  0
    7.2254    1.9028   -2.9775 H   0  0  0  0  0  0  0  0  0  0  0  0
    7.1032    2.9934   -0.7349 H   0  0  0  0  0  0  0  0  0  0  0  0
  1  2  1  0  0  0  0
  1 21  1  0  0  0  0
  1 22  1  0  0  0  0
  1 23  1  0  0  0  0
  2  3  2  0  0  0  0
  2 15  1  0  0  0  0
  3  4  1  0  0  0  0
  4  5  2  0  0  0  0
  5  6  1  0  0  0  0
  5 13  1  0  0  0  0
  6  7  1  0  0  0  0
  7  8  2  0  0  0  0
  7 12  1  0  0  0  0
  8  9  1  0  0  0  0
  8 24  1  0  0  0  0
  9 10  2  0  0  0  0
  9 25  1  0  0  0  0
 10 11  1  0  0  0  0
 10 26  1  0  0  0  0
 11 12  2  0  0  0  0
 11 27  1  0  0  0  0
 12 13  1  0  0  0  0
 13 14  1  0  0  0  0
 14 28  1  0  0  0  0
 14 29  1  0  0  0  0
 14 30  1  0  0  0  0
 15 16  2  0  0  0  0
 15 20  1  0  0  0  0
 16 17  1  0  0  0  0
 16 31  1  0  0  0  0
 17 18  2  0  0  0  0
 17 32  1  0  0  0  0
 18 19  1  0  0  0  0
 18 33  1  0  0  0  0
 19 20  2  0  0  0  0
 19 34  1  0  0  0  0
M  END
$$$$
