
 OpenBabel09162610133D

 37 39  0  0  1  0  0  0  0  0999 V2000
   -2.1295   -0.5242   -0.0913 C   0  0  0  0  0  0  0  0  0  0  0  0
   -0.7555   -0.1243    0.2582 C   0  0  0  0  0  0  0  0  0  0  0  0
   -0.0337   -0.7484    1.1963 N   0  0  0  0  0  0  0  0  0  0  0  0
    1.2036   -0.1082    1.1203 O   0  0  0  0  0  0  0  0  0  0  0  0
    1.0963    0.8349    0.1385 C   0  0  0  0  0  0  0  0  0  0  0  0
    2.3357    1.5272   -0.3283 C   0  0  2  0  0  0  0  0  0  0  0  0
    2.8247    0.8764   -1.6296 C   0  0  0  0  0  0  0  0  0  0  0  0
    3.4084   -0.5084   -1.3689 C   0  0  0  0  0  0  0  0  0  0  0  0
    4.4841   -0.4877   -0.2876 C   0  0  0  0  0  0  0  0  0  0  0  0
    4.0819    0.2329    0.9254 N   0  0  0  0  0  0  0  0  0  0  0  0
    4.4267   -0.0987    2.2445 C   0  0  0  0  0  0  0  0  0  0  0  0
    4.1771    0.6439    3.1939 O   0  0  0  0  0  0  0  0  0  0  0  0
    5.0187   -1.4156    2.5895 C   0  0  0  0  0  0  0  0  0  0  0  0
    4.4714   -2.1004    3.6883 C   0  0  0  0  0  0  0  0  0  0  0  0
    4.9655   -3.3543    4.0613 C   0  0  0  0  0  0  0  0  0  0  0  0
    5.9988   -3.9338    3.3292 C   0  0  0  0  0  0  0  0  0  0  0  0
    6.5735   -5.4996    3.7486 Cl  0  0  0  0  0  0  0  0  0  0  0  0
    6.5804   -3.2467    2.2669 C   0  0  0  0  0  0  0  0  0  0  0  0
    6.1138   -1.9762    1.9337 C   0  0  0  0  0  0  0  0  0  0  0  0
    6.7592   -1.3090    0.9650 F   0  0  0  0  0  0  0  0  0  0  0  0
    3.4664    1.5506    0.7081 C   0  0  0  0  0  0  0  0  0  0  0  0
   -0.1011    0.8796   -0.4056 N   0  0  0  0  0  0  0  0  0  0  0  0
   -2.3653   -1.5238    0.2841 H   0  0  0  0  0  0  0  0  0  0  0  0
   -2.2535   -0.5371   -1.1791 H   0  0  0  0  0  0  0  0  0  0  0  0
   -2.8519    0.1849    0.3289 H   0  0  0  0  0  0  0  0  0  0  0  0
    2.0560    2.5672   -0.5464 H   0  0  0  0  0  0  0  0  0  0  0  0
    3.5934    1.5118   -2.0894 H   0  0  0  0  0  0  0  0  0  0  0  0
    2.0068    0.7931   -2.3560 H   0  0  0  0  0  0  0  0  0  0  0  0
    3.8275   -0.9152   -2.2962 H   0  0  0  0  0  0  0  0  0  0  0  0
    2.6091   -1.1947   -1.0631 H   0  0  0  0  0  0  0  0  0  0  0  0
    5.3841    0.0094   -0.6683 H   0  0  0  0  0  0  0  0  0  0  0  0
    4.7295   -1.5256   -0.0673 H   0  0  0  0  0  0  0  0  0  0  0  0
    3.6592   -1.6521    4.2598 H   0  0  0  0  0  0  0  0  0  0  0  0
    4.5380   -3.8692    4.9187 H   0  0  0  0  0  0  0  0  0  0  0  0
    7.3957   -3.6808    1.6989 H   0  0  0  0  0  0  0  0  0  0  0  0
    4.2708    2.2094    0.3578 H   0  0  0  0  0  0  0  0  0  0  0  0
    3.0985    1.9757    1.6481 H   0  0  0  0  0  0  0  0  0  0  0  0
  1  2  1  0  0  0  0
  1 23  1  0  0  0  0
  1 24  1  0  0  0  0
  1 25  1  0  0  0  0
  2  3  2  0  0  0  0
  2 22  1  0  0  0  0
  3  4  1  0  0  0  0
  4  5  1  0  0  0  0
  5  6  1  0  0  0  0
  5 22  2  0  0  0  0
  6  7  1  0  0  0  0
  6 21  1  0  0  0  0
  6 26  1  6  0  0  0
  7  8  1  0  0  0  0
  7 27  1  0  0  0  0
  7 28  1  0  0  0  0
  8  9  1  0  0  0  0
  8 29  1  0  0  0  0
  8 30  1  0  0  0  0
  9 10  1  0  0  0  0
  9 31  1  0  0  0  0
  9 32  1  0  0  0  0
 10 11  1  0  0  0  0
 10 21  1  0  0  0  0
 11 12  2  0  0  0  0
 11 13  1  0  0  0  0
 13 14  2  0  0  0  0
 13 19  1  0  0  0  0
 14 15  1  0  0  0  0
 14 33  1  0  0  0  0
 15 16  2  0  0  0  0
 15 34  1  0  0  0  0
 16 17  1  0  0  0  0
 16 18  1  0  0  0  0
 18 19  2  0  0  0  0
 18 35  1  0  0  0  0
 19 20  1  0  0  0  0
 21 36  1  0  0  0  0
 21 37  1  0  0  0  0
M  END
$$$$
