
 OpenBabel09162610133D

 41 44  0  0  0  0  0  0  0  0999 V2000
    0.7198   -0.0242    0.6350 N   0  0  0  0  0  0  0  0  0  0  0  0
    1.9611   -0.2172    0.3181 C   0  0  0  0  0  0  0  0  0  0  0  0
    2.8693    0.8838    0.0230 C   0  0  0  0  0  0  0  0  0  0  0  0
    2.6226    2.2840   -0.2630 C   0  0  0  0  0  0  0  0  0  0  0  0
    3.8098    2.9966   -0.3090 C   0  0  0  0  0  0  0  0  0  0  0  0
    5.1770    1.9887   -0.2363 S   0  0  0  0  0  0  0  0  0  0  0  0
    4.2224    0.5885   -0.0340 C   0  0  0  0  0  0  0  0  0  0  0  0
    4.8267   -0.6201    0.0849 N   0  0  0  0  0  0  0  0  0  0  0  0
    4.0213   -1.6465    0.2324 C   0  0  0  0  0  0  0  0  0  0  0  0
    2.5695   -1.4673    0.2839 N   0  0  0  0  0  0  0  0  0  0  0  0
    1.5833   -2.6107    0.4009 C   0  0  0  0  0  0  0  0  0  0  0  0
    2.4878   -3.7478    0.4830 C   0  0  0  0  0  0  0  0  0  0  0  0
    3.0824   -5.0693    0.6279 C   0  0  0  0  0  0  0  0  0  0  0  0
    4.5844   -4.6142    0.4804 C   0  0  0  0  0  0  0  0  0  0  0  0
    4.9346   -3.0311    0.4350 C   0  0  0  0  0  0  0  0  0  0  0  0
    3.9533    4.4897   -0.4065 C   0  0  0  0  0  0  0  0  0  0  0  0
    3.2605    5.1998    0.7657 C   0  0  0  0  0  0  0  0  0  0  0  0
    1.7265    5.2422    0.6984 C   0  0  0  0  0  0  0  0  0  0  0  0
    1.0037    3.8915    0.7604 C   0  0  0  0  0  0  0  0  0  0  0  0
    1.3095    2.9913   -0.4366 C   0  0  0  0  0  0  0  0  0  0  0  0
    0.5141    0.9682    0.7134 H   0  0  0  0  0  0  0  0  0  0  0  0
    0.9349   -2.6453   -0.4831 H   0  0  0  0  0  0  0  0  0  0  0  0
    0.9650   -2.5111    1.2994 H   0  0  0  0  0  0  0  0  0  0  0  0
    2.9387   -3.3839    1.4227 H   0  0  0  0  0  0  0  0  0  0  0  0
    2.8967   -3.5832   -0.5294 H   0  0  0  0  0  0  0  0  0  0  0  0
    2.7956   -5.7750   -0.1575 H   0  0  0  0  0  0  0  0  0  0  0  0
    2.8946   -5.5266    1.6037 H   0  0  0  0  0  0  0  0  0  0  0  0
    4.9817   -5.0674   -0.4359 H   0  0  0  0  0  0  0  0  0  0  0  0
    5.1603   -5.0638    1.3001 H   0  0  0  0  0  0  0  0  0  0  0  0
    5.7115   -2.9458   -0.3409 H   0  0  0  0  0  0  0  0  0  0  0  0
    5.4644   -2.8335    1.3797 H   0  0  0  0  0  0  0  0  0  0  0  0
    3.5423    4.8407   -1.3606 H   0  0  0  0  0  0  0  0  0  0  0  0
    5.0136    4.7713   -0.4018 H   0  0  0  0  0  0  0  0  0  0  0  0
    3.6114    6.2398    0.7790 H   0  0  0  0  0  0  0  0  0  0  0  0
    3.5724    4.7540    1.7186 H   0  0  0  0  0  0  0  0  0  0  0  0
    1.4192    5.7752   -0.2103 H   0  0  0  0  0  0  0  0  0  0  0  0
    1.3714    5.8491    1.5425 H   0  0  0  0  0  0  0  0  0  0  0  0
   -0.0754    4.0903    0.7749 H   0  0  0  0  0  0  0  0  0  0  0  0
    1.2411    3.3828    1.7040 H   0  0  0  0  0  0  0  0  0  0  0  0
    1.3410    3.5916   -1.3556 H   0  0  0  0  0  0  0  0  0  0  0  0
    0.4927    2.2875   -0.6088 H   0  0  0  0  0  0  0  0  0  0  0  0
  1  2  2  0  0  0  0
  1 21  1  0  0  0  0
  2  3  1  0  0  0  0
  2 10  1  0  0  0  0
  3  4  1  0  0  0  0
  3  7  2  0  0  0  0
  4  5  2  0  0  0  0
  4 20  1  0  0  0  0
  5  6  1  0  0  0  0
  5 16  1  0  0  0  0
  6  7  1  0  0  0  0
  7  8  1  0  0  0  0
  8  9  2  0  0  0  0
  9 10  1  0  0  0  0
  9 15  1  0  0  0  0
 10 11  1  0  0  0  0
 11 12  1  0  0  0  0
 11 22  1  0  0  0  0
 11 23  1  0  0  0  0
 12 13  1  0  0  0  0
 12 24  1  0  0  0  0
 12 25  1  0  0  0  0
 13 14  1  0  0  0  0
 13 26  1  0  0  0  0
 13 27  1  0  0  0  0
 14 15  1  0  0  0  0
 14 28  1  0  0  0  0
 14 29  1  0  0  0  0
 15 30  1  0  0  0  0
 15 31  1  0  0  0  0
 16 17  1  0  0  0  0
 16 32  1  0  0  0  0
 16 33  1  0  0  0  0
 17 18  1  0  0  0  0
 17 34  1  0  0  0  0
 17 35  1  0  0  0  0
 18 19  1  0  0  0  0
 18 36  1  0  0  0  0
 18 37  1  0  0  0  0
 19 20  1  0  0  0  0
 19 38  1  0  0  0  0
 19 39  1  0  0  0  0
 20 40  1  0  0  0  0
 20 41  1  0  0  0  0
M  END
$$$$
