
 OpenBabel09162610133D

 41 43  0  0  0  0  0  0  0  0999 V2000
    6.2163    2.0420   -2.0153 C   0  0  0  0  0  0  0  0  0  0  0  0
    5.2584    0.9901   -1.5336 C   0  0  0  0  0  0  0  0  0  0  0  0
    5.7424   -0.2061   -0.9934 C   0  0  0  0  0  0  0  0  0  0  0  0
    4.8602   -1.2115   -0.5815 C   0  0  0  0  0  0  0  0  0  0  0  0
    5.3557   -2.4466   -0.1151 N   0  0  0  0  0  0  0  0  0  0  0  0
    4.7178   -3.6967   -0.1955 C   0  0  0  0  0  0  0  0  0  0  0  0
    3.9992   -4.0611   -1.3381 C   0  0  0  0  0  0  0  0  0  0  0  0
    3.2365   -5.2302   -1.3767 C   0  0  0  0  0  0  0  0  0  0  0  0
    3.1771   -6.0931   -0.2748 C   0  0  0  0  0  0  0  0  0  0  0  0
    2.3251   -7.3737   -0.2828 C   0  0  0  0  0  0  0  0  0  0  0  0
    1.5175   -7.5727   -1.5867 C   0  0  0  0  0  0  0  0  0  0  0  0
    3.2434   -8.6014   -0.1174 C   0  0  0  0  0  0  0  0  0  0  0  0
    1.3067   -7.3364    0.8769 C   0  0  0  0  0  0  0  0  0  0  0  0
    3.9415   -5.7433    0.8556 C   0  0  0  0  0  0  0  0  0  0  0  0
    4.6983   -4.5632    0.8959 C   0  0  0  0  0  0  0  0  0  0  0  0
    3.5090   -0.8869   -0.7304 C   0  0  0  0  0  0  0  0  0  0  0  0
    2.3484   -1.5477   -0.4202 N   0  0  0  0  0  0  0  0  0  0  0  0
    1.2215   -0.8855   -0.7563 N   0  0  0  0  0  0  0  0  0  0  0  0
    1.6878    0.2552   -1.2780 C   0  0  0  0  0  0  0  0  0  0  0  0
    3.0952    0.3187   -1.2716 C   0  0  0  0  0  0  0  0  0  0  0  0
    3.9480    1.2822   -1.6882 N   0  0  0  0  0  0  0  0  0  0  0  0
    7.2587    1.7523   -1.8516 H   0  0  0  0  0  0  0  0  0  0  0  0
    6.0340    2.9802   -1.4826 H   0  0  0  0  0  0  0  0  0  0  0  0
    6.0718    2.2084   -3.0874 H   0  0  0  0  0  0  0  0  0  0  0  0
    6.8134   -0.3745   -0.9289 H   0  0  0  0  0  0  0  0  0  0  0  0
    6.0374   -2.3569    0.6312 H   0  0  0  0  0  0  0  0  0  0  0  0
    4.0154   -3.4199   -2.2179 H   0  0  0  0  0  0  0  0  0  0  0  0
    2.6874   -5.4305   -2.2923 H   0  0  0  0  0  0  0  0  0  0  0  0
    2.1745   -7.6537   -2.4606 H   0  0  0  0  0  0  0  0  0  0  0  0
    0.8212   -6.7430   -1.7591 H   0  0  0  0  0  0  0  0  0  0  0  0
    0.9209   -8.4916   -1.5478 H   0  0  0  0  0  0  0  0  0  0  0  0
    3.9969   -8.6394   -0.9131 H   0  0  0  0  0  0  0  0  0  0  0  0
    2.6678   -9.5333   -0.1578 H   0  0  0  0  0  0  0  0  0  0  0  0
    3.7759   -8.5920    0.8399 H   0  0  0  0  0  0  0  0  0  0  0  0
    0.6564   -6.4564    0.8035 H   0  0  0  0  0  0  0  0  0  0  0  0
    1.7938   -7.3050    1.8574 H   0  0  0  0  0  0  0  0  0  0  0  0
    0.6650   -8.2255    0.8664 H   0  0  0  0  0  0  0  0  0  0  0  0
    3.9479   -6.3843    1.7352 H   0  0  0  0  0  0  0  0  0  0  0  0
    5.2471   -4.3223    1.8031 H   0  0  0  0  0  0  0  0  0  0  0  0
    2.2633   -2.4628    0.0107 H   0  0  0  0  0  0  0  0  0  0  0  0
    0.9907    0.9958   -1.6428 H   0  0  0  0  0  0  0  0  0  0  0  0
  1  2  1  0  0  0  0
  1 22  1  0  0  0  0
  1 23  1  0  0  0  0
  1 24  1  0  0  0  0
  2  3  2  0  0  0  0
  2 21  1  0  0  0  0
  3  4  1  0  0  0  0
  3 25  1  0  0  0  0
  4  5  1  0  0  0  0
  4 16  2  0  0  0  0
  5  6  1  0  0  0  0
  5 26  1  0  0  0  0
  6  7  2  0  0  0  0
  6 15  1  0  0  0  0
  7  8  1  0  0  0  0
  7 27  1  0  0  0  0
  8  9  2  0  0  0  0
  8 28  1  0  0  0  0
  9 10  1  0  0  0  0
  9 14  1  0  0  0  0
 10 11  1  0  0  0  0
 10 12  1  0  0  0  0
 10 13  1  0  0  0  0
 11 29  1  0  0  0  0
 11 30  1  0  0  0  0
 11 31  1  0  0  0  0
 12 32  1  0  0  0  0
 12 33  1  0  0  0  0
 12 34  1  0  0  0  0
 13 35  1  0  0  0  0
 13 36  1  0  0  0  0
 13 37  1  0  0  0  0
 14 15  2  0  0  0  0
 14 38  1  0  0  0  0
 15 39  1  0  0  0  0
 16 17  1  0  0  0  0
 16 20  1  0  0  0  0
 17 18  1  0  0  0  0
 17 40  1  0  0  0  0
 18 19  2  0  0  0  0
 19 20  1  0  0  0  0
 19 41  1  0  0  0  0
 20 21  2  0  0  0  0
M  END
$$$$
