
 OpenBabel09162610133D

 39 42  0  0  0  0  0  0  0  0999 V2000
   -0.1017    2.9251   -3.1249 N   0  0  0  0  0  0  0  0  0  0  0  0
   -0.7983    2.1249   -2.2118 C   0  0  0  0  0  0  0  0  0  0  0  0
   -1.4426    2.7001   -1.1146 C   0  0  0  0  0  0  0  0  0  0  0  0
   -2.2381    1.9300   -0.2585 C   0  0  0  0  0  0  0  0  0  0  0  0
   -2.4618    0.5775   -0.5265 C   0  0  0  0  0  0  0  0  0  0  0  0
   -3.2697   -0.3234    0.3730 C   0  0  0  0  0  0  0  0  0  0  0  0
   -4.2601    0.2860    1.2549 N   0  0  0  0  0  0  0  0  0  0  0  0
   -4.5918   -0.5732    2.2976 C   0  0  0  0  0  0  0  0  0  0  0  0
   -3.9750   -0.6466    3.3517 O   0  0  0  0  0  0  0  0  0  0  0  0
   -5.7150   -1.5025    1.9990 C   0  0  0  0  0  0  0  0  0  0  0  0
   -5.8254   -2.7014    2.7012 C   0  0  0  0  0  0  0  0  0  0  0  0
   -6.7505   -3.6471    2.2788 C   0  0  0  0  0  0  0  0  0  0  0  0
   -7.5925   -3.3680    1.1962 C   0  0  0  0  0  0  0  0  0  0  0  0
   -7.5715   -2.1163    0.5355 C   0  0  0  0  0  0  0  0  0  0  0  0
   -8.4816   -1.7364   -0.4932 C   0  0  0  0  0  0  0  0  0  0  0  0
   -9.4135   -2.6448   -1.0333 N   0  0  0  0  0  0  0  0  0  0  0  0
   -8.3268   -0.4988   -1.1395 C   0  0  0  0  0  0  0  0  0  0  0  0
   -7.3337    0.3957   -0.7500 C   0  0  0  0  0  0  0  0  0  0  0  0
   -6.4586    0.0314    0.2684 C   0  0  0  0  0  0  0  0  0  0  0  0
   -6.5801   -1.1929    0.9364 C   0  0  0  0  0  0  0  0  0  0  0  0
   -5.3220    0.9161    0.6206 C   0  0  0  0  0  0  0  0  0  0  0  0
   -5.3896    2.1182    0.4063 O   0  0  0  0  0  0  0  0  0  0  0  0
   -1.8536    0.0138   -1.6607 C   0  0  0  0  0  0  0  0  0  0  0  0
   -1.0514    0.7858   -2.5044 C   0  0  0  0  0  0  0  0  0  0  0  0
    0.2873    3.7661   -2.7105 H   0  0  0  0  0  0  0  0  0  0  0  0
    0.5815    2.4153   -3.6753 H   0  0  0  0  0  0  0  0  0  0  0  0
   -1.3293    3.7610   -0.9078 H   0  0  0  0  0  0  0  0  0  0  0  0
   -2.6984    2.4112    0.6024 H   0  0  0  0  0  0  0  0  0  0  0  0
   -2.5681   -0.9117    0.9793 H   0  0  0  0  0  0  0  0  0  0  0  0
   -3.8080   -1.0374   -0.2675 H   0  0  0  0  0  0  0  0  0  0  0  0
   -5.1669   -2.9143    3.5405 H   0  0  0  0  0  0  0  0  0  0  0  0
   -6.8136   -4.6091    2.7821 H   0  0  0  0  0  0  0  0  0  0  0  0
   -8.2748   -4.1511    0.8737 H   0  0  0  0  0  0  0  0  0  0  0  0
   -9.7443   -3.3405   -0.3742 H   0  0  0  0  0  0  0  0  0  0  0  0
  -10.1895   -2.1917   -1.5081 H   0  0  0  0  0  0  0  0  0  0  0  0
   -8.9842   -0.2232   -1.9608 H   0  0  0  0  0  0  0  0  0  0  0  0
   -7.2284    1.3533   -1.2558 H   0  0  0  0  0  0  0  0  0  0  0  0
   -2.0048   -1.0366   -1.9036 H   0  0  0  0  0  0  0  0  0  0  0  0
   -0.6223    0.3284   -3.3916 H   0  0  0  0  0  0  0  0  0  0  0  0
  1  2  1  0  0  0  0
  1 25  1  0  0  0  0
  1 26  1  0  0  0  0
  2  3  2  0  0  0  0
  2 24  1  0  0  0  0
  3  4  1  0  0  0  0
  3 27  1  0  0  0  0
  4  5  2  0  0  0  0
  4 28  1  0  0  0  0
  5  6  1  0  0  0  0
  5 23  1  0  0  0  0
  6  7  1  0  0  0  0
  6 29  1  0  0  0  0
  6 30  1  0  0  0  0
  7  8  1  0  0  0  0
  7 21  1  0  0  0  0
  8  9  2  0  0  0  0
  8 10  1  0  0  0  0
 10 11  2  0  0  0  0
 10 20  1  0  0  0  0
 11 12  1  0  0  0  0
 11 31  1  0  0  0  0
 12 13  2  0  0  0  0
 12 32  1  0  0  0  0
 13 14  1  0  0  0  0
 13 33  1  0  0  0  0
 14 15  1  0  0  0  0
 14 20  2  0  0  0  0
 15 16  1  0  0  0  0
 15 17  2  0  0  0  0
 16 34  1  0  0  0  0
 16 35  1  0  0  0  0
 17 18  1  0  0  0  0
 17 36  1  0  0  0  0
 18 19  2  0  0  0  0
 18 37  1  0  0  0  0
 19 20  1  0  0  0  0
 19 21  1  0  0  0  0
 21 22  2  0  0  0  0
 23 24  2  0  0  0  0
 23 38  1  0  0  0  0
 24 39  1  0  0  0  0
M  END
$$$$
