
 OpenBabel09162610133D

 41 42  0  0  0  0  0  0  0  0999 V2000
    3.7867    1.6635   -0.6995 C   0  0  0  0  0  0  0  0  0  0  0  0
    4.9121    0.6255   -0.7522 C   0  0  0  0  0  0  0  0  0  0  0  0
    4.7773   -0.3501   -1.9265 C   0  0  0  0  0  0  0  0  0  0  0  0
    6.2258    1.4130   -0.9585 C   0  0  0  0  0  0  0  0  0  0  0  0
    5.0870   -0.1043    0.5027 N   0  0  0  0  0  0  0  0  0  0  0  0
    4.2580   -0.7518    1.2316 C   0  0  0  0  0  0  0  0  0  0  0  0
    2.5363   -0.9543    0.9099 S   0  0  0  0  0  0  0  0  0  0  0  0
    4.6986   -1.4168    2.5171 C   0  0  0  0  0  0  0  0  0  0  0  0
    4.2194   -2.6376    2.8104 C   0  0  0  0  0  0  0  0  0  0  0  0
    4.5303   -3.4120    4.0579 C   0  0  0  0  0  0  0  0  0  0  0  0
    5.1418   -4.7600    3.6619 C   0  0  0  0  0  0  0  0  0  0  0  0
    3.2237   -3.6380    4.8315 C   0  0  0  0  0  0  0  0  0  0  0  0
    5.4468   -2.7867    4.9644 O   0  0  0  0  0  0  0  0  0  0  0  0
    5.9921   -1.5801    4.6299 C   0  0  0  0  0  0  0  0  0  0  0  0
    6.9179   -1.0908    5.5591 C   0  0  0  0  0  0  0  0  0  0  0  0
    7.5517    0.1309    5.3478 C   0  0  0  0  0  0  0  0  0  0  0  0
    7.2501    0.8733    4.2061 C   0  0  0  0  0  0  0  0  0  0  0  0
    7.8981    2.1314    3.9795 C   0  0  0  0  0  0  0  0  0  0  0  0
    8.4282    3.1526    3.8049 N   0  0  0  0  0  0  0  0  0  0  0  0
    6.3129    0.3839    3.2817 C   0  0  0  0  0  0  0  0  0  0  0  0
    5.6764   -0.8561    3.4703 C   0  0  0  0  0  0  0  0  0  0  0  0
    3.7823    2.2815   -1.6044 H   0  0  0  0  0  0  0  0  0  0  0  0
    3.9093    2.3300    0.1623 H   0  0  0  0  0  0  0  0  0  0  0  0
    2.7901    1.2272   -0.6342 H   0  0  0  0  0  0  0  0  0  0  0  0
    4.7596    0.1847   -2.8827 H   0  0  0  0  0  0  0  0  0  0  0  0
    3.8702   -0.9546   -1.8822 H   0  0  0  0  0  0  0  0  0  0  0  0
    5.6213   -1.0500   -1.9510 H   0  0  0  0  0  0  0  0  0  0  0  0
    6.2237    1.9424   -1.9189 H   0  0  0  0  0  0  0  0  0  0  0  0
    7.0981    0.7499   -0.9415 H   0  0  0  0  0  0  0  0  0  0  0  0
    6.3685    2.1584   -0.1671 H   0  0  0  0  0  0  0  0  0  0  0  0
    2.5924   -0.9129   -0.4207 H   0  0  0  0  0  0  0  0  0  0  0  0
    3.5460   -3.1491    2.1265 H   0  0  0  0  0  0  0  0  0  0  0  0
    4.4914   -5.3210    2.9812 H   0  0  0  0  0  0  0  0  0  0  0  0
    5.3310   -5.3804    4.5451 H   0  0  0  0  0  0  0  0  0  0  0  0
    6.1111   -4.6164    3.1693 H   0  0  0  0  0  0  0  0  0  0  0  0
    2.4570   -4.1192    4.2132 H   0  0  0  0  0  0  0  0  0  0  0  0
    2.8181   -2.6874    5.1994 H   0  0  0  0  0  0  0  0  0  0  0  0
    3.3924   -4.2638    5.7153 H   0  0  0  0  0  0  0  0  0  0  0  0
    7.1450   -1.6717    6.4507 H   0  0  0  0  0  0  0  0  0  0  0  0
    8.2748    0.4934    6.0756 H   0  0  0  0  0  0  0  0  0  0  0  0
    6.0975    0.9901    2.4041 H   0  0  0  0  0  0  0  0  0  0  0  0
  1  2  1  0  0  0  0
  1 22  1  0  0  0  0
  1 23  1  0  0  0  0
  1 24  1  0  0  0  0
  2  3  1  0  0  0  0
  2  4  1  0  0  0  0
  2  5  1  0  0  0  0
  3 25  1  0  0  0  0
  3 26  1  0  0  0  0
  3 27  1  0  0  0  0
  4 28  1  0  0  0  0
  4 29  1  0  0  0  0
  4 30  1  0  0  0  0
  5  6  2  0  0  0  0
  6  7  1  0  0  0  0
  6  8  1  0  0  0  0
  7 31  1  0  0  0  0
  8  9  2  0  0  0  0
  8 21  1  0  0  0  0
  9 10  1  0  0  0  0
  9 32  1  0  0  0  0
 10 11  1  0  0  0  0
 10 12  1  0  0  0  0
 10 13  1  0  0  0  0
 11 33  1  0  0  0  0
 11 34  1  0  0  0  0
 11 35  1  0  0  0  0
 12 36  1  0  0  0  0
 12 37  1  0  0  0  0
 12 38  1  0  0  0  0
 13 14  1  0  0  0  0
 14 15  1  0  0  0  0
 14 21  2  0  0  0  0
 15 16  2  0  0  0  0
 15 39  1  0  0  0  0
 16 17  1  0  0  0  0
 16 40  1  0  0  0  0
 17 18  1  0  0  0  0
 17 20  2  0  0  0  0
 18 19  3  0  0  0  0
 20 21  1  0  0  0  0
 20 41  1  0  0  0  0
M  END
$$$$
