
 OpenBabel09162610133D

 30 33  0  0  0  0  0  0  0  0999 V2000
    1.0363   -0.0504   -0.1082 O   0  0  0  0  0  0  0  0  0  0  0  0
    2.2624   -0.0671   -0.0332 C   0  0  0  0  0  0  0  0  0  0  0  0
    2.9716   -1.2300    0.0040 N   0  0  0  0  0  0  0  0  0  0  0  0
    4.2777   -1.2541    0.0396 C   0  0  0  0  0  0  0  0  0  0  0  0
    4.9823   -2.4761    0.0888 N   0  0  0  0  0  0  0  0  0  0  0  0
    4.2152   -3.6842   -0.3223 C   0  0  0  0  0  0  0  0  0  0  0  0
    3.0081   -4.1388    0.4715 C   0  0  0  0  0  0  0  0  0  0  0  0
    4.2126   -5.0152    0.3868 C   0  0  0  0  0  0  0  0  0  0  0  0
    6.4163   -2.4639    0.0334 C   0  0  0  0  0  0  0  0  0  0  0  0
    7.1895   -3.6349    0.0490 C   0  0  0  0  0  0  0  0  0  0  0  0
    8.5860   -3.5740   -0.0018 C   0  0  0  0  0  0  0  0  0  0  0  0
    9.5064   -5.0285    0.0403 Cl  0  0  0  0  0  0  0  0  0  0  0  0
    9.2447   -2.3525   -0.0828 C   0  0  0  0  0  0  0  0  0  0  0  0
    8.5020   -1.1760   -0.0929 C   0  0  0  0  0  0  0  0  0  0  0  0
    7.1016   -1.2253   -0.0231 C   0  0  0  0  0  0  0  0  0  0  0  0
    6.3568    0.0336   -0.0239 C   0  0  0  0  0  0  0  0  0  0  0  0
    5.0187    0.0340    0.0156 C   0  0  0  0  0  0  0  0  0  0  0  0
    4.2673    1.2935   -0.0132 C   0  0  0  0  0  0  0  0  0  0  0  0
    4.7975    2.3970   -0.0603 O   0  0  0  0  0  0  0  0  0  0  0  0
    2.9239    1.1273    0.0099 N   0  0  0  0  0  0  0  0  0  0  0  0
    4.1057   -3.7137   -1.4053 H   0  0  0  0  0  0  0  0  0  0  0  0
    2.1188   -4.4035   -0.0885 H   0  0  0  0  0  0  0  0  0  0  0  0
    2.8016   -3.6618    1.4229 H   0  0  0  0  0  0  0  0  0  0  0  0
    4.1342   -5.9084   -0.2244 H   0  0  0  0  0  0  0  0  0  0  0  0
    4.7844   -5.1457    1.2958 H   0  0  0  0  0  0  0  0  0  0  0  0
    6.7266   -4.6119    0.1162 H   0  0  0  0  0  0  0  0  0  0  0  0
   10.3297   -2.3081   -0.1337 H   0  0  0  0  0  0  0  0  0  0  0  0
    9.0241   -0.2229   -0.1552 H   0  0  0  0  0  0  0  0  0  0  0  0
    6.9149    0.9648   -0.0652 H   0  0  0  0  0  0  0  0  0  0  0  0
    2.3459    1.9512   -0.0359 H   0  0  0  0  0  0  0  0  0  0  0  0
  1  2  2  0  0  0  0
  2  3  1  0  0  0  0
  2 20  1  0  0  0  0
  3  4  2  0  0  0  0
  4  5  1  0  0  0  0
  4 17  1  0  0  0  0
  5  6  1  0  0  0  0
  5  9  1  0  0  0  0
  6  7  1  0  0  0  0
  6  8  1  0  0  0  0
  6 21  1  0  0  0  0
  7  8  1  0  0  0  0
  7 22  1  0  0  0  0
  7 23  1  0  0  0  0
  8 24  1  0  0  0  0
  8 25  1  0  0  0  0
  9 10  2  0  0  0  0
  9 15  1  0  0  0  0
 10 11  1  0  0  0  0
 10 26  1  0  0  0  0
 11 12  1  0  0  0  0
 11 13  2  0  0  0  0
 13 14  1  0  0  0  0
 13 27  1  0  0  0  0
 14 15  2  0  0  0  0
 14 28  1  0  0  0  0
 15 16  1  0  0  0  0
 16 17  2  0  0  0  0
 16 29  1  0  0  0  0
 17 18  1  0  0  0  0
 18 19  2  0  0  0  0
 18 20  1  0  0  0  0
 20 30  1  0  0  0  0
M  END
$$$$
