
 OpenBabel09162610133D

 30 32  0  0  0  0  0  0  0  0999 V2000
    4.3563    0.8788    0.5100 C   0  0  0  0  0  0  0  0  0  0  0  0
    2.9770   -0.0756   -0.1591 S   0  0  0  0  0  0  0  0  0  0  0  0
    3.3794   -1.7155    0.3532 C   0  0  0  0  0  0  0  0  0  0  0  0
    4.5024   -1.8745    0.9769 N   0  0  0  0  0  0  0  0  0  0  0  0
    4.9447   -3.1699    1.2598 C   0  0  0  0  0  0  0  0  0  0  0  0
    6.2090   -3.3496    1.8281 C   0  0  0  0  0  0  0  0  0  0  0  0
    6.7069   -4.6348    2.0673 C   0  0  0  0  0  0  0  0  0  0  0  0
    5.9392   -5.7536    1.7515 C   0  0  0  0  0  0  0  0  0  0  0  0
    4.6737   -5.5851    1.1935 C   0  0  0  0  0  0  0  0  0  0  0  0
    4.1950   -4.2937    0.9442 C   0  0  0  0  0  0  0  0  0  0  0  0
    2.8851   -4.0865    0.3139 C   0  0  0  0  0  0  0  0  0  0  0  0
    2.1768   -5.0763    0.1334 O   0  0  0  0  0  0  0  0  0  0  0  0
    2.5314   -2.7684   -0.0064 N   0  0  0  0  0  0  0  0  0  0  0  0
    1.2773   -2.6076   -0.6795 C   0  0  0  0  0  0  0  0  0  0  0  0
    0.2656   -1.7701   -0.2033 C   0  0  0  0  0  0  0  0  0  0  0  0
   -0.9659   -1.7270   -0.8617 C   0  0  0  0  0  0  0  0  0  0  0  0
   -1.1489   -2.5211   -1.9826 C   0  0  0  0  0  0  0  0  0  0  0  0
   -0.2025   -3.3395   -2.4806 N   0  0  0  0  0  0  0  0  0  0  0  0
    0.9745   -3.3769   -1.8086 C   0  0  0  0  0  0  0  0  0  0  0  0
    4.3273    1.8865    0.0855 H   0  0  0  0  0  0  0  0  0  0  0  0
    5.3223    0.4375    0.2496 H   0  0  0  0  0  0  0  0  0  0  0  0
    4.2702    0.9624    1.5968 H   0  0  0  0  0  0  0  0  0  0  0  0
    6.8174   -2.4823    2.0684 H   0  0  0  0  0  0  0  0  0  0  0  0
    7.6994   -4.7612    2.4929 H   0  0  0  0  0  0  0  0  0  0  0  0
    6.3247   -6.7543    1.9304 H   0  0  0  0  0  0  0  0  0  0  0  0
    4.0719   -6.4554    0.9405 H   0  0  0  0  0  0  0  0  0  0  0  0
    0.3974   -1.1835    0.7014 H   0  0  0  0  0  0  0  0  0  0  0  0
   -1.7721   -1.1014   -0.4953 H   0  0  0  0  0  0  0  0  0  0  0  0
   -2.0943   -2.5295   -2.5176 H   0  0  0  0  0  0  0  0  0  0  0  0
    1.7017   -4.0665   -2.2322 H   0  0  0  0  0  0  0  0  0  0  0  0
  1  2  1  0  0  0  0
  1 20  1  0  0  0  0
  1 21  1  0  0  0  0
  1 22  1  0  0  0  0
  2  3  1  0  0  0  0
  3  4  2  0  0  0  0
  3 13  1  0  0  0  0
  4  5  1  0  0  0  0
  5  6  2  0  0  0  0
  5 10  1  0  0  0  0
  6  7  1  0  0  0  0
  6 23  1  0  0  0  0
  7  8  2  0  0  0  0
  7 24  1  0  0  0  0
  8  9  1  0  0  0  0
  8 25  1  0  0  0  0
  9 10  2  0  0  0  0
  9 26  1  0  0  0  0
 10 11  1  0  0  0  0
 11 12  2  0  0  0  0
 11 13  1  0  0  0  0
 13 14  1  0  0  0  0
 14 15  2  0  0  0  0
 14 19  1  0  0  0  0
 15 16  1  0  0  0  0
 15 27  1  0  0  0  0
 16 17  2  0  0  0  0
 16 28  1  0  0  0  0
 17 18  1  0  0  0  0
 17 29  1  0  0  0  0
 18 19  2  0  0  0  0
 19 30  1  0  0  0  0
M  END
$$$$
