
 OpenBabel09162610133D

 31 34  0  0  0  0  0  0  0  0999 V2000
    1.3508   -0.4240    0.1829 C   0  0  0  0  0  0  0  0  0  0  0  0
    0.5996   -0.1407    1.3197 C   0  0  0  0  0  0  0  0  0  0  0  0
   -0.7534    0.1905    1.2004 C   0  0  0  0  0  0  0  0  0  0  0  0
   -1.3849    0.2023   -0.0514 C   0  0  0  0  0  0  0  0  0  0  0  0
   -2.8146    0.4906   -0.1988 C   0  0  0  0  0  0  0  0  0  0  0  0
   -3.4820    1.2106   -1.1852 C   0  0  0  0  0  0  0  0  0  0  0  0
   -4.8379    1.2472   -0.9790 N   0  0  0  0  0  0  0  0  0  0  0  0
   -5.0096    0.5505    0.1167 C   0  0  0  0  0  0  0  0  0  0  0  0
   -6.2328    0.2649    0.8067 C   0  0  0  0  0  0  0  0  0  0  0  0
   -6.2589   -0.4383    1.9061 N   0  0  0  0  0  0  0  0  0  0  0  0
   -5.0535   -0.9375    2.3944 C   0  0  0  0  0  0  0  0  0  0  0  0
   -5.1553   -1.6695    3.6347 C   0  0  0  0  0  0  0  0  0  0  0  0
   -4.2336   -2.6623    4.1061 C   0  0  0  0  0  0  0  0  0  0  0  0
   -4.5701   -3.1490    5.3507 C   0  0  0  0  0  0  0  0  0  0  0  0
   -5.9984   -2.4323    5.9545 S   0  0  0  0  0  0  0  0  0  0  0  0
   -6.1711   -1.4687    4.5510 C   0  0  0  0  0  0  0  0  0  0  0  0
   -3.8743   -0.7269    1.7714 C   0  0  0  0  0  0  0  0  0  0  0  0
   -3.8381    0.0509    0.6256 N   0  0  0  0  0  0  0  0  0  0  0  0
   -0.6060   -0.0588   -1.1887 C   0  0  0  0  0  0  0  0  0  0  0  0
    0.7526   -0.3674   -1.0729 C   0  0  0  0  0  0  0  0  0  0  0  0
    2.4036   -0.6786    0.2745 H   0  0  0  0  0  0  0  0  0  0  0  0
    1.0667   -0.1704    2.3010 H   0  0  0  0  0  0  0  0  0  0  0  0
   -1.2969    0.4495    2.1051 H   0  0  0  0  0  0  0  0  0  0  0  0
   -3.0398    1.7186   -2.0334 H   0  0  0  0  0  0  0  0  0  0  0  0
   -7.1752    0.6570    0.3918 H   0  0  0  0  0  0  0  0  0  0  0  0
   -3.3610   -3.0101    3.5671 H   0  0  0  0  0  0  0  0  0  0  0  0
   -4.0459   -3.8929    5.9347 H   0  0  0  0  0  0  0  0  0  0  0  0
   -7.0067   -0.7856    4.4732 H   0  0  0  0  0  0  0  0  0  0  0  0
   -2.9385   -1.1184    2.1401 H   0  0  0  0  0  0  0  0  0  0  0  0
   -1.0501   -0.0356   -2.1815 H   0  0  0  0  0  0  0  0  0  0  0  0
    1.3406   -0.5691   -1.9647 H   0  0  0  0  0  0  0  0  0  0  0  0
  1  2  2  0  0  0  0
  1 20  1  0  0  0  0
  1 21  1  0  0  0  0
  2  3  1  0  0  0  0
  2 22  1  0  0  0  0
  3  4  2  0  0  0  0
  3 23  1  0  0  0  0
  4  5  1  0  0  0  0
  4 19  1  0  0  0  0
  5  6  2  0  0  0  0
  5 18  1  0  0  0  0
  6  7  1  0  0  0  0
  6 24  1  0  0  0  0
  7  8  2  0  0  0  0
  8  9  1  0  0  0  0
  8 18  1  0  0  0  0
  9 10  2  0  0  0  0
  9 25  1  0  0  0  0
 10 11  1  0  0  0  0
 11 12  1  0  0  0  0
 11 17  2  0  0  0  0
 12 13  1  0  0  0  0
 12 16  2  0  0  0  0
 13 14  2  0  0  0  0
 13 26  1  0  0  0  0
 14 15  1  0  0  0  0
 14 27  1  0  0  0  0
 15 16  1  0  0  0  0
 16 28  1  0  0  0  0
 17 18  1  0  0  0  0
 17 29  1  0  0  0  0
 19 20  2  0  0  0  0
 19 30  1  0  0  0  0
 20 31  1  0  0  0  0
M  END
$$$$
