
 OpenBabel09162610133D

 40 42  0  0  0  0  0  0  0  0999 V2000
    2.4825   -0.3029    0.1234 C   0  0  0  0  0  0  0  0  0  0  0  0
    0.9865   -0.1870    0.0900 C   0  0  0  0  0  0  0  0  0  0  0  0
    0.3403    0.5133   -0.9331 C   0  0  0  0  0  0  0  0  0  0  0  0
   -1.0570    0.5837   -0.9704 C   0  0  0  0  0  0  0  0  0  0  0  0
   -1.8384   -0.0422    0.0117 C   0  0  0  0  0  0  0  0  0  0  0  0
   -3.2969    0.0069   -0.0809 C   0  0  0  0  0  0  0  0  0  0  0  0
   -4.0627    0.4830   -1.0480 N   0  0  0  0  0  0  0  0  0  0  0  0
   -5.3532    0.2281   -0.6245 C   0  0  0  0  0  0  0  0  0  0  0  0
   -6.5293    0.5675   -1.4654 C   0  0  0  0  0  0  0  0  0  0  0  0
   -6.9960    1.9185   -1.2052 N   0  0  0  0  0  0  0  0  0  0  0  0
   -6.5200    3.0323   -1.8535 C   0  0  0  0  0  0  0  0  0  0  0  0
   -7.2540    4.0803   -1.3667 C   0  0  0  0  0  0  0  0  0  0  0  0
   -8.1733    3.6385   -0.4561 N   0  0  0  0  0  0  0  0  0  0  0  0
   -8.0046    2.3323   -0.3581 C   0  0  0  0  0  0  0  0  0  0  0  0
   -8.7914    1.4504    0.5725 C   0  0  0  0  0  0  0  0  0  0  0  0
   -8.5636    1.8895    2.0210 C   0  0  0  0  0  0  0  0  0  0  0  0
  -10.2836    1.5069    0.2367 C   0  0  0  0  0  0  0  0  0  0  0  0
   -5.3079   -0.4038    0.5961 C   0  0  0  0  0  0  0  0  0  0  0  0
   -4.0041   -0.5508    0.9546 O   0  0  0  0  0  0  0  0  0  0  0  0
   -1.1821   -0.7281    1.0441 C   0  0  0  0  0  0  0  0  0  0  0  0
    0.2152   -0.8018    1.0821 C   0  0  0  0  0  0  0  0  0  0  0  0
    2.9483    0.2680   -0.6866 H   0  0  0  0  0  0  0  0  0  0  0  0
    2.7797   -1.3507    0.0099 H   0  0  0  0  0  0  0  0  0  0  0  0
    2.8728    0.0814    1.0712 H   0  0  0  0  0  0  0  0  0  0  0  0
    0.9160    1.0039   -1.7149 H   0  0  0  0  0  0  0  0  0  0  0  0
   -1.5374    1.1293   -1.7812 H   0  0  0  0  0  0  0  0  0  0  0  0
   -7.3576   -0.1299   -1.3103 H   0  0  0  0  0  0  0  0  0  0  0  0
   -6.2626    0.5123   -2.5282 H   0  0  0  0  0  0  0  0  0  0  0  0
   -5.7143    2.9819   -2.5739 H   0  0  0  0  0  0  0  0  0  0  0  0
   -7.1712    5.1285   -1.6207 H   0  0  0  0  0  0  0  0  0  0  0  0
   -8.4697    0.4081    0.4870 H   0  0  0  0  0  0  0  0  0  0  0  0
   -8.8499    2.9366    2.1749 H   0  0  0  0  0  0  0  0  0  0  0  0
   -7.5076    1.7916    2.2955 H   0  0  0  0  0  0  0  0  0  0  0  0
   -9.1508    1.2767    2.7132 H   0  0  0  0  0  0  0  0  0  0  0  0
  -10.6811    2.5246    0.3269 H   0  0  0  0  0  0  0  0  0  0  0  0
  -10.8581    0.8641    0.9133 H   0  0  0  0  0  0  0  0  0  0  0  0
  -10.4704    1.1667   -0.7880 H   0  0  0  0  0  0  0  0  0  0  0  0
   -6.0410   -0.7993    1.2834 H   0  0  0  0  0  0  0  0  0  0  0  0
   -1.7522   -1.2252    1.8256 H   0  0  0  0  0  0  0  0  0  0  0  0
    0.6970   -1.3516    1.8878 H   0  0  0  0  0  0  0  0  0  0  0  0
  1  2  1  0  0  0  0
  1 22  1  0  0  0  0
  1 23  1  0  0  0  0
  1 24  1  0  0  0  0
  2  3  2  0  0  0  0
  2 21  1  0  0  0  0
  3  4  1  0  0  0  0
  3 25  1  0  0  0  0
  4  5  2  0  0  0  0
  4 26  1  0  0  0  0
  5  6  1  0  0  0  0
  5 20  1  0  0  0  0
  6  7  2  0  0  0  0
  6 19  1  0  0  0  0
  7  8  1  0  0  0  0
  8  9  1  0  0  0  0
  8 18  2  0  0  0  0
  9 10  1  0  0  0  0
  9 27  1  0  0  0  0
  9 28  1  0  0  0  0
 10 11  1  0  0  0  0
 10 14  1  0  0  0  0
 11 12  2  0  0  0  0
 11 29  1  0  0  0  0
 12 13  1  0  0  0  0
 12 30  1  0  0  0  0
 13 14  2  0  0  0  0
 14 15  1  0  0  0  0
 15 16  1  0  0  0  0
 15 17  1  0  0  0  0
 15 31  1  0  0  0  0
 16 32  1  0  0  0  0
 16 33  1  0  0  0  0
 16 34  1  0  0  0  0
 17 35  1  0  0  0  0
 17 36  1  0  0  0  0
 17 37  1  0  0  0  0
 18 19  1  0  0  0  0
 18 38  1  0  0  0  0
 20 21  2  0  0  0  0
 20 39  1  0  0  0  0
 21 40  1  0  0  0  0
M  END
$$$$
