
 OpenBabel09162610133D

 30 33  0  0  0  0  0  0  0  0999 V2000
    1.4460   -0.4672   -0.0915 C   0  0  0  0  0  0  0  0  0  0  0  0
    2.9121   -0.2092   -0.1106 C   0  0  0  0  0  0  0  0  0  0  0  0
    3.4361    0.9973   -0.1030 N   0  0  0  0  0  0  0  0  0  0  0  0
    4.8114    0.9071   -0.1052 C   0  0  0  0  0  0  0  0  0  0  0  0
    5.7198    1.9814   -0.0851 C   0  0  0  0  0  0  0  0  0  0  0  0
    7.1062    1.7410   -0.0691 C   0  0  0  0  0  0  0  0  0  0  0  0
    7.6002    0.4256   -0.0745 C   0  0  0  0  0  0  0  0  0  0  0  0
    8.9200    0.0545   -0.0341 N   0  0  0  0  0  0  0  0  0  0  0  0
    9.0180   -1.2474   -0.0304 C   0  0  0  0  0  0  0  0  0  0  0  0
   10.1663   -1.9869    0.0488 N   0  0  0  0  0  0  0  0  0  0  0  0
   11.3811   -1.3706    0.2874 C   0  0  0  0  0  0  0  0  0  0  0  0
   11.5428   -0.1684    0.4850 O   0  0  0  0  0  0  0  0  0  0  0  0
   12.5154   -2.2712    0.3215 C   0  0  0  0  0  0  0  0  0  0  0  0
   13.8423   -2.0041    0.6060 C   0  0  0  0  0  0  0  0  0  0  0  0
   14.5420   -3.2233    0.4818 C   0  0  0  0  0  0  0  0  0  0  0  0
   13.6026   -4.1638    0.1290 C   0  0  0  0  0  0  0  0  0  0  0  0
   12.3660   -3.6022    0.0361 O   0  0  0  0  0  0  0  0  0  0  0  0
    7.5442   -2.1151   -0.1314 S   0  0  0  0  0  0  0  0  0  0  0  0
    6.6984   -0.6297   -0.1110 C   0  0  0  0  0  0  0  0  0  0  0  0
    5.3166   -0.3859   -0.1205 C   0  0  0  0  0  0  0  0  0  0  0  0
    4.0424   -1.5130   -0.1391 S   0  0  0  0  0  0  0  0  0  0  0  0
    0.8969    0.4817   -0.0851 H   0  0  0  0  0  0  0  0  0  0  0  0
    1.1579   -1.0233    0.8054 H   0  0  0  0  0  0  0  0  0  0  0  0
    1.1334   -1.0271   -0.9773 H   0  0  0  0  0  0  0  0  0  0  0  0
    5.3430    3.0002   -0.0731 H   0  0  0  0  0  0  0  0  0  0  0  0
    7.8074    2.5703   -0.0428 H   0  0  0  0  0  0  0  0  0  0  0  0
   10.1207   -2.9929   -0.0248 H   0  0  0  0  0  0  0  0  0  0  0  0
   14.2384   -1.0299    0.8670 H   0  0  0  0  0  0  0  0  0  0  0  0
   15.5999   -3.3913    0.6274 H   0  0  0  0  0  0  0  0  0  0  0  0
   13.6552   -5.2232   -0.0818 H   0  0  0  0  0  0  0  0  0  0  0  0
  1  2  1  0  0  0  0
  1 22  1  0  0  0  0
  1 23  1  0  0  0  0
  1 24  1  0  0  0  0
  2  3  2  0  0  0  0
  2 21  1  0  0  0  0
  3  4  1  0  0  0  0
  4  5  1  0  0  0  0
  4 20  2  0  0  0  0
  5  6  2  0  0  0  0
  5 25  1  0  0  0  0
  6  7  1  0  0  0  0
  6 26  1  0  0  0  0
  7  8  1  0  0  0  0
  7 19  2  0  0  0  0
  8  9  2  0  0  0  0
  9 10  1  0  0  0  0
  9 18  1  0  0  0  0
 10 11  1  0  0  0  0
 10 27  1  0  0  0  0
 11 12  2  0  0  0  0
 11 13  1  0  0  0  0
 13 14  2  0  0  0  0
 13 17  1  0  0  0  0
 14 15  1  0  0  0  0
 14 28  1  0  0  0  0
 15 16  2  0  0  0  0
 15 29  1  0  0  0  0
 16 17  1  0  0  0  0
 16 30  1  0  0  0  0
 18 19  1  0  0  0  0
 19 20  1  0  0  0  0
 20 21  1  0  0  0  0
M  END
$$$$
