
 OpenBabel09162610133D

 36 37  0  0  0  0  0  0  0  0999 V2000
    2.4806    2.5450    2.3515 O   0  0  0  0  0  0  0  0  0  0  0  0
    2.0704    1.5707    1.7287 C   0  0  0  0  0  0  0  0  0  0  0  0
    0.7516    1.1456    1.7202 N   0  0  0  0  0  0  0  0  0  0  0  0
   -0.2595    1.8623    2.4046 C   0  0  0  0  0  0  0  0  0  0  0  0
   -0.3251    3.2577    2.3337 C   0  0  0  0  0  0  0  0  0  0  0  0
   -1.3150    3.9573    3.0294 C   0  0  0  0  0  0  0  0  0  0  0  0
   -2.2432    3.2637    3.8067 C   0  0  0  0  0  0  0  0  0  0  0  0
   -2.1908    1.8700    3.8788 C   0  0  0  0  0  0  0  0  0  0  0  0
   -1.2126    1.1719    3.1689 C   0  0  0  0  0  0  0  0  0  0  0  0
   -1.1555   -0.5517    3.3176 Cl  0  0  0  0  0  0  0  0  0  0  0  0
    2.8835    0.6978    1.0028 N   0  0  0  0  0  0  0  0  0  0  0  0
    4.3046    0.8139    1.0105 N   0  0  0  0  0  0  0  0  0  0  0  0
    4.7589    2.1584    0.6291 C   0  0  0  0  0  0  0  0  0  0  0  0
    6.1158    2.1352   -0.0783 C   0  0  0  0  0  0  0  0  0  0  0  0
    7.3241    1.9627    0.8347 C   0  0  0  0  0  0  0  0  0  0  0  0
    7.2965    0.7103    1.7022 C   0  0  0  0  0  0  0  0  0  0  0  0
    6.2044    0.7671    2.7606 C   0  0  0  0  0  0  0  0  0  0  0  0
    4.8334    0.2914    2.2807 C   0  0  0  0  0  0  0  0  0  0  0  0
    0.6509    0.1371    1.7325 H   0  0  0  0  0  0  0  0  0  0  0  0
    0.3925    3.8185    1.7369 H   0  0  0  0  0  0  0  0  0  0  0  0
   -1.3517    5.0406    2.9701 H   0  0  0  0  0  0  0  0  0  0  0  0
   -2.9993    3.8086    4.3596 H   0  0  0  0  0  0  0  0  0  0  0  0
   -2.9041    1.3397    4.5028 H   0  0  0  0  0  0  0  0  0  0  0  0
    2.4642    0.1829    0.2387 H   0  0  0  0  0  0  0  0  0  0  0  0
    4.7744    2.8550    1.4753 H   0  0  0  0  0  0  0  0  0  0  0  0
    4.0508    2.5742   -0.1015 H   0  0  0  0  0  0  0  0  0  0  0  0
    6.2368    3.0878   -0.6105 H   0  0  0  0  0  0  0  0  0  0  0  0
    6.1214    1.3556   -0.8504 H   0  0  0  0  0  0  0  0  0  0  0  0
    7.4229    2.8485    1.4746 H   0  0  0  0  0  0  0  0  0  0  0  0
    8.2258    1.9358    0.2108 H   0  0  0  0  0  0  0  0  0  0  0  0
    8.2640    0.6410    2.2151 H   0  0  0  0  0  0  0  0  0  0  0  0
    7.2015   -0.1906    1.0851 H   0  0  0  0  0  0  0  0  0  0  0  0
    6.1258    1.7793    3.1769 H   0  0  0  0  0  0  0  0  0  0  0  0
    6.4988    0.1213    3.5979 H   0  0  0  0  0  0  0  0  0  0  0  0
    4.1370    0.4953    3.1053 H   0  0  0  0  0  0  0  0  0  0  0  0
    4.8645   -0.8022    2.1872 H   0  0  0  0  0  0  0  0  0  0  0  0
  1  2  2  0  0  0  0
  2  3  1  0  0  0  0
  2 11  1  0  0  0  0
  3  4  1  0  0  0  0
  3 19  1  0  0  0  0
  4  5  2  0  0  0  0
  4  9  1  0  0  0  0
  5  6  1  0  0  0  0
  5 20  1  0  0  0  0
  6  7  2  0  0  0  0
  6 21  1  0  0  0  0
  7  8  1  0  0  0  0
  7 22  1  0  0  0  0
  8  9  2  0  0  0  0
  8 23  1  0  0  0  0
  9 10  1  0  0  0  0
 11 12  1  0  0  0  0
 11 24  1  0  0  0  0
 12 13  1  0  0  0  0
 12 18  1  0  0  0  0
 13 14  1  0  0  0  0
 13 25  1  0  0  0  0
 13 26  1  0  0  0  0
 14 15  1  0  0  0  0
 14 27  1  0  0  0  0
 14 28  1  0  0  0  0
 15 16  1  0  0  0  0
 15 29  1  0  0  0  0
 15 30  1  0  0  0  0
 16 17  1  0  0  0  0
 16 31  1  0  0  0  0
 16 32  1  0  0  0  0
 17 18  1  0  0  0  0
 17 33  1  0  0  0  0
 17 34  1  0  0  0  0
 18 35  1  0  0  0  0
 18 36  1  0  0  0  0
M  END
$$$$
