
 OpenBabel09162610133D

 27 29  0  0  0  0  0  0  0  0999 V2000
    0.9470    0.5279    0.5438 O   0  0  0  0  0  0  0  0  0  0  0  0
    2.1221    0.3362    0.2444 C   0  0  0  0  0  0  0  0  0  0  0  0
    2.7903    0.9853   -0.7692 N   0  0  0  0  0  0  0  0  0  0  0  0
    2.1811    1.8954   -1.5951 C   0  0  0  0  0  0  0  0  0  0  0  0
    2.4985    2.0558   -2.8719 N   0  0  0  0  0  0  0  0  0  0  0  0
    1.6979    3.0572   -3.4067 N   0  0  0  0  0  0  0  0  0  0  0  0
    0.9639    3.4905   -2.4208 C   0  0  0  0  0  0  0  0  0  0  0  0
    1.2392    2.8217   -1.2721 N   0  0  0  0  0  0  0  0  0  0  0  0
    0.8737    3.5056   -0.0519 C   0  0  0  0  0  0  0  0  0  0  0  0
   -0.2543    4.4784   -0.4155 C   0  0  0  0  0  0  0  0  0  0  0  0
   -0.0604    4.8506   -2.2038 S   0  0  0  0  0  0  0  0  0  0  0  0
    2.8996   -0.6809    1.0135 C   0  0  0  0  0  0  0  0  0  0  0  0
    2.2896   -1.2877    2.1243 C   0  0  0  0  0  0  0  0  0  0  0  0
    3.0109   -2.1735    2.9293 C   0  0  0  0  0  0  0  0  0  0  0  0
    4.3353   -2.4613    2.6185 C   0  0  0  0  0  0  0  0  0  0  0  0
    5.0337   -3.2855    3.4091 F   0  0  0  0  0  0  0  0  0  0  0  0
    4.9459   -1.9022    1.5053 C   0  0  0  0  0  0  0  0  0  0  0  0
    4.2225   -1.0198    0.7076 C   0  0  0  0  0  0  0  0  0  0  0  0
    4.8362   -0.4984   -0.3653 F   0  0  0  0  0  0  0  0  0  0  0  0
    3.6288    0.5662   -1.1585 H   0  0  0  0  0  0  0  0  0  0  0  0
    1.7625    4.0491    0.2920 H   0  0  0  0  0  0  0  0  0  0  0  0
    0.5586    2.8091    0.7222 H   0  0  0  0  0  0  0  0  0  0  0  0
   -0.2117    5.3943    0.1814 H   0  0  0  0  0  0  0  0  0  0  0  0
   -1.2311    4.0061   -0.2673 H   0  0  0  0  0  0  0  0  0  0  0  0
    1.2544   -1.0622    2.3772 H   0  0  0  0  0  0  0  0  0  0  0  0
    2.5511   -2.6299    3.8013 H   0  0  0  0  0  0  0  0  0  0  0  0
    5.9758   -2.1431    1.2661 H   0  0  0  0  0  0  0  0  0  0  0  0
  1  2  2  0  0  0  0
  2  3  1  0  0  0  0
  2 12  1  0  0  0  0
  3  4  1  0  0  0  0
  3 20  1  0  0  0  0
  4  5  2  0  0  0  0
  4  8  1  0  0  0  0
  5  6  1  0  0  0  0
  6  7  2  0  0  0  0
  7  8  1  0  0  0  0
  7 11  1  0  0  0  0
  8  9  1  0  0  0  0
  9 10  1  0  0  0  0
  9 21  1  0  0  0  0
  9 22  1  0  0  0  0
 10 11  1  0  0  0  0
 10 23  1  0  0  0  0
 10 24  1  0  0  0  0
 12 13  2  0  0  0  0
 12 18  1  0  0  0  0
 13 14  1  0  0  0  0
 13 25  1  0  0  0  0
 14 15  2  0  0  0  0
 14 26  1  0  0  0  0
 15 16  1  0  0  0  0
 15 17  1  0  0  0  0
 17 18  2  0  0  0  0
 17 27  1  0  0  0  0
 18 19  1  0  0  0  0
M  END
$$$$
