
 OpenBabel09162610133D

 27 29  0  0  0  0  0  0  0  0999 V2000
    0.9588    0.0539   -0.0333 O   0  0  0  0  0  0  0  0  0  0  0  0
    2.1829   -0.0726    0.0222 C   0  0  0  0  0  0  0  0  0  0  0  0
    2.9617    1.0886    0.0693 O   0  0  0  0  0  0  0  0  0  0  0  0
    4.3477    1.0328   -0.0635 C   0  0  0  0  0  0  0  0  0  0  0  0
    5.0328    2.2460   -0.1058 C   0  0  0  0  0  0  0  0  0  0  0  0
    6.4206    2.2441   -0.2414 C   0  0  0  0  0  0  0  0  0  0  0  0
    7.1122    1.0341   -0.3215 C   0  0  0  0  0  0  0  0  0  0  0  0
    6.4137   -0.1749   -0.2803 C   0  0  0  0  0  0  0  0  0  0  0  0
    5.0191   -0.1699   -0.1626 C   0  0  0  0  0  0  0  0  0  0  0  0
    4.2473   -1.4181   -0.1493 C   0  0  0  0  0  0  0  0  0  0  0  0
    4.8657   -2.4786   -0.2086 O   0  0  0  0  0  0  0  0  0  0  0  0
    2.8624   -1.2968   -0.0442 N   0  0  0  0  0  0  0  0  0  0  0  0
    2.0704   -2.4896   -0.0745 C   0  0  0  0  0  0  0  0  0  0  0  0
    2.2588   -3.4514   -1.0778 C   0  0  0  0  0  0  0  0  0  0  0  0
    1.4390   -4.5835   -1.1337 C   0  0  0  0  0  0  0  0  0  0  0  0
    0.4472   -4.7742   -0.1715 C   0  0  0  0  0  0  0  0  0  0  0  0
   -0.5554   -6.1695   -0.2453 Cl  0  0  0  0  0  0  0  0  0  0  0  0
    0.2678   -3.8476    0.8497 C   0  0  0  0  0  0  0  0  0  0  0  0
    1.0737   -2.7136    0.8872 C   0  0  0  0  0  0  0  0  0  0  0  0
    0.9284   -1.8641    1.9159 F   0  0  0  0  0  0  0  0  0  0  0  0
    4.4906    3.1860   -0.0411 H   0  0  0  0  0  0  0  0  0  0  0  0
    6.9641    3.1856   -0.2843 H   0  0  0  0  0  0  0  0  0  0  0  0
    8.1957    1.0322   -0.4199 H   0  0  0  0  0  0  0  0  0  0  0  0
    6.9591   -1.1148   -0.3428 H   0  0  0  0  0  0  0  0  0  0  0  0
    3.0191   -3.3168   -1.8447 H   0  0  0  0  0  0  0  0  0  0  0  0
    1.5775   -5.3082   -1.9326 H   0  0  0  0  0  0  0  0  0  0  0  0
   -0.4831   -3.9940    1.6190 H   0  0  0  0  0  0  0  0  0  0  0  0
  1  2  2  0  0  0  0
  2  3  1  0  0  0  0
  2 12  1  0  0  0  0
  3  4  1  0  0  0  0
  4  5  2  0  0  0  0
  4  9  1  0  0  0  0
  5  6  1  0  0  0  0
  5 21  1  0  0  0  0
  6  7  2  0  0  0  0
  6 22  1  0  0  0  0
  7  8  1  0  0  0  0
  7 23  1  0  0  0  0
  8  9  2  0  0  0  0
  8 24  1  0  0  0  0
  9 10  1  0  0  0  0
 10 11  2  0  0  0  0
 10 12  1  0  0  0  0
 12 13  1  0  0  0  0
 13 14  2  0  0  0  0
 13 19  1  0  0  0  0
 14 15  1  0  0  0  0
 14 25  1  0  0  0  0
 15 16  2  0  0  0  0
 15 26  1  0  0  0  0
 16 17  1  0  0  0  0
 16 18  1  0  0  0  0
 18 19  2  0  0  0  0
 18 27  1  0  0  0  0
 19 20  1  0  0  0  0
M  END
$$$$
