
 OpenBabel09162610133D

 30 32  0  0  0  0  0  0  0  0999 V2000
    0.9531   -0.0574    0.1738 O   0  0  0  0  0  0  0  0  0  0  0  0
    2.1699   -0.0707    0.1330 C   0  0  0  0  0  0  0  0  0  0  0  0
    2.9642   -1.1624    0.1577 O   0  0  0  0  0  0  0  0  0  0  0  0
    4.2582   -0.7877    0.0180 C   0  0  0  0  0  0  0  0  0  0  0  0
    5.2681   -1.5768   -0.0993 N   0  0  0  0  0  0  0  0  0  0  0  0
    5.1188   -2.9750   -0.0941 C   0  0  0  0  0  0  0  0  0  0  0  0
    4.0674   -3.6588   -0.7206 C   0  0  0  0  0  0  0  0  0  0  0  0
    3.9900   -5.0550   -0.6823 C   0  0  0  0  0  0  0  0  0  0  0  0
    4.9927   -5.7852   -0.0528 C   0  0  0  0  0  0  0  0  0  0  0  0
    4.9042   -7.5022   -0.0152 Cl  0  0  0  0  0  0  0  0  0  0  0  0
    6.0708   -5.1307    0.5353 C   0  0  0  0  0  0  0  0  0  0  0  0
    6.1282   -3.7327    0.5131 C   0  0  0  0  0  0  0  0  0  0  0  0
    4.2868    0.6674    0.0033 C   0  0  0  0  0  0  0  0  0  0  0  0
    3.0350    1.0918    0.0393 C   0  0  0  0  0  0  0  0  0  0  0  0
    2.5824    2.4901   -0.0096 C   0  0  0  0  0  0  0  0  0  0  0  0
    3.7225    3.5152   -0.0643 C   0  0  0  0  0  0  0  0  0  0  0  0
    5.1840    3.0280   -0.0382 C   0  0  0  0  0  0  0  0  0  0  0  0
    5.4847    1.5210   -0.0699 C   0  0  0  0  0  0  0  0  0  0  0  0
    3.2902   -3.1171   -1.2514 H   0  0  0  0  0  0  0  0  0  0  0  0
    3.1491   -5.5585   -1.1513 H   0  0  0  0  0  0  0  0  0  0  0  0
    6.8692   -5.6961    1.0075 H   0  0  0  0  0  0  0  0  0  0  0  0
    6.9763   -3.2251    0.9666 H   0  0  0  0  0  0  0  0  0  0  0  0
    1.9509    2.7010    0.8616 H   0  0  0  0  0  0  0  0  0  0  0  0
    1.9433    2.6279   -0.8913 H   0  0  0  0  0  0  0  0  0  0  0  0
    3.5852    4.2182    0.7690 H   0  0  0  0  0  0  0  0  0  0  0  0
    3.5835    4.1331   -0.9617 H   0  0  0  0  0  0  0  0  0  0  0  0
    5.6647    3.4525    0.8542 H   0  0  0  0  0  0  0  0  0  0  0  0
    5.7142    3.4985   -0.8776 H   0  0  0  0  0  0  0  0  0  0  0  0
    6.1504    1.2813    0.7696 H   0  0  0  0  0  0  0  0  0  0  0  0
    6.0450    1.2863   -0.9825 H   0  0  0  0  0  0  0  0  0  0  0  0
  1  2  2  0  0  0  0
  2  3  1  0  0  0  0
  2 14  1  0  0  0  0
  3  4  1  0  0  0  0
  4  5  2  0  0  0  0
  4 13  1  0  0  0  0
  5  6  1  0  0  0  0
  6  7  2  0  0  0  0
  6 12  1  0  0  0  0
  7  8  1  0  0  0  0
  7 19  1  0  0  0  0
  8  9  2  0  0  0  0
  8 20  1  0  0  0  0
  9 10  1  0  0  0  0
  9 11  1  0  0  0  0
 11 12  2  0  0  0  0
 11 21  1  0  0  0  0
 12 22  1  0  0  0  0
 13 14  2  0  0  0  0
 13 18  1  0  0  0  0
 14 15  1  0  0  0  0
 15 16  1  0  0  0  0
 15 23  1  0  0  0  0
 15 24  1  0  0  0  0
 16 17  1  0  0  0  0
 16 25  1  0  0  0  0
 16 26  1  0  0  0  0
 17 18  1  0  0  0  0
 17 27  1  0  0  0  0
 17 28  1  0  0  0  0
 18 29  1  0  0  0  0
 18 30  1  0  0  0  0
M  END
$$$$
