
 OpenBabel09162610133D

 36 39  0  0  0  0  0  0  0  0999 V2000
    1.2479    0.5100   -0.4478 C   0  0  0  0  0  0  0  0  0  0  0  0
    2.5720    0.1003   -0.1184 O   0  0  0  0  0  0  0  0  0  0  0  0
    3.1284   -0.8745   -0.8995 C   0  0  0  0  0  0  0  0  0  0  0  0
    2.6010   -1.3552   -2.0936 C   0  0  0  0  0  0  0  0  0  0  0  0
    3.2866   -2.3444   -2.7953 C   0  0  0  0  0  0  0  0  0  0  0  0
    2.7784   -2.7580   -3.9667 F   0  0  0  0  0  0  0  0  0  0  0  0
    4.4658   -2.9134   -2.3061 C   0  0  0  0  0  0  0  0  0  0  0  0
    5.1132   -3.9021   -3.0791 N   0  0  0  0  0  0  0  0  0  0  0  0
    6.1779   -4.4055   -2.6497 N   0  0  0  0  0  0  0  0  0  0  0  0
    6.6740   -4.1007   -1.4271 C   0  0  0  0  0  0  0  0  0  0  0  0
    7.7885   -4.5435   -0.7483 C   0  0  0  0  0  0  0  0  0  0  0  0
    8.8148   -5.5152   -1.1807 C   0  0  0  0  0  0  0  0  0  0  0  0
    7.8461   -3.9753    0.4961 N   0  0  0  0  0  0  0  0  0  0  0  0
    6.7622   -3.2236    0.6204 C   0  0  0  0  0  0  0  0  0  0  0  0
    6.4285   -2.6376    1.8980 C   0  0  0  0  0  0  0  0  0  0  0  0
    4.8368   -2.7157    2.5529 S   0  0  0  0  0  0  0  0  0  0  0  0
    5.2585   -1.7392    3.8841 C   0  0  0  0  0  0  0  0  0  0  0  0
    6.6176   -1.5514    3.9590 C   0  0  0  0  0  0  0  0  0  0  0  0
    7.3178   -2.1289    2.8467 C   0  0  0  0  0  0  0  0  0  0  0  0
    8.8110   -2.1482    2.7470 C   0  0  0  0  0  0  0  0  0  0  0  0
    6.0682   -3.1778   -0.5888 N   0  0  0  0  0  0  0  0  0  0  0  0
    4.9497   -2.4667   -1.0683 C   0  0  0  0  0  0  0  0  0  0  0  0
    4.3311   -1.4023   -0.4110 C   0  0  0  0  0  0  0  0  0  0  0  0
    0.9162    1.2156    0.3209 H   0  0  0  0  0  0  0  0  0  0  0  0
    0.5544   -0.3375   -0.4457 H   0  0  0  0  0  0  0  0  0  0  0  0
    1.2311    1.0337   -1.4094 H   0  0  0  0  0  0  0  0  0  0  0  0
    1.6794   -0.9785   -2.5214 H   0  0  0  0  0  0  0  0  0  0  0  0
    8.6239   -5.8795   -2.1942 H   0  0  0  0  0  0  0  0  0  0  0  0
    8.8249   -6.3777   -0.5064 H   0  0  0  0  0  0  0  0  0  0  0  0
    9.8071   -5.0538   -1.1662 H   0  0  0  0  0  0  0  0  0  0  0  0
    4.5039   -1.4038    4.5822 H   0  0  0  0  0  0  0  0  0  0  0  0
    7.0974   -1.0385    4.7839 H   0  0  0  0  0  0  0  0  0  0  0  0
    9.2687   -1.7796    3.6724 H   0  0  0  0  0  0  0  0  0  0  0  0
    9.1590   -1.5218    1.9216 H   0  0  0  0  0  0  0  0  0  0  0  0
    9.1757   -3.1708    2.6005 H   0  0  0  0  0  0  0  0  0  0  0  0
    4.7519   -0.9509    0.4810 H   0  0  0  0  0  0  0  0  0  0  0  0
  1  2  1  0  0  0  0
  1 24  1  0  0  0  0
  1 25  1  0  0  0  0
  1 26  1  0  0  0  0
  2  3  1  0  0  0  0
  3  4  2  0  0  0  0
  3 23  1  0  0  0  0
  4  5  1  0  0  0  0
  4 27  1  0  0  0  0
  5  6  1  0  0  0  0
  5  7  2  0  0  0  0
  7  8  1  0  0  0  0
  7 22  1  0  0  0  0
  8  9  2  0  0  0  0
  9 10  1  0  0  0  0
 10 11  2  0  0  0  0
 10 21  1  0  0  0  0
 11 12  1  0  0  0  0
 11 13  1  0  0  0  0
 12 28  1  0  0  0  0
 12 29  1  0  0  0  0
 12 30  1  0  0  0  0
 13 14  2  0  0  0  0
 14 15  1  0  0  0  0
 14 21  1  0  0  0  0
 15 16  1  0  0  0  0
 15 19  2  0  0  0  0
 16 17  1  0  0  0  0
 17 18  2  0  0  0  0
 17 31  1  0  0  0  0
 18 19  1  0  0  0  0
 18 32  1  0  0  0  0
 19 20  1  0  0  0  0
 20 33  1  0  0  0  0
 20 34  1  0  0  0  0
 20 35  1  0  0  0  0
 21 22  1  0  0  0  0
 22 23  2  0  0  0  0
 23 36  1  0  0  0  0
M  END
$$$$
