
 OpenBabel09162610133D

 36 38  0  0  0  0  0  0  0  0999 V2000
    5.6238   -2.9938    5.6811 C   0  0  0  0  0  0  0  0  0  0  0  0
    5.0940   -3.6032    4.4988 O   0  0  0  0  0  0  0  0  0  0  0  0
    5.9401   -4.5454    3.9597 C   0  0  0  0  0  0  0  0  0  0  0  0
    6.5276   -5.5137    4.7800 C   0  0  0  0  0  0  0  0  0  0  0  0
    7.5044   -6.3438    4.2633 C   0  0  0  0  0  0  0  0  0  0  0  0
    7.8699   -6.1970    2.9287 C   0  0  0  0  0  0  0  0  0  0  0  0
    9.0321   -6.8956    2.5634 O   0  0  0  0  0  0  0  0  0  0  0  0
    9.7788   -6.3384    1.5433 C   0  0  0  0  0  0  0  0  0  0  0  0
   11.0002   -6.4467    1.4951 O   0  0  0  0  0  0  0  0  0  0  0  0
    8.9795   -5.7799    0.4316 C   0  0  0  0  0  0  0  0  0  0  0  0
    7.7161   -5.3751    0.6496 C   0  0  0  0  0  0  0  0  0  0  0  0
    7.2076   -5.3382    2.0340 C   0  0  0  0  0  0  0  0  0  0  0  0
    6.2008   -4.4956    2.5640 C   0  0  0  0  0  0  0  0  0  0  0  0
    5.5026   -3.4393    1.7453 C   0  0  0  0  0  0  0  0  0  0  0  0
    6.8554   -5.0206   -0.3783 O   0  0  0  0  0  0  0  0  0  0  0  0
    7.2360   -5.3843   -1.7358 C   0  0  0  0  0  0  0  0  0  0  0  0
    6.6968   -4.2849   -2.6587 C   0  0  0  0  0  0  0  0  0  0  0  0
    6.5726   -6.7232   -2.0911 C   0  0  0  0  0  0  0  0  0  0  0  0
    8.7313   -5.5095   -1.9304 C   0  0  0  0  0  0  0  0  0  0  0  0
    9.5496   -5.6988   -0.8890 C   0  0  0  0  0  0  0  0  0  0  0  0
    5.1532   -2.0136    5.7995 H   0  0  0  0  0  0  0  0  0  0  0  0
    6.7081   -2.8356    5.6182 H   0  0  0  0  0  0  0  0  0  0  0  0
    5.3769   -3.5944    6.5628 H   0  0  0  0  0  0  0  0  0  0  0  0
    6.2646   -5.5965    5.8299 H   0  0  0  0  0  0  0  0  0  0  0  0
    8.0225   -7.0519    4.9034 H   0  0  0  0  0  0  0  0  0  0  0  0
    5.2513   -3.7856    0.7419 H   0  0  0  0  0  0  0  0  0  0  0  0
    6.1283   -2.5436    1.6805 H   0  0  0  0  0  0  0  0  0  0  0  0
    4.5424   -3.1560    2.1905 H   0  0  0  0  0  0  0  0  0  0  0  0
    5.6024   -4.3066   -2.6964 H   0  0  0  0  0  0  0  0  0  0  0  0
    7.0684   -4.3915   -3.6842 H   0  0  0  0  0  0  0  0  0  0  0  0
    6.9768   -3.2906   -2.2905 H   0  0  0  0  0  0  0  0  0  0  0  0
    5.4810   -6.6500   -2.0298 H   0  0  0  0  0  0  0  0  0  0  0  0
    6.8676   -7.5114   -1.3883 H   0  0  0  0  0  0  0  0  0  0  0  0
    6.8384   -7.0526   -3.1022 H   0  0  0  0  0  0  0  0  0  0  0  0
    9.1358   -5.4806   -2.9366 H   0  0  0  0  0  0  0  0  0  0  0  0
   10.6231   -5.8032   -1.0131 H   0  0  0  0  0  0  0  0  0  0  0  0
  1  2  1  0  0  0  0
  1 21  1  0  0  0  0
  1 22  1  0  0  0  0
  1 23  1  0  0  0  0
  2  3  1  0  0  0  0
  3  4  2  0  0  0  0
  3 13  1  0  0  0  0
  4  5  1  0  0  0  0
  4 24  1  0  0  0  0
  5  6  2  0  0  0  0
  5 25  1  0  0  0  0
  6  7  1  0  0  0  0
  6 12  1  0  0  0  0
  7  8  1  0  0  0  0
  8  9  2  0  0  0  0
  8 10  1  0  0  0  0
 10 11  2  0  0  0  0
 10 20  1  0  0  0  0
 11 12  1  0  0  0  0
 11 15  1  0  0  0  0
 12 13  2  0  0  0  0
 13 14  1  0  0  0  0
 14 26  1  0  0  0  0
 14 27  1  0  0  0  0
 14 28  1  0  0  0  0
 15 16  1  0  0  0  0
 16 17  1  0  0  0  0
 16 18  1  0  0  0  0
 16 19  1  0  0  0  0
 17 29  1  0  0  0  0
 17 30  1  0  0  0  0
 17 31  1  0  0  0  0
 18 32  1  0  0  0  0
 18 33  1  0  0  0  0
 18 34  1  0  0  0  0
 19 20  2  0  0  0  0
 19 35  1  0  0  0  0
 20 36  1  0  0  0  0
M  END
$$$$
