
 OpenBabel09162610133D

 31 34  0  0  0  0  0  0  0  0999 V2000
   -4.9379   -4.5745    2.7027 F   0  0  0  0  0  0  0  0  0  0  0  0
   -4.5994   -3.4744    2.0183 C   0  0  0  0  0  0  0  0  0  0  0  0
   -5.5898   -2.6996    1.4338 C   0  0  0  0  0  0  0  0  0  0  0  0
   -5.2361   -1.5471    0.7340 C   0  0  0  0  0  0  0  0  0  0  0  0
   -3.8891   -1.1766    0.5885 C   0  0  0  0  0  0  0  0  0  0  0  0
   -3.5169   -0.0015   -0.0913 N   0  0  0  0  0  0  0  0  0  0  0  0
   -4.2061    1.1995   -0.0540 C   0  0  0  0  0  0  0  0  0  0  0  0
   -5.0099    1.4437    0.9555 N   0  0  0  0  0  0  0  0  0  0  0  0
   -5.6345    2.6444    0.9629 N   0  0  0  0  0  0  0  0  0  0  0  0
   -6.5026    3.1244    1.8970 C   0  0  0  0  0  0  0  0  0  0  0  0
   -6.9100    4.3283    1.5551 N   0  0  0  0  0  0  0  0  0  0  0  0
   -6.2891    4.6553    0.3668 N   0  0  0  0  0  0  0  0  0  0  0  0
   -5.5256    3.6387    0.0285 C   0  0  0  0  0  0  0  0  0  0  0  0
   -4.6611    3.4295   -1.1037 C   0  0  0  0  0  0  0  0  0  0  0  0
   -4.5102    4.3915   -2.1059 C   0  0  0  0  0  0  0  0  0  0  0  0
   -3.6774    4.1299   -3.1921 C   0  0  0  0  0  0  0  0  0  0  0  0
   -3.0050    2.9117   -3.2791 C   0  0  0  0  0  0  0  0  0  0  0  0
   -3.1532    1.9462   -2.2782 C   0  0  0  0  0  0  0  0  0  0  0  0
   -3.9783    2.2053   -1.1777 C   0  0  0  0  0  0  0  0  0  0  0  0
   -2.9043   -1.9758    1.1869 C   0  0  0  0  0  0  0  0  0  0  0  0
   -3.2593   -3.1210    1.9059 C   0  0  0  0  0  0  0  0  0  0  0  0
   -6.6318   -2.9886    1.5308 H   0  0  0  0  0  0  0  0  0  0  0  0
   -6.0190   -0.9437    0.2832 H   0  0  0  0  0  0  0  0  0  0  0  0
   -2.7187   -0.1215   -0.6968 H   0  0  0  0  0  0  0  0  0  0  0  0
   -6.7871    2.5649    2.7748 H   0  0  0  0  0  0  0  0  0  0  0  0
   -5.0458    5.3388   -2.0443 H   0  0  0  0  0  0  0  0  0  0  0  0
   -3.5621    4.8763   -3.9758 H   0  0  0  0  0  0  0  0  0  0  0  0
   -2.3643    2.7127   -4.1386 H   0  0  0  0  0  0  0  0  0  0  0  0
   -2.6246    1.0078   -2.4005 H   0  0  0  0  0  0  0  0  0  0  0  0
   -1.8557   -1.6936    1.1307 H   0  0  0  0  0  0  0  0  0  0  0  0
   -2.5036   -3.7313    2.3895 H   0  0  0  0  0  0  0  0  0  0  0  0
  1  2  1  0  0  0  0
  2  3  2  0  0  0  0
  2 21  1  0  0  0  0
  3  4  1  0  0  0  0
  3 22  1  0  0  0  0
  4  5  2  0  0  0  0
  4 23  1  0  0  0  0
  5  6  1  0  0  0  0
  5 20  1  0  0  0  0
  6  7  1  0  0  0  0
  6 24  1  0  0  0  0
  7  8  2  0  0  0  0
  7 19  1  0  0  0  0
  8  9  1  0  0  0  0
  9 10  1  0  0  0  0
  9 13  1  0  0  0  0
 10 11  2  0  0  0  0
 10 25  1  0  0  0  0
 11 12  1  0  0  0  0
 12 13  2  0  0  0  0
 13 14  1  0  0  0  0
 14 15  1  0  0  0  0
 14 19  2  0  0  0  0
 15 16  2  0  0  0  0
 15 26  1  0  0  0  0
 16 17  1  0  0  0  0
 16 27  1  0  0  0  0
 17 18  2  0  0  0  0
 17 28  1  0  0  0  0
 18 19  1  0  0  0  0
 18 29  1  0  0  0  0
 20 21  2  0  0  0  0
 20 30  1  0  0  0  0
 21 31  1  0  0  0  0
M  END
$$$$
