
 OpenBabel09162610133D

 34 37  0  0  0  0  0  0  0  0999 V2000
    1.1200    0.0840    0.1781 C   0  0  0  0  0  0  0  0  0  0  0  0
    2.5034   -0.1164   -0.1056 O   0  0  0  0  0  0  0  0  0  0  0  0
    3.0502    0.7938   -0.9728 C   0  0  0  0  0  0  0  0  0  0  0  0
    4.1015    0.3210   -1.7682 C   0  0  0  0  0  0  0  0  0  0  0  0
    4.7474    1.1421   -2.7056 C   0  0  0  0  0  0  0  0  0  0  0  0
    4.2934    2.4557   -2.7919 C   0  0  0  0  0  0  0  0  0  0  0  0
    4.7681    3.4183   -3.6484 O   0  0  0  0  0  0  0  0  0  0  0  0
    4.0359    4.5334   -3.3870 C   0  0  0  0  0  0  0  0  0  0  0  0
    4.1504    5.7866   -4.0479 C   0  0  0  0  0  0  0  0  0  0  0  0
    4.9187    6.0813   -4.9581 O   0  0  0  0  0  0  0  0  0  0  0  0
    3.2445    6.7000   -3.5314 N   0  0  0  0  0  0  0  0  0  0  0  0
    2.3237    6.4136   -2.5224 C   0  0  0  0  0  0  0  0  0  0  0  0
    1.4222    7.5245   -2.0907 C   0  0  0  0  0  0  0  0  0  0  0  0
    1.0471    7.5384   -0.7350 C   0  0  0  0  0  0  0  0  0  0  0  0
    0.2016    8.5294   -0.2327 C   0  0  0  0  0  0  0  0  0  0  0  0
   -0.2855    9.5185   -1.0803 C   0  0  0  0  0  0  0  0  0  0  0  0
    0.0667    9.5113   -2.4301 C   0  0  0  0  0  0  0  0  0  0  0  0
    0.9129    8.5180   -2.9414 C   0  0  0  0  0  0  0  0  0  0  0  0
    1.2299    8.5781   -4.6398 Cl  0  0  0  0  0  0  0  0  0  0  0  0
    2.2341    5.2617   -1.9166 N   0  0  0  0  0  0  0  0  0  0  0  0
    3.1320    4.3013   -2.3926 C   0  0  0  0  0  0  0  0  0  0  0  0
    3.2677    2.9652   -1.9946 C   0  0  0  0  0  0  0  0  0  0  0  0
    2.6405    2.1280   -1.0596 C   0  0  0  0  0  0  0  0  0  0  0  0
    0.7851   -0.7390    0.8160 H   0  0  0  0  0  0  0  0  0  0  0  0
    0.5273    0.0622   -0.7432 H   0  0  0  0  0  0  0  0  0  0  0  0
    0.9458    1.0111    0.7330 H   0  0  0  0  0  0  0  0  0  0  0  0
    4.4181   -0.7160   -1.6680 H   0  0  0  0  0  0  0  0  0  0  0  0
    5.5502    0.7770   -3.3343 H   0  0  0  0  0  0  0  0  0  0  0  0
    3.2569    7.6066   -3.9847 H   0  0  0  0  0  0  0  0  0  0  0  0
    1.4149    6.7711   -0.0544 H   0  0  0  0  0  0  0  0  0  0  0  0
   -0.0777    8.5240    0.8188 H   0  0  0  0  0  0  0  0  0  0  0  0
   -0.9476   10.2904   -0.6937 H   0  0  0  0  0  0  0  0  0  0  0  0
   -0.3349   10.2824   -3.0852 H   0  0  0  0  0  0  0  0  0  0  0  0
    1.8646    2.5476   -0.4322 H   0  0  0  0  0  0  0  0  0  0  0  0
  1  2  1  0  0  0  0
  1 24  1  0  0  0  0
  1 25  1  0  0  0  0
  1 26  1  0  0  0  0
  2  3  1  0  0  0  0
  3  4  2  0  0  0  0
  3 23  1  0  0  0  0
  4  5  1  0  0  0  0
  4 27  1  0  0  0  0
  5  6  2  0  0  0  0
  5 28  1  0  0  0  0
  6  7  1  0  0  0  0
  6 22  1  0  0  0  0
  7  8  1  0  0  0  0
  8  9  1  0  0  0  0
  8 21  2  0  0  0  0
  9 10  2  0  0  0  0
  9 11  1  0  0  0  0
 11 12  1  0  0  0  0
 11 29  1  0  0  0  0
 12 13  1  0  0  0  0
 12 20  2  0  0  0  0
 13 14  2  0  0  0  0
 13 18  1  0  0  0  0
 14 15  1  0  0  0  0
 14 30  1  0  0  0  0
 15 16  2  0  0  0  0
 15 31  1  0  0  0  0
 16 17  1  0  0  0  0
 16 32  1  0  0  0  0
 17 18  2  0  0  0  0
 17 33  1  0  0  0  0
 18 19  1  0  0  0  0
 20 21  1  0  0  0  0
 21 22  1  0  0  0  0
 22 23  2  0  0  0  0
 23 34  1  0  0  0  0
M  END
$$$$
