
 OpenBabel09162610133D

 29 31  0  0  0  0  0  0  0  0999 V2000
    1.6571   -1.3518    0.0433 O   0  0  0  0  0  0  0  0  0  0  0  0
    0.4806   -0.6577    0.0136 C   0  0  0  0  0  0  0  0  0  0  0  0
   -0.0829   -0.2819   -1.2016 C   0  0  0  0  0  0  0  0  0  0  0  0
   -1.2858    0.4318   -1.2144 C   0  0  0  0  0  0  0  0  0  0  0  0
   -1.9314    0.7778   -0.0152 C   0  0  0  0  0  0  0  0  0  0  0  0
   -3.1839    1.5279   -0.0122 C   0  0  0  0  0  0  0  0  0  0  0  0
   -3.5482    2.4218   -0.9990 C   0  0  0  0  0  0  0  0  0  0  0  0
   -5.0893    3.0790   -0.6596 S   0  0  0  0  0  0  0  0  0  0  0  0
   -5.1753    2.1364    0.7830 C   0  0  0  0  0  0  0  0  0  0  0  0
   -6.3459    2.2098    1.6669 C   0  0  0  0  0  0  0  0  0  0  0  0
   -6.2164    1.9486    3.0362 C   0  0  0  0  0  0  0  0  0  0  0  0
   -7.3277    2.0232    3.8759 C   0  0  0  0  0  0  0  0  0  0  0  0
   -8.5520    2.3491    3.3185 C   0  0  0  0  0  0  0  0  0  0  0  0
   -8.7304    2.5952    2.0047 N   0  0  0  0  0  0  0  0  0  0  0  0
   -7.6291    2.5158    1.2149 C   0  0  0  0  0  0  0  0  0  0  0  0
   -4.1008    1.4066    1.0235 N   0  0  0  0  0  0  0  0  0  0  0  0
   -1.3584    0.3780    1.2015 C   0  0  0  0  0  0  0  0  0  0  0  0
   -0.1561   -0.3314    1.2109 C   0  0  0  0  0  0  0  0  0  0  0  0
    0.4116   -0.7133    2.3948 O   0  0  0  0  0  0  0  0  0  0  0  0
    1.9602   -1.5071   -0.8635 H   0  0  0  0  0  0  0  0  0  0  0  0
    0.3923   -0.5367   -2.1437 H   0  0  0  0  0  0  0  0  0  0  0  0
   -1.7161    0.6972   -2.1770 H   0  0  0  0  0  0  0  0  0  0  0  0
   -3.0047    2.7236   -1.8822 H   0  0  0  0  0  0  0  0  0  0  0  0
   -5.2451    1.6916    3.4543 H   0  0  0  0  0  0  0  0  0  0  0  0
   -7.2385    1.8310    4.9394 H   0  0  0  0  0  0  0  0  0  0  0  0
   -9.4473    2.4205    3.9298 H   0  0  0  0  0  0  0  0  0  0  0  0
   -7.8377    2.7044    0.1649 H   0  0  0  0  0  0  0  0  0  0  0  0
   -1.8552    0.6315    2.1341 H   0  0  0  0  0  0  0  0  0  0  0  0
   -0.1657   -0.4399    3.1239 H   0  0  0  0  0  0  0  0  0  0  0  0
  1  2  1  0  0  0  0
  1 20  1  0  0  0  0
  2  3  2  0  0  0  0
  2 18  1  0  0  0  0
  3  4  1  0  0  0  0
  3 21  1  0  0  0  0
  4  5  2  0  0  0  0
  4 22  1  0  0  0  0
  5  6  1  0  0  0  0
  5 17  1  0  0  0  0
  6  7  2  0  0  0  0
  6 16  1  0  0  0  0
  7  8  1  0  0  0  0
  7 23  1  0  0  0  0
  8  9  1  0  0  0  0
  9 10  1  0  0  0  0
  9 16  2  0  0  0  0
 10 11  2  0  0  0  0
 10 15  1  0  0  0  0
 11 12  1  0  0  0  0
 11 24  1  0  0  0  0
 12 13  2  0  0  0  0
 12 25  1  0  0  0  0
 13 14  1  0  0  0  0
 13 26  1  0  0  0  0
 14 15  2  0  0  0  0
 15 27  1  0  0  0  0
 17 18  2  0  0  0  0
 17 28  1  0  0  0  0
 18 19  1  0  0  0  0
 19 29  1  0  0  0  0
M  END
$$$$
