
 OpenBabel09162610133D

 33 35  0  0  0  0  0  0  0  0999 V2000
    1.0677    0.1255    0.1443 C   0  0  0  0  0  0  0  0  0  0  0  0
    2.5391    0.2367   -0.1145 C   0  0  0  0  0  0  0  0  0  0  0  0
    3.0166    0.6374   -1.1661 O   0  0  0  0  0  0  0  0  0  0  0  0
    3.2362   -0.2224    1.0053 O   0  0  0  0  0  0  0  0  0  0  0  0
    4.6434   -0.1780    1.0144 C   0  0  0  0  0  0  0  0  0  0  0  0
    5.3046   -1.2261    1.6632 C   0  0  0  0  0  0  0  0  0  0  0  0
    6.7048   -1.2342    1.7327 C   0  0  0  0  0  0  0  0  0  0  0  0
    7.4391   -0.1943    1.1520 C   0  0  0  0  0  0  0  0  0  0  0  0
    8.8920   -0.1417    1.1932 C   0  0  0  0  0  0  0  0  0  0  0  0
    9.5483    0.8623    0.5861 C   0  0  0  0  0  0  0  0  0  0  0  0
   11.0136    0.9214    0.6807 C   0  0  0  0  0  0  0  0  0  0  0  0
   11.8194    0.2461   -0.2438 C   0  0  0  0  0  0  0  0  0  0  0  0
   13.2100    0.3491   -0.1678 C   0  0  0  0  0  0  0  0  0  0  0  0
   13.7999    1.1215    0.8327 C   0  0  0  0  0  0  0  0  0  0  0  0
   13.0033    1.7890    1.7606 C   0  0  0  0  0  0  0  0  0  0  0  0
   11.6130    1.6896    1.6870 C   0  0  0  0  0  0  0  0  0  0  0  0
    8.8211    1.9325   -0.1527 C   0  0  0  0  0  0  0  0  0  0  0  0
    9.4057    2.8153   -0.7715 O   0  0  0  0  0  0  0  0  0  0  0  0
    7.4357    1.9006   -0.0910 O   0  0  0  0  0  0  0  0  0  0  0  0
    6.7508    0.8424    0.5288 C   0  0  0  0  0  0  0  0  0  0  0  0
    5.3625    0.8794    0.4706 C   0  0  0  0  0  0  0  0  0  0  0  0
    0.5236    0.6285   -0.6597 H   0  0  0  0  0  0  0  0  0  0  0  0
    0.8134    0.6191    1.0868 H   0  0  0  0  0  0  0  0  0  0  0  0
    0.7762   -0.9273    0.1674 H   0  0  0  0  0  0  0  0  0  0  0  0
    4.7353   -2.0373    2.1111 H   0  0  0  0  0  0  0  0  0  0  0  0
    7.2073   -2.0554    2.2364 H   0  0  0  0  0  0  0  0  0  0  0  0
    9.4200   -0.9183    1.7376 H   0  0  0  0  0  0  0  0  0  0  0  0
   11.3721   -0.3416   -1.0422 H   0  0  0  0  0  0  0  0  0  0  0  0
   13.8329   -0.1601   -0.8988 H   0  0  0  0  0  0  0  0  0  0  0  0
   14.8823    1.2123    0.8819 H   0  0  0  0  0  0  0  0  0  0  0  0
   13.4624    2.4009    2.5336 H   0  0  0  0  0  0  0  0  0  0  0  0
   11.0028    2.2320    2.4050 H   0  0  0  0  0  0  0  0  0  0  0  0
    4.8717    1.7206   -0.0087 H   0  0  0  0  0  0  0  0  0  0  0  0
  1  2  1  0  0  0  0
  1 22  1  0  0  0  0
  1 23  1  0  0  0  0
  1 24  1  0  0  0  0
  2  3  2  0  0  0  0
  2  4  1  0  0  0  0
  4  5  1  0  0  0  0
  5  6  2  0  0  0  0
  5 21  1  0  0  0  0
  6  7  1  0  0  0  0
  6 25  1  0  0  0  0
  7  8  2  0  0  0  0
  7 26  1  0  0  0  0
  8  9  1  0  0  0  0
  8 20  1  0  0  0  0
  9 10  2  0  0  0  0
  9 27  1  0  0  0  0
 10 11  1  0  0  0  0
 10 17  1  0  0  0  0
 11 12  2  0  0  0  0
 11 16  1  0  0  0  0
 12 13  1  0  0  0  0
 12 28  1  0  0  0  0
 13 14  2  0  0  0  0
 13 29  1  0  0  0  0
 14 15  1  0  0  0  0
 14 30  1  0  0  0  0
 15 16  2  0  0  0  0
 15 31  1  0  0  0  0
 16 32  1  0  0  0  0
 17 18  2  0  0  0  0
 17 19  1  0  0  0  0
 19 20  1  0  0  0  0
 20 21  2  0  0  0  0
 21 33  1  0  0  0  0
M  END
$$$$
