
 OpenBabel09162610133D

 32 33  0  0  0  0  0  0  0  0999 V2000
    1.0144    0.7511   -2.7325 N   0  0  0  0  0  0  0  0  0  0  0  0
    2.0949    0.5559   -3.1100 C   0  0  0  0  0  0  0  0  0  0  0  0
    3.6733    0.2576   -3.6205 S   0  0  0  0  0  0  0  0  0  0  0  0
    4.4612    0.2586   -1.9765 C   0  0  0  0  0  0  0  0  0  0  0  0
    5.9635    0.0191   -2.0925 C   0  0  0  0  0  0  0  0  0  0  0  0
    6.5756    1.1182   -2.7717 O   0  0  0  0  0  0  0  0  0  0  0  0
    7.9214    1.0210   -2.9978 C   0  0  0  0  0  0  0  0  0  0  0  0
    8.7545    0.0171   -2.5056 C   0  0  0  0  0  0  0  0  0  0  0  0
   10.1249    0.0420   -2.7783 C   0  0  0  0  0  0  0  0  0  0  0  0
   10.6621    1.0339   -3.6006 C   0  0  0  0  0  0  0  0  0  0  0  0
   11.9921    1.1280   -3.9356 O   0  0  0  0  0  0  0  0  0  0  0  0
   12.7469   -0.0092   -4.1207 C   0  0  0  0  0  0  0  0  0  0  0  0
   12.2489   -1.2308   -4.5858 C   0  0  0  0  0  0  0  0  0  0  0  0
   13.0984   -2.3290   -4.7216 C   0  0  0  0  0  0  0  0  0  0  0  0
   14.4599   -2.1961   -4.4527 C   0  0  0  0  0  0  0  0  0  0  0  0
   14.9730   -0.9644   -4.0487 C   0  0  0  0  0  0  0  0  0  0  0  0
   14.1157    0.1263   -3.8806 C   0  0  0  0  0  0  0  0  0  0  0  0
    9.8345    2.0537   -4.0731 C   0  0  0  0  0  0  0  0  0  0  0  0
    8.4699    2.0468   -3.7712 C   0  0  0  0  0  0  0  0  0  0  0  0
    4.0145   -0.5360   -1.3693 H   0  0  0  0  0  0  0  0  0  0  0  0
    4.2728    1.2218   -1.4906 H   0  0  0  0  0  0  0  0  0  0  0  0
    6.1541   -0.9224   -2.6236 H   0  0  0  0  0  0  0  0  0  0  0  0
    6.3732   -0.0484   -1.0769 H   0  0  0  0  0  0  0  0  0  0  0  0
    8.3791   -0.7978   -1.8971 H   0  0  0  0  0  0  0  0  0  0  0  0
   10.7570   -0.7293   -2.3478 H   0  0  0  0  0  0  0  0  0  0  0  0
   11.1993   -1.3482   -4.8398 H   0  0  0  0  0  0  0  0  0  0  0  0
   12.6981   -3.2860   -5.0455 H   0  0  0  0  0  0  0  0  0  0  0  0
   15.1225   -3.0494   -4.5709 H   0  0  0  0  0  0  0  0  0  0  0  0
   16.0371   -0.8520   -3.8653 H   0  0  0  0  0  0  0  0  0  0  0  0
   14.5190    1.0845   -3.5633 H   0  0  0  0  0  0  0  0  0  0  0  0
   10.2511    2.8558   -4.6768 H   0  0  0  0  0  0  0  0  0  0  0  0
    7.8326    2.8445   -4.1451 H   0  0  0  0  0  0  0  0  0  0  0  0
  1  2  3  0  0  0  0
  2  3  1  0  0  0  0
  3  4  1  0  0  0  0
  4  5  1  0  0  0  0
  4 20  1  0  0  0  0
  4 21  1  0  0  0  0
  5  6  1  0  0  0  0
  5 22  1  0  0  0  0
  5 23  1  0  0  0  0
  6  7  1  0  0  0  0
  7  8  2  0  0  0  0
  7 19  1  0  0  0  0
  8  9  1  0  0  0  0
  8 24  1  0  0  0  0
  9 10  2  0  0  0  0
  9 25  1  0  0  0  0
 10 11  1  0  0  0  0
 10 18  1  0  0  0  0
 11 12  1  0  0  0  0
 12 13  2  0  0  0  0
 12 17  1  0  0  0  0
 13 14  1  0  0  0  0
 13 26  1  0  0  0  0
 14 15  2  0  0  0  0
 14 27  1  0  0  0  0
 15 16  1  0  0  0  0
 15 28  1  0  0  0  0
 16 17  2  0  0  0  0
 16 29  1  0  0  0  0
 17 30  1  0  0  0  0
 18 19  2  0  0  0  0
 18 31  1  0  0  0  0
 19 32  1  0  0  0  0
M  END
$$$$
