
 OpenBabel09162610133D

 31 34  0  0  0  0  0  0  0  0999 V2000
    0.9912   -0.0844    0.0881 C   0  0  0  0  0  0  0  0  0  0  0  0
    2.4938    0.0102    0.0872 C   0  0  0  0  0  0  0  0  0  0  0  0
    3.2146    1.2160    0.0842 C   0  0  0  0  0  0  0  0  0  0  0  0
    2.6246    2.4487    0.0845 O   0  0  0  0  0  0  0  0  0  0  0  0
    4.6168    1.2384    0.0799 C   0  0  0  0  0  0  0  0  0  0  0  0
    5.3290    0.0440    0.0787 C   0  0  0  0  0  0  0  0  0  0  0  0
    6.7210    0.1185    0.0734 O   0  0  0  0  0  0  0  0  0  0  0  0
    7.3450   -1.0553    0.0702 C   0  0  0  0  0  0  0  0  0  0  0  0
    8.6989   -1.0951    0.0639 O   0  0  0  0  0  0  0  0  0  0  0  0
    9.0285   -2.4313    0.0616 C   0  0  0  0  0  0  0  0  0  0  0  0
   10.3154   -2.9680    0.0553 C   0  0  0  0  0  0  0  0  0  0  0  0
   10.4135   -4.3683    0.0536 C   0  0  0  0  0  0  0  0  0  0  0  0
    9.2758   -5.1803    0.0579 C   0  0  0  0  0  0  0  0  0  0  0  0
    7.9971   -4.6190    0.0643 C   0  0  0  0  0  0  0  0  0  0  0  0
    7.8764   -3.2200    0.0664 C   0  0  0  0  0  0  0  0  0  0  0  0
    6.8042   -2.3124    0.0725 C   0  0  0  0  0  0  0  0  0  0  0  0
    5.3833   -2.4591    0.0798 C   0  0  0  0  0  0  0  0  0  0  0  0
    4.8019   -3.5397    0.0835 O   0  0  0  0  0  0  0  0  0  0  0  0
    4.6279   -1.1795    0.0826 C   0  0  0  0  0  0  0  0  0  0  0  0
    3.2262   -1.1896    0.0874 C   0  0  0  0  0  0  0  0  0  0  0  0
    2.5094   -2.3630    0.0920 O   0  0  0  0  0  0  0  0  0  0  0  0
    0.4870    0.8825    0.0850 H   0  0  0  0  0  0  0  0  0  0  0  0
    0.6511   -0.6207    0.9812 H   0  0  0  0  0  0  0  0  0  0  0  0
    0.6509   -0.6254   -0.8021 H   0  0  0  0  0  0  0  0  0  0  0  0
    1.6602    2.3635    0.0959 H   0  0  0  0  0  0  0  0  0  0  0  0
    5.1393    2.1918    0.0769 H   0  0  0  0  0  0  0  0  0  0  0  0
   11.1949   -2.3358    0.0518 H   0  0  0  0  0  0  0  0  0  0  0  0
   11.3960   -4.8367    0.0487 H   0  0  0  0  0  0  0  0  0  0  0  0
    9.3788   -6.2636    0.0562 H   0  0  0  0  0  0  0  0  0  0  0  0
    7.1109   -5.2485    0.0674 H   0  0  0  0  0  0  0  0  0  0  0  0
    3.1313   -3.1256    0.0920 H   0  0  0  0  0  0  0  0  0  0  0  0
  1  2  1  0  0  0  0
  1 22  1  0  0  0  0
  1 23  1  0  0  0  0
  1 24  1  0  0  0  0
  2  3  2  0  0  0  0
  2 20  1  0  0  0  0
  3  4  1  0  0  0  0
  3  5  1  0  0  0  0
  4 25  1  0  0  0  0
  5  6  2  0  0  0  0
  5 26  1  0  0  0  0
  6  7  1  0  0  0  0
  6 19  1  0  0  0  0
  7  8  1  0  0  0  0
  8  9  1  0  0  0  0
  8 16  2  0  0  0  0
  9 10  1  0  0  0  0
 10 11  1  0  0  0  0
 10 15  2  0  0  0  0
 11 12  2  0  0  0  0
 11 27  1  0  0  0  0
 12 13  1  0  0  0  0
 12 28  1  0  0  0  0
 13 14  2  0  0  0  0
 13 29  1  0  0  0  0
 14 15  1  0  0  0  0
 14 30  1  0  0  0  0
 15 16  1  0  0  0  0
 16 17  1  0  0  0  0
 17 18  2  0  0  0  0
 17 19  1  0  0  0  0
 19 20  2  0  0  0  0
 20 21  1  0  0  0  0
 21 31  1  0  0  0  0
M  END
$$$$
