
 OpenBabel09162610133D

 31 34  0  0  0  0  0  0  0  0999 V2000
    0.9916   -0.1723   -0.0593 C   0  0  0  0  0  0  0  0  0  0  0  0
    2.4932   -0.1379   -0.0611 C   0  0  0  0  0  0  0  0  0  0  0  0
    3.1710    1.0943   -0.0618 C   0  0  0  0  0  0  0  0  0  0  0  0
    4.5639    1.1408   -0.0639 C   0  0  0  0  0  0  0  0  0  0  0  0
    5.2698   -0.0551   -0.0650 C   0  0  0  0  0  0  0  0  0  0  0  0
    6.6955    0.0344   -0.0673 O   0  0  0  0  0  0  0  0  0  0  0  0
    7.5424   -1.1002   -0.0686 C   0  0  0  0  0  0  0  0  0  0  0  0
    8.7634   -0.9883   -0.0712 O   0  0  0  0  0  0  0  0  0  0  0  0
    6.8670   -2.3742   -0.0680 C   0  0  0  0  0  0  0  0  0  0  0  0
    7.3254   -3.7133   -0.0692 C   0  0  0  0  0  0  0  0  0  0  0  0
    8.5879   -4.3395   -0.0719 C   0  0  0  0  0  0  0  0  0  0  0  0
    8.6230   -5.7333   -0.0722 C   0  0  0  0  0  0  0  0  0  0  0  0
    9.8123   -6.4135   -0.0749 O   0  0  0  0  0  0  0  0  0  0  0  0
    7.4483   -6.4877   -0.0699 C   0  0  0  0  0  0  0  0  0  0  0  0
    7.5326   -7.8543   -0.0703 O   0  0  0  0  0  0  0  0  0  0  0  0
    6.1859   -5.8975   -0.0671 C   0  0  0  0  0  0  0  0  0  0  0  0
    6.1704   -4.5031   -0.0670 C   0  0  0  0  0  0  0  0  0  0  0  0
    5.0485   -3.7126   -0.0650 O   0  0  0  0  0  0  0  0  0  0  0  0
    5.4986   -2.4362   -0.0656 C   0  0  0  0  0  0  0  0  0  0  0  0
    4.6178   -1.2991   -0.0642 C   0  0  0  0  0  0  0  0  0  0  0  0
    3.2262   -1.3398   -0.0622 C   0  0  0  0  0  0  0  0  0  0  0  0
    0.5687    0.8384   -0.0584 H   0  0  0  0  0  0  0  0  0  0  0  0
    0.6260   -0.6875    0.8343 H   0  0  0  0  0  0  0  0  0  0  0  0
    0.6240   -0.6867   -0.9527 H   0  0  0  0  0  0  0  0  0  0  0  0
    2.6125    2.0287   -0.0610 H   0  0  0  0  0  0  0  0  0  0  0  0
    5.0859    2.0927   -0.0645 H   0  0  0  0  0  0  0  0  0  0  0  0
    9.4928   -3.7407   -0.0740 H   0  0  0  0  0  0  0  0  0  0  0  0
   10.5359   -5.7616   -0.0766 H   0  0  0  0  0  0  0  0  0  0  0  0
    8.4939   -8.0425   -0.0724 H   0  0  0  0  0  0  0  0  0  0  0  0
    5.2760   -6.4835   -0.0654 H   0  0  0  0  0  0  0  0  0  0  0  0
    2.7077   -2.2961   -0.0615 H   0  0  0  0  0  0  0  0  0  0  0  0
  1  2  1  0  0  0  0
  1 22  1  0  0  0  0
  1 23  1  0  0  0  0
  1 24  1  0  0  0  0
  2  3  2  0  0  0  0
  2 21  1  0  0  0  0
  3  4  1  0  0  0  0
  3 25  1  0  0  0  0
  4  5  2  0  0  0  0
  4 26  1  0  0  0  0
  5  6  1  0  0  0  0
  5 20  1  0  0  0  0
  6  7  1  0  0  0  0
  7  8  2  0  0  0  0
  7  9  1  0  0  0  0
  9 10  1  0  0  0  0
  9 19  2  0  0  0  0
 10 11  1  0  0  0  0
 10 17  2  0  0  0  0
 11 12  2  0  0  0  0
 11 27  1  0  0  0  0
 12 13  1  0  0  0  0
 12 14  1  0  0  0  0
 13 28  1  0  0  0  0
 14 15  1  0  0  0  0
 14 16  2  0  0  0  0
 15 29  1  0  0  0  0
 16 17  1  0  0  0  0
 16 30  1  0  0  0  0
 17 18  1  0  0  0  0
 18 19  1  0  0  0  0
 19 20  1  0  0  0  0
 20 21  2  0  0  0  0
 21 31  1  0  0  0  0
M  END
$$$$
