
 OpenBabel09162610133D

 33 34  0  0  0  0  0  0  0  0999 V2000
    0.9713    0.5433   -0.3510 C   0  0  0  0  0  0  0  0  0  0  0  0
    2.4213    0.1191   -0.1827 C   0  0  0  0  0  0  0  0  0  0  0  0
    2.8681   -0.7899   -1.2757 C   0  0  0  0  0  0  0  0  0  0  0  0
    2.7135   -2.1116   -1.1506 N   0  0  0  0  0  0  0  0  0  0  0  0
    3.2481   -2.6035   -2.2729 N   0  0  0  0  0  0  0  0  0  0  0  0
    3.7369   -1.6529   -3.1386 C   0  0  0  0  0  0  0  0  0  0  0  0
    4.4174   -2.0930   -4.3919 C   0  0  0  0  0  0  0  0  0  0  0  0
    3.4967   -2.9219   -5.2846 C   0  0  0  0  0  0  0  0  0  0  0  0
    3.4704   -0.4464   -2.5135 C   0  0  0  0  0  0  0  0  0  0  0  0
    3.7799    0.8245   -2.8595 O   0  0  0  0  0  0  0  0  0  0  0  0
    3.8806    1.2997   -4.1391 C   0  0  0  0  0  0  0  0  0  0  0  0
    4.7416    2.3833   -4.3281 C   0  0  0  0  0  0  0  0  0  0  0  0
    4.9295    2.9076   -5.6057 C   0  0  0  0  0  0  0  0  0  0  0  0
    6.0006    4.2330   -5.8387 Cl  0  0  0  0  0  0  0  0  0  0  0  0
    4.2703    2.3540   -6.7008 C   0  0  0  0  0  0  0  0  0  0  0  0
    3.3744    1.3000   -6.5021 C   0  0  0  0  0  0  0  0  0  0  0  0
    2.7288    0.6830   -7.6194 C   0  0  0  0  0  0  0  0  0  0  0  0
    2.2252    0.1515   -8.5215 N   0  0  0  0  0  0  0  0  0  0  0  0
    3.1437    0.8073   -5.2133 C   0  0  0  0  0  0  0  0  0  0  0  0
    0.6655    1.1903    0.4770 H   0  0  0  0  0  0  0  0  0  0  0  0
    0.3053   -0.3262   -0.3685 H   0  0  0  0  0  0  0  0  0  0  0  0
    0.8281    1.0941   -1.2868 H   0  0  0  0  0  0  0  0  0  0  0  0
    2.5425   -0.3811    0.7862 H   0  0  0  0  0  0  0  0  0  0  0  0
    3.0612    1.0090   -0.1541 H   0  0  0  0  0  0  0  0  0  0  0  0
    3.2591   -3.6103   -2.3896 H   0  0  0  0  0  0  0  0  0  0  0  0
    5.2922   -2.6995   -4.1272 H   0  0  0  0  0  0  0  0  0  0  0  0
    4.8053   -1.2437   -4.9589 H   0  0  0  0  0  0  0  0  0  0  0  0
    3.2026   -3.8567   -4.7934 H   0  0  0  0  0  0  0  0  0  0  0  0
    4.0044   -3.1864   -6.2172 H   0  0  0  0  0  0  0  0  0  0  0  0
    2.5795   -2.3798   -5.5363 H   0  0  0  0  0  0  0  0  0  0  0  0
    5.2694    2.8097   -3.4781 H   0  0  0  0  0  0  0  0  0  0  0  0
    4.4543    2.7407   -7.7010 H   0  0  0  0  0  0  0  0  0  0  0  0
    2.4165    0.0141   -5.0576 H   0  0  0  0  0  0  0  0  0  0  0  0
  1  2  1  0  0  0  0
  1 20  1  0  0  0  0
  1 21  1  0  0  0  0
  1 22  1  0  0  0  0
  2  3  1  0  0  0  0
  2 23  1  0  0  0  0
  2 24  1  0  0  0  0
  3  4  2  0  0  0  0
  3  9  1  0  0  0  0
  4  5  1  0  0  0  0
  5  6  1  0  0  0  0
  5 25  1  0  0  0  0
  6  7  1  0  0  0  0
  6  9  2  0  0  0  0
  7  8  1  0  0  0  0
  7 26  1  0  0  0  0
  7 27  1  0  0  0  0
  8 28  1  0  0  0  0
  8 29  1  0  0  0  0
  8 30  1  0  0  0  0
  9 10  1  0  0  0  0
 10 11  1  0  0  0  0
 11 12  2  0  0  0  0
 11 19  1  0  0  0  0
 12 13  1  0  0  0  0
 12 31  1  0  0  0  0
 13 14  1  0  0  0  0
 13 15  2  0  0  0  0
 15 16  1  0  0  0  0
 15 32  1  0  0  0  0
 16 17  1  0  0  0  0
 16 19  2  0  0  0  0
 17 18  3  0  0  0  0
 19 33  1  0  0  0  0
M  END
$$$$
