
 OpenBabel09162610133D

 33 34  0  0  0  0  0  0  0  0999 V2000
    0.8335   -0.0589   -0.4352 C   0  0  0  0  0  0  0  0  0  0  0  0
    2.2646    0.0861   -0.2306 N   0  0  0  0  0  0  0  0  0  0  0  0
    2.8876    1.1990   -0.4429 C   0  0  0  0  0  0  0  0  0  0  0  0
    2.1257    2.6766   -1.0006 S   0  0  0  0  0  0  0  0  0  0  0  0
    4.3859    1.2462   -0.3275 C   0  0  0  0  0  0  0  0  0  0  0  0
    5.0539    0.2245   -0.9054 C   0  0  0  0  0  0  0  0  0  0  0  0
    4.4144   -0.8698   -1.4865 O   0  0  0  0  0  0  0  0  0  0  0  0
    6.5703    0.1588   -0.9938 C   0  0  0  0  0  0  0  0  0  0  0  0
    7.0076    0.1511   -2.4668 C   0  0  0  0  0  0  0  0  0  0  0  0
    7.0831   -1.1108   -0.2974 C   0  0  0  0  0  0  0  0  0  0  0  0
    7.2828    1.2557   -0.3980 O   0  0  0  0  0  0  0  0  0  0  0  0
    6.5869    2.2535    0.2130 C   0  0  0  0  0  0  0  0  0  0  0  0
    7.3950    3.2533    0.7695 C   0  0  0  0  0  0  0  0  0  0  0  0
    6.8255    4.3276    1.4457 C   0  0  0  0  0  0  0  0  0  0  0  0
    5.4422    4.3840    1.5935 C   0  0  0  0  0  0  0  0  0  0  0  0
    4.8375    5.4865    2.2865 C   0  0  0  0  0  0  0  0  0  0  0  0
    4.3456    6.3809    2.8360 N   0  0  0  0  0  0  0  0  0  0  0  0
    4.6380    3.3665    1.0516 C   0  0  0  0  0  0  0  0  0  0  0  0
    5.1913    2.3058    0.3117 C   0  0  0  0  0  0  0  0  0  0  0  0
    0.5945   -1.1263   -0.4927 H   0  0  0  0  0  0  0  0  0  0  0  0
    0.4888    0.3840   -1.3750 H   0  0  0  0  0  0  0  0  0  0  0  0
    0.2725    0.3588    0.4062 H   0  0  0  0  0  0  0  0  0  0  0  0
    0.9536    2.4991   -0.3781 H   0  0  0  0  0  0  0  0  0  0  0  0
    3.4933   -0.9061   -1.1442 H   0  0  0  0  0  0  0  0  0  0  0  0
    6.5823   -0.6894   -3.0252 H   0  0  0  0  0  0  0  0  0  0  0  0
    8.0999    0.0964   -2.5479 H   0  0  0  0  0  0  0  0  0  0  0  0
    6.7100    1.0823   -2.9639 H   0  0  0  0  0  0  0  0  0  0  0  0
    6.6698   -2.0235   -0.7399 H   0  0  0  0  0  0  0  0  0  0  0  0
    6.8282   -1.0999    0.7691 H   0  0  0  0  0  0  0  0  0  0  0  0
    8.1766   -1.1728   -0.3525 H   0  0  0  0  0  0  0  0  0  0  0  0
    8.4769    3.1878    0.6690 H   0  0  0  0  0  0  0  0  0  0  0  0
    7.4664    5.1039    1.8581 H   0  0  0  0  0  0  0  0  0  0  0  0
    3.5667    3.4287    1.2247 H   0  0  0  0  0  0  0  0  0  0  0  0
  1  2  1  0  0  0  0
  1 20  1  0  0  0  0
  1 21  1  0  0  0  0
  1 22  1  0  0  0  0
  2  3  2  0  0  0  0
  3  4  1  0  0  0  0
  3  5  1  0  0  0  0
  4 23  1  0  0  0  0
  5  6  2  0  0  0  0
  5 19  1  0  0  0  0
  6  7  1  0  0  0  0
  6  8  1  0  0  0  0
  7 24  1  0  0  0  0
  8  9  1  0  0  0  0
  8 10  1  0  0  0  0
  8 11  1  0  0  0  0
  9 25  1  0  0  0  0
  9 26  1  0  0  0  0
  9 27  1  0  0  0  0
 10 28  1  0  0  0  0
 10 29  1  0  0  0  0
 10 30  1  0  0  0  0
 11 12  1  0  0  0  0
 12 13  1  0  0  0  0
 12 19  2  0  0  0  0
 13 14  2  0  0  0  0
 13 31  1  0  0  0  0
 14 15  1  0  0  0  0
 14 32  1  0  0  0  0
 15 16  1  0  0  0  0
 15 18  2  0  0  0  0
 16 17  3  0  0  0  0
 18 19  1  0  0  0  0
 18 33  1  0  0  0  0
M  END
$$$$
