
 OpenBabel09162610133D

 34 37  0  0  0  0  0  0  0  0999 V2000
    1.1324   -0.1566   -0.0519 O   0  0  0  0  0  0  0  0  0  0  0  0
    2.3528   -0.0127    0.0335 C   0  0  0  0  0  0  0  0  0  0  0  0
    3.0372    0.7753   -0.9863 C   0  0  0  0  0  0  0  0  0  0  0  0
    4.2189    1.4950   -0.9891 C   0  0  0  0  0  0  0  0  0  0  0  0
    4.3839    2.1139   -2.2541 C   0  0  0  0  0  0  0  0  0  0  0  0
    5.3874    2.9243   -2.8127 C   0  0  0  0  0  0  0  0  0  0  0  0
    5.2064    3.4067   -4.1048 C   0  0  0  0  0  0  0  0  0  0  0  0
    6.1586    4.1786   -4.6499 F   0  0  0  0  0  0  0  0  0  0  0  0
    4.0661    3.1123   -4.8413 C   0  0  0  0  0  0  0  0  0  0  0  0
    3.0569    2.3052   -4.3029 C   0  0  0  0  0  0  0  0  0  0  0  0
    3.2499    1.8143   -3.0039 C   0  0  0  0  0  0  0  0  0  0  0  0
    2.4488    1.0202   -2.2152 N   0  0  0  0  0  0  0  0  0  0  0  0
    3.1098   -0.5878    1.0482 N   0  0  0  0  0  0  0  0  0  0  0  0
    4.5725   -0.7708    1.0792 C   0  0  0  0  0  0  0  0  0  0  0  0
    4.9026   -1.6865    2.2604 C   0  0  0  0  0  0  0  0  0  0  0  0
    3.6289   -1.6285    3.0361 C   0  0  0  0  0  0  0  0  0  0  0  0
    3.4108   -2.0860    4.3261 C   0  0  0  0  0  0  0  0  0  0  0  0
    2.1231   -1.9864    4.8511 C   0  0  0  0  0  0  0  0  0  0  0  0
    1.0787   -1.4579    4.0775 C   0  0  0  0  0  0  0  0  0  0  0  0
    1.3123   -0.9963    2.7770 C   0  0  0  0  0  0  0  0  0  0  0  0
    2.5990   -1.0714    2.2723 C   0  0  0  0  0  0  0  0  0  0  0  0
    4.9086    1.6164   -0.1688 H   0  0  0  0  0  0  0  0  0  0  0  0
    6.2836    3.1774   -2.2572 H   0  0  0  0  0  0  0  0  0  0  0  0
    3.9638    3.5210   -5.8423 H   0  0  0  0  0  0  0  0  0  0  0  0
    2.1603    2.0797   -4.8714 H   0  0  0  0  0  0  0  0  0  0  0  0
    1.5383    0.6669   -2.4737 H   0  0  0  0  0  0  0  0  0  0  0  0
    5.0338    0.2019    1.2664 H   0  0  0  0  0  0  0  0  0  0  0  0
    4.9341   -1.1685    0.1254 H   0  0  0  0  0  0  0  0  0  0  0  0
    5.7619   -1.3146    2.8258 H   0  0  0  0  0  0  0  0  0  0  0  0
    5.0940   -2.7105    1.9240 H   0  0  0  0  0  0  0  0  0  0  0  0
    4.2187   -2.5051    4.9172 H   0  0  0  0  0  0  0  0  0  0  0  0
    1.9249   -2.3242    5.8655 H   0  0  0  0  0  0  0  0  0  0  0  0
    0.0773   -1.3958    4.4970 H   0  0  0  0  0  0  0  0  0  0  0  0
    0.4937   -0.5751    2.2040 H   0  0  0  0  0  0  0  0  0  0  0  0
  1  2  2  0  0  0  0
  2  3  1  0  0  0  0
  2 13  1  0  0  0  0
  3  4  2  0  0  0  0
  3 12  1  0  0  0  0
  4  5  1  0  0  0  0
  4 22  1  0  0  0  0
  5  6  2  0  0  0  0
  5 11  1  0  0  0  0
  6  7  1  0  0  0  0
  6 23  1  0  0  0  0
  7  8  1  0  0  0  0
  7  9  2  0  0  0  0
  9 10  1  0  0  0  0
  9 24  1  0  0  0  0
 10 11  2  0  0  0  0
 10 25  1  0  0  0  0
 11 12  1  0  0  0  0
 12 26  1  0  0  0  0
 13 14  1  0  0  0  0
 13 21  1  0  0  0  0
 14 15  1  0  0  0  0
 14 27  1  0  0  0  0
 14 28  1  0  0  0  0
 15 16  1  0  0  0  0
 15 29  1  0  0  0  0
 15 30  1  0  0  0  0
 16 17  1  0  0  0  0
 16 21  2  0  0  0  0
 17 18  2  0  0  0  0
 17 31  1  0  0  0  0
 18 19  1  0  0  0  0
 18 32  1  0  0  0  0
 19 20  2  0  0  0  0
 19 33  1  0  0  0  0
 20 21  1  0  0  0  0
 20 34  1  0  0  0  0
M  END
$$$$
