
 OpenBabel09162610133D

 28 28  0  0  1  0  0  0  0  0999 V2000
    2.9699    0.4405    1.2915 C   0  0  0  0  0  0  0  0  0  0  0  0
    2.4114   -0.0329   -0.0741 C   0  0  1  0  0  0  0  0  0  0  0  0
    0.8902   -0.0679    0.1154 C   0  0  0  0  0  0  0  0  0  0  0  0
    0.0357    0.9492   -0.0664 C   0  0  0  0  0  0  0  0  0  0  0  0
   -1.6546    0.7742    0.1505 Cl  0  0  0  0  0  0  0  0  0  0  0  0
    2.8869    0.9505   -1.1887 C   0  0  0  0  0  0  0  0  0  0  0  0
    2.6035    0.5161   -2.6571 C   0  0  1  0  0  0  0  0  0  0  0  0
    1.1309    0.6966   -3.0607 C   0  0  0  0  0  0  0  0  0  0  0  0
    3.5473    1.6600   -3.7135 Cl  0  0  0  0  0  0  0  0  0  0  0  0
    3.1177   -0.9283   -2.8868 C   0  0  2  0  0  0  0  0  0  0  0  0
    2.7275   -1.5728   -4.5204 Cl  0  0  0  0  0  0  0  0  0  0  0  0
    2.5778   -1.9083   -1.8377 C   0  0  0  0  0  0  0  0  0  0  0  0
    2.9250   -1.4774   -0.4075 C   0  0  1  0  0  0  0  0  0  0  0  0
    4.7051   -1.6602   -0.1773 Cl  0  0  0  0  0  0  0  0  0  0  0  0
    4.0560    0.5799    1.2734 H   0  0  0  0  0  0  0  0  0  0  0  0
    2.7408   -0.2806    2.0855 H   0  0  0  0  0  0  0  0  0  0  0  0
    2.5406    1.4052    1.5873 H   0  0  0  0  0  0  0  0  0  0  0  0
    0.4757   -1.0058    0.4781 H   0  0  0  0  0  0  0  0  0  0  0  0
    0.2990    1.9497   -0.3823 H   0  0  0  0  0  0  0  0  0  0  0  0
    3.9759    1.0673   -1.0782 H   0  0  0  0  0  0  0  0  0  0  0  0
    2.4833    1.9558   -1.0102 H   0  0  0  0  0  0  0  0  0  0  0  0
    0.7618    1.6915   -2.7883 H   0  0  0  0  0  0  0  0  0  0  0  0
    0.4789   -0.0488   -2.6002 H   0  0  0  0  0  0  0  0  0  0  0  0
    0.9856    0.6007   -4.1429 H   0  0  0  0  0  0  0  0  0  0  0  0
    4.2123   -0.9296   -2.8471 H   0  0  0  0  0  0  0  0  0  0  0  0
    2.9835   -2.9121   -2.0236 H   0  0  0  0  0  0  0  0  0  0  0  0
    1.4896   -2.0073   -1.9325 H   0  0  0  0  0  0  0  0  0  0  0  0
    2.4858   -2.1985    0.2919 H   0  0  0  0  0  0  0  0  0  0  0  0
  1 15  1  0  0  0  0
  1 16  1  0  0  0  0
  1 17  1  0  0  0  0
  2  6  1  0  0  0  0
  2 13  1  0  0  0  0
  2  3  1  1  0  0  0
  2  1  1  0  0  0  0
  3  4  2  0  0  0  0
  3 18  1  0  0  0  0
  4  5  1  0  0  0  0
  4 19  1  0  0  0  0
  6  7  1  0  0  0  0
  6 20  1  0  0  0  0
  6 21  1  0  0  0  0
  7  8  1  0  0  0  0
  7  9  1  6  0  0  0
  7 10  1  0  0  0  0
  8 22  1  0  0  0  0
  8 23  1  0  0  0  0
  8 24  1  0  0  0  0
 10 12  1  0  0  0  0
 10 11  1  0  0  0  0
 10 25  1  1  0  0  0
 12 13  1  0  0  0  0
 12 26  1  0  0  0  0
 12 27  1  0  0  0  0
 13 14  1  0  0  0  0
 13 28  1  1  0  0  0
M  END
$$$$
