
 OpenBabel09162610133D

 32 35  0  0  0  0  0  0  0  0999 V2000
    0.9818    0.0763    0.2641 O   0  0  0  0  0  0  0  0  0  0  0  0
    2.3447    0.0463    0.1926 C   0  0  0  0  0  0  0  0  0  0  0  0
    3.0815    1.2203    0.0768 C   0  0  0  0  0  0  0  0  0  0  0  0
    4.4748    1.1693    0.0056 C   0  0  0  0  0  0  0  0  0  0  0  0
    5.0614   -0.0976    0.0236 C   0  0  0  0  0  0  0  0  0  0  0  0
    6.3936   -0.3225   -0.0349 O   0  0  0  0  0  0  0  0  0  0  0  0
    6.5782   -1.6659   -0.0278 C   0  0  0  0  0  0  0  0  0  0  0  0
    7.8124   -2.1964   -0.0726 N   0  0  0  0  0  0  0  0  0  0  0  0
    7.8101   -3.5391   -0.0950 C   0  0  0  0  0  0  0  0  0  0  0  0
    6.6770   -4.3446   -0.0947 C   0  0  0  0  0  0  0  0  0  0  0  0
    6.8123   -5.7069   -0.1666 O   0  0  0  0  0  0  0  0  0  0  0  0
    5.3885   -3.7652   -0.0463 C   0  0  0  0  0  0  0  0  0  0  0  0
    4.1505   -4.5720   -0.0858 C   0  0  0  0  0  0  0  0  0  0  0  0
    3.9818   -5.6920    0.7491 C   0  0  0  0  0  0  0  0  0  0  0  0
    2.8255   -6.4772    0.6977 C   0  0  0  0  0  0  0  0  0  0  0  0
    1.7957   -6.1429   -0.1749 C   0  0  0  0  0  0  0  0  0  0  0  0
    1.9368   -5.0441   -1.0160 C   0  0  0  0  0  0  0  0  0  0  0  0
    3.1123   -4.2856   -0.9890 C   0  0  0  0  0  0  0  0  0  0  0  0
    5.3508   -2.3410    0.0125 C   0  0  0  0  0  0  0  0  0  0  0  0
    4.3633   -1.2971    0.1043 C   0  0  0  0  0  0  0  0  0  0  0  0
    2.9579   -1.2117    0.2283 C   0  0  0  0  0  0  0  0  0  0  0  0
    0.6830    0.9962    0.1708 H   0  0  0  0  0  0  0  0  0  0  0  0
    2.5909    2.1887    0.0474 H   0  0  0  0  0  0  0  0  0  0  0  0
    5.0800    2.0652   -0.0711 H   0  0  0  0  0  0  0  0  0  0  0  0
    8.8051   -3.9752   -0.1258 H   0  0  0  0  0  0  0  0  0  0  0  0
    7.7507   -5.9455   -0.2454 H   0  0  0  0  0  0  0  0  0  0  0  0
    4.7697   -5.9780    1.4432 H   0  0  0  0  0  0  0  0  0  0  0  0
    2.7355   -7.3499    1.3391 H   0  0  0  0  0  0  0  0  0  0  0  0
    0.8899   -6.7422   -0.2054 H   0  0  0  0  0  0  0  0  0  0  0  0
    1.1354   -4.7764   -1.6998 H   0  0  0  0  0  0  0  0  0  0  0  0
    3.2029   -3.4532   -1.6841 H   0  0  0  0  0  0  0  0  0  0  0  0
    2.3436   -2.0976    0.3419 H   0  0  0  0  0  0  0  0  0  0  0  0
  1  2  1  0  0  0  0
  1 22  1  0  0  0  0
  2  3  2  0  0  0  0
  2 21  1  0  0  0  0
  3  4  1  0  0  0  0
  3 23  1  0  0  0  0
  4  5  2  0  0  0  0
  4 24  1  0  0  0  0
  5  6  1  0  0  0  0
  5 20  1  0  0  0  0
  6  7  1  0  0  0  0
  7  8  1  0  0  0  0
  7 19  2  0  0  0  0
  8  9  2  0  0  0  0
  9 10  1  0  0  0  0
  9 25  1  0  0  0  0
 10 11  1  0  0  0  0
 10 12  2  0  0  0  0
 11 26  1  0  0  0  0
 12 13  1  0  0  0  0
 12 19  1  0  0  0  0
 13 14  2  0  0  0  0
 13 18  1  0  0  0  0
 14 15  1  0  0  0  0
 14 27  1  0  0  0  0
 15 16  2  0  0  0  0
 15 28  1  0  0  0  0
 16 17  1  0  0  0  0
 16 29  1  0  0  0  0
 17 18  2  0  0  0  0
 17 30  1  0  0  0  0
 18 31  1  0  0  0  0
 19 20  1  0  0  0  0
 20 21  2  0  0  0  0
 21 32  1  0  0  0  0
M  END
$$$$
