
 OpenBabel09162610133D

 36 39  0  0  1  0  0  0  0  0999 V2000
    5.3564    0.8169   -2.3605 C   0  0  0  0  0  0  0  0  0  0  0  0
    5.0010    0.2802   -1.0040 C   0  0  0  0  0  0  0  0  0  0  0  0
    4.5855   -0.8492   -0.7942 O   0  0  0  0  0  0  0  0  0  0  0  0
    5.1601    1.2385   -0.0694 O   0  0  0  0  0  0  0  0  0  0  0  0
    4.9664    0.9356    1.3248 C   0  0  2  0  0  0  0  0  0  0  0  0
    5.9901    1.8185    2.0105 C   0  0  0  0  0  0  0  0  0  0  0  0
    5.8436    3.1124    2.4677 C   0  0  0  0  0  0  0  0  0  0  0  0
    6.8831    3.6474    3.2331 C   0  0  0  0  0  0  0  0  0  0  0  0
    8.0506    2.8931    3.4827 C   0  0  0  0  0  0  0  0  0  0  0  0
    8.2056    1.5981    2.9762 C   0  0  0  0  0  0  0  0  0  0  0  0
    7.1543    1.0714    2.2501 C   0  0  0  0  0  0  0  0  0  0  0  0
    6.9327   -0.2830    1.8635 N   0  0  0  0  0  0  0  0  0  0  0  0
    7.6736   -1.3302    2.3964 C   0  0  0  0  0  0  0  0  0  0  0  0
    8.7207   -1.7417    1.9238 O   0  0  0  0  0  0  0  0  0  0  0  0
    7.1772   -1.7873    3.7118 C   0  0  0  0  0  0  0  0  0  0  0  0
    8.0085   -2.5465    4.5315 C   0  0  0  0  0  0  0  0  0  0  0  0
    7.8213   -2.4772    5.9067 C   0  0  0  0  0  0  0  0  0  0  0  0
    6.8165   -1.6571    6.4234 C   0  0  0  0  0  0  0  0  0  0  0  0
    5.8880   -1.0475    5.5699 C   0  0  0  0  0  0  0  0  0  0  0  0
    6.0165   -1.1637    4.1853 C   0  0  0  0  0  0  0  0  0  0  0  0
    5.0780   -0.5715    3.3271 N   0  0  0  0  0  0  0  0  0  0  0  0
    5.4773   -0.4294    1.8926 C   0  0  1  0  0  0  0  0  0  0  0  0
    5.9666    0.0865   -2.8981 H   0  0  0  0  0  0  0  0  0  0  0  0
    5.9457    1.7361   -2.2706 H   0  0  0  0  0  0  0  0  0  0  0  0
    4.4418    1.0352   -2.9159 H   0  0  0  0  0  0  0  0  0  0  0  0
    3.9409    1.1666    1.6263 H   0  0  0  0  0  0  0  0  0  0  0  0
    4.9331    3.6780    2.2970 H   0  0  0  0  0  0  0  0  0  0  0  0
    6.7812    4.6355    3.6612 H   0  0  0  0  0  0  0  0  0  0  0  0
    8.8267    3.3151    4.1174 H   0  0  0  0  0  0  0  0  0  0  0  0
    9.0813    1.0070    3.2212 H   0  0  0  0  0  0  0  0  0  0  0  0
    8.8439   -3.1028    4.1120 H   0  0  0  0  0  0  0  0  0  0  0  0
    8.5076   -2.9927    6.5727 H   0  0  0  0  0  0  0  0  0  0  0  0
    6.7657   -1.4779    7.4946 H   0  0  0  0  0  0  0  0  0  0  0  0
    5.1211   -0.3993    5.9871 H   0  0  0  0  0  0  0  0  0  0  0  0
    4.1649   -1.0061    3.4373 H   0  0  0  0  0  0  0  0  0  0  0  0
    5.1840   -1.3292    1.3470 H   0  0  0  0  0  0  0  0  0  0  0  0
  1  2  1  0  0  0  0
  1 23  1  0  0  0  0
  1 24  1  0  0  0  0
  1 25  1  0  0  0  0
  2  3  2  0  0  0  0
  2  4  1  0  0  0  0
  5  6  1  0  0  0  0
  5 22  1  0  0  0  0
  5  4  1  0  0  0  0
  5 26  1  1  0  0  0
  6  7  2  0  0  0  0
  6 11  1  0  0  0  0
  7  8  1  0  0  0  0
  7 27  1  0  0  0  0
  8  9  2  0  0  0  0
  8 28  1  0  0  0  0
  9 10  1  0  0  0  0
  9 29  1  0  0  0  0
 10 11  2  0  0  0  0
 10 30  1  0  0  0  0
 11 12  1  0  0  0  0
 12 13  1  0  0  0  0
 12 22  1  0  0  0  0
 13 14  2  0  0  0  0
 13 15  1  0  0  0  0
 15 16  2  0  0  0  0
 15 20  1  0  0  0  0
 16 17  1  0  0  0  0
 16 31  1  0  0  0  0
 17 18  2  0  0  0  0
 17 32  1  0  0  0  0
 18 19  1  0  0  0  0
 18 33  1  0  0  0  0
 19 20  2  0  0  0  0
 19 34  1  0  0  0  0
 20 21  1  0  0  0  0
 21 22  1  0  0  0  0
 21 35  1  0  0  0  0
 22 36  1  6  0  0  0
M  END
$$$$
