
 OpenBabel09162610133D

 25 27  0  0  0  0  0  0  0  0999 V2000
    0.8632    0.0874   -0.0731 O   0  0  0  0  0  0  0  0  0  0  0  0
    2.0870    0.0227   -0.0746 C   0  0  0  0  0  0  0  0  0  0  0  0
    2.8318    1.2901   -0.0754 C   0  0  0  0  0  0  0  0  0  0  0  0
    2.1303    2.5058   -0.0752 C   0  0  0  0  0  0  0  0  0  0  0  0
    2.8202    3.7177   -0.0760 C   0  0  0  0  0  0  0  0  0  0  0  0
    4.2121    3.7208   -0.0770 C   0  0  0  0  0  0  0  0  0  0  0  0
    4.9106    2.5116   -0.0776 C   0  0  0  0  0  0  0  0  0  0  0  0
    4.2177    1.2901   -0.0766 C   0  0  0  0  0  0  0  0  0  0  0  0
    4.9668    0.0203   -0.0770 C   0  0  0  0  0  0  0  0  0  0  0  0
    6.1884    0.0904   -0.0785 O   0  0  0  0  0  0  0  0  0  0  0  0
    4.2377   -1.2813   -0.0758 C   0  0  0  0  0  0  0  0  0  0  0  0
    4.9073   -2.5255   -0.0754 C   0  0  0  0  0  0  0  0  0  0  0  0
    6.7973   -2.7662   -0.0751 Br  0  0  0  0  0  0  0  0  0  0  0  0
    4.1795   -3.7243   -0.0748 C   0  0  0  0  0  0  0  0  0  0  0  0
    2.7915   -3.7090   -0.0745 C   0  0  0  0  0  0  0  0  0  0  0  0
    2.1202   -2.4908   -0.0750 C   0  0  0  0  0  0  0  0  0  0  0  0
    0.7551   -2.5172   -0.0749 O   0  0  0  0  0  0  0  0  0  0  0  0
    2.8275   -1.2705   -0.0751 C   0  0  0  0  0  0  0  0  0  0  0  0
    1.0410    2.5111   -0.0744 H   0  0  0  0  0  0  0  0  0  0  0  0
    2.2694    4.6559   -0.0757 H   0  0  0  0  0  0  0  0  0  0  0  0
    4.7551    4.6630   -0.0777 H   0  0  0  0  0  0  0  0  0  0  0  0
    5.9998    2.5267   -0.0786 H   0  0  0  0  0  0  0  0  0  0  0  0
    4.6928   -4.6849   -0.0744 H   0  0  0  0  0  0  0  0  0  0  0  0
    2.2515   -4.6519   -0.0743 H   0  0  0  0  0  0  0  0  0  0  0  0
    0.4193   -3.4268   -0.0744 H   0  0  0  0  0  0  0  0  0  0  0  0
  1  2  2  0  0  0  0
  2  3  1  0  0  0  0
  2 18  1  0  0  0  0
  3  4  1  0  0  0  0
  3  8  2  0  0  0  0
  4  5  2  0  0  0  0
  4 19  1  0  0  0  0
  5  6  1  0  0  0  0
  5 20  1  0  0  0  0
  6  7  2  0  0  0  0
  6 21  1  0  0  0  0
  7  8  1  0  0  0  0
  7 22  1  0  0  0  0
  8  9  1  0  0  0  0
  9 10  2  0  0  0  0
  9 11  1  0  0  0  0
 11 12  1  0  0  0  0
 11 18  2  0  0  0  0
 12 13  1  0  0  0  0
 12 14  2  0  0  0  0
 14 15  1  0  0  0  0
 14 23  1  0  0  0  0
 15 16  2  0  0  0  0
 15 24  1  0  0  0  0
 16 17  1  0  0  0  0
 16 18  1  0  0  0  0
 17 25  1  0  0  0  0
M  END
$$$$
