
 OpenBabel09162610133D

 28 28  0  0  0  0  0  0  0  0999 V2000
    3.1415    1.1520   -0.9213 C   0  0  0  0  0  0  0  0  0  0  0  0
    2.6024    0.0079   -0.0511 C   0  0  0  0  0  0  0  0  0  0  0  0
    2.8725    0.2431    1.4406 C   0  0  0  0  0  0  0  0  0  0  0  0
    1.0818   -0.0799   -0.2507 C   0  0  0  0  0  0  0  0  0  0  0  0
    3.1304   -1.2589   -0.5305 O   0  0  0  0  0  0  0  0  0  0  0  0
    4.4626   -1.5058   -0.4307 C   0  0  0  0  0  0  0  0  0  0  0  0
    5.2446   -0.8276    0.2226 O   0  0  0  0  0  0  0  0  0  0  0  0
    4.7904   -2.5408   -1.2563 N   0  0  0  0  0  0  0  0  0  0  0  0
    6.0976   -2.8253   -1.6480 C   0  0  0  0  0  0  0  0  0  0  0  0
    7.1961   -2.6004   -0.8219 C   0  0  0  0  0  0  0  0  0  0  0  0
    8.4801   -2.7394   -1.3446 C   0  0  0  0  0  0  0  0  0  0  0  0
    8.6246   -3.1039   -2.6741 C   0  0  0  0  0  0  0  0  0  0  0  0
   10.3329   -3.2038   -3.4615 Br  0  0  0  0  0  0  0  0  0  0  0  0
    7.4811   -3.3711   -3.4098 C   0  0  0  0  0  0  0  0  0  0  0  0
    6.2212   -3.2660   -2.9170 N   0  0  0  0  0  0  0  0  0  0  0  0
    2.6969    2.1126   -0.6423 H   0  0  0  0  0  0  0  0  0  0  0  0
    2.9256    0.9654   -1.9803 H   0  0  0  0  0  0  0  0  0  0  0  0
    4.2281    1.2488   -0.8425 H   0  0  0  0  0  0  0  0  0  0  0  0
    2.3451    1.1324    1.8021 H   0  0  0  0  0  0  0  0  0  0  0  0
    3.9319    0.4002    1.6585 H   0  0  0  0  0  0  0  0  0  0  0  0
    2.5520   -0.6203    2.0337 H   0  0  0  0  0  0  0  0  0  0  0  0
    0.5811    0.8454    0.0556 H   0  0  0  0  0  0  0  0  0  0  0  0
    0.6595   -0.9086    0.3299 H   0  0  0  0  0  0  0  0  0  0  0  0
    0.8320   -0.2761   -1.3000 H   0  0  0  0  0  0  0  0  0  0  0  0
    4.0782   -2.8171   -1.9160 H   0  0  0  0  0  0  0  0  0  0  0  0
    7.0759   -2.3018    0.2149 H   0  0  0  0  0  0  0  0  0  0  0  0
    9.3418   -2.5338   -0.7167 H   0  0  0  0  0  0  0  0  0  0  0  0
    7.5368   -3.6641   -4.4541 H   0  0  0  0  0  0  0  0  0  0  0  0
  1  2  1  0  0  0  0
  1 16  1  0  0  0  0
  1 17  1  0  0  0  0
  1 18  1  0  0  0  0
  2  3  1  0  0  0  0
  2  4  1  0  0  0  0
  2  5  1  0  0  0  0
  3 19  1  0  0  0  0
  3 20  1  0  0  0  0
  3 21  1  0  0  0  0
  4 22  1  0  0  0  0
  4 23  1  0  0  0  0
  4 24  1  0  0  0  0
  5  6  1  0  0  0  0
  6  7  2  0  0  0  0
  6  8  1  0  0  0  0
  8  9  1  0  0  0  0
  8 25  1  0  0  0  0
  9 10  2  0  0  0  0
  9 15  1  0  0  0  0
 10 11  1  0  0  0  0
 10 26  1  0  0  0  0
 11 12  2  0  0  0  0
 11 27  1  0  0  0  0
 12 13  1  0  0  0  0
 12 14  1  0  0  0  0
 14 15  2  0  0  0  0
 14 28  1  0  0  0  0
M  END
$$$$
