
 OpenBabel09162610133D

 32 34  0  0  0  0  0  0  0  0999 V2000
    0.9813   -0.0825    0.0829 C   0  0  0  0  0  0  0  0  0  0  0  0
    2.4826   -0.0856    0.0464 C   0  0  0  0  0  0  0  0  0  0  0  0
    3.1882    1.1335    0.0114 C   0  0  0  0  0  0  0  0  0  0  0  0
    4.5805    1.1755   -0.0307 C   0  0  0  0  0  0  0  0  0  0  0  0
    5.3306   -0.0001   -0.0527 C   0  0  0  0  0  0  0  0  0  0  0  0
    4.6330   -1.2110    0.0118 C   0  0  0  0  0  0  0  0  0  0  0  0
    3.2456   -1.2774    0.0827 C   0  0  0  0  0  0  0  0  0  0  0  0
    2.9633   -2.6576    0.1879 C   0  0  0  0  0  0  0  0  0  0  0  0
    4.0643   -3.4106    0.3179 N   0  0  0  0  0  0  0  0  0  0  0  0
    5.0783   -2.5252    0.0803 N   0  0  0  0  0  0  0  0  0  0  0  0
    6.4111   -2.9668   -0.0590 C   0  0  0  0  0  0  0  0  0  0  0  0
    7.1697   -2.3469   -0.7741 O   0  0  0  0  0  0  0  0  0  0  0  0
    6.6480   -4.0782    0.7291 N   0  0  0  0  0  0  0  0  0  0  0  0
    7.8743   -4.7769    0.8082 C   0  0  0  0  0  0  0  0  0  0  0  0
    9.0155   -4.4143    0.0904 C   0  0  0  0  0  0  0  0  0  0  0  0
   10.1398   -5.2359    0.1085 C   0  0  0  0  0  0  0  0  0  0  0  0
   11.2078   -4.8974   -0.6257 F   0  0  0  0  0  0  0  0  0  0  0  0
   10.1675   -6.4063    0.8557 C   0  0  0  0  0  0  0  0  0  0  0  0
    9.0652   -6.7396    1.6369 C   0  0  0  0  0  0  0  0  0  0  0  0
    7.9334   -5.9221    1.6165 C   0  0  0  0  0  0  0  0  0  0  0  0
    6.8801   -6.2563    2.3767 F   0  0  0  0  0  0  0  0  0  0  0  0
    0.5783    0.9351    0.0990 H   0  0  0  0  0  0  0  0  0  0  0  0
    0.6246   -0.6019    0.9778 H   0  0  0  0  0  0  0  0  0  0  0  0
    0.5889   -0.5884   -0.8045 H   0  0  0  0  0  0  0  0  0  0  0  0
    2.6428    2.0763    0.0239 H   0  0  0  0  0  0  0  0  0  0  0  0
    5.0941    2.1354   -0.0411 H   0  0  0  0  0  0  0  0  0  0  0  0
    6.4161    0.0337   -0.0888 H   0  0  0  0  0  0  0  0  0  0  0  0
    1.9941   -3.1369    0.2311 H   0  0  0  0  0  0  0  0  0  0  0  0
    5.8631   -4.4348    1.2664 H   0  0  0  0  0  0  0  0  0  0  0  0
    9.0682   -3.5156   -0.5131 H   0  0  0  0  0  0  0  0  0  0  0  0
   11.0462   -7.0420    0.8203 H   0  0  0  0  0  0  0  0  0  0  0  0
    9.0704   -7.6375    2.2455 H   0  0  0  0  0  0  0  0  0  0  0  0
  1  2  1  0  0  0  0
  1 22  1  0  0  0  0
  1 23  1  0  0  0  0
  1 24  1  0  0  0  0
  2  3  2  0  0  0  0
  2  7  1  0  0  0  0
  3  4  1  0  0  0  0
  3 25  1  0  0  0  0
  4  5  2  0  0  0  0
  4 26  1  0  0  0  0
  5  6  1  0  0  0  0
  5 27  1  0  0  0  0
  6  7  2  0  0  0  0
  6 10  1  0  0  0  0
  7  8  1  0  0  0  0
  8  9  2  0  0  0  0
  8 28  1  0  0  0  0
  9 10  1  0  0  0  0
 10 11  1  0  0  0  0
 11 12  2  0  0  0  0
 11 13  1  0  0  0  0
 13 14  1  0  0  0  0
 13 29  1  0  0  0  0
 14 15  2  0  0  0  0
 14 20  1  0  0  0  0
 15 16  1  0  0  0  0
 15 30  1  0  0  0  0
 16 17  1  0  0  0  0
 16 18  2  0  0  0  0
 18 19  1  0  0  0  0
 18 31  1  0  0  0  0
 19 20  2  0  0  0  0
 19 32  1  0  0  0  0
 20 21  1  0  0  0  0
M  END
$$$$
