
 OpenBabel09162610133D

 40 42  0  0  0  0  0  0  0  0999 V2000
   10.4224   -2.1366    0.7118 C   0  0  0  0  0  0  0  0  0  0  0  0
    9.0565   -1.5198    0.5471 C   0  0  0  0  0  0  0  0  0  0  0  0
    8.9652   -0.0277    0.6211 C   0  0  0  0  0  0  0  0  0  0  0  0
    7.7436    0.5095    0.4572 C   0  0  0  0  0  0  0  0  0  0  0  0
    7.4902    1.9852    0.5153 C   0  0  0  0  0  0  0  0  0  0  0  0
    6.6542   -0.3391    0.2247 N   0  0  0  0  0  0  0  0  0  0  0  0
    5.3571    0.0076    0.0241 N   0  0  0  0  0  0  0  0  0  0  0  0
    4.7252   -1.1534   -0.1447 C   0  0  0  0  0  0  0  0  0  0  0  0
    5.5780   -2.2711   -0.0542 C   0  0  0  0  0  0  0  0  0  0  0  0
    5.1909   -3.6624   -0.1840 C   0  0  0  0  0  0  0  0  0  0  0  0
    4.0218   -3.9389   -0.4394 O   0  0  0  0  0  0  0  0  0  0  0  0
    6.2046   -4.5797    0.0446 N   0  0  0  0  0  0  0  0  0  0  0  0
    6.0784   -5.9858    0.0235 C   0  0  0  0  0  0  0  0  0  0  0  0
    4.9905   -6.6367   -0.5537 C   0  0  0  0  0  0  0  0  0  0  0  0
    4.8717   -8.0241   -0.4850 C   0  0  0  0  0  0  0  0  0  0  0  0
    5.8351   -8.8012    0.1695 C   0  0  0  0  0  0  0  0  0  0  0  0
    5.6098  -10.2843    0.2688 C   0  0  0  0  0  0  0  0  0  0  0  0
    6.9606   -8.1636    0.7259 C   0  0  0  0  0  0  0  0  0  0  0  0
    8.0349   -8.9171    1.4644 C   0  0  0  0  0  0  0  0  0  0  0  0
    7.0801   -6.7596    0.6246 C   0  0  0  0  0  0  0  0  0  0  0  0
    6.8264   -1.7305    0.1821 C   0  0  0  0  0  0  0  0  0  0  0  0
    8.0499   -2.3228    0.3517 N   0  0  0  0  0  0  0  0  0  0  0  0
   11.1874   -1.3785    0.8941 H   0  0  0  0  0  0  0  0  0  0  0  0
   10.6776   -2.6869   -0.1989 H   0  0  0  0  0  0  0  0  0  0  0  0
   10.4024   -2.8326    1.5551 H   0  0  0  0  0  0  0  0  0  0  0  0
    9.8587    0.5553    0.8048 H   0  0  0  0  0  0  0  0  0  0  0  0
    8.4100    2.5459    0.7139 H   0  0  0  0  0  0  0  0  0  0  0  0
    6.7814    2.2232    1.3155 H   0  0  0  0  0  0  0  0  0  0  0  0
    7.0809    2.3475   -0.4338 H   0  0  0  0  0  0  0  0  0  0  0  0
    3.6566   -1.1511   -0.3244 H   0  0  0  0  0  0  0  0  0  0  0  0
    7.0906   -4.1899    0.3596 H   0  0  0  0  0  0  0  0  0  0  0  0
    4.2126   -6.0914   -1.0773 H   0  0  0  0  0  0  0  0  0  0  0  0
    3.9988   -8.4896   -0.9378 H   0  0  0  0  0  0  0  0  0  0  0  0
    4.6847  -10.5841   -0.2363 H   0  0  0  0  0  0  0  0  0  0  0  0
    5.5177  -10.5822    1.3182 H   0  0  0  0  0  0  0  0  0  0  0  0
    6.4313  -10.8312   -0.2031 H   0  0  0  0  0  0  0  0  0  0  0  0
    7.8502   -9.9940    1.5033 H   0  0  0  0  0  0  0  0  0  0  0  0
    8.0934   -8.5618    2.4987 H   0  0  0  0  0  0  0  0  0  0  0  0
    9.0040   -8.7687    0.9778 H   0  0  0  0  0  0  0  0  0  0  0  0
    7.9473   -6.2731    1.0664 H   0  0  0  0  0  0  0  0  0  0  0  0
  1  2  1  0  0  0  0
  1 23  1  0  0  0  0
  1 24  1  0  0  0  0
  1 25  1  0  0  0  0
  2  3  1  0  0  0  0
  2 22  2  0  0  0  0
  3  4  2  0  0  0  0
  3 26  1  0  0  0  0
  4  5  1  0  0  0  0
  4  6  1  0  0  0  0
  5 27  1  0  0  0  0
  5 28  1  0  0  0  0
  5 29  1  0  0  0  0
  6  7  1  0  0  0  0
  6 21  1  0  0  0  0
  7  8  2  0  0  0  0
  8  9  1  0  0  0  0
  8 30  1  0  0  0  0
  9 10  1  0  0  0  0
  9 21  2  0  0  0  0
 10 11  2  0  0  0  0
 10 12  1  0  0  0  0
 12 13  1  0  0  0  0
 12 31  1  0  0  0  0
 13 14  2  0  0  0  0
 13 20  1  0  0  0  0
 14 15  1  0  0  0  0
 14 32  1  0  0  0  0
 15 16  2  0  0  0  0
 15 33  1  0  0  0  0
 16 17  1  0  0  0  0
 16 18  1  0  0  0  0
 17 34  1  0  0  0  0
 17 35  1  0  0  0  0
 17 36  1  0  0  0  0
 18 19  1  0  0  0  0
 18 20  2  0  0  0  0
 19 37  1  0  0  0  0
 19 38  1  0  0  0  0
 19 39  1  0  0  0  0
 20 40  1  0  0  0  0
 21 22  1  0  0  0  0
M  END
$$$$
