
 OpenBabel09162610133D

 36 40  0  0  0  0  0  0  0  0999 V2000
    1.2541   -0.2992   -0.2832 C   0  0  0  0  0  0  0  0  0  0  0  0
    2.7423   -0.3430   -0.4666 C   0  0  0  0  0  0  0  0  0  0  0  0
    3.4617   -1.5119   -0.1839 C   0  0  0  0  0  0  0  0  0  0  0  0
    4.8555   -1.5463   -0.3240 C   0  0  0  0  0  0  0  0  0  0  0  0
    5.5587   -0.4186   -0.7511 C   0  0  0  0  0  0  0  0  0  0  0  0
    6.9700   -0.4737   -0.8084 N   0  0  0  0  0  0  0  0  0  0  0  0
    7.5755    0.6108   -1.1632 C   0  0  0  0  0  0  0  0  0  0  0  0
    6.9254    1.7835   -1.5154 N   0  0  0  0  0  0  0  0  0  0  0  0
    5.5640    1.9310   -1.5177 C   0  0  0  0  0  0  0  0  0  0  0  0
    4.9891    2.9636   -1.8463 O   0  0  0  0  0  0  0  0  0  0  0  0
    4.8248    0.7335   -1.0710 C   0  0  0  0  0  0  0  0  0  0  0  0
    3.4317    0.7762   -0.9416 C   0  0  0  0  0  0  0  0  0  0  0  0
    7.8459    2.8416   -1.8648 C   0  0  0  0  0  0  0  0  0  0  0  0
    9.1684    2.1923   -1.6689 C   0  0  0  0  0  0  0  0  0  0  0  0
   10.4410    2.6973   -1.8082 C   0  0  0  0  0  0  0  0  0  0  0  0
   11.5173    1.8427   -1.5284 C   0  0  0  0  0  0  0  0  0  0  0  0
   12.8399    2.2987   -1.6452 C   0  0  0  0  0  0  0  0  0  0  0  0
   13.9045    1.4485   -1.3626 C   0  0  0  0  0  0  0  0  0  0  0  0
   13.6543    0.1404   -0.9624 C   0  0  0  0  0  0  0  0  0  0  0  0
   12.3362   -0.3171   -0.8437 C   0  0  0  0  0  0  0  0  0  0  0  0
   11.2489    0.5025   -1.1186 C   0  0  0  0  0  0  0  0  0  0  0  0
   10.0007    0.0115   -0.9852 N   0  0  0  0  0  0  0  0  0  0  0  0
    9.0139    0.8762   -1.2672 C   0  0  0  0  0  0  0  0  0  0  0  0
    0.9710   -0.7840    0.6571 H   0  0  0  0  0  0  0  0  0  0  0  0
    0.7531   -0.8032   -1.1146 H   0  0  0  0  0  0  0  0  0  0  0  0
    0.8933    0.7341   -0.2337 H   0  0  0  0  0  0  0  0  0  0  0  0
    2.9431   -2.4027    0.1659 H   0  0  0  0  0  0  0  0  0  0  0  0
    5.4018   -2.4545   -0.0814 H   0  0  0  0  0  0  0  0  0  0  0  0
    2.8956    1.6905   -1.1891 H   0  0  0  0  0  0  0  0  0  0  0  0
    7.6934    3.6904   -1.1914 H   0  0  0  0  0  0  0  0  0  0  0  0
    7.6767    3.1424   -2.9032 H   0  0  0  0  0  0  0  0  0  0  0  0
   10.6004    3.7262   -2.1162 H   0  0  0  0  0  0  0  0  0  0  0  0
   13.0491    3.3206   -1.9560 H   0  0  0  0  0  0  0  0  0  0  0  0
   14.9285    1.8059   -1.4539 H   0  0  0  0  0  0  0  0  0  0  0  0
   14.4810   -0.5289   -0.7378 H   0  0  0  0  0  0  0  0  0  0  0  0
   12.1547   -1.3409   -0.5277 H   0  0  0  0  0  0  0  0  0  0  0  0
  1  2  1  0  0  0  0
  1 24  1  0  0  0  0
  1 25  1  0  0  0  0
  1 26  1  0  0  0  0
  2  3  2  0  0  0  0
  2 12  1  0  0  0  0
  3  4  1  0  0  0  0
  3 27  1  0  0  0  0
  4  5  2  0  0  0  0
  4 28  1  0  0  0  0
  5  6  1  0  0  0  0
  5 11  1  0  0  0  0
  6  7  2  0  0  0  0
  7  8  1  0  0  0  0
  7 23  1  0  0  0  0
  8  9  1  0  0  0  0
  8 13  1  0  0  0  0
  9 10  2  0  0  0  0
  9 11  1  0  0  0  0
 11 12  2  0  0  0  0
 12 29  1  0  0  0  0
 13 14  1  0  0  0  0
 13 30  1  0  0  0  0
 13 31  1  0  0  0  0
 14 15  1  0  0  0  0
 14 23  2  0  0  0  0
 15 16  2  0  0  0  0
 15 32  1  0  0  0  0
 16 17  1  0  0  0  0
 16 21  1  0  0  0  0
 17 18  2  0  0  0  0
 17 33  1  0  0  0  0
 18 19  1  0  0  0  0
 18 34  1  0  0  0  0
 19 20  2  0  0  0  0
 19 35  1  0  0  0  0
 20 21  1  0  0  0  0
 20 36  1  0  0  0  0
 21 22  2  0  0  0  0
 22 23  1  0  0  0  0
M  END
$$$$
