
 OpenBabel09162610133D

 38 39  0  0  0  0  0  0  0  0999 V2000
    1.1510    0.1261    0.3329 C   0  0  0  0  0  0  0  0  0  0  0  0
    2.5456   -0.0098    0.0887 O   0  0  0  0  0  0  0  0  0  0  0  0
    3.0490    0.6655   -0.9882 C   0  0  0  0  0  0  0  0  0  0  0  0
    2.3227    1.4733   -1.8614 C   0  0  0  0  0  0  0  0  0  0  0  0
    2.9596    2.0967   -2.9415 C   0  0  0  0  0  0  0  0  0  0  0  0
    4.3322    1.9324   -3.1598 C   0  0  0  0  0  0  0  0  0  0  0  0
    5.0120    2.4873   -4.3409 C   0  0  0  0  0  0  0  0  0  0  0  0
    4.6514    3.6096   -4.9867 C   0  0  0  0  0  0  0  0  0  0  0  0
    5.2832    4.0716   -6.2337 C   0  0  0  0  0  0  0  0  0  0  0  0
    5.7767    3.1730   -7.1832 C   0  0  0  0  0  0  0  0  0  0  0  0
    6.3320    3.6276   -8.3830 C   0  0  0  0  0  0  0  0  0  0  0  0
    6.3912    4.9947   -8.6743 C   0  0  0  0  0  0  0  0  0  0  0  0
    6.9692    5.4961   -9.8101 O   0  0  0  0  0  0  0  0  0  0  0  0
    7.5773    4.5767  -10.7080 C   0  0  0  0  0  0  0  0  0  0  0  0
    5.8484    5.9038   -7.7493 C   0  0  0  0  0  0  0  0  0  0  0  0
    5.8068    7.2716   -7.8684 O   0  0  0  0  0  0  0  0  0  0  0  0
    5.6357    7.7865   -9.1841 C   0  0  0  0  0  0  0  0  0  0  0  0
    5.3175    5.4373   -6.5344 C   0  0  0  0  0  0  0  0  0  0  0  0
    5.0541    1.1171   -2.2813 C   0  0  0  0  0  0  0  0  0  0  0  0
    4.4169    0.4935   -1.2034 C   0  0  0  0  0  0  0  0  0  0  0  0
    0.9075   -0.4626    1.2224 H   0  0  0  0  0  0  0  0  0  0  0  0
    0.5634   -0.2727   -0.5013 H   0  0  0  0  0  0  0  0  0  0  0  0
    0.8866    1.1683    0.5405 H   0  0  0  0  0  0  0  0  0  0  0  0
    1.2560    1.6308   -1.7430 H   0  0  0  0  0  0  0  0  0  0  0  0
    2.3559    2.6912   -3.6228 H   0  0  0  0  0  0  0  0  0  0  0  0
    5.8554    1.8984   -4.6942 H   0  0  0  0  0  0  0  0  0  0  0  0
    3.8438    4.2341   -4.6132 H   0  0  0  0  0  0  0  0  0  0  0  0
    5.7286    2.0999   -7.0112 H   0  0  0  0  0  0  0  0  0  0  0  0
    6.7111    2.8769   -9.0669 H   0  0  0  0  0  0  0  0  0  0  0  0
    8.0388    5.1533  -11.5154 H   0  0  0  0  0  0  0  0  0  0  0  0
    6.8282    3.9161  -11.1565 H   0  0  0  0  0  0  0  0  0  0  0  0
    8.3704    4.0031  -10.2168 H   0  0  0  0  0  0  0  0  0  0  0  0
    5.2330    8.8004   -9.0928 H   0  0  0  0  0  0  0  0  0  0  0  0
    4.9183    7.2008   -9.7696 H   0  0  0  0  0  0  0  0  0  0  0  0
    6.5991    7.8700   -9.6953 H   0  0  0  0  0  0  0  0  0  0  0  0
    4.9221    6.1623   -5.8264 H   0  0  0  0  0  0  0  0  0  0  0  0
    6.1190    0.9509   -2.4275 H   0  0  0  0  0  0  0  0  0  0  0  0
    4.9917   -0.1410   -0.5331 H   0  0  0  0  0  0  0  0  0  0  0  0
  1  2  1  0  0  0  0
  1 21  1  0  0  0  0
  1 22  1  0  0  0  0
  1 23  1  0  0  0  0
  2  3  1  0  0  0  0
  3  4  2  0  0  0  0
  3 20  1  0  0  0  0
  4  5  1  0  0  0  0
  4 24  1  0  0  0  0
  5  6  2  0  0  0  0
  5 25  1  0  0  0  0
  6  7  1  0  0  0  0
  6 19  1  0  0  0  0
  7  8  2  0  0  0  0
  7 26  1  0  0  0  0
  8  9  1  0  0  0  0
  8 27  1  0  0  0  0
  9 10  2  0  0  0  0
  9 18  1  0  0  0  0
 10 11  1  0  0  0  0
 10 28  1  0  0  0  0
 11 12  2  0  0  0  0
 11 29  1  0  0  0  0
 12 13  1  0  0  0  0
 12 15  1  0  0  0  0
 13 14  1  0  0  0  0
 14 30  1  0  0  0  0
 14 31  1  0  0  0  0
 14 32  1  0  0  0  0
 15 16  1  0  0  0  0
 15 18  2  0  0  0  0
 16 17  1  0  0  0  0
 17 33  1  0  0  0  0
 17 34  1  0  0  0  0
 17 35  1  0  0  0  0
 18 36  1  0  0  0  0
 19 20  2  0  0  0  0
 19 37  1  0  0  0  0
 20 38  1  0  0  0  0
M  END
$$$$
