
 OpenBabel09162610133D

 33 36  0  0  0  0  0  0  0  0999 V2000
    1.0176    0.1329   -0.0341 C   0  0  0  0  0  0  0  0  0  0  0  0
    2.4828   -0.0430   -0.0397 C   0  0  0  0  0  0  0  0  0  0  0  0
    3.3056   -1.1494   -0.0346 C   0  0  0  0  0  0  0  0  0  0  0  0
    4.6396   -0.6620   -0.0441 C   0  0  0  0  0  0  0  0  0  0  0  0
    4.5357    0.7221   -0.0562 C   0  0  0  0  0  0  0  0  0  0  0  0
    5.6275    1.5849   -0.0701 C   0  0  0  0  0  0  0  0  0  0  0  0
    6.8977    0.9904   -0.0652 C   0  0  0  0  0  0  0  0  0  0  0  0
    7.0628   -0.4052   -0.0483 C   0  0  0  0  0  0  0  0  0  0  0  0
    8.3971   -1.0292   -0.0283 C   0  0  0  0  0  0  0  0  0  0  0  0
    9.6835   -0.3080    0.0186 C   0  0  0  0  0  0  0  0  0  0  0  0
   10.3516    0.0315   -1.1643 C   0  0  0  0  0  0  0  0  0  0  0  0
   11.5629    0.7236   -1.1110 C   0  0  0  0  0  0  0  0  0  0  0  0
   12.1120    1.0774    0.1212 C   0  0  0  0  0  0  0  0  0  0  0  0
   11.4528    0.7400    1.3026 C   0  0  0  0  0  0  0  0  0  0  0  0
   10.2415    0.0488    1.2531 C   0  0  0  0  0  0  0  0  0  0  0  0
    8.4721   -2.3695   -0.0303 C   0  0  0  0  0  0  0  0  0  0  0  0
    7.2946   -3.2458   -0.0473 C   0  0  0  0  0  0  0  0  0  0  0  0
    7.4217   -4.4649   -0.0591 O   0  0  0  0  0  0  0  0  0  0  0  0
    6.0553   -2.6333   -0.0409 O   0  0  0  0  0  0  0  0  0  0  0  0
    5.9262   -1.2280   -0.0439 C   0  0  0  0  0  0  0  0  0  0  0  0
    3.2277    1.0991   -0.0533 O   0  0  0  0  0  0  0  0  0  0  0  0
    0.5068   -0.8349   -0.0315 H   0  0  0  0  0  0  0  0  0  0  0  0
    0.6950    0.6862   -0.9213 H   0  0  0  0  0  0  0  0  0  0  0  0
    0.7016    0.6876    0.8546 H   0  0  0  0  0  0  0  0  0  0  0  0
    2.9888   -2.1831   -0.0239 H   0  0  0  0  0  0  0  0  0  0  0  0
    5.4962    2.6603   -0.0818 H   0  0  0  0  0  0  0  0  0  0  0  0
    7.7653    1.6488   -0.0748 H   0  0  0  0  0  0  0  0  0  0  0  0
    9.9319   -0.2355   -2.1316 H   0  0  0  0  0  0  0  0  0  0  0  0
   12.0784    0.9882   -2.0309 H   0  0  0  0  0  0  0  0  0  0  0  0
   13.0551    1.6168    0.1611 H   0  0  0  0  0  0  0  0  0  0  0  0
   11.8816    1.0160    2.2627 H   0  0  0  0  0  0  0  0  0  0  0  0
    9.7346   -0.2057    2.1814 H   0  0  0  0  0  0  0  0  0  0  0  0
    9.4207   -2.8958   -0.0116 H   0  0  0  0  0  0  0  0  0  0  0  0
  1  2  1  0  0  0  0
  1 22  1  0  0  0  0
  1 23  1  0  0  0  0
  1 24  1  0  0  0  0
  2  3  2  0  0  0  0
  2 21  1  0  0  0  0
  3  4  1  0  0  0  0
  3 25  1  0  0  0  0
  4  5  2  0  0  0  0
  4 20  1  0  0  0  0
  5  6  1  0  0  0  0
  5 21  1  0  0  0  0
  6  7  2  0  0  0  0
  6 26  1  0  0  0  0
  7  8  1  0  0  0  0
  7 27  1  0  0  0  0
  8  9  1  0  0  0  0
  8 20  2  0  0  0  0
  9 10  1  0  0  0  0
  9 16  2  0  0  0  0
 10 11  2  0  0  0  0
 10 15  1  0  0  0  0
 11 12  1  0  0  0  0
 11 28  1  0  0  0  0
 12 13  2  0  0  0  0
 12 29  1  0  0  0  0
 13 14  1  0  0  0  0
 13 30  1  0  0  0  0
 14 15  2  0  0  0  0
 14 31  1  0  0  0  0
 15 32  1  0  0  0  0
 16 17  1  0  0  0  0
 16 33  1  0  0  0  0
 17 18  2  0  0  0  0
 17 19  1  0  0  0  0
 19 20  1  0  0  0  0
M  END
$$$$
