
 OpenBabel09162610133D

 51 51  0  0  1  0  0  0  0  0999 V2000
    1.1029   -1.4780    1.7359 C   0  0  0  0  0  0  0  0  0  0  0  0
    2.5896   -1.2896    1.4868 C   0  0  0  0  0  0  0  0  0  0  0  0
    3.0910   -2.2234    0.3870 C   0  0  0  0  0  0  0  0  0  0  0  0
    4.5816   -2.0231    0.1454 C   0  0  0  0  0  0  0  0  0  0  0  0
    5.1096   -2.9384   -0.9488 C   0  0  0  0  0  0  0  0  0  0  0  0
    6.4988   -2.6571   -1.0907 O   0  0  0  0  0  0  0  0  0  0  0  0
    7.0247   -3.4627   -2.1070 N   0  0  0  0  0  0  0  0  0  0  0  0
    8.3009   -3.2803   -2.2471 C   0  0  0  0  0  0  0  0  0  0  0  0
    8.9881   -4.1095   -3.3123 C   0  0  0  0  0  0  0  0  0  0  0  0
    9.1315   -2.3350   -1.4259 C   0  0  0  0  0  0  0  0  0  0  0  0
   10.4323   -2.1241   -1.6686 C   0  0  0  0  0  0  0  0  0  0  0  0
   11.3503   -1.2740   -0.8121 C   0  0  2  0  0  0  0  0  0  0  0  0
   11.9631   -0.2025   -1.7030 C   0  0  0  0  0  0  0  0  0  0  0  0
   11.1089    0.9900   -2.0361 C   0  0  0  0  0  0  0  0  0  0  0  0
   13.2117   -0.3149   -2.1945 C   0  0  0  0  0  0  0  0  0  0  0  0
   14.1273   -1.4741   -1.9239 C   0  0  0  0  0  0  0  0  0  0  0  0
   13.4793   -2.6288   -1.1507 C   0  0  0  0  0  0  0  0  0  0  0  0
   12.4509   -2.1460   -0.0995 C   0  0  0  0  0  0  0  0  0  0  0  0
   13.1728   -1.3208    0.9948 C   0  0  0  0  0  0  0  0  0  0  0  0
   11.8302   -3.3699    0.6116 C   0  0  0  0  0  0  0  0  0  0  0  0
    0.7628   -0.8014    2.5253 H   0  0  0  0  0  0  0  0  0  0  0  0
    0.8865   -2.5043    2.0487 H   0  0  0  0  0  0  0  0  0  0  0  0
    0.5257   -1.2646    0.8308 H   0  0  0  0  0  0  0  0  0  0  0  0
    3.1390   -1.4796    2.4164 H   0  0  0  0  0  0  0  0  0  0  0  0
    2.7794   -0.2470    1.2058 H   0  0  0  0  0  0  0  0  0  0  0  0
    2.5383   -2.0327   -0.5409 H   0  0  0  0  0  0  0  0  0  0  0  0
    2.9000   -3.2655    0.6703 H   0  0  0  0  0  0  0  0  0  0  0  0
    5.1443   -2.2047    1.0701 H   0  0  0  0  0  0  0  0  0  0  0  0
    4.7860   -0.9801   -0.1278 H   0  0  0  0  0  0  0  0  0  0  0  0
    4.5967   -2.7454   -1.8979 H   0  0  0  0  0  0  0  0  0  0  0  0
    4.9754   -3.9904   -0.6725 H   0  0  0  0  0  0  0  0  0  0  0  0
    8.2946   -4.8405   -3.7364 H   0  0  0  0  0  0  0  0  0  0  0  0
    9.8310   -4.6548   -2.8762 H   0  0  0  0  0  0  0  0  0  0  0  0
    9.3431   -3.4573   -4.1150 H   0  0  0  0  0  0  0  0  0  0  0  0
    8.6402   -1.8550   -0.5875 H   0  0  0  0  0  0  0  0  0  0  0  0
   10.9136   -2.5983   -2.5189 H   0  0  0  0  0  0  0  0  0  0  0  0
   10.7654   -0.7796   -0.0238 H   0  0  0  0  0  0  0  0  0  0  0  0
   10.2132    1.0333   -1.4082 H   0  0  0  0  0  0  0  0  0  0  0  0
   10.7828    0.9446   -3.0803 H   0  0  0  0  0  0  0  0  0  0  0  0
   11.6612    1.9222   -1.8777 H   0  0  0  0  0  0  0  0  0  0  0  0
   13.6115    0.4719   -2.8320 H   0  0  0  0  0  0  0  0  0  0  0  0
   14.9909   -1.1009   -1.3610 H   0  0  0  0  0  0  0  0  0  0  0  0
   14.5154   -1.8569   -2.8750 H   0  0  0  0  0  0  0  0  0  0  0  0
   14.2640   -3.2327   -0.6781 H   0  0  0  0  0  0  0  0  0  0  0  0
   12.9889   -3.2995   -1.8689 H   0  0  0  0  0  0  0  0  0  0  0  0
   13.6465   -0.4160    0.6039 H   0  0  0  0  0  0  0  0  0  0  0  0
   13.9594   -1.9175    1.4728 H   0  0  0  0  0  0  0  0  0  0  0  0
   12.4723   -1.0103    1.7773 H   0  0  0  0  0  0  0  0  0  0  0  0
   11.3780   -4.0739   -0.0943 H   0  0  0  0  0  0  0  0  0  0  0  0
   11.0556   -3.0588    1.3220 H   0  0  0  0  0  0  0  0  0  0  0  0
   12.5899   -3.9264    1.1722 H   0  0  0  0  0  0  0  0  0  0  0  0
  1  2  1  0  0  0  0
  1 21  1  0  0  0  0
  1 22  1  0  0  0  0
  1 23  1  0  0  0  0
  2  3  1  0  0  0  0
  2 24  1  0  0  0  0
  2 25  1  0  0  0  0
  3  4  1  0  0  0  0
  3 26  1  0  0  0  0
  3 27  1  0  0  0  0
  4  5  1  0  0  0  0
  4 28  1  0  0  0  0
  4 29  1  0  0  0  0
  5  6  1  0  0  0  0
  5 30  1  0  0  0  0
  5 31  1  0  0  0  0
  6  7  1  0  0  0  0
  7  8  2  0  0  0  0
  8  9  1  0  0  0  0
  8 10  1  0  0  0  0
  9 32  1  0  0  0  0
  9 33  1  0  0  0  0
  9 34  1  0  0  0  0
 10 11  2  0  0  0  0
 10 35  1  0  0  0  0
 11 12  1  0  0  0  0
 11 36  1  0  0  0  0
 12 13  1  0  0  0  0
 12 18  1  0  0  0  0
 12 37  1  1  0  0  0
 13 14  1  0  0  0  0
 13 15  2  0  0  0  0
 14 38  1  0  0  0  0
 14 39  1  0  0  0  0
 14 40  1  0  0  0  0
 15 16  1  0  0  0  0
 15 41  1  0  0  0  0
 16 17  1  0  0  0  0
 16 42  1  0  0  0  0
 16 43  1  0  0  0  0
 17 18  1  0  0  0  0
 17 44  1  0  0  0  0
 17 45  1  0  0  0  0
 18 19  1  0  0  0  0
 18 20  1  0  0  0  0
 19 46  1  0  0  0  0
 19 47  1  0  0  0  0
 19 48  1  0  0  0  0
 20 49  1  0  0  0  0
 20 50  1  0  0  0  0
 20 51  1  0  0  0  0
M  END
$$$$
