
 OpenBabel09162610133D

 35 36  0  0  0  0  0  0  0  0999 V2000
    1.4058   -0.5262    0.5653 C   0  0  0  0  0  0  0  0  0  0  0  0
    2.4832   -0.0065   -0.0546 C   0  0  0  0  0  0  0  0  0  0  0  0
    3.1980   -0.9060   -0.9906 C   0  0  0  0  0  0  0  0  0  0  0  0
    2.8143   -0.9994   -2.3335 C   0  0  0  0  0  0  0  0  0  0  0  0
    3.5028   -1.8367   -3.2300 C   0  0  0  0  0  0  0  0  0  0  0  0
    3.1598   -1.9280   -4.5547 O   0  0  0  0  0  0  0  0  0  0  0  0
    2.0766   -1.1477   -5.0418 C   0  0  0  0  0  0  0  0  0  0  0  0
    4.5925   -2.6118   -2.7669 C   0  0  0  0  0  0  0  0  0  0  0  0
    5.3111   -3.5220   -3.4998 O   0  0  0  0  0  0  0  0  0  0  0  0
    4.9895   -3.7843   -4.8549 C   0  0  0  0  0  0  0  0  0  0  0  0
    4.9897   -2.4892   -1.4155 C   0  0  0  0  0  0  0  0  0  0  0  0
    6.0127   -3.1619   -0.7885 O   0  0  0  0  0  0  0  0  0  0  0  0
    7.1705   -3.4432   -1.5667 C   0  0  0  0  0  0  0  0  0  0  0  0
    4.2818   -1.6560   -0.5404 C   0  0  0  0  0  0  0  0  0  0  0  0
    2.8817    1.3428    0.2458 C   0  0  0  0  0  0  0  0  0  0  0  0
    2.7513    2.0689    1.4232 C   0  0  0  0  0  0  0  0  0  0  0  0
    3.2909    3.3861    1.3415 C   0  0  0  0  0  0  0  0  0  0  0  0
    3.8196    3.6461    0.1006 C   0  0  0  0  0  0  0  0  0  0  0  0
    3.6680    2.3131   -0.9519 S   0  0  0  0  0  0  0  0  0  0  0  0
    1.0815   -1.5477    0.3836 H   0  0  0  0  0  0  0  0  0  0  0  0
    0.8068    0.0434    1.2668 H   0  0  0  0  0  0  0  0  0  0  0  0
    1.9726   -0.3947   -2.6567 H   0  0  0  0  0  0  0  0  0  0  0  0
    1.9886   -1.3384   -6.1151 H   0  0  0  0  0  0  0  0  0  0  0  0
    2.2661   -0.0776   -4.9107 H   0  0  0  0  0  0  0  0  0  0  0  0
    1.1345   -1.4489   -4.5720 H   0  0  0  0  0  0  0  0  0  0  0  0
    5.6492   -4.5879   -5.1977 H   0  0  0  0  0  0  0  0  0  0  0  0
    5.1936   -2.9123   -5.4837 H   0  0  0  0  0  0  0  0  0  0  0  0
    3.9638   -4.1489   -4.9649 H   0  0  0  0  0  0  0  0  0  0  0  0
    8.0083   -3.5751   -0.8747 H   0  0  0  0  0  0  0  0  0  0  0  0
    7.4299   -2.6216   -2.2430 H   0  0  0  0  0  0  0  0  0  0  0  0
    7.0510   -4.3876   -2.1050 H   0  0  0  0  0  0  0  0  0  0  0  0
    4.5956   -1.5909    0.4993 H   0  0  0  0  0  0  0  0  0  0  0  0
    2.3019    1.6650    2.3213 H   0  0  0  0  0  0  0  0  0  0  0  0
    3.2949    4.1012    2.1549 H   0  0  0  0  0  0  0  0  0  0  0  0
    4.2943    4.5558   -0.2407 H   0  0  0  0  0  0  0  0  0  0  0  0
  1  2  2  0  0  0  0
  1 20  1  0  0  0  0
  1 21  1  0  0  0  0
  2  3  1  0  0  0  0
  2 15  1  0  0  0  0
  3  4  2  0  0  0  0
  3 14  1  0  0  0  0
  4  5  1  0  0  0  0
  4 22  1  0  0  0  0
  5  6  1  0  0  0  0
  5  8  2  0  0  0  0
  6  7  1  0  0  0  0
  7 23  1  0  0  0  0
  7 24  1  0  0  0  0
  7 25  1  0  0  0  0
  8  9  1  0  0  0  0
  8 11  1  0  0  0  0
  9 10  1  0  0  0  0
 10 26  1  0  0  0  0
 10 27  1  0  0  0  0
 10 28  1  0  0  0  0
 11 12  1  0  0  0  0
 11 14  2  0  0  0  0
 12 13  1  0  0  0  0
 13 29  1  0  0  0  0
 13 30  1  0  0  0  0
 13 31  1  0  0  0  0
 14 32  1  0  0  0  0
 15 16  2  0  0  0  0
 15 19  1  0  0  0  0
 16 17  1  0  0  0  0
 16 33  1  0  0  0  0
 17 18  2  0  0  0  0
 17 34  1  0  0  0  0
 18 19  1  0  0  0  0
 18 35  1  0  0  0  0
M  END
$$$$
