
 OpenBabel09162610133D

 23 24  0  0  0  0  0  0  0  0999 V2000
   -2.3069   -2.4837   -2.2515 N   0  0  0  0  0  0  0  0  0  0  0  0
   -1.7934   -1.6924   -1.5762 C   0  0  0  0  0  0  0  0  0  0  0  0
   -1.1934   -0.6843   -0.7600 C   0  0  0  0  0  0  0  0  0  0  0  0
   -1.7287    0.6070   -0.7256 C   0  0  0  0  0  0  0  0  0  0  0  0
   -1.1320    1.5796    0.0744 C   0  0  0  0  0  0  0  0  0  0  0  0
   -0.0296    1.2207    0.8302 C   0  0  0  0  0  0  0  0  0  0  0  0
    0.5104   -0.0146    0.8180 N   0  0  0  0  0  0  0  0  0  0  0  0
   -0.0621   -0.9398    0.0029 C   0  0  0  0  0  0  0  0  0  0  0  0
    0.5036   -2.2077   -0.0721 O   0  0  0  0  0  0  0  0  0  0  0  0
    1.8501   -2.3266    0.1977 C   0  0  0  0  0  0  0  0  0  0  0  0
    2.7921   -1.4438   -0.3487 C   0  0  0  0  0  0  0  0  0  0  0  0
    4.1486   -1.5923   -0.0602 C   0  0  0  0  0  0  0  0  0  0  0  0
    4.5783   -2.6458    0.7436 C   0  0  0  0  0  0  0  0  0  0  0  0
    3.6528   -3.5599    1.2498 C   0  0  0  0  0  0  0  0  0  0  0  0
    2.2910   -3.4048    0.9724 C   0  0  0  0  0  0  0  0  0  0  0  0
    1.0792   -4.6863    1.6716 Br  0  0  0  0  0  0  0  0  0  0  0  0
   -2.6024    0.8622   -1.3214 H   0  0  0  0  0  0  0  0  0  0  0  0
   -1.5194    2.5922    0.1102 H   0  0  0  0  0  0  0  0  0  0  0  0
    0.4681    1.9373    1.4780 H   0  0  0  0  0  0  0  0  0  0  0  0
    2.4761   -0.6210   -0.9838 H   0  0  0  0  0  0  0  0  0  0  0  0
    4.8675   -0.8814   -0.4608 H   0  0  0  0  0  0  0  0  0  0  0  0
    5.6353   -2.7583    0.9715 H   0  0  0  0  0  0  0  0  0  0  0  0
    4.0024   -4.3881    1.8611 H   0  0  0  0  0  0  0  0  0  0  0  0
  1  2  3  0  0  0  0
  2  3  1  0  0  0  0
  3  4  2  0  0  0  0
  3  8  1  0  0  0  0
  4  5  1  0  0  0  0
  4 17  1  0  0  0  0
  5  6  2  0  0  0  0
  5 18  1  0  0  0  0
  6  7  1  0  0  0  0
  6 19  1  0  0  0  0
  7  8  2  0  0  0  0
  8  9  1  0  0  0  0
  9 10  1  0  0  0  0
 10 11  2  0  0  0  0
 10 15  1  0  0  0  0
 11 12  1  0  0  0  0
 11 20  1  0  0  0  0
 12 13  2  0  0  0  0
 12 21  1  0  0  0  0
 13 14  1  0  0  0  0
 13 22  1  0  0  0  0
 14 15  2  0  0  0  0
 14 23  1  0  0  0  0
 15 16  1  0  0  0  0
M  END
$$$$
