
 OpenBabel09162610133D

 26 27  0  0  0  0  0  0  0  0999 V2000
    0.9649   -0.1233   -0.2810 O   0  5  0  0  0  0  0  0  0  0  0  0
    2.2328   -0.0954   -0.1277 N   0  3  0  0  0  0  0  0  0  0  0  0
    2.8305   -0.6289    0.9163 C   0  0  0  0  0  0  0  0  0  0  0  0
    2.1437   -1.3801    1.9842 C   0  0  0  0  0  0  0  0  0  0  0  0
    0.9617   -2.0988    1.7790 C   0  0  0  0  0  0  0  0  0  0  0  0
    0.3645   -2.7893    2.8356 C   0  0  0  0  0  0  0  0  0  0  0  0
    0.9543   -2.7804    4.0976 C   0  0  0  0  0  0  0  0  0  0  0  0
    2.1484   -2.0886    4.2936 C   0  0  0  0  0  0  0  0  0  0  0  0
    2.9551   -2.0886    6.0042 Br  0  0  0  0  0  0  0  0  0  0  0  0
    2.7521   -1.3944    3.2435 C   0  0  0  0  0  0  0  0  0  0  0  0
    3.0411    0.5997   -1.1258 C   0  0  0  0  0  0  0  0  0  0  0  0
    2.5018    1.7419   -1.7340 C   0  0  0  0  0  0  0  0  0  0  0  0
    3.2081    2.3962   -2.7426 C   0  0  0  0  0  0  0  0  0  0  0  0
    4.4512    1.9125   -3.1472 C   0  0  0  0  0  0  0  0  0  0  0  0
    4.9888    0.7721   -2.5482 C   0  0  0  0  0  0  0  0  0  0  0  0
    4.2840    0.1064   -1.5421 C   0  0  0  0  0  0  0  0  0  0  0  0
    3.9167   -0.4784    1.0194 H   0  0  0  0  0  0  0  0  0  0  0  0
    0.4843   -2.1394    0.8031 H   0  0  0  0  0  0  0  0  0  0  0  0
   -0.5638   -3.3309    2.6691 H   0  0  0  0  0  0  0  0  0  0  0  0
    0.4782   -3.3152    4.9154 H   0  0  0  0  0  0  0  0  0  0  0  0
    3.6808   -0.8568    3.4140 H   0  0  0  0  0  0  0  0  0  0  0  0
    1.5222    2.1122   -1.4375 H   0  0  0  0  0  0  0  0  0  0  0  0
    2.7805    3.2731   -3.2220 H   0  0  0  0  0  0  0  0  0  0  0  0
    4.9952    2.4178   -3.9420 H   0  0  0  0  0  0  0  0  0  0  0  0
    5.9528    0.3933   -2.8795 H   0  0  0  0  0  0  0  0  0  0  0  0
    4.7077   -0.7998   -1.1178 H   0  0  0  0  0  0  0  0  0  0  0  0
  1  2  1  0  0  0  0
  2  3  2  0  0  0  0
  2 11  1  0  0  0  0
  3  4  1  0  0  0  0
  3 17  1  0  0  0  0
  4  5  2  0  0  0  0
  4 10  1  0  0  0  0
  5  6  1  0  0  0  0
  5 18  1  0  0  0  0
  6  7  2  0  0  0  0
  6 19  1  0  0  0  0
  7  8  1  0  0  0  0
  7 20  1  0  0  0  0
  8  9  1  0  0  0  0
  8 10  2  0  0  0  0
 10 21  1  0  0  0  0
 11 12  2  0  0  0  0
 11 16  1  0  0  0  0
 12 13  1  0  0  0  0
 12 22  1  0  0  0  0
 13 14  2  0  0  0  0
 13 23  1  0  0  0  0
 14 15  1  0  0  0  0
 14 24  1  0  0  0  0
 15 16  2  0  0  0  0
 15 25  1  0  0  0  0
 16 26  1  0  0  0  0
M  CHG  2   1  -1   2   1
M  END
$$$$
