
 OpenBabel09162610133D

 32 34  0  0  0  0  0  0  0  0999 V2000
    2.5617    0.3490    1.7744 C   0  0  0  0  0  0  0  0  0  0  0  0
    2.6414    0.2569    0.3543 O   0  0  0  0  0  0  0  0  0  0  0  0
    3.1783    1.3547   -0.2594 C   0  0  0  0  0  0  0  0  0  0  0  0
    4.1615    2.1700    0.2914 C   0  0  0  0  0  0  0  0  0  0  0  0
    4.6271    3.2802   -0.4204 C   0  0  0  0  0  0  0  0  0  0  0  0
    4.1367    3.6023   -1.7001 C   0  0  0  0  0  0  0  0  0  0  0  0
    4.6473    4.7957   -2.4102 C   0  0  0  0  0  0  0  0  0  0  0  0
    4.7537    4.8700   -3.7934 C   0  0  0  0  0  0  0  0  0  0  0  0
    5.3267    6.0068   -4.3499 C   0  0  0  0  0  0  0  0  0  0  0  0
    5.4491    6.1120   -5.7118 O   0  0  0  0  0  0  0  0  0  0  0  0
    5.7938    7.0503   -3.5401 C   0  0  0  0  0  0  0  0  0  0  0  0
    6.4371    8.2020   -4.0479 C   0  0  0  0  0  0  0  0  0  0  0  0
    6.8696    9.2069   -3.1873 C   0  0  0  0  0  0  0  0  0  0  0  0
    6.6422    9.0684   -1.8273 C   0  0  0  0  0  0  0  0  0  0  0  0
    7.0391   10.0369   -0.9916 F   0  0  0  0  0  0  0  0  0  0  0  0
    6.0174    7.9366   -1.3165 C   0  0  0  0  0  0  0  0  0  0  0  0
    5.6056    6.9118   -2.1520 C   0  0  0  0  0  0  0  0  0  0  0  0
    5.0512    5.8154   -1.6097 N   0  0  0  0  0  0  0  0  0  0  0  0
    3.1671    2.7450   -2.2485 C   0  0  0  0  0  0  0  0  0  0  0  0
    2.7032    1.6289   -1.5404 C   0  0  0  0  0  0  0  0  0  0  0  0
    1.9510   -0.4859    2.1303 H   0  0  0  0  0  0  0  0  0  0  0  0
    2.0718    1.2795    2.0856 H   0  0  0  0  0  0  0  0  0  0  0  0
    3.5499    0.2544    2.2340 H   0  0  0  0  0  0  0  0  0  0  0  0
    4.5952    1.9653    1.2643 H   0  0  0  0  0  0  0  0  0  0  0  0
    5.3947    3.9050    0.0359 H   0  0  0  0  0  0  0  0  0  0  0  0
    4.4334    4.0460   -4.4187 H   0  0  0  0  0  0  0  0  0  0  0  0
    4.9872    5.3696   -6.1350 H   0  0  0  0  0  0  0  0  0  0  0  0
    6.6100    8.3028   -5.1177 H   0  0  0  0  0  0  0  0  0  0  0  0
    7.3767   10.0878   -3.5667 H   0  0  0  0  0  0  0  0  0  0  0  0
    5.8590    7.8560   -0.2454 H   0  0  0  0  0  0  0  0  0  0  0  0
    2.7387    2.9409   -3.2280 H   0  0  0  0  0  0  0  0  0  0  0  0
    1.9491    0.9831   -1.9835 H   0  0  0  0  0  0  0  0  0  0  0  0
  1  2  1  0  0  0  0
  1 21  1  0  0  0  0
  1 22  1  0  0  0  0
  1 23  1  0  0  0  0
  2  3  1  0  0  0  0
  3  4  2  0  0  0  0
  3 20  1  0  0  0  0
  4  5  1  0  0  0  0
  4 24  1  0  0  0  0
  5  6  2  0  0  0  0
  5 25  1  0  0  0  0
  6  7  1  0  0  0  0
  6 19  1  0  0  0  0
  7  8  2  0  0  0  0
  7 18  1  0  0  0  0
  8  9  1  0  0  0  0
  8 26  1  0  0  0  0
  9 10  1  0  0  0  0
  9 11  2  0  0  0  0
 10 27  1  0  0  0  0
 11 12  1  0  0  0  0
 11 17  1  0  0  0  0
 12 13  2  0  0  0  0
 12 28  1  0  0  0  0
 13 14  1  0  0  0  0
 13 29  1  0  0  0  0
 14 15  1  0  0  0  0
 14 16  2  0  0  0  0
 16 17  1  0  0  0  0
 16 30  1  0  0  0  0
 17 18  2  0  0  0  0
 19 20  2  0  0  0  0
 19 31  1  0  0  0  0
 20 32  1  0  0  0  0
M  END
$$$$
