
 OpenBabel09162610133D

 43 47  0  0  1  0  0  0  0  0999 V2000
    1.0143   -0.3064    0.0308 C   0  0  0  0  0  0  0  0  0  0  0  0
    2.5095   -0.1898    0.1201 N   0  3  2  0  0  0  0  0  0  0  0  0
    3.1533   -1.3033    0.9411 C   0  0  0  0  0  0  0  0  0  0  0  0
    4.7013   -1.2736    0.8004 C   0  0  0  0  0  0  0  0  0  0  0  0
    5.2003    0.1334    0.8496 C   0  0  0  0  0  0  0  0  0  0  0  0
    4.3903    1.2557    0.7544 C   0  0  0  0  0  0  0  0  0  0  0  0
    5.2416    2.3897    0.7737 C   0  0  0  0  0  0  0  0  0  0  0  0
    4.9958    3.7741    0.7486 C   0  0  0  0  0  0  0  0  0  0  0  0
    6.0735    4.6542    0.6768 C   0  0  0  0  0  0  0  0  0  0  0  0
    7.3660    4.1634    0.5496 C   0  0  0  0  0  0  0  0  0  0  0  0
    7.6556    2.7820    0.5480 C   0  0  0  0  0  0  0  0  0  0  0  0
    6.5606    1.9204    0.7497 C   0  0  0  0  0  0  0  0  0  0  0  0
    6.5119    0.5643    0.9760 N   0  0  0  0  0  0  0  0  0  0  0  0
    7.6243   -0.2993    1.3563 C   0  0  0  0  0  0  0  0  0  0  0  0
    8.8952    0.3666    1.8352 C   0  0  0  0  0  0  0  0  0  0  0  0
    9.4528    0.0189    3.0720 C   0  0  0  0  0  0  0  0  0  0  0  0
   10.7875    0.3180    3.3602 C   0  0  0  0  0  0  0  0  0  0  0  0
   11.6146    0.8274    2.3656 C   0  0  0  0  0  0  0  0  0  0  0  0
   11.0528    1.2441    1.1701 C   0  0  0  0  0  0  0  0  0  0  0  0
    9.6584    1.1994    1.0104 C   0  0  0  0  0  0  0  0  0  0  0  0
    9.0706    2.3466    0.2268 C   0  0  0  0  0  0  0  0  0  0  0  0
    2.9219    1.1921    0.6208 C   0  0  0  0  0  0  0  0  0  0  0  0
    0.7762   -1.2829   -0.3963 H   0  0  0  0  0  0  0  0  0  0  0  0
    0.6495    0.4857   -0.6236 H   0  0  0  0  0  0  0  0  0  0  0  0
    0.5911   -0.2100    1.0395 H   0  0  0  0  0  0  0  0  0  0  0  0
    2.8896   -0.2570   -0.8230 H   0  0  0  0  0  0  0  0  0  0  0  0
    2.7568   -2.2567    0.5768 H   0  0  0  0  0  0  0  0  0  0  0  0
    2.8493   -1.1570    1.9829 H   0  0  0  0  0  0  0  0  0  0  0  0
    4.9771   -1.7108   -0.1662 H   0  0  0  0  0  0  0  0  0  0  0  0
    5.1514   -1.8846    1.5873 H   0  0  0  0  0  0  0  0  0  0  0  0
    3.9852    4.1693    0.7880 H   0  0  0  0  0  0  0  0  0  0  0  0
    5.9017    5.7270    0.6819 H   0  0  0  0  0  0  0  0  0  0  0  0
    8.1808    4.8826    0.4460 H   0  0  0  0  0  0  0  0  0  0  0  0
    7.8431   -0.9263    0.4840 H   0  0  0  0  0  0  0  0  0  0  0  0
    7.2459   -0.9596    2.1461 H   0  0  0  0  0  0  0  0  0  0  0  0
    8.8543   -0.4792    3.8318 H   0  0  0  0  0  0  0  0  0  0  0  0
   11.1953    0.1207    4.3472 H   0  0  0  0  0  0  0  0  0  0  0  0
   12.6727    0.9873    2.5483 H   0  0  0  0  0  0  0  0  0  0  0  0
   11.6775    1.7449    0.4314 H   0  0  0  0  0  0  0  0  0  0  0  0
    9.2015    2.2157   -0.8505 H   0  0  0  0  0  0  0  0  0  0  0  0
    9.6947    3.2076    0.5189 H   0  0  0  0  0  0  0  0  0  0  0  0
    2.5568    1.9142   -0.1140 H   0  0  0  0  0  0  0  0  0  0  0  0
    2.4317    1.3563    1.5872 H   0  0  0  0  0  0  0  0  0  0  0  0
  1  2  1  0  0  0  0
  1 23  1  0  0  0  0
  1 24  1  0  0  0  0
  1 25  1  0  0  0  0
  2  3  1  0  0  0  0
  2 22  1  0  0  0  0
  2 26  1  6  0  0  0
  3  4  1  0  0  0  0
  3 27  1  0  0  0  0
  3 28  1  0  0  0  0
  4  5  1  0  0  0  0
  4 29  1  0  0  0  0
  4 30  1  0  0  0  0
  5  6  2  0  0  0  0
  5 13  1  0  0  0  0
  6  7  1  0  0  0  0
  6 22  1  0  0  0  0
  7  8  2  0  0  0  0
  7 12  1  0  0  0  0
  8  9  1  0  0  0  0
  8 31  1  0  0  0  0
  9 10  2  0  0  0  0
  9 32  1  0  0  0  0
 10 11  1  0  0  0  0
 10 33  1  0  0  0  0
 11 12  2  0  0  0  0
 11 21  1  0  0  0  0
 12 13  1  0  0  0  0
 13 14  1  0  0  0  0
 14 15  1  0  0  0  0
 14 34  1  0  0  0  0
 14 35  1  0  0  0  0
 15 16  1  0  0  0  0
 15 20  2  0  0  0  0
 16 17  2  0  0  0  0
 16 36  1  0  0  0  0
 17 18  1  0  0  0  0
 17 37  1  0  0  0  0
 18 19  2  0  0  0  0
 18 38  1  0  0  0  0
 19 20  1  0  0  0  0
 19 39  1  0  0  0  0
 20 21  1  0  0  0  0
 21 40  1  0  0  0  0
 21 41  1  0  0  0  0
 22 42  1  0  0  0  0
 22 43  1  0  0  0  0
M  CHG  1   2   1
M  END
$$$$
