
 OpenBabel09162610133D

 37 40  0  0  0  0  0  0  0  0999 V2000
    0.8794   -0.2214   -0.1485 C   0  0  0  0  0  0  0  0  0  0  0  0
    2.3719   -0.0604   -0.1168 C   0  0  0  0  0  0  0  0  0  0  0  0
    3.2267   -1.1845   -0.1370 C   0  0  0  0  0  0  0  0  0  0  0  0
    4.6160   -1.0400   -0.0407 C   0  0  0  0  0  0  0  0  0  0  0  0
    5.1135    0.2408    0.0855 C   0  0  0  0  0  0  0  0  0  0  0  0
    4.2901    1.3666    0.0537 C   0  0  0  0  0  0  0  0  0  0  0  0
    2.9168    1.2306   -0.0372 C   0  0  0  0  0  0  0  0  0  0  0  0
    5.1644    2.5221    0.2640 C   0  0  0  0  0  0  0  0  0  0  0  0
    4.9931    3.8403    0.0655 C   0  0  0  0  0  0  0  0  0  0  0  0
    4.0012    4.3048   -0.8576 C   0  0  0  0  0  0  0  0  0  0  0  0
    3.6003    3.6382   -1.9274 N   0  0  0  0  0  0  0  0  0  0  0  0
    4.2250    4.3184   -2.9447 C   0  0  0  0  0  0  0  0  0  0  0  0
    4.6054    3.8778   -4.2074 C   0  0  0  0  0  0  0  0  0  0  0  0
    5.3782    4.7403   -4.9974 C   0  0  0  0  0  0  0  0  0  0  0  0
    5.6814    6.0385   -4.5627 C   0  0  0  0  0  0  0  0  0  0  0  0
    5.2354    6.5240   -3.3266 C   0  0  0  0  0  0  0  0  0  0  0  0
    4.5509    5.6115   -2.5266 C   0  0  0  0  0  0  0  0  0  0  0  0
    4.0568    5.6337   -1.2450 N   0  0  0  0  0  0  0  0  0  0  0  0
    3.3201    6.7202   -0.6427 C   0  0  0  0  0  0  0  0  0  0  0  0
    6.5519    1.9855    0.5025 C   0  0  0  0  0  0  0  0  0  0  0  0
    7.5617    2.6167    0.7389 O   0  0  0  0  0  0  0  0  0  0  0  0
    6.4374    0.6111    0.3204 N   0  0  0  0  0  0  0  0  0  0  0  0
    0.5890   -1.2757   -0.1801 H   0  0  0  0  0  0  0  0  0  0  0  0
    0.4626    0.2749   -1.0305 H   0  0  0  0  0  0  0  0  0  0  0  0
    0.4385    0.2193    0.7527 H   0  0  0  0  0  0  0  0  0  0  0  0
    2.8033   -2.1854   -0.2068 H   0  0  0  0  0  0  0  0  0  0  0  0
    5.2632   -1.9086   -0.0307 H   0  0  0  0  0  0  0  0  0  0  0  0
    2.2726    2.1044   -0.0267 H   0  0  0  0  0  0  0  0  0  0  0  0
    5.8156    4.5163    0.2920 H   0  0  0  0  0  0  0  0  0  0  0  0
    4.3850    2.8652   -4.5221 H   0  0  0  0  0  0  0  0  0  0  0  0
    5.7628    4.3856   -5.9511 H   0  0  0  0  0  0  0  0  0  0  0  0
    6.3029    6.6729   -5.1908 H   0  0  0  0  0  0  0  0  0  0  0  0
    5.4935    7.5184   -2.9808 H   0  0  0  0  0  0  0  0  0  0  0  0
    2.9721    7.3957   -1.4313 H   0  0  0  0  0  0  0  0  0  0  0  0
    3.9721    7.2506    0.0520 H   0  0  0  0  0  0  0  0  0  0  0  0
    2.4475    6.3144   -0.1220 H   0  0  0  0  0  0  0  0  0  0  0  0
    7.2220   -0.0181    0.3802 H   0  0  0  0  0  0  0  0  0  0  0  0
  1  2  1  0  0  0  0
  1 23  1  0  0  0  0
  1 24  1  0  0  0  0
  1 25  1  0  0  0  0
  2  3  2  0  0  0  0
  2  7  1  0  0  0  0
  3  4  1  0  0  0  0
  3 26  1  0  0  0  0
  4  5  2  0  0  0  0
  4 27  1  0  0  0  0
  5  6  1  0  0  0  0
  5 22  1  0  0  0  0
  6  7  2  0  0  0  0
  6  8  1  0  0  0  0
  7 28  1  0  0  0  0
  8  9  2  0  0  0  0
  8 20  1  0  0  0  0
  9 10  1  0  0  0  0
  9 29  1  0  0  0  0
 10 11  2  0  0  0  0
 10 18  1  0  0  0  0
 11 12  1  0  0  0  0
 12 13  2  0  0  0  0
 12 17  1  0  0  0  0
 13 14  1  0  0  0  0
 13 30  1  0  0  0  0
 14 15  2  0  0  0  0
 14 31  1  0  0  0  0
 15 16  1  0  0  0  0
 15 32  1  0  0  0  0
 16 17  2  0  0  0  0
 16 33  1  0  0  0  0
 17 18  1  0  0  0  0
 18 19  1  0  0  0  0
 19 34  1  0  0  0  0
 19 35  1  0  0  0  0
 19 36  1  0  0  0  0
 20 21  2  0  0  0  0
 20 22  1  0  0  0  0
 22 37  1  0  0  0  0
M  END
$$$$
