
 OpenBabel09162610133D

 36 38  0  0  0  0  0  0  0  0999 V2000
    0.7181    0.4717   -0.2131 C   0  0  0  0  0  0  0  0  0  0  0  0
    1.9514    0.2290   -0.8780 O   0  0  0  0  0  0  0  0  0  0  0  0
    2.8804    1.2347   -0.8410 C   0  0  0  0  0  0  0  0  0  0  0  0
    2.7365    2.4484   -0.1732 C   0  0  0  0  0  0  0  0  0  0  0  0
    3.7654    3.3874   -0.2124 C   0  0  0  0  0  0  0  0  0  0  0  0
    4.9286    3.1222   -0.9367 C   0  0  0  0  0  0  0  0  0  0  0  0
    5.0938    1.9129   -1.6286 C   0  0  0  0  0  0  0  0  0  0  0  0
    6.3446    1.6770   -2.3646 C   0  0  0  0  0  0  0  0  0  0  0  0
    7.6236    2.1300   -2.0631 C   0  0  0  0  0  0  0  0  0  0  0  0
    8.5450    1.7531   -3.0006 N   0  0  0  0  0  0  0  0  0  0  0  0
    7.8585    1.0756   -3.8863 C   0  0  0  0  0  0  0  0  0  0  0  0
    6.5299    0.9899   -3.5514 N   0  0  0  0  0  0  0  0  0  0  0  0
    5.5483    0.3434   -4.4117 C   0  0  0  0  0  0  0  0  0  0  0  0
    5.4461   -1.1586   -4.2304 C   0  0  0  0  0  0  0  0  0  0  0  0
    6.1402   -1.8746   -3.2413 C   0  0  0  0  0  0  0  0  0  0  0  0
    6.0201   -3.2629   -3.1433 C   0  0  0  0  0  0  0  0  0  0  0  0
    5.1996   -3.9584   -4.0259 C   0  0  0  0  0  0  0  0  0  0  0  0
    4.4873   -3.2646   -4.9995 C   0  0  0  0  0  0  0  0  0  0  0  0
    4.6072   -1.8761   -5.1005 C   0  0  0  0  0  0  0  0  0  0  0  0
    4.0624    0.9683   -1.5477 C   0  0  0  0  0  0  0  0  0  0  0  0
    0.0913   -0.4180   -0.3307 H   0  0  0  0  0  0  0  0  0  0  0  0
    0.1860    1.3162   -0.6652 H   0  0  0  0  0  0  0  0  0  0  0  0
    0.8710    0.6300    0.8598 H   0  0  0  0  0  0  0  0  0  0  0  0
    1.8447    2.6923    0.3934 H   0  0  0  0  0  0  0  0  0  0  0  0
    3.6633    4.3283    0.3218 H   0  0  0  0  0  0  0  0  0  0  0  0
    5.7081    3.8810   -0.9546 H   0  0  0  0  0  0  0  0  0  0  0  0
    7.9234    2.7201   -1.2067 H   0  0  0  0  0  0  0  0  0  0  0  0
    8.2648    0.6242   -4.7835 H   0  0  0  0  0  0  0  0  0  0  0  0
    5.8564    0.5539   -5.4436 H   0  0  0  0  0  0  0  0  0  0  0  0
    4.5787    0.8265   -4.2577 H   0  0  0  0  0  0  0  0  0  0  0  0
    6.7873   -1.3711   -2.5253 H   0  0  0  0  0  0  0  0  0  0  0  0
    6.5721   -3.7990   -2.3746 H   0  0  0  0  0  0  0  0  0  0  0  0
    5.1121   -5.0406   -3.9502 H   0  0  0  0  0  0  0  0  0  0  0  0
    3.8385   -3.8061   -5.6841 H   0  0  0  0  0  0  0  0  0  0  0  0
    4.0377   -1.3571   -5.8692 H   0  0  0  0  0  0  0  0  0  0  0  0
    4.1570   -0.0056   -2.0158 H   0  0  0  0  0  0  0  0  0  0  0  0
  1  2  1  0  0  0  0
  1 21  1  0  0  0  0
  1 22  1  0  0  0  0
  1 23  1  0  0  0  0
  2  3  1  0  0  0  0
  3  4  2  0  0  0  0
  3 20  1  0  0  0  0
  4  5  1  0  0  0  0
  4 24  1  0  0  0  0
  5  6  2  0  0  0  0
  5 25  1  0  0  0  0
  6  7  1  0  0  0  0
  6 26  1  0  0  0  0
  7  8  1  0  0  0  0
  7 20  2  0  0  0  0
  8  9  2  0  0  0  0
  8 12  1  0  0  0  0
  9 10  1  0  0  0  0
  9 27  1  0  0  0  0
 10 11  2  0  0  0  0
 11 12  1  0  0  0  0
 11 28  1  0  0  0  0
 12 13  1  0  0  0  0
 13 14  1  0  0  0  0
 13 29  1  0  0  0  0
 13 30  1  0  0  0  0
 14 15  2  0  0  0  0
 14 19  1  0  0  0  0
 15 16  1  0  0  0  0
 15 31  1  0  0  0  0
 16 17  2  0  0  0  0
 16 32  1  0  0  0  0
 17 18  1  0  0  0  0
 17 33  1  0  0  0  0
 18 19  2  0  0  0  0
 18 34  1  0  0  0  0
 19 35  1  0  0  0  0
 20 36  1  0  0  0  0
M  END
$$$$
