
 OpenBabel09162610133D

 26 27  0  0  0  0  0  0  0  0999 V2000
    1.5048    0.3029    0.2584 C   0  0  0  0  0  0  0  0  0  0  0  0
    2.9826    0.2082    0.2083 C   0  0  0  0  0  0  0  0  0  0  0  0
    3.5679   -0.9899    0.3066 N   0  0  0  0  0  0  0  0  0  0  0  0
    4.9265   -0.7520    0.2324 O   0  0  0  0  0  0  0  0  0  0  0  0
    5.1624    0.5830    0.0880 C   0  0  0  0  0  0  0  0  0  0  0  0
    6.4626    1.0393   -0.0148 N   0  0  0  0  0  0  0  0  0  0  0  0
    7.5426    0.1768   -0.0127 C   0  0  0  0  0  0  0  0  0  0  0  0
    7.4798   -1.0379    0.1520 O   0  0  0  0  0  0  0  0  0  0  0  0
    8.9053    0.7693   -0.1835 C   0  0  0  0  0  0  0  0  0  0  0  0
    9.9506    0.0686    0.4556 C   0  0  0  0  0  0  0  0  0  0  0  0
   11.2772    0.4762    0.3323 C   0  0  0  0  0  0  0  0  0  0  0  0
   11.5818    1.5892   -0.4415 C   0  0  0  0  0  0  0  0  0  0  0  0
   10.5610    2.2961   -1.0863 C   0  0  0  0  0  0  0  0  0  0  0  0
   11.0442    3.6568   -2.0437 Cl  0  0  0  0  0  0  0  0  0  0  0  0
    9.2151    1.8972   -0.9632 C   0  0  0  0  0  0  0  0  0  0  0  0
    7.9863    2.7847   -1.8115 Cl  0  0  0  0  0  0  0  0  0  0  0  0
    3.9493    1.2326    0.0685 C   0  0  0  0  0  0  0  0  0  0  0  0
    3.7369    2.6306   -0.0622 C   0  0  0  0  0  0  0  0  0  0  0  0
    3.5789    3.7744   -0.1639 N   0  0  0  0  0  0  0  0  0  0  0  0
    1.0473   -0.6867    0.3712 H   0  0  0  0  0  0  0  0  0  0  0  0
    1.1138    0.7477   -0.6616 H   0  0  0  0  0  0  0  0  0  0  0  0
    1.1869    0.9153    1.1075 H   0  0  0  0  0  0  0  0  0  0  0  0
    6.6106    2.0314   -0.1624 H   0  0  0  0  0  0  0  0  0  0  0  0
    9.7301   -0.8196    1.0501 H   0  0  0  0  0  0  0  0  0  0  0  0
   12.0688   -0.0831    0.8271 H   0  0  0  0  0  0  0  0  0  0  0  0
   12.6200    1.8973   -0.5494 H   0  0  0  0  0  0  0  0  0  0  0  0
  1  2  1  0  0  0  0
  1 20  1  0  0  0  0
  1 21  1  0  0  0  0
  1 22  1  0  0  0  0
  2  3  2  0  0  0  0
  2 17  1  0  0  0  0
  3  4  1  0  0  0  0
  4  5  1  0  0  0  0
  5  6  1  0  0  0  0
  5 17  2  0  0  0  0
  6  7  1  0  0  0  0
  6 23  1  0  0  0  0
  7  8  2  0  0  0  0
  7  9  1  0  0  0  0
  9 10  2  0  0  0  0
  9 15  1  0  0  0  0
 10 11  1  0  0  0  0
 10 24  1  0  0  0  0
 11 12  2  0  0  0  0
 11 25  1  0  0  0  0
 12 13  1  0  0  0  0
 12 26  1  0  0  0  0
 13 14  1  0  0  0  0
 13 15  2  0  0  0  0
 15 16  1  0  0  0  0
 17 18  1  0  0  0  0
 18 19  3  0  0  0  0
M  END
$$$$
