
 OpenBabel09162610133D

 37 39  0  0  1  0  0  0  0  0999 V2000
    3.4767    1.5690    0.1686 C   0  0  0  0  0  0  0  0  0  0  0  0
    2.7578    0.2735    0.4291 C   0  0  0  0  0  0  0  0  0  0  0  0
    1.3952    0.3262    0.7708 C   0  0  0  0  0  0  0  0  0  0  0  0
    0.6735   -0.8414    1.0054 C   0  0  0  0  0  0  0  0  0  0  0  0
    1.3053   -2.0763    0.8942 C   0  0  0  0  0  0  0  0  0  0  0  0
    2.6620   -2.1547    0.5696 C   0  0  0  0  0  0  0  0  0  0  0  0
    3.2428   -3.4151    0.4932 N   0  0  0  0  0  0  0  0  0  0  0  0
    4.5143   -3.4871    0.2963 C   0  0  0  0  0  0  0  0  0  0  0  0
    5.2192   -4.6516    0.2434 N   0  0  0  0  0  0  0  0  0  0  0  0
    4.6098   -5.9330   -0.0611 C   0  0  1  0  0  0  0  0  0  0  0  0
    4.7702   -6.2370   -1.5515 C   0  0  0  0  0  0  0  0  0  0  0  0
    5.2196   -7.0246    0.8026 C   0  0  0  0  0  0  0  0  0  0  0  0
    4.3842   -7.7929    1.6322 C   0  0  0  0  0  0  0  0  0  0  0  0
    4.9053   -8.8177    2.4242 C   0  0  0  0  0  0  0  0  0  0  0  0
    6.2704   -9.0883    2.4036 C   0  0  0  0  0  0  0  0  0  0  0  0
    7.1150   -8.3360    1.5897 C   0  0  0  0  0  0  0  0  0  0  0  0
    6.5943   -7.3125    0.7924 C   0  0  0  0  0  0  0  0  0  0  0  0
    5.3330   -2.4317    0.1094 O   0  0  0  0  0  0  0  0  0  0  0  0
    4.8284   -1.1742    0.0588 C   0  0  0  0  0  0  0  0  0  0  0  0
    5.5610   -0.2282   -0.2027 O   0  0  0  0  0  0  0  0  0  0  0  0
    3.3895   -0.9892    0.3502 C   0  0  0  0  0  0  0  0  0  0  0  0
    2.7961    2.4251    0.2417 H   0  0  0  0  0  0  0  0  0  0  0  0
    3.8894    1.5809   -0.8452 H   0  0  0  0  0  0  0  0  0  0  0  0
    4.2716    1.7238    0.9040 H   0  0  0  0  0  0  0  0  0  0  0  0
    0.8852    1.2842    0.8594 H   0  0  0  0  0  0  0  0  0  0  0  0
   -0.3785   -0.7903    1.2742 H   0  0  0  0  0  0  0  0  0  0  0  0
    0.7445   -2.9906    1.0728 H   0  0  0  0  0  0  0  0  0  0  0  0
    6.1966   -4.5550    0.0021 H   0  0  0  0  0  0  0  0  0  0  0  0
    3.5340   -5.8937    0.1503 H   0  0  0  0  0  0  0  0  0  0  0  0
    5.8235   -6.2861   -1.8506 H   0  0  0  0  0  0  0  0  0  0  0  0
    4.2960   -5.4573   -2.1584 H   0  0  0  0  0  0  0  0  0  0  0  0
    4.3047   -7.1949   -1.8076 H   0  0  0  0  0  0  0  0  0  0  0  0
    3.3142   -7.5972    1.6671 H   0  0  0  0  0  0  0  0  0  0  0  0
    4.2439   -9.4028    3.0581 H   0  0  0  0  0  0  0  0  0  0  0  0
    6.6764   -9.8837    3.0231 H   0  0  0  0  0  0  0  0  0  0  0  0
    8.1809   -8.5468    1.5762 H   0  0  0  0  0  0  0  0  0  0  0  0
    7.2754   -6.7435    0.1643 H   0  0  0  0  0  0  0  0  0  0  0  0
  1  2  1  0  0  0  0
  1 22  1  0  0  0  0
  1 23  1  0  0  0  0
  1 24  1  0  0  0  0
  2  3  2  0  0  0  0
  2 21  1  0  0  0  0
  3  4  1  0  0  0  0
  3 25  1  0  0  0  0
  4  5  2  0  0  0  0
  4 26  1  0  0  0  0
  5  6  1  0  0  0  0
  5 27  1  0  0  0  0
  6  7  1  0  0  0  0
  6 21  2  0  0  0  0
  7  8  2  0  0  0  0
  8  9  1  0  0  0  0
  8 18  1  0  0  0  0
  9 10  1  0  0  0  0
  9 28  1  0  0  0  0
 10 11  1  0  0  0  0
 10 12  1  0  0  0  0
 10 29  1  1  0  0  0
 11 30  1  0  0  0  0
 11 31  1  0  0  0  0
 11 32  1  0  0  0  0
 12 13  2  0  0  0  0
 12 17  1  0  0  0  0
 13 14  1  0  0  0  0
 13 33  1  0  0  0  0
 14 15  2  0  0  0  0
 14 34  1  0  0  0  0
 15 16  1  0  0  0  0
 15 35  1  0  0  0  0
 16 17  2  0  0  0  0
 16 36  1  0  0  0  0
 17 37  1  0  0  0  0
 18 19  1  0  0  0  0
 19 20  2  0  0  0  0
 19 21  1  0  0  0  0
M  END
$$$$
