
 OpenBabel09162610133D

 37 39  0  0  0  0  0  0  0  0999 V2000
    3.7288   -0.0340    2.8380 C   0  0  0  0  0  0  0  0  0  0  0  0
    3.7477    0.0423    1.3396 C   0  0  0  0  0  0  0  0  0  0  0  0
    3.7173   -1.1321    0.5586 C   0  0  0  0  0  0  0  0  0  0  0  0
    3.7337   -1.0911   -0.8398 C   0  0  0  0  0  0  0  0  0  0  0  0
    3.7746    0.1298   -1.5071 C   0  0  0  0  0  0  0  0  0  0  0  0
    3.7900    0.2181   -2.8694 O   0  0  0  0  0  0  0  0  0  0  0  0
    3.8064    1.2829   -0.7335 C   0  0  0  0  0  0  0  0  0  0  0  0
    3.8519    2.6095   -1.0659 N   0  0  0  0  0  0  0  0  0  0  0  0
    3.8710    3.3592    0.0861 C   0  0  0  0  0  0  0  0  0  0  0  0
    3.9219    4.8231    0.0991 C   0  0  0  0  0  0  0  0  0  0  0  0
    3.3847    5.5323    1.1725 C   0  0  0  0  0  0  0  0  0  0  0  0
    3.4132    6.9381    1.1977 C   0  0  0  0  0  0  0  0  0  0  0  0
    3.9796    7.6978    0.1621 C   0  0  0  0  0  0  0  0  0  0  0  0
    3.9672    9.0865    0.1455 N   0  0  0  0  0  0  0  0  0  0  0  0
    5.0621    9.8412   -0.4650 C   0  0  0  0  0  0  0  0  0  0  0  0
    3.1508    9.8657    1.0732 C   0  0  0  0  0  0  0  0  0  0  0  0
    4.5158    6.9586   -0.9062 C   0  0  0  0  0  0  0  0  0  0  0  0
    4.4965    5.5541   -0.9412 C   0  0  0  0  0  0  0  0  0  0  0  0
    3.8111    2.5631    1.1405 N   0  0  0  0  0  0  0  0  0  0  0  0
    3.7859    1.2759    0.6531 C   0  0  0  0  0  0  0  0  0  0  0  0
    3.7093   -1.0697    3.1887 H   0  0  0  0  0  0  0  0  0  0  0  0
    2.8438    0.4757    3.2292 H   0  0  0  0  0  0  0  0  0  0  0  0
    4.6263    0.4443    3.2463 H   0  0  0  0  0  0  0  0  0  0  0  0
    3.6848   -2.1030    1.0539 H   0  0  0  0  0  0  0  0  0  0  0  0
    3.7077   -2.0251   -1.3914 H   0  0  0  0  0  0  0  0  0  0  0  0
    3.7626   -0.6836   -3.2314 H   0  0  0  0  0  0  0  0  0  0  0  0
    3.8484    2.9641   -2.0108 H   0  0  0  0  0  0  0  0  0  0  0  0
    2.9285    4.9947    2.0018 H   0  0  0  0  0  0  0  0  0  0  0  0
    2.9842    7.4152    2.0737 H   0  0  0  0  0  0  0  0  0  0  0  0
    5.7151    9.2613   -1.1213 H   0  0  0  0  0  0  0  0  0  0  0  0
    5.6996   10.2761    0.3137 H   0  0  0  0  0  0  0  0  0  0  0  0
    4.6505   10.6636   -1.0608 H   0  0  0  0  0  0  0  0  0  0  0  0
    2.3143    9.3125    1.5076 H   0  0  0  0  0  0  0  0  0  0  0  0
    2.7047   10.7101    0.5351 H   0  0  0  0  0  0  0  0  0  0  0  0
    3.7661   10.2699    1.8849 H   0  0  0  0  0  0  0  0  0  0  0  0
    4.9364    7.4643   -1.7704 H   0  0  0  0  0  0  0  0  0  0  0  0
    4.9476    5.0581   -1.7959 H   0  0  0  0  0  0  0  0  0  0  0  0
  1  2  1  0  0  0  0
  1 21  1  0  0  0  0
  1 22  1  0  0  0  0
  1 23  1  0  0  0  0
  2  3  2  0  0  0  0
  2 20  1  0  0  0  0
  3  4  1  0  0  0  0
  3 24  1  0  0  0  0
  4  5  2  0  0  0  0
  4 25  1  0  0  0  0
  5  6  1  0  0  0  0
  5  7  1  0  0  0  0
  6 26  1  0  0  0  0
  7  8  1  0  0  0  0
  7 20  2  0  0  0  0
  8  9  1  0  0  0  0
  8 27  1  0  0  0  0
  9 10  1  0  0  0  0
  9 19  2  0  0  0  0
 10 11  2  0  0  0  0
 10 18  1  0  0  0  0
 11 12  1  0  0  0  0
 11 28  1  0  0  0  0
 12 13  2  0  0  0  0
 12 29  1  0  0  0  0
 13 14  1  0  0  0  0
 13 17  1  0  0  0  0
 14 15  1  0  0  0  0
 14 16  1  0  0  0  0
 15 30  1  0  0  0  0
 15 31  1  0  0  0  0
 15 32  1  0  0  0  0
 16 33  1  0  0  0  0
 16 34  1  0  0  0  0
 16 35  1  0  0  0  0
 17 18  2  0  0  0  0
 17 36  1  0  0  0  0
 18 37  1  0  0  0  0
 19 20  1  0  0  0  0
M  END
$$$$
