
 OpenBabel09162610133D

 39 41  0  0  0  0  0  0  0  0999 V2000
    1.8552   -1.3478    0.3692 C   0  0  0  0  0  0  0  0  0  0  0  0
    2.5123   -0.1559   -0.0467 O   0  0  0  0  0  0  0  0  0  0  0  0
    3.2369    0.5020    0.9064 C   0  0  0  0  0  0  0  0  0  0  0  0
    3.4132    0.0879    2.2215 C   0  0  0  0  0  0  0  0  0  0  0  0
    4.1619    0.8669    3.1077 C   0  0  0  0  0  0  0  0  0  0  0  0
    4.7323    2.0921    2.7192 C   0  0  0  0  0  0  0  0  0  0  0  0
    5.2762    2.9534    3.7284 N   0  0  0  0  0  0  0  0  0  0  0  0
    5.7365    2.4129    4.9224 C   0  0  0  0  0  0  0  0  0  0  0  0
    6.3256    1.3389    5.0416 O   0  0  0  0  0  0  0  0  0  0  0  0
    5.3687    3.2150    6.1458 C   0  0  0  0  0  0  0  0  0  0  0  0
    5.6282    4.7109    5.9919 C   0  0  0  0  0  0  0  0  0  0  0  0
    7.1278    5.0527    6.1390 C   0  0  0  0  0  0  0  0  0  0  0  0
    7.1454    6.3693    6.9022 C   0  0  0  0  0  0  0  0  0  0  0  0
    6.0340    6.1860    7.9177 C   0  0  0  0  0  0  0  0  0  0  0  0
    4.9280    5.4914    7.1359 C   0  0  0  0  0  0  0  0  0  0  0  0
    5.0860    5.1834    4.6395 C   0  0  0  0  0  0  0  0  0  0  0  0
    5.5252    4.2985    3.4913 C   0  0  0  0  0  0  0  0  0  0  0  0
    5.9961    4.7923    2.4739 O   0  0  0  0  0  0  0  0  0  0  0  0
    4.5591    2.4863    1.3857 C   0  0  0  0  0  0  0  0  0  0  0  0
    3.8301    1.6924    0.4898 C   0  0  0  0  0  0  0  0  0  0  0  0
    1.3657   -1.7851   -0.5055 H   0  0  0  0  0  0  0  0  0  0  0  0
    1.0815   -1.1285    1.1134 H   0  0  0  0  0  0  0  0  0  0  0  0
    2.5708   -2.0842    0.7501 H   0  0  0  0  0  0  0  0  0  0  0  0
    2.9656   -0.8222    2.6060 H   0  0  0  0  0  0  0  0  0  0  0  0
    4.2306    0.5087    4.1336 H   0  0  0  0  0  0  0  0  0  0  0  0
    5.9097    2.8107    7.0098 H   0  0  0  0  0  0  0  0  0  0  0  0
    4.3017    3.0234    6.3218 H   0  0  0  0  0  0  0  0  0  0  0  0
    7.6521    5.1369    5.1817 H   0  0  0  0  0  0  0  0  0  0  0  0
    7.6492    4.2895    6.7302 H   0  0  0  0  0  0  0  0  0  0  0  0
    6.9166    7.2053    6.2311 H   0  0  0  0  0  0  0  0  0  0  0  0
    8.1116    6.5617    7.3762 H   0  0  0  0  0  0  0  0  0  0  0  0
    5.6982    7.1334    8.3485 H   0  0  0  0  0  0  0  0  0  0  0  0
    6.3714    5.5401    8.7369 H   0  0  0  0  0  0  0  0  0  0  0  0
    4.2364    6.2431    6.7357 H   0  0  0  0  0  0  0  0  0  0  0  0
    4.3412    4.8444    7.7973 H   0  0  0  0  0  0  0  0  0  0  0  0
    5.3953    6.2141    4.4280 H   0  0  0  0  0  0  0  0  0  0  0  0
    3.9873    5.1723    4.6364 H   0  0  0  0  0  0  0  0  0  0  0  0
    4.9743    3.4116    0.9981 H   0  0  0  0  0  0  0  0  0  0  0  0
    3.7077    2.0241   -0.5391 H   0  0  0  0  0  0  0  0  0  0  0  0
  1  2  1  0  0  0  0
  1 21  1  0  0  0  0
  1 22  1  0  0  0  0
  1 23  1  0  0  0  0
  2  3  1  0  0  0  0
  3  4  2  0  0  0  0
  3 20  1  0  0  0  0
  4  5  1  0  0  0  0
  4 24  1  0  0  0  0
  5  6  2  0  0  0  0
  5 25  1  0  0  0  0
  6  7  1  0  0  0  0
  6 19  1  0  0  0  0
  7  8  1  0  0  0  0
  7 17  1  0  0  0  0
  8  9  2  0  0  0  0
  8 10  1  0  0  0  0
 10 11  1  0  0  0  0
 10 26  1  0  0  0  0
 10 27  1  0  0  0  0
 11 12  1  0  0  0  0
 11 15  1  0  0  0  0
 11 16  1  0  0  0  0
 12 13  1  0  0  0  0
 12 28  1  0  0  0  0
 12 29  1  0  0  0  0
 13 14  1  0  0  0  0
 13 30  1  0  0  0  0
 13 31  1  0  0  0  0
 14 15  1  0  0  0  0
 14 32  1  0  0  0  0
 14 33  1  0  0  0  0
 15 34  1  0  0  0  0
 15 35  1  0  0  0  0
 16 17  1  0  0  0  0
 16 36  1  0  0  0  0
 16 37  1  0  0  0  0
 17 18  2  0  0  0  0
 19 20  2  0  0  0  0
 19 38  1  0  0  0  0
 20 39  1  0  0  0  0
M  END
$$$$
