
 OpenBabel09162610133D

 32 35  0  0  0  0  0  0  0  0999 V2000
    0.9191   -0.1819   -0.0191 O   0  0  0  0  0  0  0  0  0  0  0  0
    2.3024   -0.0943    0.0008 C   0  0  0  0  0  0  0  0  0  0  0  0
    2.9486    1.0811    0.0114 C   0  0  0  0  0  0  0  0  0  0  0  0
    4.4313    1.0271    0.0315 C   0  0  0  0  0  0  0  0  0  0  0  0
    5.1656   -0.0391    0.0473 N   0  0  0  0  0  0  0  0  0  0  0  0
    4.4706   -1.2192    0.0396 C   0  0  0  0  0  0  0  0  0  0  0  0
    4.9081   -2.5187    0.0540 C   0  0  0  0  0  0  0  0  0  0  0  0
    3.7482   -3.3296    0.0219 C   0  0  0  0  0  0  0  0  0  0  0  0
    3.6820   -4.7973    0.0038 C   0  0  0  0  0  0  0  0  0  0  0  0
    4.8535   -5.5732    0.0446 C   0  0  0  0  0  0  0  0  0  0  0  0
    4.7884   -6.9686    0.0072 C   0  0  0  0  0  0  0  0  0  0  0  0
    3.5522   -7.5950   -0.0693 C   0  0  0  0  0  0  0  0  0  0  0  0
    3.4932   -8.9322   -0.1129 F   0  0  0  0  0  0  0  0  0  0  0  0
    2.3784   -6.8540   -0.1042 C   0  0  0  0  0  0  0  0  0  0  0  0
    2.4431   -5.4584   -0.0663 C   0  0  0  0  0  0  0  0  0  0  0  0
    2.6400   -2.5734   -0.0009 N   0  0  0  0  0  0  0  0  0  0  0  0
    3.0707   -1.2828    0.0118 N   0  0  0  0  0  0  0  0  0  0  0  0
    5.0170    2.4006    0.0301 C   0  0  0  0  0  0  0  0  0  0  0  0
    3.8007    3.3283    0.0126 C   0  0  0  0  0  0  0  0  0  0  0  0
    2.5113    2.4968    0.0056 C   0  0  0  0  0  0  0  0  0  0  0  0
    0.5389    0.7105   -0.0090 H   0  0  0  0  0  0  0  0  0  0  0  0
    5.9439   -2.8210    0.0766 H   0  0  0  0  0  0  0  0  0  0  0  0
    5.8340   -5.1092    0.1035 H   0  0  0  0  0  0  0  0  0  0  0  0
    5.6946   -7.5651    0.0346 H   0  0  0  0  0  0  0  0  0  0  0  0
    1.4211   -7.3616   -0.1635 H   0  0  0  0  0  0  0  0  0  0  0  0
    1.5173   -4.8852   -0.0955 H   0  0  0  0  0  0  0  0  0  0  0  0
    5.6422    2.5374   -0.8572 H   0  0  0  0  0  0  0  0  0  0  0  0
    5.6255    2.5475    0.9273 H   0  0  0  0  0  0  0  0  0  0  0  0
    3.8377    3.9815   -0.8674 H   0  0  0  0  0  0  0  0  0  0  0  0
    3.8210    3.9927    0.8846 H   0  0  0  0  0  0  0  0  0  0  0  0
    1.9186    2.7217   -0.8870 H   0  0  0  0  0  0  0  0  0  0  0  0
    1.9079    2.7245    0.8904 H   0  0  0  0  0  0  0  0  0  0  0  0
  1  2  1  0  0  0  0
  1 21  1  0  0  0  0
  2  3  2  0  0  0  0
  2 17  1  0  0  0  0
  3  4  1  0  0  0  0
  3 20  1  0  0  0  0
  4  5  2  0  0  0  0
  4 18  1  0  0  0  0
  5  6  1  0  0  0  0
  6  7  2  0  0  0  0
  6 17  1  0  0  0  0
  7  8  1  0  0  0  0
  7 22  1  0  0  0  0
  8  9  1  0  0  0  0
  8 16  2  0  0  0  0
  9 10  2  0  0  0  0
  9 15  1  0  0  0  0
 10 11  1  0  0  0  0
 10 23  1  0  0  0  0
 11 12  2  0  0  0  0
 11 24  1  0  0  0  0
 12 13  1  0  0  0  0
 12 14  1  0  0  0  0
 14 15  2  0  0  0  0
 14 25  1  0  0  0  0
 15 26  1  0  0  0  0
 16 17  1  0  0  0  0
 18 19  1  0  0  0  0
 18 27  1  0  0  0  0
 18 28  1  0  0  0  0
 19 20  1  0  0  0  0
 19 29  1  0  0  0  0
 19 30  1  0  0  0  0
 20 31  1  0  0  0  0
 20 32  1  0  0  0  0
M  END
$$$$
