
 OpenBabel09162610133D

 33 36  0  0  0  0  0  0  0  0999 V2000
    1.0810    0.1493    0.0375 O   0  0  0  0  0  0  0  0  0  0  0  0
    2.3083    0.1232    0.0268 C   0  0  0  0  0  0  0  0  0  0  0  0
    3.0094   -1.0473    0.0163 N   0  0  0  0  0  0  0  0  0  0  0  0
    4.3120   -1.1045   -0.0449 C   0  0  0  0  0  0  0  0  0  0  0  0
    5.0167   -2.3474   -0.0870 N   0  0  0  0  0  0  0  0  0  0  0  0
    4.2580   -3.5754    0.0160 C   0  0  0  0  0  0  0  0  0  0  0  0
    3.0790   -3.7744   -0.7278 C   0  0  0  0  0  0  0  0  0  0  0  0
    2.3181   -4.9418   -0.6024 C   0  0  0  0  0  0  0  0  0  0  0  0
    2.7433   -5.9634    0.2386 C   0  0  0  0  0  0  0  0  0  0  0  0
    3.9136   -5.8049    0.9738 C   0  0  0  0  0  0  0  0  0  0  0  0
    4.6462   -4.6144    0.8831 C   0  0  0  0  0  0  0  0  0  0  0  0
    6.4651   -2.3022   -0.1390 C   0  0  0  0  0  0  0  0  0  0  0  0
    7.2636   -3.4508   -0.3034 C   0  0  0  0  0  0  0  0  0  0  0  0
    8.6625   -3.3852   -0.2819 C   0  0  0  0  0  0  0  0  0  0  0  0
    9.3030   -2.1615   -0.1418 C   0  0  0  0  0  0  0  0  0  0  0  0
    8.5447   -1.0003   -0.0516 C   0  0  0  0  0  0  0  0  0  0  0  0
    7.1409   -1.0634   -0.0618 C   0  0  0  0  0  0  0  0  0  0  0  0
    6.3966    0.1899   -0.0334 C   0  0  0  0  0  0  0  0  0  0  0  0
    5.0610    0.1862   -0.0466 C   0  0  0  0  0  0  0  0  0  0  0  0
    4.3264    1.4578   -0.0417 C   0  0  0  0  0  0  0  0  0  0  0  0
    4.8678    2.5565   -0.0792 O   0  0  0  0  0  0  0  0  0  0  0  0
    2.9794    1.3093    0.0019 N   0  0  0  0  0  0  0  0  0  0  0  0
    2.7205   -3.0095   -1.4128 H   0  0  0  0  0  0  0  0  0  0  0  0
    1.3904   -5.0431   -1.1604 H   0  0  0  0  0  0  0  0  0  0  0  0
    2.1574   -6.8744    0.3285 H   0  0  0  0  0  0  0  0  0  0  0  0
    4.2503   -6.6012    1.6326 H   0  0  0  0  0  0  0  0  0  0  0  0
    5.5232   -4.5074    1.5165 H   0  0  0  0  0  0  0  0  0  0  0  0
    6.8199   -4.4291   -0.4637 H   0  0  0  0  0  0  0  0  0  0  0  0
    9.2490   -4.2957   -0.3806 H   0  0  0  0  0  0  0  0  0  0  0  0
   10.3887   -2.1080   -0.1252 H   0  0  0  0  0  0  0  0  0  0  0  0
    9.0580   -0.0428    0.0199 H   0  0  0  0  0  0  0  0  0  0  0  0
    6.9545    1.1228   -0.0278 H   0  0  0  0  0  0  0  0  0  0  0  0
    2.4102    2.1403   -0.0038 H   0  0  0  0  0  0  0  0  0  0  0  0
  1  2  2  0  0  0  0
  2  3  1  0  0  0  0
  2 22  1  0  0  0  0
  3  4  2  0  0  0  0
  4  5  1  0  0  0  0
  4 19  1  0  0  0  0
  5  6  1  0  0  0  0
  5 12  1  0  0  0  0
  6  7  2  0  0  0  0
  6 11  1  0  0  0  0
  7  8  1  0  0  0  0
  7 23  1  0  0  0  0
  8  9  2  0  0  0  0
  8 24  1  0  0  0  0
  9 10  1  0  0  0  0
  9 25  1  0  0  0  0
 10 11  2  0  0  0  0
 10 26  1  0  0  0  0
 11 27  1  0  0  0  0
 12 13  2  0  0  0  0
 12 17  1  0  0  0  0
 13 14  1  0  0  0  0
 13 28  1  0  0  0  0
 14 15  2  0  0  0  0
 14 29  1  0  0  0  0
 15 16  1  0  0  0  0
 15 30  1  0  0  0  0
 16 17  2  0  0  0  0
 16 31  1  0  0  0  0
 17 18  1  0  0  0  0
 18 19  2  0  0  0  0
 18 32  1  0  0  0  0
 19 20  1  0  0  0  0
 20 21  2  0  0  0  0
 20 22  1  0  0  0  0
 22 33  1  0  0  0  0
M  END
$$$$
