
 OpenBabel09162610133D

 24 26  0  0  0  0  0  0  0  0999 V2000
    1.0896   -0.0140    0.2623 N   0  0  0  0  0  0  0  0  0  0  0  0
    2.4766   -0.0194    0.0691 C   0  0  0  0  0  0  0  0  0  0  0  0
    3.1786   -1.2445    0.0940 C   0  0  0  0  0  0  0  0  0  0  0  0
    4.5803   -1.2975    0.0583 C   0  0  0  0  0  0  0  0  0  0  0  0
    5.2775   -0.1050    0.0377 C   0  0  0  0  0  0  0  0  0  0  0  0
    4.5700    1.1075    0.0525 C   0  0  0  0  0  0  0  0  0  0  0  0
    3.1899    1.1813    0.0896 C   0  0  0  0  0  0  0  0  0  0  0  0
    5.5621    2.2052    0.0524 C   0  0  0  0  0  0  0  0  0  0  0  0
    5.3320    3.3951    0.0579 O   0  0  0  0  0  0  0  0  0  0  0  0
    6.8956    1.5627    0.0414 C   0  0  0  0  0  0  0  0  0  0  0  0
    8.1470    2.1485    0.0464 C   0  0  0  0  0  0  0  0  0  0  0  0
    9.2497    1.2914    0.0450 C   0  0  0  0  0  0  0  0  0  0  0  0
    9.0676   -0.1051    0.0402 C   0  0  0  0  0  0  0  0  0  0  0  0
   10.5862   -1.2358    0.0435 Br  0  0  0  0  0  0  0  0  0  0  0  0
    7.7902   -0.6790    0.0350 C   0  0  0  0  0  0  0  0  0  0  0  0
    6.6973    0.1706    0.0335 C   0  0  0  0  0  0  0  0  0  0  0  0
    0.6177   -0.8532   -0.0597 H   0  0  0  0  0  0  0  0  0  0  0  0
    0.6278    0.8344   -0.0524 H   0  0  0  0  0  0  0  0  0  0  0  0
    2.6240   -2.1794    0.1499 H   0  0  0  0  0  0  0  0  0  0  0  0
    5.0898   -2.2552    0.0697 H   0  0  0  0  0  0  0  0  0  0  0  0
    2.6948    2.1447    0.1406 H   0  0  0  0  0  0  0  0  0  0  0  0
    8.2610    3.2274    0.0540 H   0  0  0  0  0  0  0  0  0  0  0  0
   10.2526    1.7133    0.0498 H   0  0  0  0  0  0  0  0  0  0  0  0
    7.6624   -1.7564    0.0358 H   0  0  0  0  0  0  0  0  0  0  0  0
  1  2  1  0  0  0  0
  1 17  1  0  0  0  0
  1 18  1  0  0  0  0
  2  3  2  0  0  0  0
  2  7  1  0  0  0  0
  3  4  1  0  0  0  0
  3 19  1  0  0  0  0
  4  5  2  0  0  0  0
  4 20  1  0  0  0  0
  5  6  1  0  0  0  0
  5 16  1  0  0  0  0
  6  7  2  0  0  0  0
  6  8  1  0  0  0  0
  7 21  1  0  0  0  0
  8  9  2  0  0  0  0
  8 10  1  0  0  0  0
 10 11  1  0  0  0  0
 10 16  2  0  0  0  0
 11 12  2  0  0  0  0
 11 22  1  0  0  0  0
 12 13  1  0  0  0  0
 12 23  1  0  0  0  0
 13 14  1  0  0  0  0
 13 15  2  0  0  0  0
 15 16  1  0  0  0  0
 15 24  1  0  0  0  0
M  END
$$$$
