
 OpenBabel09162610133D

 23 25  0  0  0  0  0  0  0  0999 V2000
    1.3942    0.1276    0.1522 N   0  0  0  0  0  0  0  0  0  0  0  0
    2.7261   -0.0007    0.0885 C   0  0  0  0  0  0  0  0  0  0  0  0
    3.3286   -1.1580    0.0582 N   0  0  0  0  0  0  0  0  0  0  0  0
    4.7103   -0.9950    0.0330 C   0  0  0  0  0  0  0  0  0  0  0  0
    5.6868   -1.9854    0.0176 C   0  0  0  0  0  0  0  0  0  0  0  0
    5.1745   -3.6091    0.0246 Cl  0  0  0  0  0  0  0  0  0  0  0  0
    7.0557   -1.7331   -0.0069 C   0  0  0  0  0  0  0  0  0  0  0  0
    8.0884   -2.6647   -0.0330 N   0  0  0  0  0  0  0  0  0  0  0  0
    9.2479   -2.0697   -0.0771 C   0  0  0  0  0  0  0  0  0  0  0  0
   10.4106   -2.7352   -0.1420 N   0  0  0  0  0  0  0  0  0  0  0  0
    9.1925   -0.3657   -0.0377 S   0  0  0  0  0  0  0  0  0  0  0  0
    7.4619   -0.3928   -0.0099 C   0  0  0  0  0  0  0  0  0  0  0  0
    6.5260    0.6685    0.0073 C   0  0  0  0  0  0  0  0  0  0  0  0
    6.9317    2.1265    0.0003 C   0  0  0  0  0  0  0  0  0  0  0  0
    8.2724    2.3547    0.0054 F   0  0  0  0  0  0  0  0  0  0  0  0
    6.4585    2.7861   -1.0937 F   0  0  0  0  0  0  0  0  0  0  0  0
    6.4505    2.7994    1.0830 F   0  0  0  0  0  0  0  0  0  0  0  0
    5.1492    0.3293    0.0254 C   0  0  0  0  0  0  0  0  0  0  0  0
    3.7564    1.3599    0.0411 S   0  0  0  0  0  0  0  0  0  0  0  0
    0.8377   -0.6993   -0.0336 H   0  0  0  0  0  0  0  0  0  0  0  0
    0.9546    1.0110   -0.0704 H   0  0  0  0  0  0  0  0  0  0  0  0
   10.3785   -3.7261    0.0739 H   0  0  0  0  0  0  0  0  0  0  0  0
   11.2677   -2.2662    0.1167 H   0  0  0  0  0  0  0  0  0  0  0  0
  1  2  1  0  0  0  0
  1 20  1  0  0  0  0
  1 21  1  0  0  0  0
  2  3  2  0  0  0  0
  2 19  1  0  0  0  0
  3  4  1  0  0  0  0
  4  5  1  0  0  0  0
  4 18  2  0  0  0  0
  5  6  1  0  0  0  0
  5  7  2  0  0  0  0
  7  8  1  0  0  0  0
  7 12  1  0  0  0  0
  8  9  2  0  0  0  0
  9 10  1  0  0  0  0
  9 11  1  0  0  0  0
 10 22  1  0  0  0  0
 10 23  1  0  0  0  0
 11 12  1  0  0  0  0
 12 13  2  0  0  0  0
 13 14  1  0  0  0  0
 13 18  1  0  0  0  0
 14 15  1  0  0  0  0
 14 16  1  0  0  0  0
 14 17  1  0  0  0  0
 18 19  1  0  0  0  0
M  END
$$$$
