
 OpenBabel09162610133D

 30 31  0  0  0  0  0  0  0  0999 V2000
    0.5617   -5.1228   -0.0366 O   0  0  0  0  0  0  0  0  0  0  0  0
    1.5706   -5.1972    0.6815 N   0  3  0  0  0  0  0  0  0  0  0  0
    1.8002   -6.1129    1.4787 O   0  5  0  0  0  0  0  0  0  0  0  0
    2.5539   -4.1077    0.5768 C   0  0  0  0  0  0  0  0  0  0  0  0
    2.2919   -3.0150   -0.2567 C   0  0  0  0  0  0  0  0  0  0  0  0
    3.2169   -1.9736   -0.3243 C   0  0  0  0  0  0  0  0  0  0  0  0
    4.4084   -2.0487    0.4072 C   0  0  0  0  0  0  0  0  0  0  0  0
    5.5139   -0.7198    0.2838 Cl  0  0  0  0  0  0  0  0  0  0  0  0
    4.7115   -3.1728    1.2035 C   0  0  0  0  0  0  0  0  0  0  0  0
    5.9694   -3.2034    1.8701 N   0  0  0  0  0  0  0  0  0  0  0  0
    6.7224   -4.2536    2.3854 C   0  0  0  0  0  0  0  0  0  0  0  0
    6.4004   -5.8930    2.1763 S   0  0  0  0  0  0  0  0  0  0  0  0
    7.8497   -3.8246    3.0978 N   0  0  0  0  0  0  0  0  0  0  0  0
    8.6705   -4.7126    3.9264 C   0  0  0  0  0  0  0  0  0  0  0  0
    9.5502   -3.7801    4.7395 C   0  0  0  0  0  0  0  0  0  0  0  0
    9.7895   -2.6268    3.7801 C   0  0  0  0  0  0  0  0  0  0  0  0
    8.4638   -2.4983    3.0386 C   0  0  0  0  0  0  0  0  0  0  0  0
    3.7462   -4.1773    1.3180 C   0  0  0  0  0  0  0  0  0  0  0  0
    1.3757   -2.9553   -0.8423 H   0  0  0  0  0  0  0  0  0  0  0  0
    3.0082   -1.1125   -0.9551 H   0  0  0  0  0  0  0  0  0  0  0  0
    6.4542   -2.3173    1.8223 H   0  0  0  0  0  0  0  0  0  0  0  0
    9.2731   -5.3389    3.2602 H   0  0  0  0  0  0  0  0  0  0  0  0
    8.0499   -5.3481    4.5665 H   0  0  0  0  0  0  0  0  0  0  0  0
   10.4741   -4.2614    5.0713 H   0  0  0  0  0  0  0  0  0  0  0  0
    9.0092   -3.4241    5.6243 H   0  0  0  0  0  0  0  0  0  0  0  0
   10.5903   -2.8903    3.0785 H   0  0  0  0  0  0  0  0  0  0  0  0
   10.0763   -1.7026    4.2895 H   0  0  0  0  0  0  0  0  0  0  0  0
    8.6175   -2.2048    1.9948 H   0  0  0  0  0  0  0  0  0  0  0  0
    7.7976   -1.7790    3.5242 H   0  0  0  0  0  0  0  0  0  0  0  0
    3.8827   -5.0083    2.0003 H   0  0  0  0  0  0  0  0  0  0  0  0
  1  2  2  0  0  0  0
  2  3  1  0  0  0  0
  2  4  1  0  0  0  0
  4  5  2  0  0  0  0
  4 18  1  0  0  0  0
  5  6  1  0  0  0  0
  5 19  1  0  0  0  0
  6  7  2  0  0  0  0
  6 20  1  0  0  0  0
  7  8  1  0  0  0  0
  7  9  1  0  0  0  0
  9 10  1  0  0  0  0
  9 18  2  0  0  0  0
 10 11  1  0  0  0  0
 10 21  1  0  0  0  0
 11 12  2  0  0  0  0
 11 13  1  0  0  0  0
 13 14  1  0  0  0  0
 13 17  1  0  0  0  0
 14 15  1  0  0  0  0
 14 22  1  0  0  0  0
 14 23  1  0  0  0  0
 15 16  1  0  0  0  0
 15 24  1  0  0  0  0
 15 25  1  0  0  0  0
 16 17  1  0  0  0  0
 16 26  1  0  0  0  0
 16 27  1  0  0  0  0
 17 28  1  0  0  0  0
 17 29  1  0  0  0  0
 18 30  1  0  0  0  0
M  CHG  2   2   1   3  -1
M  END
$$$$
