
 OpenBabel09162610133D

 31 34  0  0  0  0  0  0  0  0999 V2000
    1.0635    0.1304    0.2823 O   0  0  0  0  0  0  0  0  0  0  0  0
    2.2712    0.0387    0.0764 C   0  0  0  0  0  0  0  0  0  0  0  0
    2.8940   -0.7825   -0.8384 N   0  0  0  0  0  0  0  0  0  0  0  0
    2.2079   -1.5950   -1.7157 C   0  0  0  0  0  0  0  0  0  0  0  0
    2.7473   -2.6489   -2.2823 N   0  0  0  0  0  0  0  0  0  0  0  0
    1.7729   -3.3209   -3.0170 C   0  0  0  0  0  0  0  0  0  0  0  0
    1.9217   -4.5554   -3.6834 C   0  0  0  0  0  0  0  0  0  0  0  0
    0.8268   -5.1238   -4.3498 C   0  0  0  0  0  0  0  0  0  0  0  0
   -0.4039   -4.4746   -4.3761 C   0  0  0  0  0  0  0  0  0  0  0  0
   -0.5719   -3.2429   -3.7433 C   0  0  0  0  0  0  0  0  0  0  0  0
    0.5277   -2.6924   -3.0677 C   0  0  0  0  0  0  0  0  0  0  0  0
    0.6135   -1.2244   -2.1953 S   0  0  0  0  0  0  0  0  0  0  0  0
    3.1465    0.8567    0.9481 C   0  0  0  0  0  0  0  0  0  0  0  0
    2.7011    1.0843    2.2725 C   0  0  0  0  0  0  0  0  0  0  0  0
    3.3804    1.9618    3.1165 C   0  0  0  0  0  0  0  0  0  0  0  0
    4.4829    2.6033    2.6012 C   0  0  0  0  0  0  0  0  0  0  0  0
    4.9252    2.3782    1.3151 C   0  0  0  0  0  0  0  0  0  0  0  0
    4.2886    1.5010    0.4586 C   0  0  0  0  0  0  0  0  0  0  0  0
    6.0061    3.1450    1.0048 O   0  0  0  0  0  0  0  0  0  0  0  0
    6.1469    3.9222    2.2143 C   0  0  0  0  0  0  0  0  0  0  0  0
    5.2295    3.5316    3.2550 O   0  0  0  0  0  0  0  0  0  0  0  0
    3.8715   -1.0152   -0.7300 H   0  0  0  0  0  0  0  0  0  0  0  0
    2.8778   -5.0683   -3.6599 H   0  0  0  0  0  0  0  0  0  0  0  0
    0.9378   -6.0852   -4.8460 H   0  0  0  0  0  0  0  0  0  0  0  0
   -1.2485   -4.9279   -4.8906 H   0  0  0  0  0  0  0  0  0  0  0  0
   -1.5296   -2.7311   -3.7556 H   0  0  0  0  0  0  0  0  0  0  0  0
    1.7941    0.5962    2.6289 H   0  0  0  0  0  0  0  0  0  0  0  0
    3.0294    2.1585    4.1229 H   0  0  0  0  0  0  0  0  0  0  0  0
    4.6306    1.3867   -0.5631 H   0  0  0  0  0  0  0  0  0  0  0  0
    5.9734    4.9785    1.9752 H   0  0  0  0  0  0  0  0  0  0  0  0
    7.1694    3.8089    2.5897 H   0  0  0  0  0  0  0  0  0  0  0  0
  1  2  2  0  0  0  0
  2  3  1  0  0  0  0
  2 13  1  0  0  0  0
  3  4  1  0  0  0  0
  3 22  1  0  0  0  0
  4  5  2  0  0  0  0
  4 12  1  0  0  0  0
  5  6  1  0  0  0  0
  6  7  2  0  0  0  0
  6 11  1  0  0  0  0
  7  8  1  0  0  0  0
  7 23  1  0  0  0  0
  8  9  2  0  0  0  0
  8 24  1  0  0  0  0
  9 10  1  0  0  0  0
  9 25  1  0  0  0  0
 10 11  2  0  0  0  0
 10 26  1  0  0  0  0
 11 12  1  0  0  0  0
 13 14  2  0  0  0  0
 13 18  1  0  0  0  0
 14 15  1  0  0  0  0
 14 27  1  0  0  0  0
 15 16  2  0  0  0  0
 15 28  1  0  0  0  0
 16 17  1  0  0  0  0
 16 21  1  0  0  0  0
 17 18  2  0  0  0  0
 17 19  1  0  0  0  0
 18 29  1  0  0  0  0
 19 20  1  0  0  0  0
 20 21  1  0  0  0  0
 20 30  1  0  0  0  0
 20 31  1  0  0  0  0
M  END
$$$$
