
 OpenBabel09162610133D

 34 37  0  0  1  0  0  0  0  0999 V2000
   -1.3378   -1.9028    1.5591 C   0  0  0  0  0  0  0  0  0  0  0  0
   -0.8559   -1.2646    0.2815 C   0  0  0  0  0  0  0  0  0  0  0  0
   -1.8234   -0.6765   -0.5615 C   0  0  0  0  0  0  0  0  0  0  0  0
   -1.4575   -0.0546   -1.7532 C   0  0  0  0  0  0  0  0  0  0  0  0
   -0.1224   -0.0021   -2.1233 C   0  0  0  0  0  0  0  0  0  0  0  0
    0.8494   -0.5625   -1.2929 C   0  0  0  0  0  0  0  0  0  0  0  0
    0.5072   -1.2021   -0.0841 C   0  0  0  0  0  0  0  0  0  0  0  0
    1.6005   -1.6952    0.7713 C   0  0  0  0  0  0  0  0  0  0  0  0
    1.5560   -1.5481    2.1069 N   0  0  0  0  0  0  0  0  0  0  0  0
    2.7844   -1.9421    2.5915 O   0  0  0  0  0  0  0  0  0  0  0  0
    3.5838   -2.3320    1.5650 C   0  0  0  0  0  0  0  0  0  0  0  0
    4.9222   -2.7196    1.6599 C   0  0  0  0  0  0  0  0  0  0  0  0
    5.7516   -2.7371    3.1593 Cl  0  0  0  0  0  0  0  0  0  0  0  0
    5.5231   -3.0547    0.4542 C   0  0  0  0  0  0  0  0  0  0  0  0
    4.8264   -3.0473   -0.7426 C   0  0  0  0  0  0  0  0  0  0  0  0
    3.4872   -2.6653   -0.8196 C   0  0  0  0  0  0  0  0  0  0  0  0
    2.8606   -2.2614    0.3796 C   0  0  0  0  0  0  0  0  0  0  0  0
    5.7240   -3.4365   -1.8583 C   0  0  0  0  0  0  0  0  0  0  0  0
    7.0270   -3.7180   -1.1055 C   0  0  1  0  0  0  0  0  0  0  0  0
    8.2800   -2.9944   -1.6639 C   0  0  0  0  0  0  0  0  0  0  0  0
    9.3661   -3.2406   -1.0619 O   0  0  0  0  0  0  0  0  0  0  0  0
    8.1033   -2.2929   -2.7034 O   0  5  0  0  0  0  0  0  0  0  0  0
    6.8418   -3.3990    0.3142 O   0  0  0  0  0  0  0  0  0  0  0  0
   -2.4302   -1.9950    1.5699 H   0  0  0  0  0  0  0  0  0  0  0  0
   -1.0586   -1.2925    2.4225 H   0  0  0  0  0  0  0  0  0  0  0  0
   -0.9346   -2.9146    1.6628 H   0  0  0  0  0  0  0  0  0  0  0  0
   -2.8746   -0.6933   -0.2825 H   0  0  0  0  0  0  0  0  0  0  0  0
   -2.2166    0.3995   -2.3862 H   0  0  0  0  0  0  0  0  0  0  0  0
    0.1735    0.4937   -3.0454 H   0  0  0  0  0  0  0  0  0  0  0  0
    1.8908   -0.4578   -1.5917 H   0  0  0  0  0  0  0  0  0  0  0  0
    2.9723   -2.6486   -1.7744 H   0  0  0  0  0  0  0  0  0  0  0  0
    5.7840   -2.6321   -2.5956 H   0  0  0  0  0  0  0  0  0  0  0  0
    5.3628   -4.3425   -2.3562 H   0  0  0  0  0  0  0  0  0  0  0  0
    7.2449   -4.7937   -1.1499 H   0  0  0  0  0  0  0  0  0  0  0  0
  1  2  1  0  0  0  0
  1 24  1  0  0  0  0
  1 25  1  0  0  0  0
  1 26  1  0  0  0  0
  2  3  2  0  0  0  0
  2  7  1  0  0  0  0
  3  4  1  0  0  0  0
  3 27  1  0  0  0  0
  4  5  2  0  0  0  0
  4 28  1  0  0  0  0
  5  6  1  0  0  0  0
  5 29  1  0  0  0  0
  6  7  2  0  0  0  0
  6 30  1  0  0  0  0
  7  8  1  0  0  0  0
  8  9  2  0  0  0  0
  8 17  1  0  0  0  0
  9 10  1  0  0  0  0
 10 11  1  0  0  0  0
 11 12  2  0  0  0  0
 11 17  1  0  0  0  0
 12 13  1  0  0  0  0
 12 14  1  0  0  0  0
 14 15  2  0  0  0  0
 14 23  1  0  0  0  0
 15 16  1  0  0  0  0
 15 18  1  0  0  0  0
 16 17  2  0  0  0  0
 16 31  1  0  0  0  0
 18 19  1  0  0  0  0
 18 32  1  0  0  0  0
 18 33  1  0  0  0  0
 19 20  1  0  0  0  0
 19 23  1  0  0  0  0
 19 34  1  6  0  0  0
 20 21  2  0  0  0  0
 20 22  1  0  0  0  0
M  CHG  1  22  -1
M  END
$$$$
