
 OpenBabel09162610133D

 27 29  0  0  0  0  0  0  0  0999 V2000
    1.1008    0.0182    0.0371 C   0  0  0  0  0  0  0  0  0  0  0  0
    2.6037    0.0283    0.0655 C   0  0  0  0  0  0  0  0  0  0  0  0
    3.2916    1.1830    0.0385 C   0  0  0  0  0  0  0  0  0  0  0  0
    4.7734    1.1525    0.0456 C   0  0  0  0  0  0  0  0  0  0  0  0
    5.4034    2.2023   -0.0025 O   0  0  0  0  0  0  0  0  0  0  0  0
    5.2936   -0.1202    0.1019 N   0  0  0  0  0  0  0  0  0  0  0  0
    6.6494   -0.3583    0.0571 N   0  0  0  0  0  0  0  0  0  0  0  0
    6.8457   -1.6388    0.0853 C   0  0  0  0  0  0  0  0  0  0  0  0
    8.0896   -2.2448   -0.0043 O   0  0  0  0  0  0  0  0  0  0  0  0
    9.1458   -1.5640   -0.6426 C   0  0  0  0  0  0  0  0  0  0  0  0
   10.4282   -1.7646   -0.1336 C   0  0  0  0  0  0  0  0  0  0  0  0
   11.5161   -1.1983   -0.7981 C   0  0  0  0  0  0  0  0  0  0  0  0
   13.1084   -1.4524   -0.1971 Cl  0  0  0  0  0  0  0  0  0  0  0  0
   11.3324   -0.4453   -1.9573 C   0  0  0  0  0  0  0  0  0  0  0  0
   10.0443   -0.2672   -2.4583 C   0  0  0  0  0  0  0  0  0  0  0  0
    9.8054    0.6377   -3.9027 Cl  0  0  0  0  0  0  0  0  0  0  0  0
    8.9470   -0.8340   -1.8160 C   0  0  0  0  0  0  0  0  0  0  0  0
    5.4377   -2.6639    0.2243 S   0  0  0  0  0  0  0  0  0  0  0  0
    4.4832   -1.2240    0.1461 C   0  0  0  0  0  0  0  0  0  0  0  0
    3.1929   -1.2139    0.1285 N   0  0  0  0  0  0  0  0  0  0  0  0
    0.6793    1.0288    0.0263 H   0  0  0  0  0  0  0  0  0  0  0  0
    0.7097   -0.4990    0.9197 H   0  0  0  0  0  0  0  0  0  0  0  0
    0.7439   -0.5045   -0.8564 H   0  0  0  0  0  0  0  0  0  0  0  0
    2.8251    2.1588   -0.0058 H   0  0  0  0  0  0  0  0  0  0  0  0
   10.5784   -2.3652    0.7589 H   0  0  0  0  0  0  0  0  0  0  0  0
   12.1838   -0.0109   -2.4731 H   0  0  0  0  0  0  0  0  0  0  0  0
    7.9557   -0.7090   -2.2406 H   0  0  0  0  0  0  0  0  0  0  0  0
  1  2  1  0  0  0  0
  1 21  1  0  0  0  0
  1 22  1  0  0  0  0
  1 23  1  0  0  0  0
  2  3  2  0  0  0  0
  2 20  1  0  0  0  0
  3  4  1  0  0  0  0
  3 24  1  0  0  0  0
  4  5  2  0  0  0  0
  4  6  1  0  0  0  0
  6  7  1  0  0  0  0
  6 19  1  0  0  0  0
  7  8  2  0  0  0  0
  8  9  1  0  0  0  0
  8 18  1  0  0  0  0
  9 10  1  0  0  0  0
 10 11  2  0  0  0  0
 10 17  1  0  0  0  0
 11 12  1  0  0  0  0
 11 25  1  0  0  0  0
 12 13  1  0  0  0  0
 12 14  2  0  0  0  0
 14 15  1  0  0  0  0
 14 26  1  0  0  0  0
 15 16  1  0  0  0  0
 15 17  2  0  0  0  0
 17 27  1  0  0  0  0
 18 19  1  0  0  0  0
 19 20  2  0  0  0  0
M  END
$$$$
