
 OpenBabel09162610133D

 28 30  0  0  0  0  0  0  0  0999 V2000
    1.0250   -0.1216   -0.2250 O   0  0  0  0  0  0  0  0  0  0  0  0
    2.4751   -0.1068   -0.2184 S   0  0  0  0  0  0  0  0  0  0  0  0
    3.2058   -0.1760   -1.4698 O   0  0  0  0  0  0  0  0  0  0  0  0
    2.9764    1.3219    0.6088 C   0  0  0  0  0  0  0  0  0  0  0  0
    3.7464    1.2824    1.6970 C   0  0  0  0  0  0  0  0  0  0  0  0
    4.2012    0.0338    2.2945 C   0  0  0  0  0  0  0  0  0  0  0  0
    5.0407    0.0683    3.4207 C   0  0  0  0  0  0  0  0  0  0  0  0
    5.4783   -1.1059    4.0671 C   0  0  0  0  0  0  0  0  0  0  0  0
    6.3559   -1.0446    5.2615 C   0  0  0  0  0  0  0  0  0  0  0  0
    6.2312   -0.0092    6.2109 C   0  0  0  0  0  0  0  0  0  0  0  0
    7.0838    0.0750    7.3168 C   0  0  0  0  0  0  0  0  0  0  0  0
    8.0628   -0.8899    7.5000 C   0  0  0  0  0  0  0  0  0  0  0  0
    8.8830   -0.8082    8.5548 F   0  0  0  0  0  0  0  0  0  0  0  0
    8.2022   -1.9365    6.6009 C   0  0  0  0  0  0  0  0  0  0  0  0
    7.3577   -2.0097    5.4881 C   0  0  0  0  0  0  0  0  0  0  0  0
    5.0508   -2.3295    3.5257 C   0  0  0  0  0  0  0  0  0  0  0  0
    4.2287   -2.3758    2.3956 C   0  0  0  0  0  0  0  0  0  0  0  0
    3.8017   -1.1965    1.7874 C   0  0  0  0  0  0  0  0  0  0  0  0
    2.9705   -1.3452    0.7144 O   0  0  0  0  0  0  0  0  0  0  0  0
    2.6453    2.2571    0.1804 H   0  0  0  0  0  0  0  0  0  0  0  0
    4.0452    2.2121    2.1737 H   0  0  0  0  0  0  0  0  0  0  0  0
    5.3672    1.0357    3.7993 H   0  0  0  0  0  0  0  0  0  0  0  0
    5.4588    0.7499    6.1055 H   0  0  0  0  0  0  0  0  0  0  0  0
    6.9876    0.8860    8.0307 H   0  0  0  0  0  0  0  0  0  0  0  0
    8.9715   -2.6849    6.7629 H   0  0  0  0  0  0  0  0  0  0  0  0
    7.5074   -2.8284    4.7872 H   0  0  0  0  0  0  0  0  0  0  0  0
    5.3413   -3.2722    3.9857 H   0  0  0  0  0  0  0  0  0  0  0  0
    3.9153   -3.3386    1.9976 H   0  0  0  0  0  0  0  0  0  0  0  0
  1  2  2  0  0  0  0
  2  3  2  0  0  0  0
  2  4  1  0  0  0  0
  2 19  1  0  0  0  0
  4  5  2  0  0  0  0
  4 20  1  0  0  0  0
  5  6  1  0  0  0  0
  5 21  1  0  0  0  0
  6  7  1  0  0  0  0
  6 18  2  0  0  0  0
  7  8  2  0  0  0  0
  7 22  1  0  0  0  0
  8  9  1  0  0  0  0
  8 16  1  0  0  0  0
  9 10  2  0  0  0  0
  9 15  1  0  0  0  0
 10 11  1  0  0  0  0
 10 23  1  0  0  0  0
 11 12  2  0  0  0  0
 11 24  1  0  0  0  0
 12 13  1  0  0  0  0
 12 14  1  0  0  0  0
 14 15  2  0  0  0  0
 14 25  1  0  0  0  0
 15 26  1  0  0  0  0
 16 17  2  0  0  0  0
 16 27  1  0  0  0  0
 17 18  1  0  0  0  0
 17 28  1  0  0  0  0
 18 19  1  0  0  0  0
M  END
$$$$
