
 OpenBabel09162610133D

 41 43  0  0  0  0  0  0  0  0999 V2000
    1.0807    0.0934   -0.1140 C   0  0  0  0  0  0  0  0  0  0  0  0
    2.5875    0.0440    0.0260 C   0  0  0  0  0  0  0  0  0  0  0  0
    3.2418   -0.6531   -0.7534 O   0  0  0  0  0  0  0  0  0  0  0  0
    3.1819    0.8052    1.0449 N   0  0  0  0  0  0  0  0  0  0  0  0
    2.4370    1.4830    2.0196 C   0  0  0  0  0  0  0  0  0  0  0  0
    1.7372    0.8524    2.9791 C   0  0  0  0  0  0  0  0  0  0  0  0
    1.7837   -0.8740    3.1785 Cl  0  0  0  0  0  0  0  0  0  0  0  0
    0.9207    1.5816    3.9878 C   0  0  0  0  0  0  0  0  0  0  0  0
    0.1792    1.0047    4.7761 O   0  0  0  0  0  0  0  0  0  0  0  0
    1.0336    3.0463    4.0311 C   0  0  0  0  0  0  0  0  0  0  0  0
    0.3797    3.7621    5.0437 C   0  0  0  0  0  0  0  0  0  0  0  0
    0.5033    5.1498    5.1119 C   0  0  0  0  0  0  0  0  0  0  0  0
    1.2775    5.8257    4.1714 C   0  0  0  0  0  0  0  0  0  0  0  0
    1.9163    5.1146    3.1530 C   0  0  0  0  0  0  0  0  0  0  0  0
    1.7900    3.7199    3.0808 C   0  0  0  0  0  0  0  0  0  0  0  0
    2.4415    2.9823    1.9831 C   0  0  0  0  0  0  0  0  0  0  0  0
    2.9514    3.6098    1.0638 O   0  0  0  0  0  0  0  0  0  0  0  0
    4.6702    0.8402    1.0755 C   0  0  0  0  0  0  0  0  0  0  0  0
    5.2745    1.1732    2.4555 C   0  0  0  0  0  0  0  0  0  0  0  0
    6.8003    1.1686    2.4281 C   0  0  0  0  0  0  0  0  0  0  0  0
    7.3284    2.1277    1.3692 C   0  0  0  0  0  0  0  0  0  0  0  0
    6.7952    1.7605   -0.0105 C   0  0  0  0  0  0  0  0  0  0  0  0
    5.2670    1.7254   -0.0393 C   0  0  0  0  0  0  0  0  0  0  0  0
    0.8151   -0.1371   -1.1505 H   0  0  0  0  0  0  0  0  0  0  0  0
    0.6788    1.0834    0.1102 H   0  0  0  0  0  0  0  0  0  0  0  0
    0.6205   -0.6598    0.5299 H   0  0  0  0  0  0  0  0  0  0  0  0
   -0.2270    3.2418    5.7842 H   0  0  0  0  0  0  0  0  0  0  0  0
   -0.0031    5.7026    5.9007 H   0  0  0  0  0  0  0  0  0  0  0  0
    1.3799    6.9078    4.2268 H   0  0  0  0  0  0  0  0  0  0  0  0
    2.5114    5.6551    2.4180 H   0  0  0  0  0  0  0  0  0  0  0  0
    4.9917   -0.1885    0.8541 H   0  0  0  0  0  0  0  0  0  0  0  0
    4.9295    0.4421    3.1969 H   0  0  0  0  0  0  0  0  0  0  0  0
    4.9415    2.1582    2.7993 H   0  0  0  0  0  0  0  0  0  0  0  0
    7.1644    0.1543    2.2232 H   0  0  0  0  0  0  0  0  0  0  0  0
    7.1859    1.4546    3.4129 H   0  0  0  0  0  0  0  0  0  0  0  0
    8.4235    2.1064    1.3622 H   0  0  0  0  0  0  0  0  0  0  0  0
    7.0287    3.1533    1.6195 H   0  0  0  0  0  0  0  0  0  0  0  0
    7.1898    0.7806   -0.3057 H   0  0  0  0  0  0  0  0  0  0  0  0
    7.1584    2.4850   -0.7485 H   0  0  0  0  0  0  0  0  0  0  0  0
    4.9423    1.3688   -1.0241 H   0  0  0  0  0  0  0  0  0  0  0  0
    4.9008    2.7512    0.0469 H   0  0  0  0  0  0  0  0  0  0  0  0
  1  2  1  0  0  0  0
  1 24  1  0  0  0  0
  1 25  1  0  0  0  0
  1 26  1  0  0  0  0
  2  3  2  0  0  0  0
  2  4  1  0  0  0  0
  4  5  1  0  0  0  0
  4 18  1  0  0  0  0
  5  6  2  0  0  0  0
  5 16  1  0  0  0  0
  6  7  1  0  0  0  0
  6  8  1  0  0  0  0
  8  9  2  0  0  0  0
  8 10  1  0  0  0  0
 10 11  2  0  0  0  0
 10 15  1  0  0  0  0
 11 12  1  0  0  0  0
 11 27  1  0  0  0  0
 12 13  2  0  0  0  0
 12 28  1  0  0  0  0
 13 14  1  0  0  0  0
 13 29  1  0  0  0  0
 14 15  2  0  0  0  0
 14 30  1  0  0  0  0
 15 16  1  0  0  0  0
 16 17  2  0  0  0  0
 18 19  1  0  0  0  0
 18 23  1  0  0  0  0
 18 31  1  0  0  0  0
 19 20  1  0  0  0  0
 19 32  1  0  0  0  0
 19 33  1  0  0  0  0
 20 21  1  0  0  0  0
 20 34  1  0  0  0  0
 20 35  1  0  0  0  0
 21 22  1  0  0  0  0
 21 36  1  0  0  0  0
 21 37  1  0  0  0  0
 22 23  1  0  0  0  0
 22 38  1  0  0  0  0
 22 39  1  0  0  0  0
 23 40  1  0  0  0  0
 23 41  1  0  0  0  0
M  END
$$$$
