
 OpenBabel09162610133D

 36 39  0  0  1  0  0  0  0  0999 V2000
    1.0338    0.0543    0.2789 C   0  0  0  0  0  0  0  0  0  0  0  0
    2.5600   -0.0050    0.2113 C   0  0  1  0  0  0  0  0  0  0  0  0
    3.1747    1.1333    1.0588 C   0  0  0  0  0  0  0  0  0  0  0  0
    3.9849    0.3878    2.0613 C   0  0  0  0  0  0  0  0  0  0  0  0
    4.7292    0.9373    3.0960 C   0  0  0  0  0  0  0  0  0  0  0  0
    5.4596    0.0767    3.9202 C   0  0  0  0  0  0  0  0  0  0  0  0
    5.4405   -1.3068    3.6871 C   0  0  0  0  0  0  0  0  0  0  0  0
    4.6861   -1.8426    2.6386 C   0  0  0  0  0  0  0  0  0  0  0  0
    3.9538   -0.9896    1.8275 C   0  0  0  0  0  0  0  0  0  0  0  0
    3.1360   -1.2931    0.7088 N   0  0  0  0  0  0  0  0  0  0  0  0
    2.9471   -2.5886    0.2217 C   0  0  0  0  0  0  0  0  0  0  0  0
    3.3852   -3.6100    0.7541 O   0  0  0  0  0  0  0  0  0  0  0  0
    2.1332   -2.8242   -1.0023 C   0  0  0  0  0  0  0  0  0  0  0  0
    1.2217   -3.9111   -0.9900 C   0  0  0  0  0  0  0  0  0  0  0  0
    0.4082   -4.1843   -2.0959 C   0  0  0  0  0  0  0  0  0  0  0  0
    0.5185   -3.3501   -3.1856 C   0  0  0  0  0  0  0  0  0  0  0  0
    1.4272   -2.3193   -3.2158 C   0  0  0  0  0  0  0  0  0  0  0  0
    2.2773   -2.0579   -2.1619 C   0  0  0  0  0  0  0  0  0  0  0  0
    1.3777   -1.6167   -4.3792 O   0  0  0  0  0  0  0  0  0  0  0  0
    0.3234   -2.3155   -5.0748 C   0  0  0  0  0  0  0  0  0  0  0  0
   -0.2097   -3.4319   -4.3308 O   0  0  0  0  0  0  0  0  0  0  0  0
    0.6787    0.9992   -0.1491 H   0  0  0  0  0  0  0  0  0  0  0  0
    0.6771   -0.0074    1.3113 H   0  0  0  0  0  0  0  0  0  0  0  0
    0.5562   -0.7525   -0.2807 H   0  0  0  0  0  0  0  0  0  0  0  0
    2.8806    0.1463   -0.8214 H   0  0  0  0  0  0  0  0  0  0  0  0
    2.4192    1.7572    1.5464 H   0  0  0  0  0  0  0  0  0  0  0  0
    3.8217    1.7661    0.4427 H   0  0  0  0  0  0  0  0  0  0  0  0
    4.7490    2.0096    3.2658 H   0  0  0  0  0  0  0  0  0  0  0  0
    6.0513    0.4841    4.7378 H   0  0  0  0  0  0  0  0  0  0  0  0
    6.0174   -1.9642    4.3323 H   0  0  0  0  0  0  0  0  0  0  0  0
    4.6959   -2.9147    2.4896 H   0  0  0  0  0  0  0  0  0  0  0  0
    1.1556   -4.5505   -0.1089 H   0  0  0  0  0  0  0  0  0  0  0  0
   -0.2855   -5.0174   -2.0931 H   0  0  0  0  0  0  0  0  0  0  0  0
    3.0271   -1.2866   -2.2574 H   0  0  0  0  0  0  0  0  0  0  0  0
    0.7219   -2.6844   -6.0255 H   0  0  0  0  0  0  0  0  0  0  0  0
   -0.4901   -1.6114   -5.2820 H   0  0  0  0  0  0  0  0  0  0  0  0
  1  2  1  0  0  0  0
  1 22  1  0  0  0  0
  1 23  1  0  0  0  0
  1 24  1  0  0  0  0
  2  3  1  0  0  0  0
  2 10  1  0  0  0  0
  2 25  1  6  0  0  0
  3  4  1  0  0  0  0
  3 26  1  0  0  0  0
  3 27  1  0  0  0  0
  4  5  2  0  0  0  0
  4  9  1  0  0  0  0
  5  6  1  0  0  0  0
  5 28  1  0  0  0  0
  6  7  2  0  0  0  0
  6 29  1  0  0  0  0
  7  8  1  0  0  0  0
  7 30  1  0  0  0  0
  8  9  2  0  0  0  0
  8 31  1  0  0  0  0
  9 10  1  0  0  0  0
 10 11  1  0  0  0  0
 11 12  2  0  0  0  0
 11 13  1  0  0  0  0
 13 14  2  0  0  0  0
 13 18  1  0  0  0  0
 14 15  1  0  0  0  0
 14 32  1  0  0  0  0
 15 16  2  0  0  0  0
 15 33  1  0  0  0  0
 16 17  1  0  0  0  0
 16 21  1  0  0  0  0
 17 18  2  0  0  0  0
 17 19  1  0  0  0  0
 18 34  1  0  0  0  0
 19 20  1  0  0  0  0
 20 21  1  0  0  0  0
 20 35  1  0  0  0  0
 20 36  1  0  0  0  0
M  END
$$$$
