
 OpenBabel09162610133D

 34 36  0  0  0  0  0  0  0  0999 V2000
    2.6680    1.1252    0.0819 O   0  0  0  0  0  0  0  0  0  0  0  0
    3.1066    0.1043    0.6129 C   0  0  0  0  0  0  0  0  0  0  0  0
    2.3611   -0.4363    1.7844 C   0  0  0  0  0  0  0  0  0  0  0  0
    1.8777    0.3847    2.7281 C   0  0  0  0  0  0  0  0  0  0  0  0
    1.4641   -0.2080    4.0009 C   0  0  0  0  0  0  0  0  0  0  0  0
    2.3306   -0.0998    5.0956 C   0  0  0  0  0  0  0  0  0  0  0  0
    2.0596   -0.7862    6.2795 C   0  0  0  0  0  0  0  0  0  0  0  0
    0.9176   -1.5782    6.3767 C   0  0  0  0  0  0  0  0  0  0  0  0
    0.0384   -1.6721    5.2972 C   0  0  0  0  0  0  0  0  0  0  0  0
    0.3086   -0.9869    4.1102 C   0  0  0  0  0  0  0  0  0  0  0  0
    4.2386   -0.6244    0.2106 N   0  0  0  0  0  0  0  0  0  0  0  0
    4.6437   -1.7712    0.9054 C   0  0  0  0  0  0  0  0  0  0  0  0
    4.6137   -1.9372    2.1186 O   0  0  0  0  0  0  0  0  0  0  0  0
    5.3077   -2.8585    0.0667 C   0  0  0  0  0  0  0  0  0  0  0  0
    5.1500   -4.0424    0.3191 O   0  0  0  0  0  0  0  0  0  0  0  0
    6.1157   -2.4046   -0.9342 N   0  0  0  0  0  0  0  0  0  0  0  0
    6.0892   -1.0771   -1.3569 C   0  0  0  0  0  0  0  0  0  0  0  0
    7.0356   -0.6798   -2.3035 C   0  0  0  0  0  0  0  0  0  0  0  0
    7.0132    0.6188   -2.7948 C   0  0  0  0  0  0  0  0  0  0  0  0
    6.0158    1.4933   -2.3760 C   0  0  0  0  0  0  0  0  0  0  0  0
    5.0622    1.0882   -1.4318 C   0  0  0  0  0  0  0  0  0  0  0  0
    5.0961   -0.1965   -0.8726 C   0  0  0  0  0  0  0  0  0  0  0  0
    2.3169   -1.5115    1.9191 H   0  0  0  0  0  0  0  0  0  0  0  0
    1.9343    1.4663    2.6574 H   0  0  0  0  0  0  0  0  0  0  0  0
    3.2468    0.4816    5.0174 H   0  0  0  0  0  0  0  0  0  0  0  0
    2.7540   -0.7231    7.1131 H   0  0  0  0  0  0  0  0  0  0  0  0
    0.7200   -2.1340    7.2896 H   0  0  0  0  0  0  0  0  0  0  0  0
   -0.8462   -2.2989    5.3721 H   0  0  0  0  0  0  0  0  0  0  0  0
   -0.3682   -1.0920    3.2661 H   0  0  0  0  0  0  0  0  0  0  0  0
    6.6827   -3.0964   -1.4067 H   0  0  0  0  0  0  0  0  0  0  0  0
    7.8076   -1.3645   -2.6452 H   0  0  0  0  0  0  0  0  0  0  0  0
    7.7694    0.9504   -3.5030 H   0  0  0  0  0  0  0  0  0  0  0  0
    5.9857    2.5085   -2.7672 H   0  0  0  0  0  0  0  0  0  0  0  0
    4.3355    1.8371   -1.1313 H   0  0  0  0  0  0  0  0  0  0  0  0
  1  2  2  0  0  0  0
  2  3  1  0  0  0  0
  2 11  1  0  0  0  0
  3  4  2  0  0  0  0
  3 23  1  0  0  0  0
  4  5  1  0  0  0  0
  4 24  1  0  0  0  0
  5  6  2  0  0  0  0
  5 10  1  0  0  0  0
  6  7  1  0  0  0  0
  6 25  1  0  0  0  0
  7  8  2  0  0  0  0
  7 26  1  0  0  0  0
  8  9  1  0  0  0  0
  8 27  1  0  0  0  0
  9 10  2  0  0  0  0
  9 28  1  0  0  0  0
 10 29  1  0  0  0  0
 11 12  1  0  0  0  0
 11 22  1  0  0  0  0
 12 13  2  0  0  0  0
 12 14  1  0  0  0  0
 14 15  2  0  0  0  0
 14 16  1  0  0  0  0
 16 17  1  0  0  0  0
 16 30  1  0  0  0  0
 17 18  1  0  0  0  0
 17 22  2  0  0  0  0
 18 19  2  0  0  0  0
 18 31  1  0  0  0  0
 19 20  1  0  0  0  0
 19 32  1  0  0  0  0
 20 21  2  0  0  0  0
 20 33  1  0  0  0  0
 21 22  1  0  0  0  0
 21 34  1  0  0  0  0
M  END
$$$$
