
 OpenBabel09162610133D

 37 39  0  0  0  0  0  0  0  0999 V2000
    0.8175   -0.5776    0.3850 C   0  0  0  0  0  0  0  0  0  0  0  0
    2.3180   -0.6744    0.5760 C   0  0  0  0  0  0  0  0  0  0  0  0
    2.8851   -1.4014   -0.5163 O   0  0  0  0  0  0  0  0  0  0  0  0
    4.2449   -1.5857   -0.4858 C   0  0  0  0  0  0  0  0  0  0  0  0
    4.7743   -2.2689   -1.5867 C   0  0  0  0  0  0  0  0  0  0  0  0
    6.1353   -2.4806   -1.5989 C   0  0  0  0  0  0  0  0  0  0  0  0
    6.9585   -2.0411   -0.5723 C   0  0  0  0  0  0  0  0  0  0  0  0
    6.4762   -1.3640    0.5321 C   0  0  0  0  0  0  0  0  0  0  0  0
    5.0930   -1.1417    0.5573 C   0  0  0  0  0  0  0  0  0  0  0  0
    7.4437   -0.9503    1.5595 C   0  0  0  0  0  0  0  0  0  0  0  0
    7.0262   -0.2194    2.8035 C   0  0  0  0  0  0  0  0  0  0  0  0
    8.7448   -1.2441    1.3540 C   0  0  0  0  0  0  0  0  0  0  0  0
    9.3516   -1.9655    0.1477 C   0  0  0  0  0  0  0  0  0  0  0  0
   10.3359   -0.9977   -0.5294 C   0  0  0  0  0  0  0  0  0  0  0  0
   10.1026   -3.2042    0.6613 C   0  0  0  0  0  0  0  0  0  0  0  0
    8.3019   -2.3589   -0.7923 N   0  0  0  0  0  0  0  0  0  0  0  0
    8.4470   -3.0305   -1.9947 C   0  0  0  0  0  0  0  0  0  0  0  0
    9.4481   -3.4546   -2.5300 O   0  0  0  0  0  0  0  0  0  0  0  0
    7.0040   -3.1408   -2.5745 C   0  0  0  0  0  0  0  0  0  0  0  0
    6.6675   -3.6588   -3.6130 O   0  0  0  0  0  0  0  0  0  0  0  0
    0.3652   -0.0064    1.2013 H   0  0  0  0  0  0  0  0  0  0  0  0
    0.3671   -1.5749    0.3615 H   0  0  0  0  0  0  0  0  0  0  0  0
    0.5774   -0.0897   -0.5646 H   0  0  0  0  0  0  0  0  0  0  0  0
    2.5150   -1.1958    1.5202 H   0  0  0  0  0  0  0  0  0  0  0  0
    2.7362    0.3388    0.6089 H   0  0  0  0  0  0  0  0  0  0  0  0
    4.1429   -2.6163   -2.3978 H   0  0  0  0  0  0  0  0  0  0  0  0
    4.6660   -0.6153    1.4015 H   0  0  0  0  0  0  0  0  0  0  0  0
    5.9558   -0.0230    2.8715 H   0  0  0  0  0  0  0  0  0  0  0  0
    7.5294    0.7525    2.8560 H   0  0  0  0  0  0  0  0  0  0  0  0
    7.2989   -0.7995    3.6919 H   0  0  0  0  0  0  0  0  0  0  0  0
    9.4650   -0.9373    2.1135 H   0  0  0  0  0  0  0  0  0  0  0  0
   11.1021   -0.6469    0.1717 H   0  0  0  0  0  0  0  0  0  0  0  0
    9.8148   -0.1161   -0.9225 H   0  0  0  0  0  0  0  0  0  0  0  0
   10.8528   -1.4710   -1.3710 H   0  0  0  0  0  0  0  0  0  0  0  0
   10.8513   -2.9370    1.4163 H   0  0  0  0  0  0  0  0  0  0  0  0
   10.6265   -3.7232   -0.1484 H   0  0  0  0  0  0  0  0  0  0  0  0
    9.4120   -3.9249    1.1165 H   0  0  0  0  0  0  0  0  0  0  0  0
  1  2  1  0  0  0  0
  1 21  1  0  0  0  0
  1 22  1  0  0  0  0
  1 23  1  0  0  0  0
  2  3  1  0  0  0  0
  2 24  1  0  0  0  0
  2 25  1  0  0  0  0
  3  4  1  0  0  0  0
  4  5  2  0  0  0  0
  4  9  1  0  0  0  0
  5  6  1  0  0  0  0
  5 26  1  0  0  0  0
  6  7  2  0  0  0  0
  6 19  1  0  0  0  0
  7  8  1  0  0  0  0
  7 16  1  0  0  0  0
  8  9  2  0  0  0  0
  8 10  1  0  0  0  0
  9 27  1  0  0  0  0
 10 11  1  0  0  0  0
 10 12  2  0  0  0  0
 11 28  1  0  0  0  0
 11 29  1  0  0  0  0
 11 30  1  0  0  0  0
 12 13  1  0  0  0  0
 12 31  1  0  0  0  0
 13 14  1  0  0  0  0
 13 15  1  0  0  0  0
 13 16  1  0  0  0  0
 14 32  1  0  0  0  0
 14 33  1  0  0  0  0
 14 34  1  0  0  0  0
 15 35  1  0  0  0  0
 15 36  1  0  0  0  0
 15 37  1  0  0  0  0
 16 17  1  0  0  0  0
 17 18  2  0  0  0  0
 17 19  1  0  0  0  0
 19 20  2  0  0  0  0
M  END
$$$$
