
 OpenBabel09162610133D

 40 43  0  0  0  0  0  0  0  0999 V2000
   -1.7110   -2.9581    0.6683 C   0  0  0  0  0  0  0  0  0  0  0  0
   -0.9653   -1.7943    1.2620 C   0  0  0  0  0  0  0  0  0  0  0  0
   -1.6235   -0.9860    2.2064 C   0  0  0  0  0  0  0  0  0  0  0  0
   -1.0083    0.1506    2.7322 C   0  0  0  0  0  0  0  0  0  0  0  0
    0.2514    0.5289    2.2817 C   0  0  0  0  0  0  0  0  0  0  0  0
    0.9074   -0.2461    1.3255 C   0  0  0  0  0  0  0  0  0  0  0  0
    0.3385   -1.4414    0.8559 C   0  0  0  0  0  0  0  0  0  0  0  0
    1.0990   -2.2784   -0.1186 C   0  0  0  0  0  0  0  0  0  0  0  0
    0.5423   -2.5766   -1.1750 O   0  0  0  0  0  0  0  0  0  0  0  0
    2.4070   -2.7072    0.1821 N   0  0  0  0  0  0  0  0  0  0  0  0
    3.1810   -2.2598    1.3650 C   0  0  0  0  0  0  0  0  0  0  0  0
    4.2408   -3.2501    1.8723 C   0  0  0  0  0  0  0  0  0  0  0  0
    5.0214   -3.7691    0.7289 C   0  0  0  0  0  0  0  0  0  0  0  0
    4.4711   -3.8145   -0.5328 C   0  0  0  0  0  0  0  0  0  0  0  0
    5.3997   -4.3687   -1.3723 N   0  0  0  0  0  0  0  0  0  0  0  0
    6.5607   -4.6388   -0.6772 C   0  0  0  0  0  0  0  0  0  0  0  0
    7.7735   -5.1840   -1.1187 C   0  0  0  0  0  0  0  0  0  0  0  0
    8.8010   -5.3256   -0.1773 C   0  0  0  0  0  0  0  0  0  0  0  0
    8.6207   -4.9426    1.1486 C   0  0  0  0  0  0  0  0  0  0  0  0
    7.4006   -4.4125    1.5778 C   0  0  0  0  0  0  0  0  0  0  0  0
    6.3512   -4.2596    0.6510 C   0  0  0  0  0  0  0  0  0  0  0  0
    3.1264   -3.3298   -0.9452 C   0  0  0  0  0  0  0  0  0  0  0  0
   -2.5845   -3.2202    1.2765 H   0  0  0  0  0  0  0  0  0  0  0  0
   -1.0824   -3.8504    0.6111 H   0  0  0  0  0  0  0  0  0  0  0  0
   -2.0721   -2.6948   -0.3321 H   0  0  0  0  0  0  0  0  0  0  0  0
   -2.6309   -1.2361    2.5354 H   0  0  0  0  0  0  0  0  0  0  0  0
   -1.5256    0.7544    3.4737 H   0  0  0  0  0  0  0  0  0  0  0  0
    0.7207    1.4303    2.6672 H   0  0  0  0  0  0  0  0  0  0  0  0
    1.8704    0.0887    0.9509 H   0  0  0  0  0  0  0  0  0  0  0  0
    2.5096   -2.0414    2.1978 H   0  0  0  0  0  0  0  0  0  0  0  0
    3.6763   -1.3247    1.0688 H   0  0  0  0  0  0  0  0  0  0  0  0
    3.7476   -4.0895    2.3766 H   0  0  0  0  0  0  0  0  0  0  0  0
    4.8883   -2.7536    2.6029 H   0  0  0  0  0  0  0  0  0  0  0  0
    5.2708   -4.5426   -2.3599 H   0  0  0  0  0  0  0  0  0  0  0  0
    7.9211   -5.4824   -2.1497 H   0  0  0  0  0  0  0  0  0  0  0  0
    9.7572   -5.7405   -0.4902 H   0  0  0  0  0  0  0  0  0  0  0  0
    9.4364   -5.0544    1.8605 H   0  0  0  0  0  0  0  0  0  0  0  0
    7.2682   -4.1147    2.6133 H   0  0  0  0  0  0  0  0  0  0  0  0
    2.5235   -4.1594   -1.3316 H   0  0  0  0  0  0  0  0  0  0  0  0
    3.2235   -2.5766   -1.7365 H   0  0  0  0  0  0  0  0  0  0  0  0
  1  2  1  0  0  0  0
  1 23  1  0  0  0  0
  1 24  1  0  0  0  0
  1 25  1  0  0  0  0
  2  3  2  0  0  0  0
  2  7  1  0  0  0  0
  3  4  1  0  0  0  0
  3 26  1  0  0  0  0
  4  5  2  0  0  0  0
  4 27  1  0  0  0  0
  5  6  1  0  0  0  0
  5 28  1  0  0  0  0
  6  7  2  0  0  0  0
  6 29  1  0  0  0  0
  7  8  1  0  0  0  0
  8  9  2  0  0  0  0
  8 10  1  0  0  0  0
 10 11  1  0  0  0  0
 10 22  1  0  0  0  0
 11 12  1  0  0  0  0
 11 30  1  0  0  0  0
 11 31  1  0  0  0  0
 12 13  1  0  0  0  0
 12 32  1  0  0  0  0
 12 33  1  0  0  0  0
 13 14  2  0  0  0  0
 13 21  1  0  0  0  0
 14 15  1  0  0  0  0
 14 22  1  0  0  0  0
 15 16  1  0  0  0  0
 15 34  1  0  0  0  0
 16 17  1  0  0  0  0
 16 21  2  0  0  0  0
 17 18  2  0  0  0  0
 17 35  1  0  0  0  0
 18 19  1  0  0  0  0
 18 36  1  0  0  0  0
 19 20  2  0  0  0  0
 19 37  1  0  0  0  0
 20 21  1  0  0  0  0
 20 38  1  0  0  0  0
 22 39  1  0  0  0  0
 22 40  1  0  0  0  0
M  END
$$$$
