
 OpenBabel09162610133D

 35 36  0  0  0  0  0  0  0  0999 V2000
    1.6397   -1.2560    1.4306 C   0  0  0  0  0  0  0  0  0  0  0  0
    2.2780   -0.2175    0.5253 C   0  0  0  0  0  0  0  0  0  0  0  0
    2.9611    0.7940    1.2752 O   0  0  0  0  0  0  0  0  0  0  0  0
    4.1480    0.4373    1.8314 C   0  0  0  0  0  0  0  0  0  0  0  0
    4.6405   -0.6800    1.7670 O   0  0  0  0  0  0  0  0  0  0  0  0
    4.6525    1.4905    2.5080 N   0  0  0  0  0  0  0  0  0  0  0  0
    5.9134    1.7258    2.4973 C   0  0  0  0  0  0  0  0  0  0  0  0
    6.3913    2.9599    3.7537 S   0  0  0  0  0  0  0  0  0  0  0  0
    8.0785    2.6235    3.5056 C   0  0  0  0  0  0  0  0  0  0  0  0
    9.1514    3.2209    4.3417 C   0  0  0  0  0  0  0  0  0  0  0  0
    8.2452    1.7724    2.4852 C   0  0  0  0  0  0  0  0  0  0  0  0
    7.0916    1.2866    1.8641 N   0  0  0  0  0  0  0  0  0  0  0  0
    7.1781    0.5779    0.6258 C   0  0  0  0  0  0  0  0  0  0  0  0
    6.2325    0.7395   -0.3986 C   0  0  0  0  0  0  0  0  0  0  0  0
    6.3363    0.0397   -1.6072 C   0  0  0  0  0  0  0  0  0  0  0  0
    7.4313   -0.7854   -1.8513 C   0  0  0  0  0  0  0  0  0  0  0  0
    8.4286   -0.9265   -0.8832 C   0  0  0  0  0  0  0  0  0  0  0  0
    9.6761   -1.7326   -1.1460 C   0  0  0  0  0  0  0  0  0  0  0  0
    9.7438   -2.2447   -2.4060 F   0  0  0  0  0  0  0  0  0  0  0  0
   10.8070   -0.9864   -0.9894 F   0  0  0  0  0  0  0  0  0  0  0  0
    9.8101   -2.7899   -0.3003 F   0  0  0  0  0  0  0  0  0  0  0  0
    8.2714   -0.2716    0.3532 C   0  0  0  0  0  0  0  0  0  0  0  0
    1.0382   -1.9577    0.8459 H   0  0  0  0  0  0  0  0  0  0  0  0
    1.0017   -0.7778    2.1804 H   0  0  0  0  0  0  0  0  0  0  0  0
    2.3956   -1.8294    1.9752 H   0  0  0  0  0  0  0  0  0  0  0  0
    1.4916    0.2925   -0.0418 H   0  0  0  0  0  0  0  0  0  0  0  0
    2.9561   -0.6737   -0.2042 H   0  0  0  0  0  0  0  0  0  0  0  0
    8.7447    3.8109    5.1693 H   0  0  0  0  0  0  0  0  0  0  0  0
    9.7896    3.8766    3.7416 H   0  0  0  0  0  0  0  0  0  0  0  0
    9.7751    2.4330    4.7784 H   0  0  0  0  0  0  0  0  0  0  0  0
    9.2176    1.4679    2.1223 H   0  0  0  0  0  0  0  0  0  0  0  0
    5.3985    1.4272   -0.2838 H   0  0  0  0  0  0  0  0  0  0  0  0
    5.5667    0.1559   -2.3674 H   0  0  0  0  0  0  0  0  0  0  0  0
    7.5103   -1.3038   -2.8059 H   0  0  0  0  0  0  0  0  0  0  0  0
    9.0323   -0.4437    1.1132 H   0  0  0  0  0  0  0  0  0  0  0  0
  1  2  1  0  0  0  0
  1 23  1  0  0  0  0
  1 24  1  0  0  0  0
  1 25  1  0  0  0  0
  2  3  1  0  0  0  0
  2 26  1  0  0  0  0
  2 27  1  0  0  0  0
  3  4  1  0  0  0  0
  4  5  2  0  0  0  0
  4  6  1  0  0  0  0
  6  7  2  0  0  0  0
  7  8  1  0  0  0  0
  7 12  1  0  0  0  0
  8  9  1  0  0  0  0
  9 10  1  0  0  0  0
  9 11  2  0  0  0  0
 10 28  1  0  0  0  0
 10 29  1  0  0  0  0
 10 30  1  0  0  0  0
 11 12  1  0  0  0  0
 11 31  1  0  0  0  0
 12 13  1  0  0  0  0
 13 14  2  0  0  0  0
 13 22  1  0  0  0  0
 14 15  1  0  0  0  0
 14 32  1  0  0  0  0
 15 16  2  0  0  0  0
 15 33  1  0  0  0  0
 16 17  1  0  0  0  0
 16 34  1  0  0  0  0
 17 18  1  0  0  0  0
 17 22  2  0  0  0  0
 18 19  1  0  0  0  0
 18 20  1  0  0  0  0
 18 21  1  0  0  0  0
 22 35  1  0  0  0  0
M  END
$$$$
