
 OpenBabel09162610133D

 24 25  0  0  0  0  0  0  0  0999 V2000
    0.9146    0.1344    0.1291 O   0  0  0  0  0  0  0  0  0  0  0  0
    2.1311    0.0340    0.1004 C   0  0  0  0  0  0  0  0  0  0  0  0
    2.9827    0.4610   -0.9052 O   0  0  0  0  0  0  0  0  0  0  0  0
    2.4835    0.9501   -2.1256 C   0  0  0  0  0  0  0  0  0  0  0  0
    1.3271    0.4805   -2.7399 C   0  0  0  0  0  0  0  0  0  0  0  0
    0.9838    0.9730   -3.9973 C   0  0  0  0  0  0  0  0  0  0  0  0
    1.8190    1.9045   -4.5973 C   0  0  0  0  0  0  0  0  0  0  0  0
    2.9526    2.3722   -4.0264 N   0  0  0  0  0  0  0  0  0  0  0  0
    3.2598    1.8806   -2.8042 C   0  0  0  0  0  0  0  0  0  0  0  0
    2.9120   -0.6286    1.1860 C   0  0  0  0  0  0  0  0  0  0  0  0
    2.1966   -1.2299    2.2322 C   0  0  0  0  0  0  0  0  0  0  0  0
    2.8675   -1.9075    3.2542 C   0  0  0  0  0  0  0  0  0  0  0  0
    4.2612   -1.9911    3.2427 C   0  0  0  0  0  0  0  0  0  0  0  0
    5.0251   -2.8688    4.5181 Cl  0  0  0  0  0  0  0  0  0  0  0  0
    4.9833   -1.3788    2.2101 C   0  0  0  0  0  0  0  0  0  0  0  0
    6.7094   -1.4356    2.1355 Cl  0  0  0  0  0  0  0  0  0  0  0  0
    4.3115   -0.6985    1.1858 C   0  0  0  0  0  0  0  0  0  0  0  0
    0.6923   -0.2620   -2.2700 H   0  0  0  0  0  0  0  0  0  0  0  0
    0.0874    0.6311   -4.5030 H   0  0  0  0  0  0  0  0  0  0  0  0
    1.5952    2.3052   -5.5818 H   0  0  0  0  0  0  0  0  0  0  0  0
    4.1835    2.2605   -2.3768 H   0  0  0  0  0  0  0  0  0  0  0  0
    1.1079   -1.1817    2.2535 H   0  0  0  0  0  0  0  0  0  0  0  0
    2.2940   -2.3755    4.0519 H   0  0  0  0  0  0  0  0  0  0  0  0
    4.8928   -0.2346    0.3923 H   0  0  0  0  0  0  0  0  0  0  0  0
  1  2  2  0  0  0  0
  2  3  1  0  0  0  0
  2 10  1  0  0  0  0
  3  4  1  0  0  0  0
  4  5  2  0  0  0  0
  4  9  1  0  0  0  0
  5  6  1  0  0  0  0
  5 18  1  0  0  0  0
  6  7  2  0  0  0  0
  6 19  1  0  0  0  0
  7  8  1  0  0  0  0
  7 20  1  0  0  0  0
  8  9  2  0  0  0  0
  9 21  1  0  0  0  0
 10 11  2  0  0  0  0
 10 17  1  0  0  0  0
 11 12  1  0  0  0  0
 11 22  1  0  0  0  0
 12 13  2  0  0  0  0
 12 23  1  0  0  0  0
 13 14  1  0  0  0  0
 13 15  1  0  0  0  0
 15 16  1  0  0  0  0
 15 17  2  0  0  0  0
 17 24  1  0  0  0  0
M  END
$$$$
