
 OpenBabel09162610133D

 32 35  0  0  0  0  0  0  0  0999 V2000
    1.0839    0.4826    0.0356 C   0  0  0  0  0  0  0  0  0  0  0  0
    2.5074    0.0827   -0.0175 C   0  0  0  0  0  0  0  0  0  0  0  0
    3.4926    0.9893    0.1098 N   0  0  0  0  0  0  0  0  0  0  0  0
    4.6707    0.2887   -0.0453 N   0  0  0  0  0  0  0  0  0  0  0  0
    5.9096    0.9757   -0.0559 C   0  0  0  0  0  0  0  0  0  0  0  0
    6.0091    2.2137    0.5988 C   0  0  0  0  0  0  0  0  0  0  0  0
    7.2206    2.9077    0.6070 C   0  0  0  0  0  0  0  0  0  0  0  0
    8.3230    2.3924   -0.0717 C   0  0  0  0  0  0  0  0  0  0  0  0
    8.2204    1.1764   -0.7464 C   0  0  0  0  0  0  0  0  0  0  0  0
    7.0210    0.4585   -0.7286 C   0  0  0  0  0  0  0  0  0  0  0  0
    4.4063   -1.0424   -0.1717 C   0  0  0  0  0  0  0  0  0  0  0  0
    3.0415   -1.1906   -0.1484 C   0  0  0  0  0  0  0  0  0  0  0  0
    2.7510   -2.5859   -0.1996 C   0  0  0  0  0  0  0  0  0  0  0  0
    1.5409   -3.2448   -0.1677 C   0  0  0  0  0  0  0  0  0  0  0  0
    1.5733   -4.6436   -0.1528 C   0  0  0  0  0  0  0  0  0  0  0  0
    2.7965   -5.3493   -0.1665 C   0  0  0  0  0  0  0  0  0  0  0  0
    4.0208   -4.6739   -0.2045 C   0  0  0  0  0  0  0  0  0  0  0  0
    3.9747   -3.2944   -0.2237 C   0  0  0  0  0  0  0  0  0  0  0  0
    5.0911   -2.2980   -0.2193 C   0  0  0  0  0  0  0  0  0  0  0  0
    6.2802   -2.5630   -0.2267 O   0  0  0  0  0  0  0  0  0  0  0  0
    0.9686    1.5706    0.0533 H   0  0  0  0  0  0  0  0  0  0  0  0
    0.6044    0.0702    0.9287 H   0  0  0  0  0  0  0  0  0  0  0  0
    0.5526    0.1034   -0.8444 H   0  0  0  0  0  0  0  0  0  0  0  0
    5.1584    2.6300    1.1351 H   0  0  0  0  0  0  0  0  0  0  0  0
    7.3015    3.8500    1.1425 H   0  0  0  0  0  0  0  0  0  0  0  0
    9.2616    2.9406   -0.0789 H   0  0  0  0  0  0  0  0  0  0  0  0
    9.0751    0.7862   -1.2940 H   0  0  0  0  0  0  0  0  0  0  0  0
    6.9728   -0.4707   -1.2887 H   0  0  0  0  0  0  0  0  0  0  0  0
    0.5983   -2.7091   -0.1398 H   0  0  0  0  0  0  0  0  0  0  0  0
    0.6377   -5.1998   -0.1173 H   0  0  0  0  0  0  0  0  0  0  0  0
    2.7829   -6.4373   -0.1370 H   0  0  0  0  0  0  0  0  0  0  0  0
    4.9660   -5.2060   -0.2004 H   0  0  0  0  0  0  0  0  0  0  0  0
  1  2  1  0  0  0  0
  1 21  1  0  0  0  0
  1 22  1  0  0  0  0
  1 23  1  0  0  0  0
  2  3  2  0  0  0  0
  2 12  1  0  0  0  0
  3  4  1  0  0  0  0
  4  5  1  0  0  0  0
  4 11  1  0  0  0  0
  5  6  2  0  0  0  0
  5 10  1  0  0  0  0
  6  7  1  0  0  0  0
  6 24  1  0  0  0  0
  7  8  2  0  0  0  0
  7 25  1  0  0  0  0
  8  9  1  0  0  0  0
  8 26  1  0  0  0  0
  9 10  2  0  0  0  0
  9 27  1  0  0  0  0
 10 28  1  0  0  0  0
 11 12  2  0  0  0  0
 11 19  1  0  0  0  0
 12 13  1  0  0  0  0
 13 14  2  0  0  0  0
 13 18  1  0  0  0  0
 14 15  1  0  0  0  0
 14 29  1  0  0  0  0
 15 16  2  0  0  0  0
 15 30  1  0  0  0  0
 16 17  1  0  0  0  0
 16 31  1  0  0  0  0
 17 18  2  0  0  0  0
 17 32  1  0  0  0  0
 18 19  1  0  0  0  0
 19 20  2  0  0  0  0
M  END
$$$$
