
 OpenBabel09162610133D

 37 39  0  0  0  0  0  0  0  0999 V2000
    1.2201   -0.1430    0.5783 O   0  0  0  0  0  0  0  0  0  0  0  0
    2.3050    0.0502    0.0306 C   0  0  0  0  0  0  0  0  0  0  0  0
    2.9825   -1.1406   -0.5517 C   0  0  0  0  0  0  0  0  0  0  0  0
    2.1844   -2.1193   -1.1628 C   0  0  0  0  0  0  0  0  0  0  0  0
    2.7625   -3.2815   -1.6823 C   0  0  0  0  0  0  0  0  0  0  0  0
    4.1408   -3.4653   -1.5946 C   0  0  0  0  0  0  0  0  0  0  0  0
    4.8586   -4.8871   -2.2434 Cl  0  0  0  0  0  0  0  0  0  0  0  0
    4.9411   -2.5122   -0.9668 C   0  0  0  0  0  0  0  0  0  0  0  0
    4.3582   -1.3652   -0.4190 C   0  0  0  0  0  0  0  0  0  0  0  0
    2.8774    1.3183   -0.0554 N   0  0  0  0  0  0  0  0  0  0  0  0
    2.3168    2.3899    0.7849 C   0  0  0  0  0  0  0  0  0  0  0  0
    2.1872    3.7205    0.0269 C   0  0  0  0  0  0  0  0  0  0  0  0
    3.4780    4.0685   -0.5972 N   0  0  0  0  0  0  0  0  0  0  0  0
    4.0763    5.2970   -0.4277 C   0  0  0  0  0  0  0  0  0  0  0  0
    4.8946    5.8758   -1.4050 C   0  0  0  0  0  0  0  0  0  0  0  0
    5.5211    7.1079   -1.1969 C   0  0  0  0  0  0  0  0  0  0  0  0
    5.3120    7.7573    0.0009 C   0  0  0  0  0  0  0  0  0  0  0  0
    4.5336    7.2631    0.9825 N   0  0  0  0  0  0  0  0  0  0  0  0
    3.9485    6.0614    0.7428 C   0  0  0  0  0  0  0  0  0  0  0  0
    3.9890    3.0466   -1.5164 C   0  0  0  0  0  0  0  0  0  0  0  0
    4.0951    1.6873   -0.7938 C   0  0  0  0  0  0  0  0  0  0  0  0
    1.1050   -1.9858   -1.2190 H   0  0  0  0  0  0  0  0  0  0  0  0
    2.1322   -4.0385   -2.1417 H   0  0  0  0  0  0  0  0  0  0  0  0
    6.0144   -2.6637   -0.8841 H   0  0  0  0  0  0  0  0  0  0  0  0
    4.9880   -0.6653    0.1221 H   0  0  0  0  0  0  0  0  0  0  0  0
    3.0022    2.5110    1.6327 H   0  0  0  0  0  0  0  0  0  0  0  0
    1.3414    2.1062    1.1920 H   0  0  0  0  0  0  0  0  0  0  0  0
    1.8070    4.4934    0.7019 H   0  0  0  0  0  0  0  0  0  0  0  0
    1.4395    3.6120   -0.7694 H   0  0  0  0  0  0  0  0  0  0  0  0
    5.0458    5.3921   -2.3639 H   0  0  0  0  0  0  0  0  0  0  0  0
    6.1511    7.5486   -1.9628 H   0  0  0  0  0  0  0  0  0  0  0  0
    5.7741    8.7158    0.2127 H   0  0  0  0  0  0  0  0  0  0  0  0
    3.3662    5.6990    1.5826 H   0  0  0  0  0  0  0  0  0  0  0  0
    4.9843    3.2841   -1.9070 H   0  0  0  0  0  0  0  0  0  0  0  0
    3.3073    2.9620   -2.3709 H   0  0  0  0  0  0  0  0  0  0  0  0
    4.9082    1.7282   -0.0583 H   0  0  0  0  0  0  0  0  0  0  0  0
    4.3412    0.9317   -1.5439 H   0  0  0  0  0  0  0  0  0  0  0  0
  1  2  2  0  0  0  0
  2  3  1  0  0  0  0
  2 10  1  0  0  0  0
  3  4  2  0  0  0  0
  3  9  1  0  0  0  0
  4  5  1  0  0  0  0
  4 22  1  0  0  0  0
  5  6  2  0  0  0  0
  5 23  1  0  0  0  0
  6  7  1  0  0  0  0
  6  8  1  0  0  0  0
  8  9  2  0  0  0  0
  8 24  1  0  0  0  0
  9 25  1  0  0  0  0
 10 11  1  0  0  0  0
 10 21  1  0  0  0  0
 11 12  1  0  0  0  0
 11 26  1  0  0  0  0
 11 27  1  0  0  0  0
 12 13  1  0  0  0  0
 12 28  1  0  0  0  0
 12 29  1  0  0  0  0
 13 14  1  0  0  0  0
 13 20  1  0  0  0  0
 14 15  2  0  0  0  0
 14 19  1  0  0  0  0
 15 16  1  0  0  0  0
 15 30  1  0  0  0  0
 16 17  2  0  0  0  0
 16 31  1  0  0  0  0
 17 18  1  0  0  0  0
 17 32  1  0  0  0  0
 18 19  2  0  0  0  0
 19 33  1  0  0  0  0
 20 21  1  0  0  0  0
 20 34  1  0  0  0  0
 20 35  1  0  0  0  0
 21 36  1  0  0  0  0
 21 37  1  0  0  0  0
M  END
$$$$
