
 OpenBabel09162610133D

 29 31  0  0  0  0  0  0  0  0999 V2000
    0.9137   -0.4142   -0.1067 C   0  0  0  0  0  0  0  0  0  0  0  0
    2.3849   -0.0646    0.0510 C   0  0  0  0  0  0  0  0  0  0  0  0
    2.8508    0.7411   -1.1426 C   0  0  0  0  0  0  0  0  0  0  0  0
    3.3533    0.0636   -2.1372 N   0  0  0  0  0  0  0  0  0  0  0  0
    3.6895    0.7845   -3.2368 C   0  0  0  0  0  0  0  0  0  0  0  0
    4.3643    0.0451   -4.6081 S   0  0  0  0  0  0  0  0  0  0  0  0
    4.4332    1.5276   -5.4636 C   0  0  0  0  0  0  0  0  0  0  0  0
    4.9707    1.5356   -6.8579 C   0  0  0  0  0  0  0  0  0  0  0  0
    3.9508    2.5925   -4.7128 C   0  0  0  0  0  0  0  0  0  0  0  0
    3.8722    4.0111   -5.1806 C   0  0  0  0  0  0  0  0  0  0  0  0
    3.5319    2.1404   -3.4144 C   0  0  0  0  0  0  0  0  0  0  0  0
    2.9832    2.8462   -2.2900 C   0  0  0  0  0  0  0  0  0  0  0  0
    2.7675    4.1262   -2.2486 N   0  0  0  0  0  0  0  0  0  0  0  0
    2.2676    4.3235   -0.9956 N   0  0  0  0  0  0  0  0  0  0  0  0
    2.2100    3.1221   -0.2858 C   0  0  0  0  0  0  0  0  0  0  0  0
    1.7035    3.0724    1.2905 S   0  0  0  0  0  0  0  0  0  0  0  0
    2.6664    2.1328   -1.1672 N   0  0  0  0  0  0  0  0  0  0  0  0
    0.5581   -0.9799    0.7593 H   0  0  0  0  0  0  0  0  0  0  0  0
    0.7579   -1.0300   -1.0001 H   0  0  0  0  0  0  0  0  0  0  0  0
    0.2921    0.4795   -0.2172 H   0  0  0  0  0  0  0  0  0  0  0  0
    2.9695   -0.9920    0.0959 H   0  0  0  0  0  0  0  0  0  0  0  0
    2.5749    0.4567    0.9874 H   0  0  0  0  0  0  0  0  0  0  0  0
    5.2854    0.5409   -7.1909 H   0  0  0  0  0  0  0  0  0  0  0  0
    5.8391    2.1989   -6.9246 H   0  0  0  0  0  0  0  0  0  0  0  0
    4.2060    1.8934   -7.5550 H   0  0  0  0  0  0  0  0  0  0  0  0
    4.2426    4.1248   -6.2039 H   0  0  0  0  0  0  0  0  0  0  0  0
    4.4729    4.6606   -4.5362 H   0  0  0  0  0  0  0  0  0  0  0  0
    2.8344    4.3594   -5.1642 H   0  0  0  0  0  0  0  0  0  0  0  0
    2.0254    5.2454   -0.6471 H   0  0  0  0  0  0  0  0  0  0  0  0
  1  2  1  0  0  0  0
  1 18  1  0  0  0  0
  1 19  1  0  0  0  0
  1 20  1  0  0  0  0
  2  3  1  0  0  0  0
  2 21  1  0  0  0  0
  2 22  1  0  0  0  0
  3  4  2  0  0  0  0
  3 17  1  0  0  0  0
  4  5  1  0  0  0  0
  5  6  1  0  0  0  0
  5 11  2  0  0  0  0
  6  7  1  0  0  0  0
  7  8  1  0  0  0  0
  7  9  2  0  0  0  0
  8 23  1  0  0  0  0
  8 24  1  0  0  0  0
  8 25  1  0  0  0  0
  9 10  1  0  0  0  0
  9 11  1  0  0  0  0
 10 26  1  0  0  0  0
 10 27  1  0  0  0  0
 10 28  1  0  0  0  0
 11 12  1  0  0  0  0
 12 13  2  0  0  0  0
 12 17  1  0  0  0  0
 13 14  1  0  0  0  0
 14 15  1  0  0  0  0
 14 29  1  0  0  0  0
 15 16  2  0  0  0  0
 15 17  1  0  0  0  0
M  END
$$$$
