
 OpenBabel09162610133D

 36 39  0  0  0  0  0  0  0  0999 V2000
    0.9396   -0.0193    0.9822 C   0  0  0  0  0  0  0  0  0  0  0  0
    2.4100   -0.4876    0.9682 C   0  0  0  0  0  0  0  0  0  0  0  0
    2.8868   -0.5157   -0.4997 C   0  0  0  0  0  0  0  0  0  0  0  0
    2.5225   -1.8650    1.6525 C   0  0  0  0  0  0  0  0  0  0  0  0
    3.7932   -2.0988    2.4743 C   0  0  0  0  0  0  0  0  0  0  0  0
    4.8608   -1.0687    2.2469 C   0  0  0  0  0  0  0  0  0  0  0  0
    4.4864    0.1964    1.7961 C   0  0  0  0  0  0  0  0  0  0  0  0
    5.4403    1.1481    1.4165 C   0  0  0  0  0  0  0  0  0  0  0  0
    5.0701    2.3818    0.8450 C   0  0  0  0  0  0  0  0  0  0  0  0
    6.0299    3.2591    0.3389 C   0  0  0  0  0  0  0  0  0  0  0  0
    7.3726    2.9256    0.4266 C   0  0  0  0  0  0  0  0  0  0  0  0
    7.7566    1.7328    1.0439 C   0  0  0  0  0  0  0  0  0  0  0  0
    6.8078    0.8179    1.5463 C   0  0  0  0  0  0  0  0  0  0  0  0
    7.1941   -0.4018    2.1456 C   0  0  0  0  0  0  0  0  0  0  0  0
    8.5099   -0.6720    2.3731 N   0  0  0  0  0  0  0  0  0  0  0  0
    8.8135   -1.8443    2.9655 C   0  0  0  0  0  0  0  0  0  0  0  0
    7.8460   -2.7566    3.3096 C   0  0  0  0  0  0  0  0  0  0  0  0
    6.5387   -2.5325    3.0707 N   0  0  0  0  0  0  0  0  0  0  0  0
    6.2027   -1.3514    2.4980 C   0  0  0  0  0  0  0  0  0  0  0  0
    3.1569    0.5161    1.6747 O   0  0  0  0  0  0  0  0  0  0  0  0
    0.6743    0.5067    0.0576 H   0  0  0  0  0  0  0  0  0  0  0  0
    0.7481    0.6789    1.8051 H   0  0  0  0  0  0  0  0  0  0  0  0
    0.2409   -0.8578    1.0733 H   0  0  0  0  0  0  0  0  0  0  0  0
    2.2538   -1.1553   -1.1203 H   0  0  0  0  0  0  0  0  0  0  0  0
    3.9191   -0.8702   -0.5910 H   0  0  0  0  0  0  0  0  0  0  0  0
    2.8758    0.4989   -0.9203 H   0  0  0  0  0  0  0  0  0  0  0  0
    2.4232   -2.6540    0.8945 H   0  0  0  0  0  0  0  0  0  0  0  0
    1.6761   -2.0274    2.3323 H   0  0  0  0  0  0  0  0  0  0  0  0
    4.1726   -3.0958    2.2160 H   0  0  0  0  0  0  0  0  0  0  0  0
    3.5440   -2.1184    3.5426 H   0  0  0  0  0  0  0  0  0  0  0  0
    4.0190    2.6511    0.7534 H   0  0  0  0  0  0  0  0  0  0  0  0
    5.7199    4.1844   -0.1364 H   0  0  0  0  0  0  0  0  0  0  0  0
    8.1270    3.5882    0.0081 H   0  0  0  0  0  0  0  0  0  0  0  0
    8.8189    1.4967    1.1018 H   0  0  0  0  0  0  0  0  0  0  0  0
    9.8643   -2.0246    3.1579 H   0  0  0  0  0  0  0  0  0  0  0  0
    8.0917   -3.6958    3.7911 H   0  0  0  0  0  0  0  0  0  0  0  0
  1  2  1  0  0  0  0
  1 21  1  0  0  0  0
  1 22  1  0  0  0  0
  1 23  1  0  0  0  0
  2  3  1  0  0  0  0
  2  4  1  0  0  0  0
  2 20  1  0  0  0  0
  3 24  1  0  0  0  0
  3 25  1  0  0  0  0
  3 26  1  0  0  0  0
  4  5  1  0  0  0  0
  4 27  1  0  0  0  0
  4 28  1  0  0  0  0
  5  6  1  0  0  0  0
  5 29  1  0  0  0  0
  5 30  1  0  0  0  0
  6  7  2  0  0  0  0
  6 19  1  0  0  0  0
  7  8  1  0  0  0  0
  7 20  1  0  0  0  0
  8  9  2  0  0  0  0
  8 13  1  0  0  0  0
  9 10  1  0  0  0  0
  9 31  1  0  0  0  0
 10 11  2  0  0  0  0
 10 32  1  0  0  0  0
 11 12  1  0  0  0  0
 11 33  1  0  0  0  0
 12 13  2  0  0  0  0
 12 34  1  0  0  0  0
 13 14  1  0  0  0  0
 14 15  1  0  0  0  0
 14 19  2  0  0  0  0
 15 16  2  0  0  0  0
 16 17  1  0  0  0  0
 16 35  1  0  0  0  0
 17 18  2  0  0  0  0
 17 36  1  0  0  0  0
 18 19  1  0  0  0  0
M  END
$$$$
