
 OpenBabel09162610133D

 36 38  0  0  0  0  0  0  0  0999 V2000
   -2.4710    1.0305   -0.3225 C   0  0  0  0  0  0  0  0  0  0  0  0
   -1.1749    0.3588    0.0143 C   0  0  0  0  0  0  0  0  0  0  0  0
   -0.0951    1.0765    0.4856 C   0  0  0  0  0  0  0  0  0  0  0  0
    1.0374    0.3551    0.8114 C   0  0  0  0  0  0  0  0  0  0  0  0
    2.2947    1.0435    1.2472 C   0  0  0  0  0  0  0  0  0  0  0  0
    1.0930   -0.9871    0.7044 N   0  0  0  0  0  0  0  0  0  0  0  0
    0.0099   -1.6121    0.1920 C   0  0  0  0  0  0  0  0  0  0  0  0
    0.0834   -3.0353   -0.0186 N   0  0  0  0  0  0  0  0  0  0  0  0
    0.8576   -3.8173    0.7990 N   0  0  0  0  0  0  0  0  0  0  0  0
    0.4746   -5.0672    0.5366 C   0  0  0  0  0  0  0  0  0  0  0  0
    0.9874   -6.2017    1.3409 C   0  0  0  0  0  0  0  0  0  0  0  0
   -0.3992   -5.1211   -0.5662 C   0  0  0  0  0  0  0  0  0  0  0  0
   -0.5957   -3.8081   -0.9699 C   0  0  0  0  0  0  0  0  0  0  0  0
   -1.3030   -3.3163   -2.1639 C   0  0  0  0  0  0  0  0  0  0  0  0
   -2.4269   -4.0011   -2.6502 C   0  0  0  0  0  0  0  0  0  0  0  0
   -3.0975   -3.5627   -3.7972 C   0  0  0  0  0  0  0  0  0  0  0  0
   -2.6595   -2.4266   -4.4729 C   0  0  0  0  0  0  0  0  0  0  0  0
   -1.5343   -1.7466   -4.0191 C   0  0  0  0  0  0  0  0  0  0  0  0
   -0.8485   -2.2032   -2.8901 C   0  0  0  0  0  0  0  0  0  0  0  0
   -1.1285   -0.9744   -0.1610 N   0  0  0  0  0  0  0  0  0  0  0  0
   -2.3999    2.1188   -0.2338 H   0  0  0  0  0  0  0  0  0  0  0  0
   -3.2543    0.6815    0.3576 H   0  0  0  0  0  0  0  0  0  0  0  0
   -2.7609    0.7893   -1.3498 H   0  0  0  0  0  0  0  0  0  0  0  0
   -0.1310    2.1539    0.5894 H   0  0  0  0  0  0  0  0  0  0  0  0
    2.1456    2.1205    1.3692 H   0  0  0  0  0  0  0  0  0  0  0  0
    3.0755    0.8913    0.4963 H   0  0  0  0  0  0  0  0  0  0  0  0
    2.6361    0.6344    2.2029 H   0  0  0  0  0  0  0  0  0  0  0  0
    1.5064   -5.8557    2.2410 H   0  0  0  0  0  0  0  0  0  0  0  0
    1.6854   -6.8048    0.7522 H   0  0  0  0  0  0  0  0  0  0  0  0
    0.1611   -6.8448    1.6599 H   0  0  0  0  0  0  0  0  0  0  0  0
   -0.7982   -6.0066   -1.0361 H   0  0  0  0  0  0  0  0  0  0  0  0
   -2.7964   -4.8868   -2.1400 H   0  0  0  0  0  0  0  0  0  0  0  0
   -3.9641   -4.1091   -4.1596 H   0  0  0  0  0  0  0  0  0  0  0  0
   -3.1895   -2.0763   -5.3544 H   0  0  0  0  0  0  0  0  0  0  0  0
   -1.1833   -0.8609   -4.5424 H   0  0  0  0  0  0  0  0  0  0  0  0
    0.0429   -1.6618   -2.5839 H   0  0  0  0  0  0  0  0  0  0  0  0
  1  2  1  0  0  0  0
  1 21  1  0  0  0  0
  1 22  1  0  0  0  0
  1 23  1  0  0  0  0
  2  3  2  0  0  0  0
  2 20  1  0  0  0  0
  3  4  1  0  0  0  0
  3 24  1  0  0  0  0
  4  5  1  0  0  0  0
  4  6  2  0  0  0  0
  5 25  1  0  0  0  0
  5 26  1  0  0  0  0
  5 27  1  0  0  0  0
  6  7  1  0  0  0  0
  7  8  1  0  0  0  0
  7 20  2  0  0  0  0
  8  9  1  0  0  0  0
  8 13  1  0  0  0  0
  9 10  2  0  0  0  0
 10 11  1  0  0  0  0
 10 12  1  0  0  0  0
 11 28  1  0  0  0  0
 11 29  1  0  0  0  0
 11 30  1  0  0  0  0
 12 13  2  0  0  0  0
 12 31  1  0  0  0  0
 13 14  1  0  0  0  0
 14 15  2  0  0  0  0
 14 19  1  0  0  0  0
 15 16  1  0  0  0  0
 15 32  1  0  0  0  0
 16 17  2  0  0  0  0
 16 33  1  0  0  0  0
 17 18  1  0  0  0  0
 17 34  1  0  0  0  0
 18 19  2  0  0  0  0
 18 35  1  0  0  0  0
 19 36  1  0  0  0  0
M  END
$$$$
