
 OpenBabel09162610133D

 37 39  0  0  0  0  0  0  0  0999 V2000
    0.9638   -0.0198    0.1600 C   0  0  0  0  0  0  0  0  0  0  0  0
    2.4319    0.2965    0.0284 C   0  0  0  0  0  0  0  0  0  0  0  0
    2.8200    1.1047   -0.8052 O   0  0  0  0  0  0  0  0  0  0  0  0
    3.2164   -0.4254    0.9143 N   0  0  0  0  0  0  0  0  0  0  0  0
    4.6234   -0.3469    1.0275 C   0  0  0  0  0  0  0  0  0  0  0  0
    5.3774    0.7168    0.4959 C   0  0  0  0  0  0  0  0  0  0  0  0
    6.7797    0.7347    0.5626 C   0  0  0  0  0  0  0  0  0  0  0  0
    7.4258   -0.3273    1.1659 C   0  0  0  0  0  0  0  0  0  0  0  0
    6.6692   -1.3804    1.7251 C   0  0  0  0  0  0  0  0  0  0  0  0
    5.2807   -1.3931    1.6861 C   0  0  0  0  0  0  0  0  0  0  0  0
    7.5908   -2.4387    2.2944 C   0  0  0  0  0  0  0  0  0  0  0  0
    8.9558   -1.8432    2.0248 C   0  0  0  0  0  0  0  0  0  0  0  0
   10.1899   -2.3861    2.3543 C   0  0  0  0  0  0  0  0  0  0  0  0
   11.3510   -1.6946    2.0039 C   0  0  0  0  0  0  0  0  0  0  0  0
   12.6549   -2.1659    2.2919 N   0  0  0  0  0  0  0  0  0  0  0  0
   12.9813   -3.3511    2.9466 C   0  0  0  0  0  0  0  0  0  0  0  0
   14.4638   -3.5759    3.0970 C   0  0  0  0  0  0  0  0  0  0  0  0
   12.1939   -4.1850    3.3826 O   0  0  0  0  0  0  0  0  0  0  0  0
   11.2333   -0.4615    1.3231 C   0  0  0  0  0  0  0  0  0  0  0  0
    9.9760    0.0862    0.9950 C   0  0  0  0  0  0  0  0  0  0  0  0
    8.8361   -0.6123    1.3532 C   0  0  0  0  0  0  0  0  0  0  0  0
    0.4194    0.4631   -0.6579 H   0  0  0  0  0  0  0  0  0  0  0  0
    0.5864    0.3652    1.1102 H   0  0  0  0  0  0  0  0  0  0  0  0
    0.7958   -1.0981    0.0949 H   0  0  0  0  0  0  0  0  0  0  0  0
    2.7642   -1.1748    1.4223 H   0  0  0  0  0  0  0  0  0  0  0  0
    4.8880    1.5626    0.0221 H   0  0  0  0  0  0  0  0  0  0  0  0
    7.3280    1.5646    0.1309 H   0  0  0  0  0  0  0  0  0  0  0  0
    4.7377   -2.2255    2.1204 H   0  0  0  0  0  0  0  0  0  0  0  0
    7.4724   -3.3785    1.7471 H   0  0  0  0  0  0  0  0  0  0  0  0
    7.4249   -2.5701    3.3670 H   0  0  0  0  0  0  0  0  0  0  0  0
   10.2109   -3.3363    2.8761 H   0  0  0  0  0  0  0  0  0  0  0  0
   13.4193   -1.5819    1.9871 H   0  0  0  0  0  0  0  0  0  0  0  0
   15.0647   -2.7470    2.7287 H   0  0  0  0  0  0  0  0  0  0  0  0
   14.7372   -4.4855    2.5483 H   0  0  0  0  0  0  0  0  0  0  0  0
   14.6870   -3.7255    4.1612 H   0  0  0  0  0  0  0  0  0  0  0  0
   12.1215    0.0951    1.0356 H   0  0  0  0  0  0  0  0  0  0  0  0
    9.9127    1.0337    0.4712 H   0  0  0  0  0  0  0  0  0  0  0  0
  1  2  1  0  0  0  0
  1 22  1  0  0  0  0
  1 23  1  0  0  0  0
  1 24  1  0  0  0  0
  2  3  2  0  0  0  0
  2  4  1  0  0  0  0
  4  5  1  0  0  0  0
  4 25  1  0  0  0  0
  5  6  2  0  0  0  0
  5 10  1  0  0  0  0
  6  7  1  0  0  0  0
  6 26  1  0  0  0  0
  7  8  2  0  0  0  0
  7 27  1  0  0  0  0
  8  9  1  0  0  0  0
  8 21  1  0  0  0  0
  9 10  2  0  0  0  0
  9 11  1  0  0  0  0
 10 28  1  0  0  0  0
 11 12  1  0  0  0  0
 11 29  1  0  0  0  0
 11 30  1  0  0  0  0
 12 13  1  0  0  0  0
 12 21  2  0  0  0  0
 13 14  2  0  0  0  0
 13 31  1  0  0  0  0
 14 15  1  0  0  0  0
 14 19  1  0  0  0  0
 15 16  1  0  0  0  0
 15 32  1  0  0  0  0
 16 17  1  0  0  0  0
 16 18  2  0  0  0  0
 17 33  1  0  0  0  0
 17 34  1  0  0  0  0
 17 35  1  0  0  0  0
 19 20  2  0  0  0  0
 19 36  1  0  0  0  0
 20 21  1  0  0  0  0
 20 37  1  0  0  0  0
M  END
$$$$
