
 OpenBabel09162610133D

 40 41  0  0  0  0  0  0  0  0999 V2000
    1.0987   -0.3034    0.2171 C   0  0  0  0  0  0  0  0  0  0  0  0
    2.5770    0.0776   -0.0032 C   0  0  0  0  0  0  0  0  0  0  0  0
    3.3991   -1.2345   -0.0800 C   0  0  0  0  0  0  0  0  0  0  0  0
    2.7285    0.7173   -1.4066 C   0  0  0  0  0  0  0  0  0  0  0  0
    3.0070    1.0007    1.1683 C   0  0  0  0  0  0  0  0  0  0  0  0
    3.5876    0.4486    2.3409 C   0  0  0  0  0  0  0  0  0  0  0  0
    3.9296    1.2454    3.4512 C   0  0  0  0  0  0  0  0  0  0  0  0
    4.4771    0.6116    4.6852 C   0  0  0  0  0  0  0  0  0  0  0  0
    4.0400   -0.4908    5.0098 O   0  0  0  0  0  0  0  0  0  0  0  0
    5.4290    1.2886    5.4340 N   0  0  0  0  0  0  0  0  0  0  0  0
    6.1959    2.4721    5.0801 C   0  0  0  0  0  0  0  0  0  0  0  0
    7.4792    2.3326    5.8761 C   0  0  0  0  0  0  0  0  0  0  0  0
    7.0111    1.6686    7.1644 C   0  0  0  0  0  0  0  0  0  0  0  0
    5.8349    0.7912    6.7390 C   0  0  0  0  0  0  0  0  0  0  0  0
    3.6484    2.6045    3.4265 C   0  0  0  0  0  0  0  0  0  0  0  0
    3.0999    3.1869    2.2879 C   0  0  0  0  0  0  0  0  0  0  0  0
    2.8781    4.6008    2.3022 C   0  0  0  0  0  0  0  0  0  0  0  0
    2.7079    5.7450    2.2780 N   0  0  0  0  0  0  0  0  0  0  0  0
    2.7661    2.3947    1.1773 C   0  0  0  0  0  0  0  0  0  0  0  0
    2.1462    2.9621    0.0973 O   0  0  0  0  0  0  0  0  0  0  0  0
    0.7325   -0.9567   -0.5833 H   0  0  0  0  0  0  0  0  0  0  0  0
    0.4523    0.5811    0.2446 H   0  0  0  0  0  0  0  0  0  0  0  0
    0.9636   -0.8369    1.1659 H   0  0  0  0  0  0  0  0  0  0  0  0
    3.0973   -1.8362   -0.9472 H   0  0  0  0  0  0  0  0  0  0  0  0
    3.2553   -1.8757    0.7949 H   0  0  0  0  0  0  0  0  0  0  0  0
    4.4701   -1.0243   -0.1829 H   0  0  0  0  0  0  0  0  0  0  0  0
    2.5337   -0.0150   -2.1997 H   0  0  0  0  0  0  0  0  0  0  0  0
    3.7423    1.1068   -1.5549 H   0  0  0  0  0  0  0  0  0  0  0  0
    2.0166    1.5246   -1.5950 H   0  0  0  0  0  0  0  0  0  0  0  0
    3.7522   -0.6208    2.4302 H   0  0  0  0  0  0  0  0  0  0  0  0
    5.6397    3.3452    5.4375 H   0  0  0  0  0  0  0  0  0  0  0  0
    6.3679    2.5523    4.0043 H   0  0  0  0  0  0  0  0  0  0  0  0
    7.9671    3.2966    6.0472 H   0  0  0  0  0  0  0  0  0  0  0  0
    8.1810    1.6782    5.3474 H   0  0  0  0  0  0  0  0  0  0  0  0
    6.6724    2.4312    7.8759 H   0  0  0  0  0  0  0  0  0  0  0  0
    7.8062    1.0926    7.6459 H   0  0  0  0  0  0  0  0  0  0  0  0
    4.9924    0.8999    7.4299 H   0  0  0  0  0  0  0  0  0  0  0  0
    6.1026   -0.2677    6.6737 H   0  0  0  0  0  0  0  0  0  0  0  0
    3.8195    3.2181    4.3043 H   0  0  0  0  0  0  0  0  0  0  0  0
    2.0851    3.9305    0.1643 H   0  0  0  0  0  0  0  0  0  0  0  0
  1  2  1  0  0  0  0
  1 21  1  0  0  0  0
  1 22  1  0  0  0  0
  1 23  1  0  0  0  0
  2  3  1  0  0  0  0
  2  4  1  0  0  0  0
  2  5  1  0  0  0  0
  3 24  1  0  0  0  0
  3 25  1  0  0  0  0
  3 26  1  0  0  0  0
  4 27  1  0  0  0  0
  4 28  1  0  0  0  0
  4 29  1  0  0  0  0
  5  6  2  0  0  0  0
  5 19  1  0  0  0  0
  6  7  1  0  0  0  0
  6 30  1  0  0  0  0
  7  8  1  0  0  0  0
  7 15  2  0  0  0  0
  8  9  2  0  0  0  0
  8 10  1  0  0  0  0
 10 11  1  0  0  0  0
 10 14  1  0  0  0  0
 11 12  1  0  0  0  0
 11 31  1  0  0  0  0
 11 32  1  0  0  0  0
 12 13  1  0  0  0  0
 12 33  1  0  0  0  0
 12 34  1  0  0  0  0
 13 14  1  0  0  0  0
 13 35  1  0  0  0  0
 13 36  1  0  0  0  0
 14 37  1  0  0  0  0
 14 38  1  0  0  0  0
 15 16  1  0  0  0  0
 15 39  1  0  0  0  0
 16 17  1  0  0  0  0
 16 19  2  0  0  0  0
 17 18  3  0  0  0  0
 19 20  1  0  0  0  0
 20 40  1  0  0  0  0
M  END
$$$$
