
 OpenBabel09162610133D

 29 31  0  0  0  0  0  0  0  0999 V2000
    1.1644    0.2553    0.0729 C   0  0  0  0  0  0  0  0  0  0  0  0
    2.6428    0.0360    0.0745 C   0  0  0  0  0  0  0  0  0  0  0  0
    3.7112    1.3729    0.0944 S   0  0  0  0  0  0  0  0  0  0  0  0
    5.0814    0.3670    0.0519 C   0  0  0  0  0  0  0  0  0  0  0  0
    6.3387    0.8644    0.0479 N   0  0  0  0  0  0  0  0  0  0  0  0
    7.2602   -0.0448    0.0279 C   0  0  0  0  0  0  0  0  0  0  0  0
    8.7138    0.2453    0.0407 C   0  0  0  0  0  0  0  0  0  0  0  0
    9.6297   -0.6988    0.5298 C   0  0  0  0  0  0  0  0  0  0  0  0
   10.9945   -0.4145    0.5457 C   0  0  0  0  0  0  0  0  0  0  0  0
   11.4525    0.8145    0.0727 C   0  0  0  0  0  0  0  0  0  0  0  0
   10.5473    1.7584   -0.4138 C   0  0  0  0  0  0  0  0  0  0  0  0
    9.1780    1.4789   -0.4285 C   0  0  0  0  0  0  0  0  0  0  0  0
    7.0910   -1.3909   -0.0241 O   0  0  0  0  0  0  0  0  0  0  0  0
    5.8305   -1.9085   -0.0200 C   0  0  0  0  0  0  0  0  0  0  0  0
    5.6686   -3.1224   -0.0549 O   0  0  0  0  0  0  0  0  0  0  0  0
    4.7396   -0.9605    0.0299 C   0  0  0  0  0  0  0  0  0  0  0  0
    3.3175   -1.1767    0.0603 C   0  0  0  0  0  0  0  0  0  0  0  0
    2.6264   -2.5045    0.0668 C   0  0  0  0  0  0  0  0  0  0  0  0
    0.8933    1.3154    0.0677 H   0  0  0  0  0  0  0  0  0  0  0  0
    0.7142   -0.2053    0.9584 H   0  0  0  0  0  0  0  0  0  0  0  0
    0.7204   -0.2086   -0.8149 H   0  0  0  0  0  0  0  0  0  0  0  0
    9.2950   -1.6609    0.9130 H   0  0  0  0  0  0  0  0  0  0  0  0
   11.6982   -1.1495    0.9289 H   0  0  0  0  0  0  0  0  0  0  0  0
   12.5168    1.0361    0.0875 H   0  0  0  0  0  0  0  0  0  0  0  0
   10.9104    2.7160   -0.7807 H   0  0  0  0  0  0  0  0  0  0  0  0
    8.4828    2.2232   -0.8109 H   0  0  0  0  0  0  0  0  0  0  0  0
    3.3165   -3.3484    0.0765 H   0  0  0  0  0  0  0  0  0  0  0  0
    1.9934   -2.6037   -0.8214 H   0  0  0  0  0  0  0  0  0  0  0  0
    1.9917   -2.5923    0.9554 H   0  0  0  0  0  0  0  0  0  0  0  0
  1  2  1  0  0  0  0
  1 19  1  0  0  0  0
  1 20  1  0  0  0  0
  1 21  1  0  0  0  0
  2  3  1  0  0  0  0
  2 17  2  0  0  0  0
  3  4  1  0  0  0  0
  4  5  1  0  0  0  0
  4 16  2  0  0  0  0
  5  6  2  0  0  0  0
  6  7  1  0  0  0  0
  6 13  1  0  0  0  0
  7  8  2  0  0  0  0
  7 12  1  0  0  0  0
  8  9  1  0  0  0  0
  8 22  1  0  0  0  0
  9 10  2  0  0  0  0
  9 23  1  0  0  0  0
 10 11  1  0  0  0  0
 10 24  1  0  0  0  0
 11 12  2  0  0  0  0
 11 25  1  0  0  0  0
 12 26  1  0  0  0  0
 13 14  1  0  0  0  0
 14 15  2  0  0  0  0
 14 16  1  0  0  0  0
 16 17  1  0  0  0  0
 17 18  1  0  0  0  0
 18 27  1  0  0  0  0
 18 28  1  0  0  0  0
 18 29  1  0  0  0  0
M  END
$$$$
