
 OpenBabel09162610133D

 24 26  0  0  0  0  0  0  0  0999 V2000
    0.8568   -2.1053   -1.6349 C   0  0  0  0  0  0  0  0  0  0  0  0
    0.4164   -0.7106   -1.3801 C   0  0  0  0  0  0  0  0  0  0  0  0
   -0.8014   -0.1497   -1.7125 C   0  0  0  0  0  0  0  0  0  0  0  0
   -0.8522    1.4890   -1.2138 S   0  0  0  0  0  0  0  0  0  0  0  0
    0.7560    1.3486   -0.6289 C   0  0  0  0  0  0  0  0  0  0  0  0
    1.4163    2.4882   -0.0115 C   0  0  0  0  0  0  0  0  0  0  0  0
    0.8253    3.4550    0.4749 O   0  0  0  0  0  0  0  0  0  0  0  0
    2.9002    2.4777    0.0401 C   0  0  0  0  0  0  0  0  0  0  0  0
    3.5704    1.9364   -1.0093 N   0  0  0  0  0  0  0  0  0  0  0  0
    4.9072    1.9336   -0.9675 C   0  0  0  0  0  0  0  0  0  0  0  0
    5.6855    2.4397   -0.0099 N   0  0  0  0  0  0  0  0  0  0  0  0
    4.9867    2.9995    0.9918 C   0  0  0  0  0  0  0  0  0  0  0  0
    5.7904    3.7216    2.3102 S   0  0  0  0  0  0  0  0  0  0  0  0
    4.3134    4.1503    3.0543 C   0  0  0  0  0  0  0  0  0  0  0  0
    3.2276    3.7430    2.3103 C   0  0  0  0  0  0  0  0  0  0  0  0
    3.6052    3.0690    1.0977 C   0  0  0  0  0  0  0  0  0  0  0  0
    1.2944    0.1498   -0.7433 N   0  0  0  0  0  0  0  0  0  0  0  0
    0.0806   -2.6844   -2.1448 H   0  0  0  0  0  0  0  0  0  0  0  0
    1.0933   -2.6057   -0.6908 H   0  0  0  0  0  0  0  0  0  0  0  0
    1.7538   -2.1087   -2.2622 H   0  0  0  0  0  0  0  0  0  0  0  0
   -1.6433   -0.6114   -2.2082 H   0  0  0  0  0  0  0  0  0  0  0  0
    5.4145    1.4694   -1.8080 H   0  0  0  0  0  0  0  0  0  0  0  0
    4.3108    4.6790    3.9982 H   0  0  0  0  0  0  0  0  0  0  0  0
    2.2036    3.9271    2.6170 H   0  0  0  0  0  0  0  0  0  0  0  0
  1  2  1  0  0  0  0
  1 18  1  0  0  0  0
  1 19  1  0  0  0  0
  1 20  1  0  0  0  0
  2  3  2  0  0  0  0
  2 17  1  0  0  0  0
  3  4  1  0  0  0  0
  3 21  1  0  0  0  0
  4  5  1  0  0  0  0
  5  6  1  0  0  0  0
  5 17  2  0  0  0  0
  6  7  2  0  0  0  0
  6  8  1  0  0  0  0
  8  9  2  0  0  0  0
  8 16  1  0  0  0  0
  9 10  1  0  0  0  0
 10 11  2  0  0  0  0
 10 22  1  0  0  0  0
 11 12  1  0  0  0  0
 12 13  1  0  0  0  0
 12 16  2  0  0  0  0
 13 14  1  0  0  0  0
 14 15  2  0  0  0  0
 14 23  1  0  0  0  0
 15 16  1  0  0  0  0
 15 24  1  0  0  0  0
M  END
$$$$
