
 OpenBabel09162610133D

 38 39  0  0  0  0  0  0  0  0999 V2000
    2.8920    1.3368    0.8579 C   0  0  0  0  0  0  0  0  0  0  0  0
    2.5823    0.1786   -0.0853 C   0  0  0  0  0  0  0  0  0  0  0  0
    1.0773   -0.0239   -0.2101 C   0  0  0  0  0  0  0  0  0  0  0  0
    3.1000    0.4817   -1.3959 O   0  0  0  0  0  0  0  0  0  0  0  0
    4.4319    0.2139   -1.5668 C   0  0  0  0  0  0  0  0  0  0  0  0
    5.1455   -0.3023   -0.7139 O   0  0  0  0  0  0  0  0  0  0  0  0
    4.8891    0.6705   -2.9413 C   0  0  0  0  0  0  0  0  0  0  0  0
    6.2817    0.3932   -3.0536 O   0  0  0  0  0  0  0  0  0  0  0  0
    6.8948    0.6959   -4.2315 C   0  0  0  0  0  0  0  0  0  0  0  0
    6.4885    1.6608   -5.1447 C   0  0  0  0  0  0  0  0  0  0  0  0
    7.2432    1.8877   -6.3078 C   0  0  0  0  0  0  0  0  0  0  0  0
    8.4197    1.1650   -6.5839 C   0  0  0  0  0  0  0  0  0  0  0  0
    9.2160    1.3930   -7.8162 C   0  0  0  0  0  0  0  0  0  0  0  0
    9.3220    2.6674   -8.4045 C   0  0  0  0  0  0  0  0  0  0  0  0
   10.0801    2.8769   -9.5631 C   0  0  0  0  0  0  0  0  0  0  0  0
   10.7612    1.8173  -10.1548 C   0  0  0  0  0  0  0  0  0  0  0  0
   10.6767    0.5488   -9.5942 C   0  0  0  0  0  0  0  0  0  0  0  0
    9.9073    0.3408   -8.4445 C   0  0  0  0  0  0  0  0  0  0  0  0
    8.8137    0.2099   -5.6312 C   0  0  0  0  0  0  0  0  0  0  0  0
    8.0647   -0.0197   -4.4741 C   0  0  0  0  0  0  0  0  0  0  0  0
    2.4919    1.1505    1.8593 H   0  0  0  0  0  0  0  0  0  0  0  0
    2.4691    2.2734    0.4779 H   0  0  0  0  0  0  0  0  0  0  0  0
    3.9721    1.4949    0.9443 H   0  0  0  0  0  0  0  0  0  0  0  0
    3.0193   -0.7522    0.2969 H   0  0  0  0  0  0  0  0  0  0  0  0
    0.5922    0.8624   -0.6339 H   0  0  0  0  0  0  0  0  0  0  0  0
    0.6257   -0.2394    0.7637 H   0  0  0  0  0  0  0  0  0  0  0  0
    0.8593   -0.8579   -0.8852 H   0  0  0  0  0  0  0  0  0  0  0  0
    4.7017    1.7486   -3.0108 H   0  0  0  0  0  0  0  0  0  0  0  0
    4.3324    0.1103   -3.6985 H   0  0  0  0  0  0  0  0  0  0  0  0
    5.6078    2.2716   -4.9785 H   0  0  0  0  0  0  0  0  0  0  0  0
    6.8881    2.6440   -7.0051 H   0  0  0  0  0  0  0  0  0  0  0  0
    8.8263    3.5259   -7.9589 H   0  0  0  0  0  0  0  0  0  0  0  0
   10.1419    3.8715   -9.9971 H   0  0  0  0  0  0  0  0  0  0  0  0
   11.3559    1.9811  -11.0495 H   0  0  0  0  0  0  0  0  0  0  0  0
   11.2064   -0.2845  -10.0488 H   0  0  0  0  0  0  0  0  0  0  0  0
    9.8500   -0.6716   -8.0495 H   0  0  0  0  0  0  0  0  0  0  0  0
    9.7273   -0.3654   -5.7656 H   0  0  0  0  0  0  0  0  0  0  0  0
    8.3984   -0.7657   -3.7569 H   0  0  0  0  0  0  0  0  0  0  0  0
  1  2  1  0  0  0  0
  1 21  1  0  0  0  0
  1 22  1  0  0  0  0
  1 23  1  0  0  0  0
  2  3  1  0  0  0  0
  2  4  1  0  0  0  0
  2 24  1  0  0  0  0
  3 25  1  0  0  0  0
  3 26  1  0  0  0  0
  3 27  1  0  0  0  0
  4  5  1  0  0  0  0
  5  6  2  0  0  0  0
  5  7  1  0  0  0  0
  7  8  1  0  0  0  0
  7 28  1  0  0  0  0
  7 29  1  0  0  0  0
  8  9  1  0  0  0  0
  9 10  2  0  0  0  0
  9 20  1  0  0  0  0
 10 11  1  0  0  0  0
 10 30  1  0  0  0  0
 11 12  2  0  0  0  0
 11 31  1  0  0  0  0
 12 13  1  0  0  0  0
 12 19  1  0  0  0  0
 13 14  2  0  0  0  0
 13 18  1  0  0  0  0
 14 15  1  0  0  0  0
 14 32  1  0  0  0  0
 15 16  2  0  0  0  0
 15 33  1  0  0  0  0
 16 17  1  0  0  0  0
 16 34  1  0  0  0  0
 17 18  2  0  0  0  0
 17 35  1  0  0  0  0
 18 36  1  0  0  0  0
 19 20  2  0  0  0  0
 19 37  1  0  0  0  0
 20 38  1  0  0  0  0
M  END
$$$$
