
 OpenBabel09162610133D

 29 31  0  0  0  0  0  0  0  0999 V2000
    1.0359   -0.0045   -0.1475 F   0  0  0  0  0  0  0  0  0  0  0  0
    2.3720   -0.0299   -0.0268 C   0  0  0  0  0  0  0  0  0  0  0  0
    3.0624    1.1824   -0.0169 C   0  0  0  0  0  0  0  0  0  0  0  0
    4.4507    1.1895    0.1192 C   0  0  0  0  0  0  0  0  0  0  0  0
    5.1417   -0.0188    0.2133 C   0  0  0  0  0  0  0  0  0  0  0  0
    4.4382   -1.2228    0.1978 C   0  0  0  0  0  0  0  0  0  0  0  0
    5.1294   -2.3695    0.2922 F   0  0  0  0  0  0  0  0  0  0  0  0
    3.0464   -1.2433    0.1024 C   0  0  0  0  0  0  0  0  0  0  0  0
    2.3322   -2.4756    0.1952 C   0  0  0  0  0  0  0  0  0  0  0  0
    1.7405   -3.5142    0.3290 C   0  0  0  0  0  0  0  0  0  0  0  0
    1.0391   -4.7488    0.4990 C   0  0  0  0  0  0  0  0  0  0  0  0
    1.7228   -5.9591    0.4275 C   0  0  0  0  0  0  0  0  0  0  0  0
    1.0229   -7.1641    0.5522 C   0  0  0  0  0  0  0  0  0  0  0  0
   -0.3536   -7.1932    0.7310 C   0  0  0  0  0  0  0  0  0  0  0  0
   -0.9838   -8.3769    0.7966 N   0  0  0  0  0  0  0  0  0  0  0  0
   -2.3257   -8.3594    0.9275 C   0  0  0  0  0  0  0  0  0  0  0  0
   -3.0588   -9.9101    0.9547 Cl  0  0  0  0  0  0  0  0  0  0  0  0
   -3.0929   -7.2149    1.0187 C   0  0  0  0  0  0  0  0  0  0  0  0
   -2.4335   -5.9928    0.9754 C   0  0  0  0  0  0  0  0  0  0  0  0
   -1.0411   -5.9616    0.8163 C   0  0  0  0  0  0  0  0  0  0  0  0
   -0.3389   -4.7475    0.7162 C   0  0  0  0  0  0  0  0  0  0  0  0
    2.5090    2.1131   -0.1017 H   0  0  0  0  0  0  0  0  0  0  0  0
    4.9921    2.1318    0.1534 H   0  0  0  0  0  0  0  0  0  0  0  0
    6.2226   -0.0342    0.3118 H   0  0  0  0  0  0  0  0  0  0  0  0
    2.7985   -5.9797    0.2640 H   0  0  0  0  0  0  0  0  0  0  0  0
    1.5642   -8.1054    0.4882 H   0  0  0  0  0  0  0  0  0  0  0  0
   -4.1716   -7.2662    1.1095 H   0  0  0  0  0  0  0  0  0  0  0  0
   -3.0072   -5.0720    1.0447 H   0  0  0  0  0  0  0  0  0  0  0  0
   -0.8698   -3.8001    0.7857 H   0  0  0  0  0  0  0  0  0  0  0  0
  1  2  1  0  0  0  0
  2  3  2  0  0  0  0
  2  8  1  0  0  0  0
  3  4  1  0  0  0  0
  3 22  1  0  0  0  0
  4  5  2  0  0  0  0
  4 23  1  0  0  0  0
  5  6  1  0  0  0  0
  5 24  1  0  0  0  0
  6  7  1  0  0  0  0
  6  8  2  0  0  0  0
  8  9  1  0  0  0  0
  9 10  3  0  0  0  0
 10 11  1  0  0  0  0
 11 12  2  0  0  0  0
 11 21  1  0  0  0  0
 12 13  1  0  0  0  0
 12 25  1  0  0  0  0
 13 14  2  0  0  0  0
 13 26  1  0  0  0  0
 14 15  1  0  0  0  0
 14 20  1  0  0  0  0
 15 16  2  0  0  0  0
 16 17  1  0  0  0  0
 16 18  1  0  0  0  0
 18 19  2  0  0  0  0
 18 27  1  0  0  0  0
 19 20  1  0  0  0  0
 19 28  1  0  0  0  0
 20 21  2  0  0  0  0
 21 29  1  0  0  0  0
M  END
$$$$
