
 OpenBabel09162610133D

 38 39  0  0  0  0  0  0  0  0999 V2000
    2.8655    0.8433   -1.3653 C   0  0  0  0  0  0  0  0  0  0  0  0
    2.6284   -0.0075   -0.0932 C   0  0  0  0  0  0  0  0  0  0  0  0
    1.1379   -0.4006   -0.0506 C   0  0  0  0  0  0  0  0  0  0  0  0
    3.4723   -1.2898   -0.2667 C   0  0  0  0  0  0  0  0  0  0  0  0
    2.9702    0.7524    1.2035 C   0  0  0  0  0  0  0  0  0  0  0  0
    2.9086    2.1582    1.2539 C   0  0  0  0  0  0  0  0  0  0  0  0
    3.1741    2.8649    2.4310 C   0  0  0  0  0  0  0  0  0  0  0  0
    3.4535    2.1788    3.6071 C   0  0  0  0  0  0  0  0  0  0  0  0
    3.6875    2.8306    4.8363 O   0  0  0  0  0  0  0  0  0  0  0  0
    2.8861    3.9144    5.1601 C   0  0  0  0  0  0  0  0  0  0  0  0
    2.0146    4.4354    4.4725 O   0  0  0  0  0  0  0  0  0  0  0  0
    3.2405    4.4910    6.4721 C   0  0  0  0  0  0  0  0  0  0  0  0
    3.2746    5.8931    6.5635 C   0  0  0  0  0  0  0  0  0  0  0  0
    3.4276    6.5168    7.8013 C   0  0  0  0  0  0  0  0  0  0  0  0
    3.5406    5.7443    8.9551 C   0  0  0  0  0  0  0  0  0  0  0  0
    3.5298    4.3489    8.8702 C   0  0  0  0  0  0  0  0  0  0  0  0
    3.3820    3.7217    7.6292 C   0  0  0  0  0  0  0  0  0  0  0  0
    3.3320    2.3588    7.5683 O   0  0  0  0  0  0  0  0  0  0  0  0
    3.5448    0.7900    3.5900 C   0  0  0  0  0  0  0  0  0  0  0  0
    3.2968    0.0865    2.4010 C   0  0  0  0  0  0  0  0  0  0  0  0
    2.7047    0.2531   -2.2753 H   0  0  0  0  0  0  0  0  0  0  0  0
    3.8909    1.2301   -1.3977 H   0  0  0  0  0  0  0  0  0  0  0  0
    2.1786    1.6946   -1.4278 H   0  0  0  0  0  0  0  0  0  0  0  0
    0.8397   -0.9221   -0.9679 H   0  0  0  0  0  0  0  0  0  0  0  0
    0.4941    0.4811    0.0517 H   0  0  0  0  0  0  0  0  0  0  0  0
    0.9205   -1.0655    0.7932 H   0  0  0  0  0  0  0  0  0  0  0  0
    3.2480   -1.7810   -1.2219 H   0  0  0  0  0  0  0  0  0  0  0  0
    3.2736   -2.0307    0.5144 H   0  0  0  0  0  0  0  0  0  0  0  0
    4.5443   -1.0627   -0.2546 H   0  0  0  0  0  0  0  0  0  0  0  0
    2.6327    2.7464    0.3835 H   0  0  0  0  0  0  0  0  0  0  0  0
    3.1241    3.9486    2.4106 H   0  0  0  0  0  0  0  0  0  0  0  0
    3.1485    6.5008    5.6688 H   0  0  0  0  0  0  0  0  0  0  0  0
    3.4286    7.6026    7.8666 H   0  0  0  0  0  0  0  0  0  0  0  0
    3.6216    6.2306    9.9248 H   0  0  0  0  0  0  0  0  0  0  0  0
    3.6039    3.7706    9.7869 H   0  0  0  0  0  0  0  0  0  0  0  0
    3.4951    1.9915    8.4531 H   0  0  0  0  0  0  0  0  0  0  0  0
    3.7853    0.2474    4.5003 H   0  0  0  0  0  0  0  0  0  0  0  0
    3.3482   -0.9991    2.4359 H   0  0  0  0  0  0  0  0  0  0  0  0
  1  2  1  0  0  0  0
  1 21  1  0  0  0  0
  1 22  1  0  0  0  0
  1 23  1  0  0  0  0
  2  3  1  0  0  0  0
  2  4  1  0  0  0  0
  2  5  1  0  0  0  0
  3 24  1  0  0  0  0
  3 25  1  0  0  0  0
  3 26  1  0  0  0  0
  4 27  1  0  0  0  0
  4 28  1  0  0  0  0
  4 29  1  0  0  0  0
  5  6  2  0  0  0  0
  5 20  1  0  0  0  0
  6  7  1  0  0  0  0
  6 30  1  0  0  0  0
  7  8  2  0  0  0  0
  7 31  1  0  0  0  0
  8  9  1  0  0  0  0
  8 19  1  0  0  0  0
  9 10  1  0  0  0  0
 10 11  2  0  0  0  0
 10 12  1  0  0  0  0
 12 13  2  0  0  0  0
 12 17  1  0  0  0  0
 13 14  1  0  0  0  0
 13 32  1  0  0  0  0
 14 15  2  0  0  0  0
 14 33  1  0  0  0  0
 15 16  1  0  0  0  0
 15 34  1  0  0  0  0
 16 17  2  0  0  0  0
 16 35  1  0  0  0  0
 17 18  1  0  0  0  0
 18 36  1  0  0  0  0
 19 20  2  0  0  0  0
 19 37  1  0  0  0  0
 20 38  1  0  0  0  0
M  END
$$$$
