
 OpenBabel09162610133D

 26 28  0  0  0  0  0  0  0  0999 V2000
    2.2732    1.3765    0.3339 F   0  0  0  0  0  0  0  0  0  0  0  0
    2.1898    0.0497    0.0347 C   0  0  0  0  0  0  0  0  0  0  0  0
    2.7994   -0.6014    1.0641 F   0  0  0  0  0  0  0  0  0  0  0  0
    0.8692   -0.2688    0.1190 F   0  0  0  0  0  0  0  0  0  0  0  0
    2.7850   -0.3049   -1.3057 C   0  0  0  0  0  0  0  0  0  0  0  0
    3.3004    0.6828   -2.1562 C   0  0  0  0  0  0  0  0  0  0  0  0
    3.8559    0.3346   -3.3867 C   0  0  0  0  0  0  0  0  0  0  0  0
    3.9088   -1.0051   -3.7776 C   0  0  0  0  0  0  0  0  0  0  0  0
    3.4054   -2.0161   -2.9467 C   0  0  0  0  0  0  0  0  0  0  0  0
    3.4847   -3.4293   -3.3147 C   0  0  0  0  0  0  0  0  0  0  0  0
    2.9870   -4.4786   -2.6815 N   0  0  0  0  0  0  0  0  0  0  0  0
    3.4338   -5.5385   -3.4275 C   0  0  0  0  0  0  0  0  0  0  0  0
    3.2716   -6.9196   -3.2780 C   0  0  0  0  0  0  0  0  0  0  0  0
    3.8974   -7.7349   -4.2249 C   0  0  0  0  0  0  0  0  0  0  0  0
    4.6311   -7.1483   -5.2546 C   0  0  0  0  0  0  0  0  0  0  0  0
    4.8067   -5.8190   -5.4455 N   0  0  0  0  0  0  0  0  0  0  0  0
    4.1891   -5.0851   -4.5029 C   0  0  0  0  0  0  0  0  0  0  0  0
    4.2146   -3.7247   -4.4373 O   0  0  0  0  0  0  0  0  0  0  0  0
    2.8356   -1.6495   -1.7165 C   0  0  0  0  0  0  0  0  0  0  0  0
    3.2758    1.7313   -1.8616 H   0  0  0  0  0  0  0  0  0  0  0  0
    4.2564    1.1058   -4.0413 H   0  0  0  0  0  0  0  0  0  0  0  0
    4.3557   -1.2515   -4.7398 H   0  0  0  0  0  0  0  0  0  0  0  0
    2.6940   -7.3305   -2.4585 H   0  0  0  0  0  0  0  0  0  0  0  0
    3.8181   -8.8161   -4.1585 H   0  0  0  0  0  0  0  0  0  0  0  0
    5.1262   -7.7756   -5.9937 H   0  0  0  0  0  0  0  0  0  0  0  0
    2.4375   -2.4236   -1.0585 H   0  0  0  0  0  0  0  0  0  0  0  0
  1  2  1  0  0  0  0
  2  3  1  0  0  0  0
  2  4  1  0  0  0  0
  2  5  1  0  0  0  0
  5  6  2  0  0  0  0
  5 19  1  0  0  0  0
  6  7  1  0  0  0  0
  6 20  1  0  0  0  0
  7  8  2  0  0  0  0
  7 21  1  0  0  0  0
  8  9  1  0  0  0  0
  8 22  1  0  0  0  0
  9 10  1  0  0  0  0
  9 19  2  0  0  0  0
 10 11  2  0  0  0  0
 10 18  1  0  0  0  0
 11 12  1  0  0  0  0
 12 13  2  0  0  0  0
 12 17  1  0  0  0  0
 13 14  1  0  0  0  0
 13 23  1  0  0  0  0
 14 15  2  0  0  0  0
 14 24  1  0  0  0  0
 15 16  1  0  0  0  0
 15 25  1  0  0  0  0
 16 17  2  0  0  0  0
 17 18  1  0  0  0  0
 19 26  1  0  0  0  0
M  END
$$$$
