
 OpenBabel09162610133D

 29 31  0  0  0  0  0  0  0  0999 V2000
   -2.4184   -0.1822   -0.1680 C   0  0  0  0  0  0  0  0  0  0  0  0
   -0.9246   -0.0829   -0.1151 C   0  0  0  0  0  0  0  0  0  0  0  0
   -0.1310   -1.2063   -0.0342 C   0  0  0  0  0  0  0  0  0  0  0  0
    1.2261   -0.9837    0.0146 C   0  0  0  0  0  0  0  0  0  0  0  0
    1.7854    0.2417   -0.0097 N   0  0  0  0  0  0  0  0  0  0  0  0
    0.9336    1.2767   -0.0922 C   0  0  0  0  0  0  0  0  0  0  0  0
    1.5603    2.9322   -0.1188 S   0  0  0  0  0  0  0  0  0  0  0  0
    3.3513    2.6071   -0.1239 C   0  0  0  0  0  0  0  0  0  0  0  0
    4.1068    3.9032   -0.1911 C   0  0  0  0  0  0  0  0  0  0  0  0
    4.5139    4.4703   -1.3086 N   0  0  0  0  0  0  0  0  0  0  0  0
    5.1224    5.6839   -1.0318 C   0  0  0  0  0  0  0  0  0  0  0  0
    5.6446    6.5830   -1.9845 C   0  0  0  0  0  0  0  0  0  0  0  0
    6.2276    7.7834   -1.5643 C   0  0  0  0  0  0  0  0  0  0  0  0
    6.2994    8.0949   -0.2104 C   0  0  0  0  0  0  0  0  0  0  0  0
    5.7925    7.2185    0.7545 C   0  0  0  0  0  0  0  0  0  0  0  0
    5.2059    6.0173    0.3206 C   0  0  0  0  0  0  0  0  0  0  0  0
    4.4973    4.7554    1.2526 S   0  0  0  0  0  0  0  0  0  0  0  0
   -0.4045    1.1606   -0.1420 N   0  0  0  0  0  0  0  0  0  0  0  0
   -2.7573   -1.2227   -0.1785 H   0  0  0  0  0  0  0  0  0  0  0  0
   -2.7913    0.3069   -1.0734 H   0  0  0  0  0  0  0  0  0  0  0  0
   -2.8543    0.3118    0.7060 H   0  0  0  0  0  0  0  0  0  0  0  0
   -0.5404   -2.2072   -0.0104 H   0  0  0  0  0  0  0  0  0  0  0  0
    1.9252   -1.8127    0.0782 H   0  0  0  0  0  0  0  0  0  0  0  0
    3.6124    2.0016   -0.9990 H   0  0  0  0  0  0  0  0  0  0  0  0
    3.6351    2.0462    0.7736 H   0  0  0  0  0  0  0  0  0  0  0  0
    5.5824    6.3371   -3.0398 H   0  0  0  0  0  0  0  0  0  0  0  0
    6.6233    8.4759   -2.3035 H   0  0  0  0  0  0  0  0  0  0  0  0
    6.7532    9.0328    0.1035 H   0  0  0  0  0  0  0  0  0  0  0  0
    5.8459    7.4644    1.8106 H   0  0  0  0  0  0  0  0  0  0  0  0
  1  2  1  0  0  0  0
  1 19  1  0  0  0  0
  1 20  1  0  0  0  0
  1 21  1  0  0  0  0
  2  3  2  0  0  0  0
  2 18  1  0  0  0  0
  3  4  1  0  0  0  0
  3 22  1  0  0  0  0
  4  5  2  0  0  0  0
  4 23  1  0  0  0  0
  5  6  1  0  0  0  0
  6  7  1  0  0  0  0
  6 18  2  0  0  0  0
  7  8  1  0  0  0  0
  8  9  1  0  0  0  0
  8 24  1  0  0  0  0
  8 25  1  0  0  0  0
  9 10  2  0  0  0  0
  9 17  1  0  0  0  0
 10 11  1  0  0  0  0
 11 12  2  0  0  0  0
 11 16  1  0  0  0  0
 12 13  1  0  0  0  0
 12 26  1  0  0  0  0
 13 14  2  0  0  0  0
 13 27  1  0  0  0  0
 14 15  1  0  0  0  0
 14 28  1  0  0  0  0
 15 16  2  0  0  0  0
 15 29  1  0  0  0  0
 16 17  1  0  0  0  0
M  END
$$$$
