
 OpenBabel09162610133D

 24 26  0  0  0  0  0  0  0  0999 V2000
    1.4241   -0.4161   -1.5088 S   0  0  0  0  0  0  0  0  0  0  0  0
    0.0428   -0.1742   -0.6552 C   0  0  0  0  0  0  0  0  0  0  0  0
   -0.4441   -0.8576    0.4188 N   0  0  0  0  0  0  0  0  0  0  0  0
   -1.6258   -0.3208    0.8313 N   0  0  0  0  0  0  0  0  0  0  0  0
   -1.8031    0.6569   -0.0096 C   0  0  0  0  0  0  0  0  0  0  0  0
   -2.9353    1.5532   -0.0053 C   0  0  0  0  0  0  0  0  0  0  0  0
   -3.9475    1.5052    0.9348 C   0  0  0  0  0  0  0  0  0  0  0  0
   -5.1181    2.7054    0.6133 S   0  0  0  0  0  0  0  0  0  0  0  0
   -4.2297    3.2042   -0.7802 C   0  0  0  0  0  0  0  0  0  0  0  0
   -4.7144    4.3016   -1.6375 C   0  0  0  0  0  0  0  0  0  0  0  0
   -3.7882    5.0898   -2.3388 C   0  0  0  0  0  0  0  0  0  0  0  0
   -4.2129    6.1384   -3.1628 C   0  0  0  0  0  0  0  0  0  0  0  0
   -5.5717    6.4063   -3.3059 C   0  0  0  0  0  0  0  0  0  0  0  0
   -6.5066    5.6269   -2.6301 C   0  0  0  0  0  0  0  0  0  0  0  0
   -6.0814    4.5818   -1.8043 C   0  0  0  0  0  0  0  0  0  0  0  0
   -3.0980    2.5487   -0.9672 N   0  0  0  0  0  0  0  0  0  0  0  0
   -0.8311    0.8173   -0.9524 O   0  0  0  0  0  0  0  0  0  0  0  0
   -0.0196   -1.6554    0.8777 H   0  0  0  0  0  0  0  0  0  0  0  0
   -4.0472    0.8335    1.7763 H   0  0  0  0  0  0  0  0  0  0  0  0
   -2.7218    4.8917   -2.2429 H   0  0  0  0  0  0  0  0  0  0  0  0
   -3.4803    6.7417   -3.6933 H   0  0  0  0  0  0  0  0  0  0  0  0
   -5.9029    7.2185   -3.9481 H   0  0  0  0  0  0  0  0  0  0  0  0
   -7.5688    5.8268   -2.7476 H   0  0  0  0  0  0  0  0  0  0  0  0
   -6.8408    3.9838   -1.3063 H   0  0  0  0  0  0  0  0  0  0  0  0
  1  2  2  0  0  0  0
  2  3  1  0  0  0  0
  2 17  1  0  0  0  0
  3  4  1  0  0  0  0
  3 18  1  0  0  0  0
  4  5  2  0  0  0  0
  5  6  1  0  0  0  0
  5 17  1  0  0  0  0
  6  7  2  0  0  0  0
  6 16  1  0  0  0  0
  7  8  1  0  0  0  0
  7 19  1  0  0  0  0
  8  9  1  0  0  0  0
  9 10  1  0  0  0  0
  9 16  2  0  0  0  0
 10 11  2  0  0  0  0
 10 15  1  0  0  0  0
 11 12  1  0  0  0  0
 11 20  1  0  0  0  0
 12 13  2  0  0  0  0
 12 21  1  0  0  0  0
 13 14  1  0  0  0  0
 13 22  1  0  0  0  0
 14 15  2  0  0  0  0
 14 23  1  0  0  0  0
 15 24  1  0  0  0  0
M  END
$$$$
