
 OpenBabel09162610133D

 32 35  0  0  0  0  0  0  0  0999 V2000
    2.0422    0.1132    2.2120 N   0  0  0  0  0  0  0  0  0  0  0  0
    2.8610    0.1307    1.1156 C   0  0  0  0  0  0  0  0  0  0  0  0
    3.2515   -1.0317    0.6349 N   0  0  0  0  0  0  0  0  0  0  0  0
    4.0813   -1.0490   -0.4734 C   0  0  0  0  0  0  0  0  0  0  0  0
    4.5325    0.0530   -1.0942 C   0  0  0  0  0  0  0  0  0  0  0  0
    4.1442    1.2779   -0.5927 N   0  0  0  0  0  0  0  0  0  0  0  0
    4.4373    2.5539   -0.9758 C   0  0  0  0  0  0  0  0  0  0  0  0
    3.7731    3.3723   -0.0788 C   0  0  0  0  0  0  0  0  0  0  0  0
    3.8199    4.8316   -0.0854 C   0  0  0  0  0  0  0  0  0  0  0  0
    4.3776    5.5289   -1.1662 C   0  0  0  0  0  0  0  0  0  0  0  0
    4.4888    6.9207   -1.1476 C   0  0  0  0  0  0  0  0  0  0  0  0
    4.0398    7.6561   -0.0469 C   0  0  0  0  0  0  0  0  0  0  0  0
    4.1848    9.0515   -0.0086 C   0  0  0  0  0  0  0  0  0  0  0  0
    3.7385    9.7824    1.0910 C   0  0  0  0  0  0  0  0  0  0  0  0
    3.1314    9.1263    2.1575 C   0  0  0  0  0  0  0  0  0  0  0  0
    2.9803    7.7364    2.1319 C   0  0  0  0  0  0  0  0  0  0  0  0
    3.4395    6.9794    1.0395 C   0  0  0  0  0  0  0  0  0  0  0  0
    3.3326    5.5714    1.0026 C   0  0  0  0  0  0  0  0  0  0  0  0
    3.0893    2.6111    0.8564 N   0  0  0  0  0  0  0  0  0  0  0  0
    3.3239    1.3631    0.4980 C   0  0  0  0  0  0  0  0  0  0  0  0
    2.0946   -0.7557    2.7279 H   0  0  0  0  0  0  0  0  0  0  0  0
    2.0821    0.9552    2.7761 H   0  0  0  0  0  0  0  0  0  0  0  0
    4.3627   -2.0351   -0.8360 H   0  0  0  0  0  0  0  0  0  0  0  0
    5.1815    0.0342   -1.9576 H   0  0  0  0  0  0  0  0  0  0  0  0
    5.0842    2.7569   -1.8159 H   0  0  0  0  0  0  0  0  0  0  0  0
    4.7427    5.0051   -2.0446 H   0  0  0  0  0  0  0  0  0  0  0  0
    4.9393    7.4222   -2.0009 H   0  0  0  0  0  0  0  0  0  0  0  0
    4.6562    9.5790   -0.8350 H   0  0  0  0  0  0  0  0  0  0  0  0
    3.8660   10.8615    1.1127 H   0  0  0  0  0  0  0  0  0  0  0  0
    2.7787    9.6962    3.0133 H   0  0  0  0  0  0  0  0  0  0  0  0
    2.5052    7.2454    2.9781 H   0  0  0  0  0  0  0  0  0  0  0  0
    2.8809    5.0448    1.8422 H   0  0  0  0  0  0  0  0  0  0  0  0
  1  2  1  0  0  0  0
  1 21  1  0  0  0  0
  1 22  1  0  0  0  0
  2  3  2  0  0  0  0
  2 20  1  0  0  0  0
  3  4  1  0  0  0  0
  4  5  2  0  0  0  0
  4 23  1  0  0  0  0
  5  6  1  0  0  0  0
  5 24  1  0  0  0  0
  6  7  1  0  0  0  0
  6 20  1  0  0  0  0
  7  8  2  0  0  0  0
  7 25  1  0  0  0  0
  8  9  1  0  0  0  0
  8 19  1  0  0  0  0
  9 10  2  0  0  0  0
  9 18  1  0  0  0  0
 10 11  1  0  0  0  0
 10 26  1  0  0  0  0
 11 12  2  0  0  0  0
 11 27  1  0  0  0  0
 12 13  1  0  0  0  0
 12 17  1  0  0  0  0
 13 14  2  0  0  0  0
 13 28  1  0  0  0  0
 14 15  1  0  0  0  0
 14 29  1  0  0  0  0
 15 16  2  0  0  0  0
 15 30  1  0  0  0  0
 16 17  1  0  0  0  0
 16 31  1  0  0  0  0
 17 18  2  0  0  0  0
 18 32  1  0  0  0  0
 19 20  2  0  0  0  0
M  END
$$$$
