
 OpenBabel09162610133D

 41 43  0  0  1  0  0  0  0  0999 V2000
    2.9982   -0.2625    0.6565 C   0  0  0  0  0  0  0  0  0  0  0  0
    1.5083   -0.1096    0.7269 C   0  0  0  0  0  0  0  0  0  0  0  0
    0.9340    1.0762    1.1641 C   0  0  0  0  0  0  0  0  0  0  0  0
   -0.4496    1.1809    1.2677 C   0  0  0  0  0  0  0  0  0  0  0  0
   -1.3070    0.1091    0.9421 C   0  0  0  0  0  0  0  0  0  0  0  0
   -2.7736    0.3701    1.1538 C   0  0  0  0  0  0  0  0  0  0  0  0
   -0.7489   -1.0880    0.4394 C   0  0  0  0  0  0  0  0  0  0  0  0
   -1.4593   -2.3578   -0.0154 C   0  0  0  0  0  0  0  0  0  0  0  0
   -2.9098   -2.3275   -0.1270 N   0  0  0  0  0  0  0  0  0  0  0  0
   -3.8168   -2.8470    0.7830 C   0  0  0  0  0  0  0  0  0  0  0  0
   -3.4310   -3.5353    2.0557 C   0  0  1  0  0  0  0  0  0  0  0  0
   -4.6349   -3.8677    2.9289 C   0  0  0  0  0  0  0  0  0  0  0  0
   -2.7625   -4.7459    1.7051 O   0  0  0  0  0  0  0  0  0  0  0  0
   -5.0519   -2.5543    0.4102 N   0  0  0  0  0  0  0  0  0  0  0  0
   -4.9432   -1.8661   -0.7688 C   0  0  0  0  0  0  0  0  0  0  0  0
   -5.9445   -1.2607   -1.5387 C   0  0  0  0  0  0  0  0  0  0  0  0
   -5.5820   -0.6093   -2.7232 C   0  0  0  0  0  0  0  0  0  0  0  0
   -4.2516   -0.5853   -3.1431 C   0  0  0  0  0  0  0  0  0  0  0  0
   -3.2354   -1.1691   -2.3776 C   0  0  0  0  0  0  0  0  0  0  0  0
   -3.6183   -1.7834   -1.1769 C   0  0  0  0  0  0  0  0  0  0  0  0
    0.6668   -1.1685    0.3592 C   0  0  0  0  0  0  0  0  0  0  0  0
    3.5100    0.6484    0.9849 H   0  0  0  0  0  0  0  0  0  0  0  0
    3.3111   -0.4726   -0.3716 H   0  0  0  0  0  0  0  0  0  0  0  0
    3.3229   -1.0796    1.3085 H   0  0  0  0  0  0  0  0  0  0  0  0
    1.5535    1.9263    1.4420 H   0  0  0  0  0  0  0  0  0  0  0  0
   -0.8669    2.1239    1.6209 H   0  0  0  0  0  0  0  0  0  0  0  0
   -2.9352    1.2733    1.7544 H   0  0  0  0  0  0  0  0  0  0  0  0
   -3.2402   -0.4348    1.7222 H   0  0  0  0  0  0  0  0  0  0  0  0
   -3.2781    0.5371    0.2005 H   0  0  0  0  0  0  0  0  0  0  0  0
   -1.1801   -3.1738    0.6567 H   0  0  0  0  0  0  0  0  0  0  0  0
   -1.0915   -2.6344   -1.0116 H   0  0  0  0  0  0  0  0  0  0  0  0
   -2.7325   -2.9108    2.6250 H   0  0  0  0  0  0  0  0  0  0  0  0
   -5.3378   -4.5245    2.4019 H   0  0  0  0  0  0  0  0  0  0  0  0
   -5.1739   -2.9635    3.2305 H   0  0  0  0  0  0  0  0  0  0  0  0
   -4.3202   -4.4059    3.8293 H   0  0  0  0  0  0  0  0  0  0  0  0
   -3.4416   -5.3381    1.3386 H   0  0  0  0  0  0  0  0  0  0  0  0
   -6.9753   -1.2819   -1.2025 H   0  0  0  0  0  0  0  0  0  0  0  0
   -6.3469   -0.1151   -3.3179 H   0  0  0  0  0  0  0  0  0  0  0  0
   -3.9940   -0.0808   -4.0730 H   0  0  0  0  0  0  0  0  0  0  0  0
   -2.2002   -1.1190   -2.6938 H   0  0  0  0  0  0  0  0  0  0  0  0
    1.1289   -2.0916    0.0058 H   0  0  0  0  0  0  0  0  0  0  0  0
  1  2  1  0  0  0  0
  1 22  1  0  0  0  0
  1 23  1  0  0  0  0
  1 24  1  0  0  0  0
  2  3  2  0  0  0  0
  2 21  1  0  0  0  0
  3  4  1  0  0  0  0
  3 25  1  0  0  0  0
  4  5  2  0  0  0  0
  4 26  1  0  0  0  0
  5  6  1  0  0  0  0
  5  7  1  0  0  0  0
  6 27  1  0  0  0  0
  6 28  1  0  0  0  0
  6 29  1  0  0  0  0
  7  8  1  0  0  0  0
  7 21  2  0  0  0  0
  8  9  1  0  0  0  0
  8 30  1  0  0  0  0
  8 31  1  0  0  0  0
  9 10  1  0  0  0  0
  9 20  1  0  0  0  0
 10 11  1  0  0  0  0
 10 14  2  0  0  0  0
 11 12  1  0  0  0  0
 11 13  1  0  0  0  0
 11 32  1  1  0  0  0
 12 33  1  0  0  0  0
 12 34  1  0  0  0  0
 12 35  1  0  0  0  0
 13 36  1  0  0  0  0
 14 15  1  0  0  0  0
 15 16  2  0  0  0  0
 15 20  1  0  0  0  0
 16 17  1  0  0  0  0
 16 37  1  0  0  0  0
 17 18  2  0  0  0  0
 17 38  1  0  0  0  0
 18 19  1  0  0  0  0
 18 39  1  0  0  0  0
 19 20  2  0  0  0  0
 19 40  1  0  0  0  0
 21 41  1  0  0  0  0
M  END
$$$$
