
 OpenBabel09162610133D

 32 33  0  0  0  0  0  0  0  0999 V2000
   -2.4037   -0.5078    0.1082 C   0  0  0  0  0  0  0  0  0  0  0  0
   -1.0448    0.1026   -0.0086 C   0  0  0  0  0  0  0  0  0  0  0  0
   -0.8225    1.3923    0.0303 N   0  0  0  0  0  0  0  0  0  0  0  0
    0.5495    1.5503   -0.1632 N   0  0  0  0  0  0  0  0  0  0  0  0
    1.1288    2.8407   -0.0897 C   0  0  0  0  0  0  0  0  0  0  0  0
    2.4597    3.0658   -0.4771 C   0  0  0  0  0  0  0  0  0  0  0  0
    3.0627    4.3155   -0.3191 C   0  0  0  0  0  0  0  0  0  0  0  0
    2.3375    5.3624    0.2363 C   0  0  0  0  0  0  0  0  0  0  0  0
    3.0922    6.8883    0.4739 Cl  0  0  0  0  0  0  0  0  0  0  0  0
    1.0088    5.1721    0.6071 C   0  0  0  0  0  0  0  0  0  0  0  0
    0.4031    3.9208    0.4319 C   0  0  0  0  0  0  0  0  0  0  0  0
    1.2435    0.3481   -0.3585 C   0  0  0  0  0  0  0  0  0  0  0  0
    2.4151    0.1535   -0.6351 O   0  0  0  0  0  0  0  0  0  0  0  0
    0.2001   -0.6771   -0.1476 C   0  0  0  0  0  0  0  0  0  0  0  0
    0.3311   -2.0045   -0.0268 C   0  0  0  0  0  0  0  0  0  0  0  0
    1.4551   -2.8191    0.0735 N   0  0  0  0  0  0  0  0  0  0  0  0
    2.7598   -2.3481    0.5502 C   0  0  0  0  0  0  0  0  0  0  0  0
    1.4578   -4.2122   -0.3692 C   0  0  0  0  0  0  0  0  0  0  0  0
   -3.1668    0.2749    0.1300 H   0  0  0  0  0  0  0  0  0  0  0  0
   -2.4725   -1.0939    1.0286 H   0  0  0  0  0  0  0  0  0  0  0  0
   -2.5923   -1.1562   -0.7509 H   0  0  0  0  0  0  0  0  0  0  0  0
    3.0645    2.2791   -0.9206 H   0  0  0  0  0  0  0  0  0  0  0  0
    4.0972    4.4518   -0.6227 H   0  0  0  0  0  0  0  0  0  0  0  0
    0.4408    5.9871    1.0477 H   0  0  0  0  0  0  0  0  0  0  0  0
   -0.6284    3.7883    0.7501 H   0  0  0  0  0  0  0  0  0  0  0  0
   -0.5716   -2.6070    0.0599 H   0  0  0  0  0  0  0  0  0  0  0  0
    2.6517   -1.5193    1.2589 H   0  0  0  0  0  0  0  0  0  0  0  0
    3.3909   -2.0445   -0.2898 H   0  0  0  0  0  0  0  0  0  0  0  0
    3.2858   -3.1428    1.0905 H   0  0  0  0  0  0  0  0  0  0  0  0
    0.4690   -4.5367   -0.7089 H   0  0  0  0  0  0  0  0  0  0  0  0
    1.7712   -4.8707    0.4463 H   0  0  0  0  0  0  0  0  0  0  0  0
    2.1572   -4.3322   -1.2031 H   0  0  0  0  0  0  0  0  0  0  0  0
  1  2  1  0  0  0  0
  1 19  1  0  0  0  0
  1 20  1  0  0  0  0
  1 21  1  0  0  0  0
  2  3  2  0  0  0  0
  2 14  1  0  0  0  0
  3  4  1  0  0  0  0
  4  5  1  0  0  0  0
  4 12  1  0  0  0  0
  5  6  2  0  0  0  0
  5 11  1  0  0  0  0
  6  7  1  0  0  0  0
  6 22  1  0  0  0  0
  7  8  2  0  0  0  0
  7 23  1  0  0  0  0
  8  9  1  0  0  0  0
  8 10  1  0  0  0  0
 10 11  2  0  0  0  0
 10 24  1  0  0  0  0
 11 25  1  0  0  0  0
 12 13  2  0  0  0  0
 12 14  1  0  0  0  0
 14 15  2  0  0  0  0
 15 16  1  0  0  0  0
 15 26  1  0  0  0  0
 16 17  1  0  0  0  0
 16 18  1  0  0  0  0
 17 27  1  0  0  0  0
 17 28  1  0  0  0  0
 17 29  1  0  0  0  0
 18 30  1  0  0  0  0
 18 31  1  0  0  0  0
 18 32  1  0  0  0  0
M  END
$$$$
