
 OpenBabel09162610133D

 30 32  0  0  0  0  0  0  0  0999 V2000
    1.1458    0.1031   -0.1764 S   0  0  0  0  0  0  0  0  0  0  0  0
    2.9127    0.1305   -0.1357 C   0  0  0  0  0  0  0  0  0  0  0  0
    3.5478   -1.0518   -0.0270 N   0  0  0  0  0  0  0  0  0  0  0  0
    4.9104   -1.0733    0.0397 N   0  0  0  0  0  0  0  0  0  0  0  0
    5.6069    0.0862   -0.0001 C   0  0  0  0  0  0  0  0  0  0  0  0
    7.0751   -0.0667    0.0978 C   0  0  0  0  0  0  0  0  0  0  0  0
    7.7284   -1.0943   -0.6089 C   0  0  0  0  0  0  0  0  0  0  0  0
    9.1239   -1.1848   -0.6401 C   0  0  0  0  0  0  0  0  0  0  0  0
    9.8987   -0.2449    0.0317 C   0  0  0  0  0  0  0  0  0  0  0  0
    9.2790    0.7444    0.7867 C   0  0  0  0  0  0  0  0  0  0  0  0
    7.8836    0.8050    0.8507 C   0  0  0  0  0  0  0  0  0  0  0  0
    4.8886    1.2899   -0.1467 C   0  0  0  0  0  0  0  0  0  0  0  0
    5.5100    2.6377   -0.2001 C   0  0  0  0  0  0  0  0  0  0  0  0
    6.6488    2.9197   -0.9797 C   0  0  0  0  0  0  0  0  0  0  0  0
    7.3498    4.1199   -0.8278 C   0  0  0  0  0  0  0  0  0  0  0  0
    6.8797    5.0962    0.0450 C   0  0  0  0  0  0  0  0  0  0  0  0
    5.6907    4.8889    0.7381 C   0  0  0  0  0  0  0  0  0  0  0  0
    5.0121    3.6737    0.6128 C   0  0  0  0  0  0  0  0  0  0  0  0
    3.5305    1.3156   -0.2037 N   0  0  0  0  0  0  0  0  0  0  0  0
    1.0706   -1.2294   -0.0732 H   0  0  0  0  0  0  0  0  0  0  0  0
    7.1479   -1.8295   -1.1657 H   0  0  0  0  0  0  0  0  0  0  0  0
    9.6031   -1.9804   -1.2054 H   0  0  0  0  0  0  0  0  0  0  0  0
   10.9833   -0.2873   -0.0264 H   0  0  0  0  0  0  0  0  0  0  0  0
    9.8765    1.4829    1.3158 H   0  0  0  0  0  0  0  0  0  0  0  0
    7.4386    1.5868    1.4640 H   0  0  0  0  0  0  0  0  0  0  0  0
    7.0502    2.1738   -1.6639 H   0  0  0  0  0  0  0  0  0  0  0  0
    8.2782    4.2758   -1.3719 H   0  0  0  0  0  0  0  0  0  0  0  0
    7.4369    6.0190    0.1816 H   0  0  0  0  0  0  0  0  0  0  0  0
    5.3015    5.6615    1.3964 H   0  0  0  0  0  0  0  0  0  0  0  0
    4.0987    3.5214    1.1871 H   0  0  0  0  0  0  0  0  0  0  0  0
  1  2  1  0  0  0  0
  1 20  1  0  0  0  0
  2  3  2  0  0  0  0
  2 19  1  0  0  0  0
  3  4  1  0  0  0  0
  4  5  2  0  0  0  0
  5  6  1  0  0  0  0
  5 12  1  0  0  0  0
  6  7  2  0  0  0  0
  6 11  1  0  0  0  0
  7  8  1  0  0  0  0
  7 21  1  0  0  0  0
  8  9  2  0  0  0  0
  8 22  1  0  0  0  0
  9 10  1  0  0  0  0
  9 23  1  0  0  0  0
 10 11  2  0  0  0  0
 10 24  1  0  0  0  0
 11 25  1  0  0  0  0
 12 13  1  0  0  0  0
 12 19  2  0  0  0  0
 13 14  2  0  0  0  0
 13 18  1  0  0  0  0
 14 15  1  0  0  0  0
 14 26  1  0  0  0  0
 15 16  2  0  0  0  0
 15 27  1  0  0  0  0
 16 17  1  0  0  0  0
 16 28  1  0  0  0  0
 17 18  2  0  0  0  0
 17 29  1  0  0  0  0
 18 30  1  0  0  0  0
M  END
$$$$
