
 OpenBabel09162610133D

 33 36  0  0  0  0  0  0  0  0999 V2000
    3.0309    1.4217   -0.2479 C   0  0  0  0  0  0  0  0  0  0  0  0
    3.5040    0.1242   -0.4011 C   0  0  0  0  0  0  0  0  0  0  0  0
    2.6290   -0.9632   -0.3764 C   0  0  0  0  0  0  0  0  0  0  0  0
    1.2586   -0.7151   -0.1668 C   0  0  0  0  0  0  0  0  0  0  0  0
    0.7592    0.5815   -0.0469 C   0  0  0  0  0  0  0  0  0  0  0  0
    1.6637    1.6649   -0.0852 C   0  0  0  0  0  0  0  0  0  0  0  0
   -0.6620    0.4880    0.0592 C   0  0  0  0  0  0  0  0  0  0  0  0
   -1.6985    1.4439    0.1284 C   0  0  0  0  0  0  0  0  0  0  0  0
   -3.0297    1.0193    0.1800 C   0  0  0  0  0  0  0  0  0  0  0  0
   -3.3373   -0.3385    0.1845 C   0  0  0  0  0  0  0  0  0  0  0  0
   -2.3286   -1.3040    0.1380 C   0  0  0  0  0  0  0  0  0  0  0  0
   -0.9947   -0.8669    0.0671 C   0  0  0  0  0  0  0  0  0  0  0  0
    0.1873   -1.5829   -0.0168 N   0  0  0  0  0  0  0  0  0  0  0  0
    0.2380   -2.9779   -0.0730 N   0  0  0  0  0  0  0  0  0  0  0  0
    1.1775   -3.7696    0.6250 C   0  0  0  0  0  0  0  0  0  0  0  0
    1.7743   -3.3576    1.8185 C   0  0  0  0  0  0  0  0  0  0  0  0
    2.7340   -4.1703    2.4011 C   0  0  0  0  0  0  0  0  0  0  0  0
    3.1008   -5.3719    1.9101 N   0  0  0  0  0  0  0  0  0  0  0  0
    2.4603   -5.7867    0.7986 C   0  0  0  0  0  0  0  0  0  0  0  0
    1.4970   -5.0396    0.1391 C   0  0  0  0  0  0  0  0  0  0  0  0
    3.7279    2.2560   -0.2633 H   0  0  0  0  0  0  0  0  0  0  0  0
    4.5701   -0.0515   -0.5349 H   0  0  0  0  0  0  0  0  0  0  0  0
    3.0120   -1.9707   -0.4918 H   0  0  0  0  0  0  0  0  0  0  0  0
    1.3020    2.6852    0.0138 H   0  0  0  0  0  0  0  0  0  0  0  0
   -1.4669    2.5057    0.1180 H   0  0  0  0  0  0  0  0  0  0  0  0
   -3.8277    1.7568    0.2125 H   0  0  0  0  0  0  0  0  0  0  0  0
   -4.3787   -0.6513    0.2235 H   0  0  0  0  0  0  0  0  0  0  0  0
   -2.5712   -2.3632    0.1471 H   0  0  0  0  0  0  0  0  0  0  0  0
    0.0886   -3.2851   -1.0280 H   0  0  0  0  0  0  0  0  0  0  0  0
    1.5334   -2.4052    2.2771 H   0  0  0  0  0  0  0  0  0  0  0  0
    3.2557   -3.8591    3.3020 H   0  0  0  0  0  0  0  0  0  0  0  0
    2.7562   -6.7652    0.4319 H   0  0  0  0  0  0  0  0  0  0  0  0
    1.0288   -5.4389   -0.7532 H   0  0  0  0  0  0  0  0  0  0  0  0
  1  2  2  0  0  0  0
  1  6  1  0  0  0  0
  1 21  1  0  0  0  0
  2  3  1  0  0  0  0
  2 22  1  0  0  0  0
  3  4  2  0  0  0  0
  3 23  1  0  0  0  0
  4  5  1  0  0  0  0
  4 13  1  0  0  0  0
  5  6  2  0  0  0  0
  5  7  1  0  0  0  0
  6 24  1  0  0  0  0
  7  8  2  0  0  0  0
  7 12  1  0  0  0  0
  8  9  1  0  0  0  0
  8 25  1  0  0  0  0
  9 10  2  0  0  0  0
  9 26  1  0  0  0  0
 10 11  1  0  0  0  0
 10 27  1  0  0  0  0
 11 12  2  0  0  0  0
 11 28  1  0  0  0  0
 12 13  1  0  0  0  0
 13 14  1  0  0  0  0
 14 15  1  0  0  0  0
 14 29  1  0  0  0  0
 15 16  2  0  0  0  0
 15 20  1  0  0  0  0
 16 17  1  0  0  0  0
 16 30  1  0  0  0  0
 17 18  2  0  0  0  0
 17 31  1  0  0  0  0
 18 19  1  0  0  0  0
 19 20  2  0  0  0  0
 19 32  1  0  0  0  0
 20 33  1  0  0  0  0
M  END
$$$$
