
 OpenBabel09162610133D

 34 36  0  0  0  0  0  0  0  0999 V2000
    0.5726    0.1022   -2.1967 C   0  0  0  0  0  0  0  0  0  0  0  0
   -0.2849    0.0195   -0.9618 C   0  0  0  0  0  0  0  0  0  0  0  0
   -1.6825    0.1451   -1.0723 C   0  0  0  0  0  0  0  0  0  0  0  0
   -2.4993    0.0372    0.0660 C   0  0  0  0  0  0  0  0  0  0  0  0
   -4.2683    0.0273   -0.1144 S   0  0  0  0  0  0  0  0  0  0  0  0
   -4.5733   -0.5006   -1.4299 O   0  0  0  0  0  0  0  0  0  0  0  0
   -4.8500   -0.5780    1.0667 O   0  0  0  0  0  0  0  0  0  0  0  0
   -4.7325    1.6560   -0.1140 N   0  0  0  0  0  0  0  0  0  0  0  0
   -4.9885    2.4402    0.9970 C   0  0  0  0  0  0  0  0  0  0  0  0
   -5.0480    2.0328    2.4247 C   0  0  0  0  0  0  0  0  0  0  0  0
   -5.2349    3.6823    0.6218 N   0  0  0  0  0  0  0  0  0  0  0  0
   -5.1246    3.7054   -0.7415 C   0  0  0  0  0  0  0  0  0  0  0  0
   -5.3089    4.7868   -1.6165 C   0  0  0  0  0  0  0  0  0  0  0  0
   -5.1318    4.5856   -2.9881 C   0  0  0  0  0  0  0  0  0  0  0  0
   -4.7753    3.3310   -3.4772 C   0  0  0  0  0  0  0  0  0  0  0  0
   -4.5918    2.2398   -2.6182 C   0  0  0  0  0  0  0  0  0  0  0  0
   -4.7786    2.4550   -1.2424 C   0  0  0  0  0  0  0  0  0  0  0  0
   -1.9311   -0.2060    1.3184 C   0  0  0  0  0  0  0  0  0  0  0  0
   -0.5447   -0.3247    1.4340 C   0  0  0  0  0  0  0  0  0  0  0  0
    0.2733   -0.2143    0.3054 C   0  0  0  0  0  0  0  0  0  0  0  0
    1.9763   -0.4064    0.5221 Cl  0  0  0  0  0  0  0  0  0  0  0  0
   -0.0296    0.2787   -3.0941 H   0  0  0  0  0  0  0  0  0  0  0  0
    1.1152   -0.8371   -2.3463 H   0  0  0  0  0  0  0  0  0  0  0  0
    1.2872    0.9271   -2.1119 H   0  0  0  0  0  0  0  0  0  0  0  0
   -2.1315    0.2910   -2.0527 H   0  0  0  0  0  0  0  0  0  0  0  0
   -4.7229    1.0211    2.6465 H   0  0  0  0  0  0  0  0  0  0  0  0
   -6.0740    2.1496    2.7927 H   0  0  0  0  0  0  0  0  0  0  0  0
   -4.4123    2.7021    3.0154 H   0  0  0  0  0  0  0  0  0  0  0  0
   -5.5911    5.7594   -1.2263 H   0  0  0  0  0  0  0  0  0  0  0  0
   -5.2799    5.4143   -3.6763 H   0  0  0  0  0  0  0  0  0  0  0  0
   -4.6489    3.1914   -4.5496 H   0  0  0  0  0  0  0  0  0  0  0  0
   -4.3411    1.2697   -3.0336 H   0  0  0  0  0  0  0  0  0  0  0  0
   -2.5504   -0.3395    2.2023 H   0  0  0  0  0  0  0  0  0  0  0  0
   -0.1043   -0.5302    2.4086 H   0  0  0  0  0  0  0  0  0  0  0  0
  1  2  1  0  0  0  0
  1 22  1  0  0  0  0
  1 23  1  0  0  0  0
  1 24  1  0  0  0  0
  2  3  2  0  0  0  0
  2 20  1  0  0  0  0
  3  4  1  0  0  0  0
  3 25  1  0  0  0  0
  4  5  1  0  0  0  0
  4 18  2  0  0  0  0
  5  6  2  0  0  0  0
  5  7  2  0  0  0  0
  5  8  1  0  0  0  0
  8  9  1  0  0  0  0
  8 17  1  0  0  0  0
  9 10  1  0  0  0  0
  9 11  2  0  0  0  0
 10 26  1  0  0  0  0
 10 27  1  0  0  0  0
 10 28  1  0  0  0  0
 11 12  1  0  0  0  0
 12 13  2  0  0  0  0
 12 17  1  0  0  0  0
 13 14  1  0  0  0  0
 13 29  1  0  0  0  0
 14 15  2  0  0  0  0
 14 30  1  0  0  0  0
 15 16  1  0  0  0  0
 15 31  1  0  0  0  0
 16 17  2  0  0  0  0
 16 32  1  0  0  0  0
 18 19  1  0  0  0  0
 18 33  1  0  0  0  0
 19 20  2  0  0  0  0
 19 34  1  0  0  0  0
 20 21  1  0  0  0  0
M  END
$$$$
