
 OpenBabel09162610133D

 45 48  0  0  1  0  0  0  0  0999 V2000
    1.4794    1.0125    0.6070 C   0  0  0  0  0  0  0  0  0  0  0  0
    2.8231    0.4706    0.1256 C   0  0  2  0  0  0  0  0  0  0  0  0
    3.3415    1.1999   -1.1297 C   0  0  0  0  0  0  0  0  0  0  0  0
    2.6937    0.7352   -2.3587 N   0  0  0  0  0  0  0  0  0  0  0  0
    2.1012    1.5599   -3.3000 C   0  0  0  0  0  0  0  0  0  0  0  0
    0.9905    1.0870   -3.9095 N   0  0  0  0  0  0  0  0  0  0  0  0
    0.2961    1.8188   -4.8466 N   0  0  0  0  0  0  0  0  0  0  0  0
    0.6681    3.0776   -5.1568 C   0  0  0  0  0  0  0  0  0  0  0  0
   -0.1330    3.6838   -6.2542 C   0  0  0  0  0  0  0  0  0  0  0  0
   -1.5206    3.4595   -6.3423 C   0  0  0  0  0  0  0  0  0  0  0  0
   -2.2891    4.0067   -7.3769 C   0  0  0  0  0  0  0  0  0  0  0  0
   -1.6891    4.8013   -8.3488 C   0  0  0  0  0  0  0  0  0  0  0  0
   -0.3172    5.0193   -8.3056 C   0  0  0  0  0  0  0  0  0  0  0  0
    0.4513    4.4453   -7.2868 C   0  0  0  0  0  0  0  0  0  0  0  0
    1.7780    3.6658   -4.5150 C   0  0  0  0  0  0  0  0  0  0  0  0
    2.1596    5.0262   -4.6994 C   0  0  0  0  0  0  0  0  0  0  0  0
    3.3414    5.5475   -4.1782 C   0  0  0  0  0  0  0  0  0  0  0  0
    4.1846    4.7239   -3.4628 C   0  0  0  0  0  0  0  0  0  0  0  0
    3.8009    3.4065   -3.2091 C   0  0  0  0  0  0  0  0  0  0  0  0
    2.5605    2.8607   -3.6439 C   0  0  0  0  0  0  0  0  0  0  0  0
    2.5610   -0.7243   -2.4893 C   0  0  0  0  0  0  0  0  0  0  0  0
    2.0303   -1.3638   -1.1887 C   0  0  1  0  0  0  0  0  0  0  0  0
    2.1272   -2.8843   -1.2553 C   0  0  0  0  0  0  0  0  0  0  0  0
    2.7970   -0.9532   -0.0427 O   0  0  0  0  0  0  0  0  0  0  0  0
    1.5633    2.0706    0.8759 H   0  0  0  0  0  0  0  0  0  0  0  0
    1.1385    0.4565    1.4866 H   0  0  0  0  0  0  0  0  0  0  0  0
    0.7003    0.9221   -0.1555 H   0  0  0  0  0  0  0  0  0  0  0  0
    3.5437    0.6585    0.9315 H   0  0  0  0  0  0  0  0  0  0  0  0
    4.4137    0.9894   -1.2280 H   0  0  0  0  0  0  0  0  0  0  0  0
    3.2178    2.2741   -0.9609 H   0  0  0  0  0  0  0  0  0  0  0  0
   -2.0176    2.8350   -5.6002 H   0  0  0  0  0  0  0  0  0  0  0  0
   -3.3563    3.8048   -7.4241 H   0  0  0  0  0  0  0  0  0  0  0  0
   -2.2860    5.2344   -9.1473 H   0  0  0  0  0  0  0  0  0  0  0  0
    0.1623    5.6250   -9.0712 H   0  0  0  0  0  0  0  0  0  0  0  0
    1.5284    4.5947   -7.3216 H   0  0  0  0  0  0  0  0  0  0  0  0
    1.5245    5.7090   -5.2594 H   0  0  0  0  0  0  0  0  0  0  0  0
    3.6075    6.5862   -4.3581 H   0  0  0  0  0  0  0  0  0  0  0  0
    5.1357    5.0980   -3.0905 H   0  0  0  0  0  0  0  0  0  0  0  0
    4.5147    2.7872   -2.6754 H   0  0  0  0  0  0  0  0  0  0  0  0
    3.5633   -1.1162   -2.7025 H   0  0  0  0  0  0  0  0  0  0  0  0
    1.9247   -1.0316   -3.3275 H   0  0  0  0  0  0  0  0  0  0  0  0
    0.9808   -1.0926   -1.0302 H   0  0  0  0  0  0  0  0  0  0  0  0
    3.1661   -3.2042   -1.3961 H   0  0  0  0  0  0  0  0  0  0  0  0
    1.5219   -3.2882   -2.0716 H   0  0  0  0  0  0  0  0  0  0  0  0
    1.7899   -3.3313   -0.3133 H   0  0  0  0  0  0  0  0  0  0  0  0
  1  2  1  0  0  0  0
  1 25  1  0  0  0  0
  1 26  1  0  0  0  0
  1 27  1  0  0  0  0
  2  3  1  0  0  0  0
  2 24  1  0  0  0  0
  2 28  1  1  0  0  0
  3  4  1  0  0  0  0
  3 29  1  0  0  0  0
  3 30  1  0  0  0  0
  4  5  1  0  0  0  0
  4 21  1  0  0  0  0
  5  6  2  0  0  0  0
  5 20  1  0  0  0  0
  6  7  1  0  0  0  0
  7  8  2  0  0  0  0
  8  9  1  0  0  0  0
  8 15  1  0  0  0  0
  9 10  2  0  0  0  0
  9 14  1  0  0  0  0
 10 11  1  0  0  0  0
 10 31  1  0  0  0  0
 11 12  2  0  0  0  0
 11 32  1  0  0  0  0
 12 13  1  0  0  0  0
 12 33  1  0  0  0  0
 13 14  2  0  0  0  0
 13 34  1  0  0  0  0
 14 35  1  0  0  0  0
 15 16  1  0  0  0  0
 15 20  2  0  0  0  0
 16 17  2  0  0  0  0
 16 36  1  0  0  0  0
 17 18  1  0  0  0  0
 17 37  1  0  0  0  0
 18 19  2  0  0  0  0
 18 38  1  0  0  0  0
 19 20  1  0  0  0  0
 19 39  1  0  0  0  0
 21 22  1  0  0  0  0
 21 40  1  0  0  0  0
 21 41  1  0  0  0  0
 22 23  1  0  0  0  0
 22 24  1  0  0  0  0
 22 42  1  1  0  0  0
 23 43  1  0  0  0  0
 23 44  1  0  0  0  0
 23 45  1  0  0  0  0
M  END
$$$$
