
 OpenBabel09162610133D

 34 36  0  0  0  0  0  0  0  0999 V2000
    1.0110   -0.0088    0.1388 C   0  0  0  0  0  0  0  0  0  0  0  0
    2.5149    0.0014   -0.0076 C   0  0  0  0  0  0  0  0  0  0  0  0
    3.2579   -1.1939   -0.1151 C   0  0  0  0  0  0  0  0  0  0  0  0
    2.6777   -2.5651   -0.1402 C   0  0  0  0  0  0  0  0  0  0  0  0
    1.4947   -2.8840   -0.8335 C   0  0  0  0  0  0  0  0  0  0  0  0
    0.8713   -4.1281   -0.6896 C   0  0  0  0  0  0  0  0  0  0  0  0
    1.4661   -5.1204    0.0809 C   0  0  0  0  0  0  0  0  0  0  0  0
    2.6959   -4.8762    0.6828 C   0  0  0  0  0  0  0  0  0  0  0  0
    3.2905   -3.6136    0.5761 C   0  0  0  0  0  0  0  0  0  0  0  0
    4.6193   -1.1823   -0.1094 N   0  0  0  0  0  0  0  0  0  0  0  0
    5.2786   -0.0128   -0.0457 C   0  0  0  0  0  0  0  0  0  0  0  0
    6.6602   -0.1343    0.1021 N   0  0  0  0  0  0  0  0  0  0  0  0
    4.6268    1.2184   -0.0176 C   0  0  0  0  0  0  0  0  0  0  0  0
    5.4144    2.4119   -0.0145 C   0  0  0  0  0  0  0  0  0  0  0  0
    6.0654    3.3796   -0.0246 N   0  0  0  0  0  0  0  0  0  0  0  0
    3.2192    1.2412    0.0033 C   0  0  0  0  0  0  0  0  0  0  0  0
    2.4936    2.5209    0.1070 C   0  0  0  0  0  0  0  0  0  0  0  0
    2.6977    3.7115    0.7838 C   0  0  0  0  0  0  0  0  0  0  0  0
    1.5739    4.5339    0.5215 C   0  0  0  0  0  0  0  0  0  0  0  0
    0.7553    3.8072   -0.3068 C   0  0  0  0  0  0  0  0  0  0  0  0
    1.3224    2.6098   -0.5949 O   0  0  0  0  0  0  0  0  0  0  0  0
    0.6091   -0.9644    0.4780 H   0  0  0  0  0  0  0  0  0  0  0  0
    0.5386    0.2455   -0.8167 H   0  0  0  0  0  0  0  0  0  0  0  0
    0.6894    0.6961    0.9129 H   0  0  0  0  0  0  0  0  0  0  0  0
    1.0141   -2.1462   -1.4719 H   0  0  0  0  0  0  0  0  0  0  0  0
   -0.0857   -4.3134   -1.1715 H   0  0  0  0  0  0  0  0  0  0  0  0
    0.9782   -6.0836    0.2032 H   0  0  0  0  0  0  0  0  0  0  0  0
    3.1871   -5.6596    1.2542 H   0  0  0  0  0  0  0  0  0  0  0  0
    4.2400   -3.4415    1.0797 H   0  0  0  0  0  0  0  0  0  0  0  0
    6.9096   -1.1151    0.0085 H   0  0  0  0  0  0  0  0  0  0  0  0
    7.2070    0.4668   -0.5053 H   0  0  0  0  0  0  0  0  0  0  0  0
    3.5379    3.9603    1.4166 H   0  0  0  0  0  0  0  0  0  0  0  0
    1.3807    5.5272    0.9017 H   0  0  0  0  0  0  0  0  0  0  0  0
   -0.2109    3.9886   -0.7555 H   0  0  0  0  0  0  0  0  0  0  0  0
  1  2  1  0  0  0  0
  1 22  1  0  0  0  0
  1 23  1  0  0  0  0
  1 24  1  0  0  0  0
  2  3  2  0  0  0  0
  2 16  1  0  0  0  0
  3  4  1  0  0  0  0
  3 10  1  0  0  0  0
  4  5  2  0  0  0  0
  4  9  1  0  0  0  0
  5  6  1  0  0  0  0
  5 25  1  0  0  0  0
  6  7  2  0  0  0  0
  6 26  1  0  0  0  0
  7  8  1  0  0  0  0
  7 27  1  0  0  0  0
  8  9  2  0  0  0  0
  8 28  1  0  0  0  0
  9 29  1  0  0  0  0
 10 11  2  0  0  0  0
 11 12  1  0  0  0  0
 11 13  1  0  0  0  0
 12 30  1  0  0  0  0
 12 31  1  0  0  0  0
 13 14  1  0  0  0  0
 13 16  2  0  0  0  0
 14 15  3  0  0  0  0
 16 17  1  0  0  0  0
 17 18  2  0  0  0  0
 17 21  1  0  0  0  0
 18 19  1  0  0  0  0
 18 32  1  0  0  0  0
 19 20  2  0  0  0  0
 19 33  1  0  0  0  0
 20 21  1  0  0  0  0
 20 34  1  0  0  0  0
M  END
$$$$
