
 OpenBabel09162610133D

 36 38  0  0  0  0  0  0  0  0999 V2000
    2.4591    0.0152    0.3403 C   0  0  0  0  0  0  0  0  0  0  0  0
    0.9589    0.0472    0.3254 C   0  0  0  0  0  0  0  0  0  0  0  0
    0.2729    1.2344    0.0416 C   0  0  0  0  0  0  0  0  0  0  0  0
   -1.1218    1.2546    0.0095 C   0  0  0  0  0  0  0  0  0  0  0  0
   -1.8397    0.0842    0.2591 C   0  0  0  0  0  0  0  0  0  0  0  0
   -3.3137    0.0837    0.2047 C   0  0  0  0  0  0  0  0  0  0  0  0
   -3.9900    1.1552   -0.0632 N   0  0  0  0  0  0  0  0  0  0  0  0
   -5.3933    1.0987   -0.0802 C   0  0  0  0  0  0  0  0  0  0  0  0
   -6.0795    1.9576   -0.9434 C   0  0  0  0  0  0  0  0  0  0  0  0
   -7.4836    1.9919   -0.9753 C   0  0  0  0  0  0  0  0  0  0  0  0
   -8.2407    1.1644   -0.1397 C   0  0  0  0  0  0  0  0  0  0  0  0
   -9.7102    1.1409   -0.0914 C   0  0  0  0  0  0  0  0  0  0  0  0
  -10.5654    2.0369   -0.9384 C   0  0  0  0  0  0  0  0  0  0  0  0
  -10.3020    0.2844    0.7574 C   0  0  0  0  0  0  0  0  0  0  0  0
   -9.5683   -0.6289    1.6433 C   0  0  0  0  0  0  0  0  0  0  0  0
  -10.1685   -1.4011    2.3843 O   0  0  0  0  0  0  0  0  0  0  0  0
   -8.1933   -0.5645    1.5975 O   0  0  0  0  0  0  0  0  0  0  0  0
   -7.5354    0.3152    0.7166 C   0  0  0  0  0  0  0  0  0  0  0  0
   -6.1411    0.2829    0.7655 C   0  0  0  0  0  0  0  0  0  0  0  0
   -1.1686   -1.1046    0.5559 C   0  0  0  0  0  0  0  0  0  0  0  0
    0.2283   -1.1204    0.5879 C   0  0  0  0  0  0  0  0  0  0  0  0
    2.8826    1.0031    0.1304 H   0  0  0  0  0  0  0  0  0  0  0  0
    2.8282   -0.6761   -0.4241 H   0  0  0  0  0  0  0  0  0  0  0  0
    2.8224   -0.3033    1.3223 H   0  0  0  0  0  0  0  0  0  0  0  0
    0.8178    2.1533   -0.1614 H   0  0  0  0  0  0  0  0  0  0  0  0
   -1.6432    2.1822   -0.2146 H   0  0  0  0  0  0  0  0  0  0  0  0
   -3.8007   -0.8878    0.4037 H   0  0  0  0  0  0  0  0  0  0  0  0
   -5.5130    2.6204   -1.5938 H   0  0  0  0  0  0  0  0  0  0  0  0
   -7.9470    2.6894   -1.6657 H   0  0  0  0  0  0  0  0  0  0  0  0
  -10.0075    2.6921   -1.6086 H   0  0  0  0  0  0  0  0  0  0  0  0
  -11.1792    2.6836   -0.3011 H   0  0  0  0  0  0  0  0  0  0  0  0
  -11.2354    1.4380   -1.5658 H   0  0  0  0  0  0  0  0  0  0  0  0
  -11.3813    0.2201    0.8417 H   0  0  0  0  0  0  0  0  0  0  0  0
   -5.6553   -0.3722    1.4803 H   0  0  0  0  0  0  0  0  0  0  0  0
   -1.7161   -2.0213    0.7594 H   0  0  0  0  0  0  0  0  0  0  0  0
    0.7471   -2.0498    0.8139 H   0  0  0  0  0  0  0  0  0  0  0  0
  1  2  1  0  0  0  0
  1 22  1  0  0  0  0
  1 23  1  0  0  0  0
  1 24  1  0  0  0  0
  2  3  2  0  0  0  0
  2 21  1  0  0  0  0
  3  4  1  0  0  0  0
  3 25  1  0  0  0  0
  4  5  2  0  0  0  0
  4 26  1  0  0  0  0
  5  6  1  0  0  0  0
  5 20  1  0  0  0  0
  6  7  2  0  0  0  0
  6 27  1  0  0  0  0
  7  8  1  0  0  0  0
  8  9  2  0  0  0  0
  8 19  1  0  0  0  0
  9 10  1  0  0  0  0
  9 28  1  0  0  0  0
 10 11  2  0  0  0  0
 10 29  1  0  0  0  0
 11 12  1  0  0  0  0
 11 18  1  0  0  0  0
 12 13  1  0  0  0  0
 12 14  2  0  0  0  0
 13 30  1  0  0  0  0
 13 31  1  0  0  0  0
 13 32  1  0  0  0  0
 14 15  1  0  0  0  0
 14 33  1  0  0  0  0
 15 16  2  0  0  0  0
 15 17  1  0  0  0  0
 17 18  1  0  0  0  0
 18 19  2  0  0  0  0
 19 34  1  0  0  0  0
 20 21  2  0  0  0  0
 20 35  1  0  0  0  0
 21 36  1  0  0  0  0
M  END
$$$$
