
 OpenBabel09162610133D

 37 39  0  0  0  0  0  0  0  0999 V2000
    0.8831    0.1562    0.3565 C   0  0  0  0  0  0  0  0  0  0  0  0
    2.4122    0.0527    0.1664 C   0  0  0  0  0  0  0  0  0  0  0  0
    3.0755    1.1449    1.0230 C   0  0  0  0  0  0  0  0  0  0  0  0
    2.7729    0.3285   -1.3224 C   0  0  0  0  0  0  0  0  0  0  0  0
    2.1374   -0.7029   -2.2389 C   0  0  0  0  0  0  0  0  0  0  0  0
    1.5460   -0.4147   -3.2737 O   0  0  0  0  0  0  0  0  0  0  0  0
    2.3308   -2.0449   -1.7813 C   0  0  0  0  0  0  0  0  0  0  0  0
    2.6906   -2.3836   -0.4658 C   0  0  0  0  0  0  0  0  0  0  0  0
    2.8693   -3.6977   -0.3222 N   0  0  0  0  0  0  0  0  0  0  0  0
    2.6301   -4.2365   -1.5901 O   0  0  0  0  0  0  0  0  0  0  0  0
    2.3210   -3.2355   -2.4654 C   0  0  0  0  0  0  0  0  0  0  0  0
    2.2188   -3.5662   -3.9073 C   0  0  0  0  0  0  0  0  0  0  0  0
    3.5291   -3.2637   -4.6114 C   0  0  0  0  0  0  0  0  0  0  0  0
    4.6643   -4.0437   -4.3368 C   0  0  0  0  0  0  0  0  0  0  0  0
    5.9142   -3.6853   -4.8458 C   0  0  0  0  0  0  0  0  0  0  0  0
    6.0442   -2.5491   -5.6470 C   0  0  0  0  0  0  0  0  0  0  0  0
    7.3383   -2.1459   -6.1124 C   0  0  0  0  0  0  0  0  0  0  0  0
    8.3920   -1.8108   -6.4712 N   0  0  0  0  0  0  0  0  0  0  0  0
    4.9116   -1.7899   -5.9621 C   0  0  0  0  0  0  0  0  0  0  0  0
    3.6618   -2.1433   -5.4457 C   0  0  0  0  0  0  0  0  0  0  0  0
    2.9127   -1.3684    0.6122 C   0  0  0  0  0  0  0  0  0  0  0  0
    0.4927    1.0705   -0.1046 H   0  0  0  0  0  0  0  0  0  0  0  0
    0.6175    0.1775    1.4188 H   0  0  0  0  0  0  0  0  0  0  0  0
    0.3528   -0.6906   -0.0918 H   0  0  0  0  0  0  0  0  0  0  0  0
    2.7607    2.1418    0.6911 H   0  0  0  0  0  0  0  0  0  0  0  0
    4.1672    1.1031    0.9488 H   0  0  0  0  0  0  0  0  0  0  0  0
    2.8034    1.0458    2.0792 H   0  0  0  0  0  0  0  0  0  0  0  0
    3.8598    0.2641   -1.4694 H   0  0  0  0  0  0  0  0  0  0  0  0
    2.4564    1.3283   -1.6367 H   0  0  0  0  0  0  0  0  0  0  0  0
    1.4055   -2.9888   -4.3623 H   0  0  0  0  0  0  0  0  0  0  0  0
    1.9596   -4.6234   -4.0505 H   0  0  0  0  0  0  0  0  0  0  0  0
    4.5854   -4.9122   -3.6826 H   0  0  0  0  0  0  0  0  0  0  0  0
    6.7838   -4.2855   -4.5859 H   0  0  0  0  0  0  0  0  0  0  0  0
    4.9976   -0.9031   -6.5878 H   0  0  0  0  0  0  0  0  0  0  0  0
    2.7997   -1.5171   -5.6685 H   0  0  0  0  0  0  0  0  0  0  0  0
    3.9897   -1.3313    0.8252 H   0  0  0  0  0  0  0  0  0  0  0  0
    2.4112   -1.6777    1.5371 H   0  0  0  0  0  0  0  0  0  0  0  0
  1  2  1  0  0  0  0
  1 22  1  0  0  0  0
  1 23  1  0  0  0  0
  1 24  1  0  0  0  0
  2  3  1  0  0  0  0
  2  4  1  0  0  0  0
  2 21  1  0  0  0  0
  3 25  1  0  0  0  0
  3 26  1  0  0  0  0
  3 27  1  0  0  0  0
  4  5  1  0  0  0  0
  4 28  1  0  0  0  0
  4 29  1  0  0  0  0
  5  6  2  0  0  0  0
  5  7  1  0  0  0  0
  7  8  1  0  0  0  0
  7 11  2  0  0  0  0
  8  9  2  0  0  0  0
  8 21  1  0  0  0  0
  9 10  1  0  0  0  0
 10 11  1  0  0  0  0
 11 12  1  0  0  0  0
 12 13  1  0  0  0  0
 12 30  1  0  0  0  0
 12 31  1  0  0  0  0
 13 14  2  0  0  0  0
 13 20  1  0  0  0  0
 14 15  1  0  0  0  0
 14 32  1  0  0  0  0
 15 16  2  0  0  0  0
 15 33  1  0  0  0  0
 16 17  1  0  0  0  0
 16 19  1  0  0  0  0
 17 18  3  0  0  0  0
 19 20  2  0  0  0  0
 19 34  1  0  0  0  0
 20 35  1  0  0  0  0
 21 36  1  0  0  0  0
 21 37  1  0  0  0  0
M  END
$$$$
