
 OpenBabel09162610133D

 39 41  0  0  0  0  0  0  0  0999 V2000
    1.1444   -0.5411    0.4449 C   0  0  0  0  0  0  0  0  0  0  0  0
    2.3928    0.0675   -0.0065 N   0  0  0  0  0  0  0  0  0  0  0  0
    3.0351   -0.5214   -1.1771 C   0  0  0  0  0  0  0  0  0  0  0  0
    3.0565    1.0112    0.7714 C   0  0  0  0  0  0  0  0  0  0  0  0
    2.5816    1.3982    2.0388 C   0  0  0  0  0  0  0  0  0  0  0  0
    3.2550    2.3418    2.8254 C   0  0  0  0  0  0  0  0  0  0  0  0
    2.7640    2.6752    4.0624 O   0  0  0  0  0  0  0  0  0  0  0  0
    4.4257    2.9535    2.3754 C   0  0  0  0  0  0  0  0  0  0  0  0
    5.0906    3.9002    3.1792 N   0  0  0  0  0  0  0  0  0  0  0  0
    6.1588    4.4269    2.6855 C   0  0  0  0  0  0  0  0  0  0  0  0
    6.9004    5.4218    3.4731 C   0  0  0  0  0  0  0  0  0  0  0  0
    8.0094    6.0114    3.0182 C   0  0  0  0  0  0  0  0  0  0  0  0
    8.5888    5.7073    1.6702 C   0  0  0  0  0  0  0  0  0  0  0  0
    9.6736    6.2873    1.2176 N   0  3  0  0  0  0  0  0  0  0  0  0
   10.2921    6.0265   -0.1298 C   0  0  0  0  0  0  0  0  0  0  0  0
   10.4795    7.3107    1.9747 C   0  0  0  0  0  0  0  0  0  0  0  0
    7.8183    4.6830    0.8896 C   0  0  0  0  0  0  0  0  0  0  0  0
    6.7070    4.0933    1.3499 C   0  0  0  0  0  0  0  0  0  0  0  0
    6.0453    3.1505    0.5742 O   0  0  0  0  0  0  0  0  0  0  0  0
    4.9029    2.5929    1.1121 C   0  0  0  0  0  0  0  0  0  0  0  0
    4.2335    1.6425    0.3295 C   0  0  0  0  0  0  0  0  0  0  0  0
    0.7452   -1.2486   -0.2900 H   0  0  0  0  0  0  0  0  0  0  0  0
    0.3737    0.2236    0.5921 H   0  0  0  0  0  0  0  0  0  0  0  0
    1.2918   -1.0948    1.3785 H   0  0  0  0  0  0  0  0  0  0  0  0
    2.4393   -1.3338   -1.6070 H   0  0  0  0  0  0  0  0  0  0  0  0
    4.0112   -0.9459   -0.9169 H   0  0  0  0  0  0  0  0  0  0  0  0
    3.1629    0.2284   -1.9654 H   0  0  0  0  0  0  0  0  0  0  0  0
    1.6753    0.9544    2.4367 H   0  0  0  0  0  0  0  0  0  0  0  0
    1.9618    2.1601    4.2404 H   0  0  0  0  0  0  0  0  0  0  0  0
    6.4877    5.6502    4.4524 H   0  0  0  0  0  0  0  0  0  0  0  0
    8.4689    6.7296    3.6846 H   0  0  0  0  0  0  0  0  0  0  0  0
    9.7360    5.2994   -0.7157 H   0  0  0  0  0  0  0  0  0  0  0  0
   11.3072    5.6546    0.0359 H   0  0  0  0  0  0  0  0  0  0  0  0
   10.3201    6.9758   -0.6727 H   0  0  0  0  0  0  0  0  0  0  0  0
   10.0698    7.5290    2.9574 H   0  0  0  0  0  0  0  0  0  0  0  0
   10.4937    8.2290    1.3819 H   0  0  0  0  0  0  0  0  0  0  0  0
   11.4926    6.9163    2.0916 H   0  0  0  0  0  0  0  0  0  0  0  0
    8.1426    4.3757   -0.0958 H   0  0  0  0  0  0  0  0  0  0  0  0
    4.6503    1.4116   -0.6458 H   0  0  0  0  0  0  0  0  0  0  0  0
  1  2  1  0  0  0  0
  1 22  1  0  0  0  0
  1 23  1  0  0  0  0
  1 24  1  0  0  0  0
  2  3  1  0  0  0  0
  2  4  1  0  0  0  0
  3 25  1  0  0  0  0
  3 26  1  0  0  0  0
  3 27  1  0  0  0  0
  4  5  2  0  0  0  0
  4 21  1  0  0  0  0
  5  6  1  0  0  0  0
  5 28  1  0  0  0  0
  6  7  1  0  0  0  0
  6  8  2  0  0  0  0
  7 29  1  0  0  0  0
  8  9  1  0  0  0  0
  8 20  1  0  0  0  0
  9 10  2  0  0  0  0
 10 11  1  0  0  0  0
 10 18  1  0  0  0  0
 11 12  2  0  0  0  0
 11 30  1  0  0  0  0
 12 13  1  0  0  0  0
 12 31  1  0  0  0  0
 13 14  2  0  0  0  0
 13 17  1  0  0  0  0
 14 15  1  0  0  0  0
 14 16  1  0  0  0  0
 15 32  1  0  0  0  0
 15 33  1  0  0  0  0
 15 34  1  0  0  0  0
 16 35  1  0  0  0  0
 16 36  1  0  0  0  0
 16 37  1  0  0  0  0
 17 18  2  0  0  0  0
 17 38  1  0  0  0  0
 18 19  1  0  0  0  0
 19 20  1  0  0  0  0
 20 21  2  0  0  0  0
 21 39  1  0  0  0  0
M  CHG  1  14   1
M  END
$$$$
