
 OpenBabel09162610133D

 24 26  0  0  0  0  0  0  0  0999 V2000
   -2.0719   -0.1637   -0.1487 Cl  0  0  0  0  0  0  0  0  0  0  0  0
   -0.3549   -0.1297   -0.0640 C   0  0  0  0  0  0  0  0  0  0  0  0
    0.2728    0.2148    1.1310 C   0  0  0  0  0  0  0  0  0  0  0  0
    1.6694    0.2501    1.1937 C   0  0  0  0  0  0  0  0  0  0  0  0
    2.4523   -0.0538    0.0671 C   0  0  0  0  0  0  0  0  0  0  0  0
    3.9050    0.0326    0.1566 C   0  0  0  0  0  0  0  0  0  0  0  0
    4.6659    0.3389    1.1833 N   0  0  0  0  0  0  0  0  0  0  0  0
    5.9253    0.3494    0.6262 C   0  0  0  0  0  0  0  0  0  0  0  0
    7.1379    0.7317    1.4132 C   0  0  0  0  0  0  0  0  0  0  0  0
    7.1129    1.0261    2.7614 C   0  0  0  0  0  0  0  0  0  0  0  0
    8.3970    1.4065    3.2525 C   0  0  0  0  0  0  0  0  0  0  0  0
    9.3536    1.3848    2.2618 C   0  0  0  0  0  0  0  0  0  0  0  0
    8.7076    0.8839    0.7581 S   0  0  0  0  0  0  0  0  0  0  0  0
    5.9562    0.0305   -0.6760 N   0  0  0  0  0  0  0  0  0  0  0  0
    4.6157   -0.1826   -0.9902 O   0  0  0  0  0  0  0  0  0  0  0  0
    1.7986   -0.4037   -1.1265 C   0  0  0  0  0  0  0  0  0  0  0  0
    0.4021   -0.4422   -1.1896 C   0  0  0  0  0  0  0  0  0  0  0  0
   -0.3125    0.4598    2.0119 H   0  0  0  0  0  0  0  0  0  0  0  0
    2.1490    0.5285    2.1323 H   0  0  0  0  0  0  0  0  0  0  0  0
    6.2150    0.9803    3.3671 H   0  0  0  0  0  0  0  0  0  0  0  0
    8.6054    1.6879    4.2777 H   0  0  0  0  0  0  0  0  0  0  0  0
   10.4024    1.6351    2.3458 H   0  0  0  0  0  0  0  0  0  0  0  0
    2.3668   -0.6469   -2.0225 H   0  0  0  0  0  0  0  0  0  0  0  0
   -0.0879   -0.7099   -2.1244 H   0  0  0  0  0  0  0  0  0  0  0  0
  1  2  1  0  0  0  0
  2  3  2  0  0  0  0
  2 17  1  0  0  0  0
  3  4  1  0  0  0  0
  3 18  1  0  0  0  0
  4  5  2  0  0  0  0
  4 19  1  0  0  0  0
  5  6  1  0  0  0  0
  5 16  1  0  0  0  0
  6  7  2  0  0  0  0
  6 15  1  0  0  0  0
  7  8  1  0  0  0  0
  8  9  1  0  0  0  0
  8 14  2  0  0  0  0
  9 10  2  0  0  0  0
  9 13  1  0  0  0  0
 10 11  1  0  0  0  0
 10 20  1  0  0  0  0
 11 12  2  0  0  0  0
 11 21  1  0  0  0  0
 12 13  1  0  0  0  0
 12 22  1  0  0  0  0
 14 15  1  0  0  0  0
 16 17  2  0  0  0  0
 16 23  1  0  0  0  0
 17 24  1  0  0  0  0
M  END
$$$$
