
 OpenBabel09162610133D

 33 35  0  0  0  0  0  0  0  0999 V2000
    1.8249   -0.6390   -2.8237 C   0  0  0  0  0  0  0  0  0  0  0  0
    0.5238   -0.4212   -2.1130 C   0  0  0  0  0  0  0  0  0  0  0  0
   -0.0798    0.8351   -2.1163 C   0  0  0  0  0  0  0  0  0  0  0  0
   -1.2886    1.0366   -1.4470 C   0  0  0  0  0  0  0  0  0  0  0  0
   -1.9405   -0.0001   -0.7671 C   0  0  0  0  0  0  0  0  0  0  0  0
   -3.1983    0.1542   -0.1436 N   0  0  0  0  0  0  0  0  0  0  0  0
   -3.9744    1.2645   -0.1936 C   0  0  0  0  0  0  0  0  0  0  0  0
   -4.0008    2.1424   -1.1742 N   0  0  0  0  0  0  0  0  0  0  0  0
   -4.7606    3.2390   -0.8434 C   0  0  0  0  0  0  0  0  0  0  0  0
   -4.7618    4.3515   -1.7393 N   0  0  0  0  0  0  0  0  0  0  0  0
   -5.3286    5.5850   -1.4888 C   0  0  0  0  0  0  0  0  0  0  0  0
   -5.0068    6.3802   -2.5591 C   0  0  0  0  0  0  0  0  0  0  0  0
   -4.3034    5.6752   -3.4889 N   0  0  0  0  0  0  0  0  0  0  0  0
   -4.1813    4.4531   -3.0002 C   0  0  0  0  0  0  0  0  0  0  0  0
   -3.5233    3.3327   -3.7232 C   0  0  0  0  0  0  0  0  0  0  0  0
   -5.4059    3.1556    0.3717 C   0  0  0  0  0  0  0  0  0  0  0  0
   -5.0473    1.6433    1.1067 S   0  0  0  0  0  0  0  0  0  0  0  0
   -1.3338   -1.2637   -0.7846 C   0  0  0  0  0  0  0  0  0  0  0  0
   -0.1113   -1.4684   -1.4395 C   0  0  0  0  0  0  0  0  0  0  0  0
    2.1862    0.2842   -3.2881 H   0  0  0  0  0  0  0  0  0  0  0  0
    1.7031   -1.3856   -3.6149 H   0  0  0  0  0  0  0  0  0  0  0  0
    2.5891   -0.9774   -2.1168 H   0  0  0  0  0  0  0  0  0  0  0  0
    0.3785    1.6727   -2.6348 H   0  0  0  0  0  0  0  0  0  0  0  0
   -1.6971    2.0397   -1.4588 H   0  0  0  0  0  0  0  0  0  0  0  0
   -3.3393   -0.4760    0.6363 H   0  0  0  0  0  0  0  0  0  0  0  0
   -5.8676    5.8013   -0.5799 H   0  0  0  0  0  0  0  0  0  0  0  0
   -5.2466    7.4246   -2.7101 H   0  0  0  0  0  0  0  0  0  0  0  0
   -3.2972    3.6307   -4.7528 H   0  0  0  0  0  0  0  0  0  0  0  0
   -4.1710    2.4526   -3.7742 H   0  0  0  0  0  0  0  0  0  0  0  0
   -2.5753    3.0676   -3.2524 H   0  0  0  0  0  0  0  0  0  0  0  0
   -6.0496    3.8706    0.8620 H   0  0  0  0  0  0  0  0  0  0  0  0
   -1.8103   -2.1074   -0.2937 H   0  0  0  0  0  0  0  0  0  0  0  0
    0.3357   -2.4617   -1.4282 H   0  0  0  0  0  0  0  0  0  0  0  0
  1  2  1  0  0  0  0
  1 20  1  0  0  0  0
  1 21  1  0  0  0  0
  1 22  1  0  0  0  0
  2  3  2  0  0  0  0
  2 19  1  0  0  0  0
  3  4  1  0  0  0  0
  3 23  1  0  0  0  0
  4  5  2  0  0  0  0
  4 24  1  0  0  0  0
  5  6  1  0  0  0  0
  5 18  1  0  0  0  0
  6  7  1  0  0  0  0
  6 25  1  0  0  0  0
  7  8  2  0  0  0  0
  7 17  1  0  0  0  0
  8  9  1  0  0  0  0
  9 10  1  0  0  0  0
  9 16  2  0  0  0  0
 10 11  1  0  0  0  0
 10 14  1  0  0  0  0
 11 12  2  0  0  0  0
 11 26  1  0  0  0  0
 12 13  1  0  0  0  0
 12 27  1  0  0  0  0
 13 14  2  0  0  0  0
 14 15  1  0  0  0  0
 15 28  1  0  0  0  0
 15 29  1  0  0  0  0
 15 30  1  0  0  0  0
 16 17  1  0  0  0  0
 16 31  1  0  0  0  0
 18 19  2  0  0  0  0
 18 32  1  0  0  0  0
 19 33  1  0  0  0  0
M  END
$$$$
