
 OpenBabel09162610133D

 38 40  0  0  0  0  0  0  0  0999 V2000
    0.9444   -0.1475   -0.0764 C   0  0  0  0  0  0  0  0  0  0  0  0
    2.4488   -0.0814   -0.0696 C   0  0  0  0  0  0  0  0  0  0  0  0
    3.0609    1.1717   -0.1544 C   0  0  0  0  0  0  0  0  0  0  0  0
    4.4443    1.2687   -0.1542 C   0  0  0  0  0  0  0  0  0  0  0  0
    5.2350    0.1174   -0.0634 C   0  0  0  0  0  0  0  0  0  0  0  0
    6.6202    0.2397   -0.0401 C   0  0  0  0  0  0  0  0  0  0  0  0
    7.4111   -0.8980    0.1095 C   0  0  0  0  0  0  0  0  0  0  0  0
    8.8575   -0.6986    0.3218 C   0  0  0  0  0  0  0  0  0  0  0  0
    9.4321    0.3235   -0.0352 O   0  0  0  0  0  0  0  0  0  0  0  0
    6.8159   -2.1575    0.1742 C   0  0  0  0  0  0  0  0  0  0  0  0
    7.5800   -3.3084    0.3637 N   0  0  0  0  0  0  0  0  0  0  0  0
    6.8715   -4.5119    0.8419 C   0  0  0  0  0  0  0  0  0  0  0  0
    7.9264   -5.4748    1.4253 C   0  0  0  0  0  0  0  0  0  0  0  0
    8.9530   -5.8029    0.4677 O   0  0  0  0  0  0  0  0  0  0  0  0
    9.5895   -4.6119   -0.0301 C   0  0  0  0  0  0  0  0  0  0  0  0
    8.5623   -3.6716   -0.6821 C   0  0  0  0  0  0  0  0  0  0  0  0
    5.4616   -2.2693    0.1442 N   0  0  0  0  0  0  0  0  0  0  0  0
    4.6651   -1.1667    0.0351 C   0  0  0  0  0  0  0  0  0  0  0  0
    3.2544   -1.2488    0.0367 C   0  0  0  0  0  0  0  0  0  0  0  0
    2.5812   -2.5947    0.1574 C   0  0  0  0  0  0  0  0  0  0  0  0
    0.5018    0.8410   -0.2454 H   0  0  0  0  0  0  0  0  0  0  0  0
    0.5748   -0.5149    0.8856 H   0  0  0  0  0  0  0  0  0  0  0  0
    0.5930   -0.7988   -0.8825 H   0  0  0  0  0  0  0  0  0  0  0  0
    2.4665    2.0788   -0.2182 H   0  0  0  0  0  0  0  0  0  0  0  0
    4.9019    2.2542   -0.2134 H   0  0  0  0  0  0  0  0  0  0  0  0
    7.0919    1.2197   -0.0845 H   0  0  0  0  0  0  0  0  0  0  0  0
    9.4067   -1.5110    0.8208 H   0  0  0  0  0  0  0  0  0  0  0  0
    6.3522   -4.9979    0.0044 H   0  0  0  0  0  0  0  0  0  0  0  0
    6.1412   -4.2749    1.6220 H   0  0  0  0  0  0  0  0  0  0  0  0
    7.4526   -6.4112    1.7343 H   0  0  0  0  0  0  0  0  0  0  0  0
    8.4030   -5.0319    2.3091 H   0  0  0  0  0  0  0  0  0  0  0  0
   10.3469   -4.9171   -0.7617 H   0  0  0  0  0  0  0  0  0  0  0  0
   10.1075   -4.1124    0.7982 H   0  0  0  0  0  0  0  0  0  0  0  0
    8.0515   -4.1907   -1.5039 H   0  0  0  0  0  0  0  0  0  0  0  0
    9.0796   -2.8084   -1.1109 H   0  0  0  0  0  0  0  0  0  0  0  0
    3.2902   -3.4166    0.2923 H   0  0  0  0  0  0  0  0  0  0  0  0
    2.0006   -2.8061   -0.7460 H   0  0  0  0  0  0  0  0  0  0  0  0
    1.9143   -2.6037    1.0268 H   0  0  0  0  0  0  0  0  0  0  0  0
  1  2  1  0  0  0  0
  1 21  1  0  0  0  0
  1 22  1  0  0  0  0
  1 23  1  0  0  0  0
  2  3  2  0  0  0  0
  2 19  1  0  0  0  0
  3  4  1  0  0  0  0
  3 24  1  0  0  0  0
  4  5  2  0  0  0  0
  4 25  1  0  0  0  0
  5  6  1  0  0  0  0
  5 18  1  0  0  0  0
  6  7  2  0  0  0  0
  6 26  1  0  0  0  0
  7  8  1  0  0  0  0
  7 10  1  0  0  0  0
  8  9  2  0  0  0  0
  8 27  1  0  0  0  0
 10 11  1  0  0  0  0
 10 17  2  0  0  0  0
 11 12  1  0  0  0  0
 11 16  1  0  0  0  0
 12 13  1  0  0  0  0
 12 28  1  0  0  0  0
 12 29  1  0  0  0  0
 13 14  1  0  0  0  0
 13 30  1  0  0  0  0
 13 31  1  0  0  0  0
 14 15  1  0  0  0  0
 15 16  1  0  0  0  0
 15 32  1  0  0  0  0
 15 33  1  0  0  0  0
 16 34  1  0  0  0  0
 16 35  1  0  0  0  0
 17 18  1  0  0  0  0
 18 19  2  0  0  0  0
 19 20  1  0  0  0  0
 20 36  1  0  0  0  0
 20 37  1  0  0  0  0
 20 38  1  0  0  0  0
M  END
$$$$
