
 OpenBabel09162610133D

 33 34  0  0  1  0  0  0  0  0999 V2000
    4.7656   -0.6029   -2.5760 C   0  0  0  0  0  0  0  0  0  0  0  0
    4.3191   -0.0913   -1.2150 C   0  0  0  0  0  0  0  0  0  0  0  0
    5.7663    0.4322   -0.2421 S   0  0  0  0  0  0  0  0  0  0  0  0
    4.9372    1.2065    1.1284 C   0  0  0  0  0  0  0  0  0  0  0  0
    3.8772    0.7131    1.4886 O   0  0  0  0  0  0  0  0  0  0  0  0
    5.5899    2.3174    1.7165 N   0  0  0  0  0  0  0  0  0  0  0  0
    5.2365    2.8135    3.0323 C   0  0  0  0  0  0  0  0  0  0  0  0
    4.2841    2.1880    3.8519 C   0  0  0  0  0  0  0  0  0  0  0  0
    3.9749    2.6672    5.1341 C   0  0  0  0  0  0  0  0  0  0  0  0
    4.6235    3.7833    5.6431 C   0  0  0  0  0  0  0  0  0  0  0  0
    4.4270    4.3430    6.8731 O   0  0  0  0  0  0  0  0  0  0  0  0
    3.4617    3.7208    7.7118 C   0  0  0  0  0  0  0  0  0  0  0  0
    5.5824    4.4135    4.8572 C   0  0  0  0  0  0  0  0  0  0  0  0
    5.8939    3.9412    3.5712 C   0  0  0  0  0  0  0  0  0  0  0  0
    6.9361    4.6446    2.8374 C   0  0  0  0  0  0  0  0  0  0  0  0
    7.2456    4.2278    1.6098 C   0  0  0  0  0  0  0  0  0  0  0  0
    6.5870    3.0742    0.9214 C   0  0  2  0  0  0  0  0  0  0  0  0
    5.9434    3.5837   -0.3579 C   0  0  0  0  0  0  0  0  0  0  0  0
    5.4094    4.0063   -1.4192 N   0  0  0  0  0  0  0  0  0  0  0  0
    3.9089   -1.0111   -3.1233 H   0  0  0  0  0  0  0  0  0  0  0  0
    5.5101   -1.4015   -2.4876 H   0  0  0  0  0  0  0  0  0  0  0  0
    5.1903    0.2023   -3.1856 H   0  0  0  0  0  0  0  0  0  0  0  0
    3.7905   -0.8854   -0.6789 H   0  0  0  0  0  0  0  0  0  0  0  0
    3.6334    0.7520   -1.3503 H   0  0  0  0  0  0  0  0  0  0  0  0
    3.7434    1.2988    3.5450 H   0  0  0  0  0  0  0  0  0  0  0  0
    3.2231    2.1307    5.7044 H   0  0  0  0  0  0  0  0  0  0  0  0
    3.4227    4.2811    8.6504 H   0  0  0  0  0  0  0  0  0  0  0  0
    3.7510    2.6915    7.9492 H   0  0  0  0  0  0  0  0  0  0  0  0
    2.4654    3.7571    7.2589 H   0  0  0  0  0  0  0  0  0  0  0  0
    6.0971    5.2815    5.2647 H   0  0  0  0  0  0  0  0  0  0  0  0
    7.4459    5.4845    3.2950 H   0  0  0  0  0  0  0  0  0  0  0  0
    8.0296    4.7465    1.0637 H   0  0  0  0  0  0  0  0  0  0  0  0
    7.3947    2.3808    0.6572 H   0  0  0  0  0  0  0  0  0  0  0  0
  1  2  1  0  0  0  0
  1 20  1  0  0  0  0
  1 21  1  0  0  0  0
  1 22  1  0  0  0  0
  2  3  1  0  0  0  0
  2 23  1  0  0  0  0
  2 24  1  0  0  0  0
  3  4  1  0  0  0  0
  4  5  2  0  0  0  0
  4  6  1  0  0  0  0
  6  7  1  0  0  0  0
  6 17  1  0  0  0  0
  7  8  1  0  0  0  0
  7 14  2  0  0  0  0
  8  9  2  0  0  0  0
  8 25  1  0  0  0  0
  9 10  1  0  0  0  0
  9 26  1  0  0  0  0
 10 11  1  0  0  0  0
 10 13  2  0  0  0  0
 11 12  1  0  0  0  0
 12 27  1  0  0  0  0
 12 28  1  0  0  0  0
 12 29  1  0  0  0  0
 13 14  1  0  0  0  0
 13 30  1  0  0  0  0
 14 15  1  0  0  0  0
 15 16  2  0  0  0  0
 15 31  1  0  0  0  0
 16 17  1  0  0  0  0
 16 32  1  0  0  0  0
 17 18  1  0  0  0  0
 17 33  1  6  0  0  0
 18 19  3  0  0  0  0
M  END
$$$$
