
 OpenBabel09162610133D

 32 33  0  0  0  0  0  0  0  0999 V2000
    2.4268   -0.0515    0.1201 C   0  0  0  0  0  0  0  0  0  0  0  0
    0.9285   -0.0056    0.1124 C   0  0  0  0  0  0  0  0  0  0  0  0
    0.2390    1.2094    0.1464 C   0  0  0  0  0  0  0  0  0  0  0  0
   -1.1564    1.2255    0.1326 C   0  0  0  0  0  0  0  0  0  0  0  0
   -1.8769    0.0287    0.0848 C   0  0  0  0  0  0  0  0  0  0  0  0
   -1.1985   -1.1895    0.0524 C   0  0  0  0  0  0  0  0  0  0  0  0
   -1.7604   -2.4337    0.0108 O   0  0  0  0  0  0  0  0  0  0  0  0
   -3.1702   -2.4960   -0.0209 C   0  0  0  0  0  0  0  0  0  0  0  0
   -3.5944   -3.9550   -0.0771 C   0  0  0  0  0  0  0  0  0  0  0  0
   -3.7291   -4.6214   -1.0931 O   0  0  0  0  0  0  0  0  0  0  0  0
   -3.8541   -4.3870    1.2283 O   0  0  0  0  0  0  0  0  0  0  0  0
   -5.0982   -4.9930    1.4794 C   0  0  0  0  0  0  0  0  0  0  0  0
   -6.1688   -4.9433    0.5830 C   0  0  0  0  0  0  0  0  0  0  0  0
   -7.4181   -5.4298    0.9678 C   0  0  0  0  0  0  0  0  0  0  0  0
   -7.5904   -5.9535    2.2459 C   0  0  0  0  0  0  0  0  0  0  0  0
   -9.1443   -6.5145    2.7260 Cl  0  0  0  0  0  0  0  0  0  0  0  0
   -6.5215   -6.0134    3.1415 C   0  0  0  0  0  0  0  0  0  0  0  0
   -5.2693   -5.5310    2.7561 C   0  0  0  0  0  0  0  0  0  0  0  0
    0.1984   -1.1985    0.0648 C   0  0  0  0  0  0  0  0  0  0  0  0
    2.8587    0.9524    0.1795 H   0  0  0  0  0  0  0  0  0  0  0  0
    2.7933   -0.5231   -0.7974 H   0  0  0  0  0  0  0  0  0  0  0  0
    2.7818   -0.6220    0.9845 H   0  0  0  0  0  0  0  0  0  0  0  0
    0.7825    2.1504    0.1834 H   0  0  0  0  0  0  0  0  0  0  0  0
   -1.6838    2.1763    0.1585 H   0  0  0  0  0  0  0  0  0  0  0  0
   -2.9598    0.0891    0.0738 H   0  0  0  0  0  0  0  0  0  0  0  0
   -3.5838   -2.0070   -0.9116 H   0  0  0  0  0  0  0  0  0  0  0  0
   -3.6160   -2.0343    0.8695 H   0  0  0  0  0  0  0  0  0  0  0  0
   -6.0686   -4.5231   -0.4117 H   0  0  0  0  0  0  0  0  0  0  0  0
   -8.2469   -5.3787    0.2695 H   0  0  0  0  0  0  0  0  0  0  0  0
   -6.6628   -6.4189    4.1393 H   0  0  0  0  0  0  0  0  0  0  0  0
   -4.4403   -5.5525    3.4611 H   0  0  0  0  0  0  0  0  0  0  0  0
    0.7191   -2.1535    0.0353 H   0  0  0  0  0  0  0  0  0  0  0  0
  1  2  1  0  0  0  0
  1 20  1  0  0  0  0
  1 21  1  0  0  0  0
  1 22  1  0  0  0  0
  2  3  2  0  0  0  0
  2 19  1  0  0  0  0
  3  4  1  0  0  0  0
  3 23  1  0  0  0  0
  4  5  2  0  0  0  0
  4 24  1  0  0  0  0
  5  6  1  0  0  0  0
  5 25  1  0  0  0  0
  6  7  1  0  0  0  0
  6 19  2  0  0  0  0
  7  8  1  0  0  0  0
  8  9  1  0  0  0  0
  8 26  1  0  0  0  0
  8 27  1  0  0  0  0
  9 10  2  0  0  0  0
  9 11  1  0  0  0  0
 11 12  1  0  0  0  0
 12 13  2  0  0  0  0
 12 18  1  0  0  0  0
 13 14  1  0  0  0  0
 13 28  1  0  0  0  0
 14 15  2  0  0  0  0
 14 29  1  0  0  0  0
 15 16  1  0  0  0  0
 15 17  1  0  0  0  0
 17 18  2  0  0  0  0
 17 30  1  0  0  0  0
 18 31  1  0  0  0  0
 19 32  1  0  0  0  0
M  END
$$$$
