
 OpenBabel09162610133D

 35 37  0  0  0  0  0  0  0  0999 V2000
    1.3728    0.1006    0.8011 O   0  0  0  0  0  0  0  0  0  0  0  0
    2.4883    0.0857    0.2965 C   0  0  0  0  0  0  0  0  0  0  0  0
    3.2642    1.3177   -0.0123 C   0  0  0  0  0  0  0  0  0  0  0  0
    3.1355    2.3294    0.8657 C   0  0  0  0  0  0  0  0  0  0  0  0
    3.9294    3.5544    0.8297 C   0  0  0  0  0  0  0  0  0  0  0  0
    5.1535    3.6204    1.5005 C   0  0  0  0  0  0  0  0  0  0  0  0
    5.8892    4.8015    1.4727 C   0  0  0  0  0  0  0  0  0  0  0  0
    5.3780    5.8772    0.7662 C   0  0  0  0  0  0  0  0  0  0  0  0
    4.2044    5.8456    0.0948 N   0  0  0  0  0  0  0  0  0  0  0  0
    3.5064    4.6869    0.1457 C   0  0  0  0  0  0  0  0  0  0  0  0
    4.1630    1.2367   -1.2048 C   0  0  0  0  0  0  0  0  0  0  0  0
    4.9188    0.0260   -1.1752 O   0  0  0  0  0  0  0  0  0  0  0  0
    4.0747   -1.1230   -1.2243 C   0  0  0  0  0  0  0  0  0  0  0  0
    3.2321   -1.1670    0.0070 C   0  0  0  0  0  0  0  0  0  0  0  0
    3.1540   -2.1378    0.9352 C   0  0  0  0  0  0  0  0  0  0  0  0
    4.0107   -3.3194    0.9194 C   0  0  0  0  0  0  0  0  0  0  0  0
    5.2564   -3.2777    1.5506 C   0  0  0  0  0  0  0  0  0  0  0  0
    6.0978   -4.3848    1.4856 C   0  0  0  0  0  0  0  0  0  0  0  0
    5.6613   -5.4978    0.7867 C   0  0  0  0  0  0  0  0  0  0  0  0
    4.4617   -5.5763    0.1691 N   0  0  0  0  0  0  0  0  0  0  0  0
    3.6617   -4.4867    0.2518 C   0  0  0  0  0  0  0  0  0  0  0  0
    2.4559    2.2504    1.7131 H   0  0  0  0  0  0  0  0  0  0  0  0
    5.5332    2.7622    2.0495 H   0  0  0  0  0  0  0  0  0  0  0  0
    6.8379    4.8815    1.9929 H   0  0  0  0  0  0  0  0  0  0  0  0
    5.9111    6.8218    0.7209 H   0  0  0  0  0  0  0  0  0  0  0  0
    2.5639    4.6992   -0.3966 H   0  0  0  0  0  0  0  0  0  0  0  0
    4.8840    2.0583   -1.2360 H   0  0  0  0  0  0  0  0  0  0  0  0
    3.5797    1.2841   -2.1326 H   0  0  0  0  0  0  0  0  0  0  0  0
    4.7228   -1.9983   -1.3206 H   0  0  0  0  0  0  0  0  0  0  0  0
    3.4471   -1.0910   -2.1241 H   0  0  0  0  0  0  0  0  0  0  0  0
    2.5191   -2.0299    1.8132 H   0  0  0  0  0  0  0  0  0  0  0  0
    5.5809   -2.3872    2.0817 H   0  0  0  0  0  0  0  0  0  0  0  0
    7.0719   -4.3745    1.9621 H   0  0  0  0  0  0  0  0  0  0  0  0
    6.2858   -6.3829    0.7008 H   0  0  0  0  0  0  0  0  0  0  0  0
    2.7079   -4.5816   -0.2594 H   0  0  0  0  0  0  0  0  0  0  0  0
  1  2  2  0  0  0  0
  2  3  1  0  0  0  0
  2 14  1  0  0  0  0
  3  4  2  0  0  0  0
  3 11  1  0  0  0  0
  4  5  1  0  0  0  0
  4 22  1  0  0  0  0
  5  6  2  0  0  0  0
  5 10  1  0  0  0  0
  6  7  1  0  0  0  0
  6 23  1  0  0  0  0
  7  8  2  0  0  0  0
  7 24  1  0  0  0  0
  8  9  1  0  0  0  0
  8 25  1  0  0  0  0
  9 10  2  0  0  0  0
 10 26  1  0  0  0  0
 11 12  1  0  0  0  0
 11 27  1  0  0  0  0
 11 28  1  0  0  0  0
 12 13  1  0  0  0  0
 13 14  1  0  0  0  0
 13 29  1  0  0  0  0
 13 30  1  0  0  0  0
 14 15  2  0  0  0  0
 15 16  1  0  0  0  0
 15 31  1  0  0  0  0
 16 17  2  0  0  0  0
 16 21  1  0  0  0  0
 17 18  1  0  0  0  0
 17 32  1  0  0  0  0
 18 19  2  0  0  0  0
 18 33  1  0  0  0  0
 19 20  1  0  0  0  0
 19 34  1  0  0  0  0
 20 21  2  0  0  0  0
 21 35  1  0  0  0  0
M  END
$$$$
