
 OpenBabel09162610133D

 30 33  0  0  0  0  0  0  0  0999 V2000
   -2.0842   -0.2707   -0.1580 Cl  0  0  0  0  0  0  0  0  0  0  0  0
   -0.3678   -0.1631   -0.1257 C   0  0  0  0  0  0  0  0  0  0  0  0
    0.2427    0.9571    0.4272 C   0  0  0  0  0  0  0  0  0  0  0  0
    1.6389    1.0349    0.4735 C   0  0  0  0  0  0  0  0  0  0  0  0
    2.4528   -0.0058   -0.0188 C   0  0  0  0  0  0  0  0  0  0  0  0
    3.9276    0.0452    0.0899 C   0  0  0  0  0  0  0  0  0  0  0  0
    4.5657    0.6561    1.1754 C   0  0  0  0  0  0  0  0  0  0  0  0
    5.9586    0.6840    1.2455 C   0  0  0  0  0  0  0  0  0  0  0  0
    6.6953    0.0935    0.2298 C   0  0  0  0  0  0  0  0  0  0  0  0
    8.1705    0.0937    0.2457 C   0  0  0  0  0  0  0  0  0  0  0  0
    8.8343   -0.4981   -0.7635 C   0  0  0  0  0  0  0  0  0  0  0  0
    8.1469   -1.1066   -1.8108 N   0  0  0  0  0  0  0  0  0  0  0  0
    8.6401   -1.7538   -2.9128 C   0  0  0  0  0  0  0  0  0  0  0  0
    7.5346   -2.1651   -3.6195 C   0  0  0  0  0  0  0  0  0  0  0  0
    6.3764   -1.7909   -2.9866 N   0  0  0  0  0  0  0  0  0  0  0  0
    6.7610   -1.1503   -1.8969 C   0  0  0  0  0  0  0  0  0  0  0  0
    5.9855   -0.5153   -0.8236 C   0  0  0  0  0  0  0  0  0  0  0  0
    4.6310   -0.5521   -0.9058 N   0  0  0  0  0  0  0  0  0  0  0  0
    1.8038   -1.1108   -0.6005 C   0  0  0  0  0  0  0  0  0  0  0  0
    0.4061   -1.1941   -0.6489 C   0  0  0  0  0  0  0  0  0  0  0  0
   -0.3558    1.7724    0.8247 H   0  0  0  0  0  0  0  0  0  0  0  0
    2.0853    1.9328    0.8956 H   0  0  0  0  0  0  0  0  0  0  0  0
    3.9901    1.0978    1.9835 H   0  0  0  0  0  0  0  0  0  0  0  0
    6.4443    1.1601    2.0918 H   0  0  0  0  0  0  0  0  0  0  0  0
    8.6911    0.5717    1.0690 H   0  0  0  0  0  0  0  0  0  0  0  0
    9.9172   -0.5282   -0.8056 H   0  0  0  0  0  0  0  0  0  0  0  0
    9.6999   -1.8639   -3.0945 H   0  0  0  0  0  0  0  0  0  0  0  0
    7.5111   -2.7125   -4.5536 H   0  0  0  0  0  0  0  0  0  0  0  0
    2.3945   -1.9285   -1.0138 H   0  0  0  0  0  0  0  0  0  0  0  0
   -0.0652   -2.0673   -1.0919 H   0  0  0  0  0  0  0  0  0  0  0  0
  1  2  1  0  0  0  0
  2  3  2  0  0  0  0
  2 20  1  0  0  0  0
  3  4  1  0  0  0  0
  3 21  1  0  0  0  0
  4  5  2  0  0  0  0
  4 22  1  0  0  0  0
  5  6  1  0  0  0  0
  5 19  1  0  0  0  0
  6  7  2  0  0  0  0
  6 18  1  0  0  0  0
  7  8  1  0  0  0  0
  7 23  1  0  0  0  0
  8  9  2  0  0  0  0
  8 24  1  0  0  0  0
  9 10  1  0  0  0  0
  9 17  1  0  0  0  0
 10 11  2  0  0  0  0
 10 25  1  0  0  0  0
 11 12  1  0  0  0  0
 11 26  1  0  0  0  0
 12 13  1  0  0  0  0
 12 16  1  0  0  0  0
 13 14  2  0  0  0  0
 13 27  1  0  0  0  0
 14 15  1  0  0  0  0
 14 28  1  0  0  0  0
 15 16  2  0  0  0  0
 16 17  1  0  0  0  0
 17 18  2  0  0  0  0
 19 20  2  0  0  0  0
 19 29  1  0  0  0  0
 20 30  1  0  0  0  0
M  END
$$$$
