
 OpenBabel09162610133D

 39 42  0  0  0  0  0  0  0  0999 V2000
   -1.2969    1.8050   -2.4046 C   0  0  0  0  0  0  0  0  0  0  0  0
   -0.9096    0.6082   -1.7059 N   0  0  0  0  0  0  0  0  0  0  0  0
   -1.7867   -0.3501   -1.2119 C   0  0  0  0  0  0  0  0  0  0  0  0
   -2.9981   -0.3803   -1.2629 O   0  0  0  0  0  0  0  0  0  0  0  0
   -0.8899   -1.4155   -0.5664 C   0  0  0  0  0  0  0  0  0  0  0  0
   -1.2002   -2.5200    0.0306 N   0  0  0  0  0  0  0  0  0  0  0  0
   -2.5915   -2.7064    0.1551 O   0  0  0  0  0  0  0  0  0  0  0  0
   -2.8805   -4.0428    0.0316 C   0  0  0  0  0  0  0  0  0  0  0  0
   -2.1833   -4.8765   -0.5298 O   0  0  0  0  0  0  0  0  0  0  0  0
   -4.1710   -4.3601    0.7209 C   0  0  0  0  0  0  0  0  0  0  0  0
   -5.1834   -3.3851    0.7382 C   0  0  0  0  0  0  0  0  0  0  0  0
   -6.4036   -3.6467    1.3555 C   0  0  0  0  0  0  0  0  0  0  0  0
   -6.6303   -4.8836    1.9544 C   0  0  0  0  0  0  0  0  0  0  0  0
   -5.6460   -5.8789    1.9515 C   0  0  0  0  0  0  0  0  0  0  0  0
   -5.9145   -7.1184    2.5634 C   0  0  0  0  0  0  0  0  0  0  0  0
   -4.9625   -8.1340    2.5853 C   0  0  0  0  0  0  0  0  0  0  0  0
   -3.7228   -7.9195    2.0048 C   0  0  0  0  0  0  0  0  0  0  0  0
   -3.4387   -6.6914    1.3987 C   0  0  0  0  0  0  0  0  0  0  0  0
   -4.3870   -5.6374    1.3367 C   0  0  0  0  0  0  0  0  0  0  0  0
    0.4833   -0.9535   -0.7515 C   0  0  0  0  0  0  0  0  0  0  0  0
    1.6746   -1.5238   -0.3453 C   0  0  0  0  0  0  0  0  0  0  0  0
    2.8488   -0.8297   -0.6445 C   0  0  0  0  0  0  0  0  0  0  0  0
    2.8015    0.3970   -1.3345 C   0  0  0  0  0  0  0  0  0  0  0  0
    1.5796    0.9532   -1.7361 C   0  0  0  0  0  0  0  0  0  0  0  0
    0.4218    0.2600   -1.4307 C   0  0  0  0  0  0  0  0  0  0  0  0
   -2.3826    1.8449   -2.5252 H   0  0  0  0  0  0  0  0  0  0  0  0
   -0.8283    1.8164   -3.3937 H   0  0  0  0  0  0  0  0  0  0  0  0
   -0.9692    2.6787   -1.8329 H   0  0  0  0  0  0  0  0  0  0  0  0
   -5.0362   -2.4173    0.2626 H   0  0  0  0  0  0  0  0  0  0  0  0
   -7.1838   -2.8893    1.3662 H   0  0  0  0  0  0  0  0  0  0  0  0
   -7.5943   -5.0653    2.4273 H   0  0  0  0  0  0  0  0  0  0  0  0
   -6.8799   -7.3043    3.0307 H   0  0  0  0  0  0  0  0  0  0  0  0
   -5.1891   -9.0875    3.0550 H   0  0  0  0  0  0  0  0  0  0  0  0
   -2.9693   -8.7032    2.0159 H   0  0  0  0  0  0  0  0  0  0  0  0
   -2.4464   -6.5776    0.9677 H   0  0  0  0  0  0  0  0  0  0  0  0
    1.6930   -2.4687    0.1877 H   0  0  0  0  0  0  0  0  0  0  0  0
    3.8103   -1.2391   -0.3402 H   0  0  0  0  0  0  0  0  0  0  0  0
    3.7305    0.9202   -1.5558 H   0  0  0  0  0  0  0  0  0  0  0  0
    1.5615    1.9004   -2.2638 H   0  0  0  0  0  0  0  0  0  0  0  0
  1  2  1  0  0  0  0
  1 26  1  0  0  0  0
  1 27  1  0  0  0  0
  1 28  1  0  0  0  0
  2  3  1  0  0  0  0
  2 25  1  0  0  0  0
  3  4  2  0  0  0  0
  3  5  1  0  0  0  0
  5  6  2  0  0  0  0
  5 20  1  0  0  0  0
  6  7  1  0  0  0  0
  7  8  1  0  0  0  0
  8  9  2  0  0  0  0
  8 10  1  0  0  0  0
 10 11  2  0  0  0  0
 10 19  1  0  0  0  0
 11 12  1  0  0  0  0
 11 29  1  0  0  0  0
 12 13  2  0  0  0  0
 12 30  1  0  0  0  0
 13 14  1  0  0  0  0
 13 31  1  0  0  0  0
 14 15  1  0  0  0  0
 14 19  2  0  0  0  0
 15 16  2  0  0  0  0
 15 32  1  0  0  0  0
 16 17  1  0  0  0  0
 16 33  1  0  0  0  0
 17 18  2  0  0  0  0
 17 34  1  0  0  0  0
 18 19  1  0  0  0  0
 18 35  1  0  0  0  0
 20 21  2  0  0  0  0
 20 25  1  0  0  0  0
 21 22  1  0  0  0  0
 21 36  1  0  0  0  0
 22 23  2  0  0  0  0
 22 37  1  0  0  0  0
 23 24  1  0  0  0  0
 23 38  1  0  0  0  0
 24 25  2  0  0  0  0
 24 39  1  0  0  0  0
M  END
$$$$
