
 OpenBabel09162610133D

 31 33  0  0  0  0  0  0  0  0999 V2000
    0.9618   -0.1407    0.1472 N   0  0  0  0  0  0  0  0  0  0  0  0
    2.1234   -0.1529    0.1448 C   0  0  0  0  0  0  0  0  0  0  0  0
    3.5483   -0.1304    0.0986 C   0  0  0  0  0  0  0  0  0  0  0  0
    4.2040    1.1025    0.0366 C   0  0  0  0  0  0  0  0  0  0  0  0
    5.6129    1.1158    0.0071 C   0  0  0  0  0  0  0  0  0  0  0  0
    6.5755    2.1818   -0.0421 C   0  0  0  0  0  0  0  0  0  0  0  0
    6.1964    3.4802   -0.1041 N   0  0  0  0  0  0  0  0  0  0  0  0
    7.8841    1.7285   -0.0143 C   0  0  0  0  0  0  0  0  0  0  0  0
    9.1599    2.4337   -0.0024 C   0  0  0  0  0  0  0  0  0  0  0  0
   10.1843    1.9933   -0.5272 O   0  0  0  0  0  0  0  0  0  0  0  0
    9.2832    3.7643    0.6663 C   0  0  0  0  0  0  0  0  0  0  0  0
   10.1900    4.6981    0.1414 C   0  0  0  0  0  0  0  0  0  0  0  0
   10.3319    5.9562    0.7342 C   0  0  0  0  0  0  0  0  0  0  0  0
    9.5710    6.2828    1.8548 C   0  0  0  0  0  0  0  0  0  0  0  0
    9.7365    7.8333    2.5800 Cl  0  0  0  0  0  0  0  0  0  0  0  0
    8.6803    5.3574    2.3963 C   0  0  0  0  0  0  0  0  0  0  0  0
    8.5477    4.0935    1.8138 C   0  0  0  0  0  0  0  0  0  0  0  0
    7.9334    0.0061   -0.0242 S   0  0  0  0  0  0  0  0  0  0  0  0
    6.2402   -0.1221    0.0209 C   0  0  0  0  0  0  0  0  0  0  0  0
    5.6381   -1.3296    0.0671 N   0  0  0  0  0  0  0  0  0  0  0  0
    4.2958   -1.3058    0.1060 C   0  0  0  0  0  0  0  0  0  0  0  0
    3.6929   -2.5576    0.2436 N   0  0  0  0  0  0  0  0  0  0  0  0
    3.6425    2.0320    0.0278 H   0  0  0  0  0  0  0  0  0  0  0  0
    5.2224    3.7582   -0.1897 H   0  0  0  0  0  0  0  0  0  0  0  0
    6.8324    4.2384   -0.3396 H   0  0  0  0  0  0  0  0  0  0  0  0
   10.7924    4.4474   -0.7309 H   0  0  0  0  0  0  0  0  0  0  0  0
   11.0391    6.6709    0.3204 H   0  0  0  0  0  0  0  0  0  0  0  0
    8.0901    5.6107    3.2738 H   0  0  0  0  0  0  0  0  0  0  0  0
    7.8624    3.3796    2.2654 H   0  0  0  0  0  0  0  0  0  0  0  0
    4.4130   -3.2718    0.1602 H   0  0  0  0  0  0  0  0  0  0  0  0
    2.9140   -2.7207   -0.3858 H   0  0  0  0  0  0  0  0  0  0  0  0
  1  2  3  0  0  0  0
  2  3  1  0  0  0  0
  3  4  2  0  0  0  0
  3 21  1  0  0  0  0
  4  5  1  0  0  0  0
  4 23  1  0  0  0  0
  5  6  1  0  0  0  0
  5 19  2  0  0  0  0
  6  7  1  0  0  0  0
  6  8  2  0  0  0  0
  7 24  1  0  0  0  0
  7 25  1  0  0  0  0
  8  9  1  0  0  0  0
  8 18  1  0  0  0  0
  9 10  2  0  0  0  0
  9 11  1  0  0  0  0
 11 12  2  0  0  0  0
 11 17  1  0  0  0  0
 12 13  1  0  0  0  0
 12 26  1  0  0  0  0
 13 14  2  0  0  0  0
 13 27  1  0  0  0  0
 14 15  1  0  0  0  0
 14 16  1  0  0  0  0
 16 17  2  0  0  0  0
 16 28  1  0  0  0  0
 17 29  1  0  0  0  0
 18 19  1  0  0  0  0
 19 20  1  0  0  0  0
 20 21  2  0  0  0  0
 21 22  1  0  0  0  0
 22 30  1  0  0  0  0
 22 31  1  0  0  0  0
M  END
$$$$
