
 OpenBabel09162610133D

 26 28  0  0  0  0  0  0  0  0999 V2000
    1.0759    0.0211    0.0948 N   0  0  0  0  0  0  0  0  0  0  0  0
    2.4034   -0.0326    0.0479 C   0  0  0  0  0  0  0  0  0  0  0  0
    3.0932    1.1333    0.0053 N   0  0  0  0  0  0  0  0  0  0  0  0
    4.3465    0.7312   -0.0193 C   0  0  0  0  0  0  0  0  0  0  0  0
    5.5905    1.4444   -0.0470 C   0  0  0  0  0  0  0  0  0  0  0  0
    5.6799    2.9190   -0.1064 C   0  0  0  0  0  0  0  0  0  0  0  0
    5.6943    3.6269    1.1079 C   0  0  0  0  0  0  0  0  0  0  0  0
    5.7763    5.0185    1.1189 C   0  0  0  0  0  0  0  0  0  0  0  0
    5.8417    5.7191   -0.0836 C   0  0  0  0  0  0  0  0  0  0  0  0
    5.8246    5.0306   -1.3012 C   0  0  0  0  0  0  0  0  0  0  0  0
    5.9110    5.9807   -2.7455 Cl  0  0  0  0  0  0  0  0  0  0  0  0
    5.7449    3.6293   -1.3224 C   0  0  0  0  0  0  0  0  0  0  0  0
    5.7378    2.7683   -2.8325 Cl  0  0  0  0  0  0  0  0  0  0  0  0
    6.7441    0.7357   -0.0169 C   0  0  0  0  0  0  0  0  0  0  0  0
    6.7556   -0.7190    0.0168 C   0  0  0  0  0  0  0  0  0  0  0  0
    5.5866   -1.3778    0.0176 C   0  0  0  0  0  0  0  0  0  0  0  0
    4.3906   -0.6637    0.0022 N   0  0  0  0  0  0  0  0  0  0  0  0
    3.1264   -1.1435    0.0201 N   0  0  0  0  0  0  0  0  0  0  0  0
    0.6422    0.8919   -0.1798 H   0  0  0  0  0  0  0  0  0  0  0  0
    0.5696   -0.8118   -0.1729 H   0  0  0  0  0  0  0  0  0  0  0  0
    5.6298    3.0926    2.0549 H   0  0  0  0  0  0  0  0  0  0  0  0
    5.7825    5.5564    2.0643 H   0  0  0  0  0  0  0  0  0  0  0  0
    5.9019    6.8050   -0.0671 H   0  0  0  0  0  0  0  0  0  0  0  0
    7.7133    1.2290   -0.0328 H   0  0  0  0  0  0  0  0  0  0  0  0
    7.7077   -1.2394    0.0326 H   0  0  0  0  0  0  0  0  0  0  0  0
    5.5002   -2.4559    0.0355 H   0  0  0  0  0  0  0  0  0  0  0  0
  1  2  1  0  0  0  0
  1 19  1  0  0  0  0
  1 20  1  0  0  0  0
  2  3  1  0  0  0  0
  2 18  2  0  0  0  0
  3  4  2  0  0  0  0
  4  5  1  0  0  0  0
  4 17  1  0  0  0  0
  5  6  1  0  0  0  0
  5 14  2  0  0  0  0
  6  7  2  0  0  0  0
  6 12  1  0  0  0  0
  7  8  1  0  0  0  0
  7 21  1  0  0  0  0
  8  9  2  0  0  0  0
  8 22  1  0  0  0  0
  9 10  1  0  0  0  0
  9 23  1  0  0  0  0
 10 11  1  0  0  0  0
 10 12  2  0  0  0  0
 12 13  1  0  0  0  0
 14 15  1  0  0  0  0
 14 24  1  0  0  0  0
 15 16  2  0  0  0  0
 15 25  1  0  0  0  0
 16 17  1  0  0  0  0
 16 26  1  0  0  0  0
 17 18  1  0  0  0  0
M  END
$$$$
