
 OpenBabel09162610133D

 34 37  0  0  1  0  0  0  0  0999 V2000
    0.9147    0.2433   -0.2267 O   0  0  0  0  0  0  0  0  0  0  0  0
    2.1307    0.1568   -0.2695 C   0  0  0  0  0  0  0  0  0  0  0  0
    3.1022    1.2909   -0.3127 C   0  0  0  0  0  0  0  0  0  0  0  0
    2.7239    2.5783   -0.3044 C   0  0  0  0  0  0  0  0  0  0  0  0
    1.4522    3.0948   -0.3122 N   0  0  0  0  0  0  0  0  0  0  0  0
    1.4586    4.4627    0.1478 C   0  0  0  0  0  0  0  0  0  0  0  0
    2.9374    4.6687    0.5234 C   0  0  1  0  0  0  0  0  0  0  0  0
    3.2018    4.6694    2.0234 C   0  0  0  0  0  0  0  0  0  0  0  0
    2.8890    3.5615    2.8302 C   0  0  0  0  0  0  0  0  0  0  0  0
    3.1122    3.5860    4.2069 C   0  0  0  0  0  0  0  0  0  0  0  0
    3.6491    4.7228    4.8022 C   0  0  0  0  0  0  0  0  0  0  0  0
    3.9718    5.8287    4.0191 C   0  0  0  0  0  0  0  0  0  0  0  0
    3.7543    5.8028    2.6388 C   0  0  0  0  0  0  0  0  0  0  0  0
    3.6708    3.5909   -0.1179 O   0  0  0  0  0  0  0  0  0  0  0  0
    4.7516    0.7351   -0.2483 S   0  0  0  0  0  0  0  0  0  0  0  0
    4.2337   -0.9542   -0.1899 C   0  0  0  0  0  0  0  0  0  0  0  0
    5.0695   -2.0597   -0.1216 C   0  0  0  0  0  0  0  0  0  0  0  0
    4.4984   -3.3345   -0.0645 C   0  0  0  0  0  0  0  0  0  0  0  0
    3.1045   -3.4937   -0.0704 C   0  0  0  0  0  0  0  0  0  0  0  0
    2.2664   -2.3790   -0.1388 C   0  0  0  0  0  0  0  0  0  0  0  0
    2.8526   -1.1216   -0.2044 C   0  0  0  0  0  0  0  0  0  0  0  0
    0.7099    2.4527   -0.0307 H   0  0  0  0  0  0  0  0  0  0  0  0
    0.7657    4.6336    0.9773 H   0  0  0  0  0  0  0  0  0  0  0  0
    1.1791    5.1206   -0.6820 H   0  0  0  0  0  0  0  0  0  0  0  0
    3.2996    5.6086    0.0892 H   0  0  0  0  0  0  0  0  0  0  0  0
    2.4647    2.6598    2.3968 H   0  0  0  0  0  0  0  0  0  0  0  0
    2.8656    2.7166    4.8102 H   0  0  0  0  0  0  0  0  0  0  0  0
    3.8179    4.7443    5.8755 H   0  0  0  0  0  0  0  0  0  0  0  0
    4.3956    6.7149    4.4852 H   0  0  0  0  0  0  0  0  0  0  0  0
    4.0203    6.6782    2.0501 H   0  0  0  0  0  0  0  0  0  0  0  0
    6.1492   -1.9413   -0.1091 H   0  0  0  0  0  0  0  0  0  0  0  0
    5.1418   -4.2107   -0.0114 H   0  0  0  0  0  0  0  0  0  0  0  0
    2.6759   -4.4923   -0.0201 H   0  0  0  0  0  0  0  0  0  0  0  0
    1.1862   -2.4897   -0.1382 H   0  0  0  0  0  0  0  0  0  0  0  0
  1  2  2  0  0  0  0
  2  3  1  0  0  0  0
  2 21  1  0  0  0  0
  3  4  2  0  0  0  0
  3 15  1  0  0  0  0
  4  5  1  0  0  0  0
  4 14  1  0  0  0  0
  5  6  1  0  0  0  0
  5 22  1  0  0  0  0
  6  7  1  0  0  0  0
  6 23  1  0  0  0  0
  6 24  1  0  0  0  0
  7  8  1  0  0  0  0
  7 14  1  0  0  0  0
  7 25  1  6  0  0  0
  8  9  2  0  0  0  0
  8 13  1  0  0  0  0
  9 10  1  0  0  0  0
  9 26  1  0  0  0  0
 10 11  2  0  0  0  0
 10 27  1  0  0  0  0
 11 12  1  0  0  0  0
 11 28  1  0  0  0  0
 12 13  2  0  0  0  0
 12 29  1  0  0  0  0
 13 30  1  0  0  0  0
 15 16  1  0  0  0  0
 16 17  2  0  0  0  0
 16 21  1  0  0  0  0
 17 18  1  0  0  0  0
 17 31  1  0  0  0  0
 18 19  2  0  0  0  0
 18 32  1  0  0  0  0
 19 20  1  0  0  0  0
 19 33  1  0  0  0  0
 20 21  2  0  0  0  0
 20 34  1  0  0  0  0
M  END
$$$$
