
 OpenBabel09162610133D

 40 41  0  0  0  0  0  0  0  0999 V2000
    1.4311    0.8238   -1.5401 C   0  0  0  0  0  0  0  0  0  0  0  0
    2.8551    0.4440   -1.2188 C   0  0  0  0  0  0  0  0  0  0  0  0
    3.8813    1.3458   -1.5067 C   0  0  0  0  0  0  0  0  0  0  0  0
    5.2020    1.0198   -1.2181 C   0  0  0  0  0  0  0  0  0  0  0  0
    5.5351   -0.2251   -0.6589 C   0  0  0  0  0  0  0  0  0  0  0  0
    6.9934   -0.5220   -0.4155 C   0  0  0  0  0  0  0  0  0  0  0  0
    4.5171   -1.1709   -0.3651 C   0  0  0  0  0  0  0  0  0  0  0  0
    4.9183   -2.4449    0.1180 N   0  0  0  0  0  0  0  0  0  0  0  0
    4.3987   -3.7048   -0.1357 C   0  0  0  0  0  0  0  0  0  0  0  0
    3.6838   -4.0443   -1.2212 C   0  0  0  0  0  0  0  0  0  0  0  0
    3.0763   -5.3814   -1.3779 C   0  0  0  0  0  0  0  0  0  0  0  0
    2.5907   -5.6877   -2.4668 O   0  0  0  0  0  0  0  0  0  0  0  0
    3.0837   -6.3548   -0.2195 C   0  0  0  0  0  0  0  0  0  0  0  0
    3.5850   -5.7852    1.1223 C   0  0  0  0  0  0  0  0  0  0  0  0
    2.4403   -5.1046    1.8980 C   0  0  0  0  0  0  0  0  0  0  0  0
    4.0936   -6.9521    1.9908 C   0  0  0  0  0  0  0  0  0  0  0  0
    4.7323   -4.7789    0.8885 C   0  0  0  0  0  0  0  0  0  0  0  0
    3.1689   -0.8044   -0.6239 C   0  0  0  0  0  0  0  0  0  0  0  0
    2.0656   -1.6258   -0.2086 C   0  0  0  0  0  0  0  0  0  0  0  0
    1.1151   -2.2212    0.0969 N   0  0  0  0  0  0  0  0  0  0  0  0
    1.3774    1.7941   -2.0440 H   0  0  0  0  0  0  0  0  0  0  0  0
    0.8369    0.8923   -0.6234 H   0  0  0  0  0  0  0  0  0  0  0  0
    0.9842    0.0835   -2.2128 H   0  0  0  0  0  0  0  0  0  0  0  0
    3.6587    2.3135   -1.9521 H   0  0  0  0  0  0  0  0  0  0  0  0
    5.9798    1.7463   -1.4480 H   0  0  0  0  0  0  0  0  0  0  0  0
    7.6249    0.3407   -0.6559 H   0  0  0  0  0  0  0  0  0  0  0  0
    7.3216   -1.3572   -1.0418 H   0  0  0  0  0  0  0  0  0  0  0  0
    7.1655   -0.7595    0.6391 H   0  0  0  0  0  0  0  0  0  0  0  0
    5.6711   -2.4132    0.8002 H   0  0  0  0  0  0  0  0  0  0  0  0
    3.4935   -3.3593   -2.0385 H   0  0  0  0  0  0  0  0  0  0  0  0
    3.7224   -7.1885   -0.5367 H   0  0  0  0  0  0  0  0  0  0  0  0
    2.0643   -6.7441   -0.1062 H   0  0  0  0  0  0  0  0  0  0  0  0
    1.5872   -5.7790    2.0281 H   0  0  0  0  0  0  0  0  0  0  0  0
    2.0777   -4.2123    1.3900 H   0  0  0  0  0  0  0  0  0  0  0  0
    2.7728   -4.7967    2.8966 H   0  0  0  0  0  0  0  0  0  0  0  0
    3.2884   -7.6674    2.1960 H   0  0  0  0  0  0  0  0  0  0  0  0
    4.4780   -6.5944    2.9524 H   0  0  0  0  0  0  0  0  0  0  0  0
    4.9026   -7.4968    1.4918 H   0  0  0  0  0  0  0  0  0  0  0  0
    5.6337   -5.3047    0.5437 H   0  0  0  0  0  0  0  0  0  0  0  0
    4.9993   -4.3126    1.8465 H   0  0  0  0  0  0  0  0  0  0  0  0
  1  2  1  0  0  0  0
  1 21  1  0  0  0  0
  1 22  1  0  0  0  0
  1 23  1  0  0  0  0
  2  3  2  0  0  0  0
  2 18  1  0  0  0  0
  3  4  1  0  0  0  0
  3 24  1  0  0  0  0
  4  5  2  0  0  0  0
  4 25  1  0  0  0  0
  5  6  1  0  0  0  0
  5  7  1  0  0  0  0
  6 26  1  0  0  0  0
  6 27  1  0  0  0  0
  6 28  1  0  0  0  0
  7  8  1  0  0  0  0
  7 18  2  0  0  0  0
  8  9  1  0  0  0  0
  8 29  1  0  0  0  0
  9 10  2  0  0  0  0
  9 17  1  0  0  0  0
 10 11  1  0  0  0  0
 10 30  1  0  0  0  0
 11 12  2  0  0  0  0
 11 13  1  0  0  0  0
 13 14  1  0  0  0  0
 13 31  1  0  0  0  0
 13 32  1  0  0  0  0
 14 15  1  0  0  0  0
 14 16  1  0  0  0  0
 14 17  1  0  0  0  0
 15 33  1  0  0  0  0
 15 34  1  0  0  0  0
 15 35  1  0  0  0  0
 16 36  1  0  0  0  0
 16 37  1  0  0  0  0
 16 38  1  0  0  0  0
 17 39  1  0  0  0  0
 17 40  1  0  0  0  0
 18 19  1  0  0  0  0
 19 20  3  0  0  0  0
M  END
$$$$
