
 OpenBabel09162610133D

 33 34  0  0  0  0  0  0  0  0999 V2000
    0.9744    0.0630   -0.1493 O   0  0  0  0  0  0  0  0  0  0  0  0
    2.1914    0.1526   -0.2828 C   0  0  0  0  0  0  0  0  0  0  0  0
    2.8615    1.3060   -0.6483 N   0  0  0  0  0  0  0  0  0  0  0  0
    2.2196    2.5138   -0.8368 C   0  0  0  0  0  0  0  0  0  0  0  0
    1.0148    2.6769   -0.6673 O   0  0  0  0  0  0  0  0  0  0  0  0
    3.0293    3.5808   -1.2172 N   0  0  0  0  0  0  0  0  0  0  0  0
    2.4006    4.9020   -1.2906 C   0  0  0  0  0  0  0  0  0  0  0  0
    2.2675    5.3528   -2.7417 C   0  0  0  0  0  0  0  0  0  0  0  0
    3.6367    5.3572   -3.4174 C   0  0  0  0  0  0  0  0  0  0  0  0
    4.3119    3.9909   -3.2859 C   0  0  0  0  0  0  0  0  0  0  0  0
    4.3563    3.5092   -1.8321 C   0  0  0  0  0  0  0  0  0  0  0  0
    2.9840   -1.0958   -0.0499 C   0  0  0  0  0  0  0  0  0  0  0  0
    2.2514   -2.2616    0.2595 C   0  0  0  0  0  0  0  0  0  0  0  0
    2.8869   -3.4813    0.4922 C   0  0  0  0  0  0  0  0  0  0  0  0
    4.2702   -3.5516    0.4198 C   0  0  0  0  0  0  0  0  0  0  0  0
    5.0667   -5.0486    0.7204 Cl  0  0  0  0  0  0  0  0  0  0  0  0
    5.0187   -2.4158    0.1073 C   0  0  0  0  0  0  0  0  0  0  0  0
    4.3801   -1.1883   -0.1304 C   0  0  0  0  0  0  0  0  0  0  0  0
    3.8546    1.3377   -0.5673 H   0  0  0  0  0  0  0  0  0  0  0  0
    3.0341    5.6001   -0.7300 H   0  0  0  0  0  0  0  0  0  0  0  0
    1.4170    4.9136   -0.8101 H   0  0  0  0  0  0  0  0  0  0  0  0
    1.8237    6.3536   -2.7858 H   0  0  0  0  0  0  0  0  0  0  0  0
    1.5962    4.6734   -3.2821 H   0  0  0  0  0  0  0  0  0  0  0  0
    4.2685    6.1252   -2.9542 H   0  0  0  0  0  0  0  0  0  0  0  0
    3.5303    5.6226   -4.4750 H   0  0  0  0  0  0  0  0  0  0  0  0
    5.3287    4.0416   -3.6913 H   0  0  0  0  0  0  0  0  0  0  0  0
    3.7577    3.2626   -3.8907 H   0  0  0  0  0  0  0  0  0  0  0  0
    5.0231    4.1485   -1.2421 H   0  0  0  0  0  0  0  0  0  0  0  0
    4.7635    2.4966   -1.8131 H   0  0  0  0  0  0  0  0  0  0  0  0
    1.1623   -2.2228    0.3199 H   0  0  0  0  0  0  0  0  0  0  0  0
    2.2929   -4.3598    0.7295 H   0  0  0  0  0  0  0  0  0  0  0  0
    6.1023   -2.4806    0.0485 H   0  0  0  0  0  0  0  0  0  0  0  0
    5.0048   -0.3364   -0.3724 H   0  0  0  0  0  0  0  0  0  0  0  0
  1  2  2  0  0  0  0
  2  3  1  0  0  0  0
  2 12  1  0  0  0  0
  3  4  1  0  0  0  0
  3 19  1  0  0  0  0
  4  5  2  0  0  0  0
  4  6  1  0  0  0  0
  6  7  1  0  0  0  0
  6 11  1  0  0  0  0
  7  8  1  0  0  0  0
  7 20  1  0  0  0  0
  7 21  1  0  0  0  0
  8  9  1  0  0  0  0
  8 22  1  0  0  0  0
  8 23  1  0  0  0  0
  9 10  1  0  0  0  0
  9 24  1  0  0  0  0
  9 25  1  0  0  0  0
 10 11  1  0  0  0  0
 10 26  1  0  0  0  0
 10 27  1  0  0  0  0
 11 28  1  0  0  0  0
 11 29  1  0  0  0  0
 12 13  2  0  0  0  0
 12 18  1  0  0  0  0
 13 14  1  0  0  0  0
 13 30  1  0  0  0  0
 14 15  2  0  0  0  0
 14 31  1  0  0  0  0
 15 16  1  0  0  0  0
 15 17  1  0  0  0  0
 17 18  2  0  0  0  0
 17 32  1  0  0  0  0
 18 33  1  0  0  0  0
M  END
$$$$
