
 OpenBabel09162610133D

 24 25  0  0  0  0  0  0  0  0999 V2000
   -2.1572   -1.6290    0.3248 O   0  0  0  0  0  0  0  0  0  0  0  0
   -3.0952   -1.1468   -0.2840 C   0  0  0  0  0  0  0  0  0  0  0  0
   -4.0845   -1.8667   -0.8937 N   0  0  0  0  0  0  0  0  0  0  0  0
   -5.0741   -1.1850   -1.5334 C   0  0  0  0  0  0  0  0  0  0  0  0
   -6.3378   -1.9175   -2.3118 S   0  0  0  0  0  0  0  0  0  0  0  0
   -4.7923    0.5356   -1.3936 S   0  0  0  0  0  0  0  0  0  0  0  0
   -3.3545    0.3078   -0.4657 C   0  0  0  0  0  0  0  0  0  0  0  0
   -2.5570    1.2423    0.0664 C   0  0  0  0  0  0  0  0  0  0  0  0
   -2.7855    2.6864   -0.0171 C   0  0  0  0  0  0  0  0  0  0  0  0
   -2.2346    3.4337   -1.0614 C   0  0  0  0  0  0  0  0  0  0  0  0
   -2.4616    4.8092   -1.1350 C   0  0  0  0  0  0  0  0  0  0  0  0
   -3.2592    5.4403   -0.1796 C   0  0  0  0  0  0  0  0  0  0  0  0
   -3.8426    4.7017    0.8600 C   0  0  0  0  0  0  0  0  0  0  0  0
   -4.7658    5.3573    1.8568 C   0  0  0  0  0  0  0  0  0  0  0  0
   -4.9617    6.6860    1.6265 F   0  0  0  0  0  0  0  0  0  0  0  0
   -6.0069    4.7953    1.8583 F   0  0  0  0  0  0  0  0  0  0  0  0
   -4.3119    5.2631    3.1364 F   0  0  0  0  0  0  0  0  0  0  0  0
   -3.5809    3.3236    0.9440 C   0  0  0  0  0  0  0  0  0  0  0  0
   -4.0750   -2.8750   -0.8536 H   0  0  0  0  0  0  0  0  0  0  0  0
   -1.6754    0.9486    0.6334 H   0  0  0  0  0  0  0  0  0  0  0  0
   -1.6300    2.9537   -1.8274 H   0  0  0  0  0  0  0  0  0  0  0  0
   -2.0273    5.3886   -1.9465 H   0  0  0  0  0  0  0  0  0  0  0  0
   -3.4359    6.5117   -0.2587 H   0  0  0  0  0  0  0  0  0  0  0  0
   -4.0178    2.7444    1.7576 H   0  0  0  0  0  0  0  0  0  0  0  0
  1  2  2  0  0  0  0
  2  3  1  0  0  0  0
  2  7  1  0  0  0  0
  3  4  1  0  0  0  0
  3 19  1  0  0  0  0
  4  5  2  0  0  0  0
  4  6  1  0  0  0  0
  6  7  1  0  0  0  0
  7  8  2  0  0  0  0
  8  9  1  0  0  0  0
  8 20  1  0  0  0  0
  9 10  2  0  0  0  0
  9 18  1  0  0  0  0
 10 11  1  0  0  0  0
 10 21  1  0  0  0  0
 11 12  2  0  0  0  0
 11 22  1  0  0  0  0
 12 13  1  0  0  0  0
 12 23  1  0  0  0  0
 13 14  1  0  0  0  0
 13 18  2  0  0  0  0
 14 15  1  0  0  0  0
 14 16  1  0  0  0  0
 14 17  1  0  0  0  0
 18 24  1  0  0  0  0
M  END
$$$$
