
 OpenBabel09162610133D

 37 39  0  0  0  0  0  0  0  0999 V2000
    2.1415   -0.6753    0.1300 C   0  0  0  0  0  0  0  0  0  0  0  0
    0.6607   -0.4314    0.1366 C   0  0  0  0  0  0  0  0  0  0  0  0
    0.0845    0.4446   -0.7780 C   0  0  0  0  0  0  0  0  0  0  0  0
   -1.3053    0.6170   -0.8057 C   0  0  0  0  0  0  0  0  0  0  0  0
   -2.1537   -0.0754    0.0763 C   0  0  0  0  0  0  0  0  0  0  0  0
   -3.6037    0.0904   -0.0961 C   0  0  0  0  0  0  0  0  0  0  0  0
   -4.1995    0.7577   -1.0667 N   0  0  0  0  0  0  0  0  0  0  0  0
   -5.5286    0.5321   -0.8427 C   0  0  0  0  0  0  0  0  0  0  0  0
   -6.4841    1.0243   -1.7742 C   0  0  0  0  0  0  0  0  0  0  0  0
   -7.2760    1.4160   -2.5308 N   0  0  0  0  0  0  0  0  0  0  0  0
   -5.7359   -0.2180    0.2992 C   0  0  0  0  0  0  0  0  0  0  0  0
   -6.8327   -0.7126    0.9535 N   0  0  0  0  0  0  0  0  0  0  0  0
   -6.6846   -1.5470    2.1507 C   0  0  0  0  0  0  0  0  0  0  0  0
   -7.8131   -2.5843    2.1907 C   0  0  0  0  0  0  0  0  0  0  0  0
   -9.1997   -1.9545    2.0575 C   0  0  0  0  0  0  0  0  0  0  0  0
   -9.2685   -0.9878    0.8790 C   0  0  0  0  0  0  0  0  0  0  0  0
   -8.1124    0.0089    0.9034 C   0  0  0  0  0  0  0  0  0  0  0  0
   -4.4715   -0.5274    0.7746 O   0  0  0  0  0  0  0  0  0  0  0  0
   -1.5677   -0.9286    1.0172 C   0  0  0  0  0  0  0  0  0  0  0  0
   -0.1702   -1.1035    1.0470 C   0  0  0  0  0  0  0  0  0  0  0  0
    2.6423   -0.0561   -0.6210 H   0  0  0  0  0  0  0  0  0  0  0  0
    2.3503   -1.7220   -0.1128 H   0  0  0  0  0  0  0  0  0  0  0  0
    2.5773   -0.4343    1.1047 H   0  0  0  0  0  0  0  0  0  0  0  0
    0.6989    0.9847   -1.4928 H   0  0  0  0  0  0  0  0  0  0  0  0
   -1.7259    1.2959   -1.5475 H   0  0  0  0  0  0  0  0  0  0  0  0
   -6.7250   -0.9134    3.0462 H   0  0  0  0  0  0  0  0  0  0  0  0
   -5.7279   -2.0807    2.1683 H   0  0  0  0  0  0  0  0  0  0  0  0
   -7.7616   -3.1514    3.1268 H   0  0  0  0  0  0  0  0  0  0  0  0
   -7.6713   -3.3015    1.3730 H   0  0  0  0  0  0  0  0  0  0  0  0
   -9.4514   -1.4195    2.9815 H   0  0  0  0  0  0  0  0  0  0  0  0
   -9.9541   -2.7404    1.9307 H   0  0  0  0  0  0  0  0  0  0  0  0
  -10.2228   -0.4479    0.9015 H   0  0  0  0  0  0  0  0  0  0  0  0
   -9.2439   -1.5555   -0.0595 H   0  0  0  0  0  0  0  0  0  0  0  0
   -8.1958    0.6611    1.7823 H   0  0  0  0  0  0  0  0  0  0  0  0
   -8.2085    0.6547    0.0297 H   0  0  0  0  0  0  0  0  0  0  0  0
   -2.1860   -1.4779    1.7239 H   0  0  0  0  0  0  0  0  0  0  0  0
    0.2588   -1.7887    1.7749 H   0  0  0  0  0  0  0  0  0  0  0  0
  1  2  1  0  0  0  0
  1 21  1  0  0  0  0
  1 22  1  0  0  0  0
  1 23  1  0  0  0  0
  2  3  2  0  0  0  0
  2 20  1  0  0  0  0
  3  4  1  0  0  0  0
  3 24  1  0  0  0  0
  4  5  2  0  0  0  0
  4 25  1  0  0  0  0
  5  6  1  0  0  0  0
  5 19  1  0  0  0  0
  6  7  2  0  0  0  0
  6 18  1  0  0  0  0
  7  8  1  0  0  0  0
  8  9  1  0  0  0  0
  8 11  2  0  0  0  0
  9 10  3  0  0  0  0
 11 12  1  0  0  0  0
 11 18  1  0  0  0  0
 12 13  1  0  0  0  0
 12 17  1  0  0  0  0
 13 14  1  0  0  0  0
 13 26  1  0  0  0  0
 13 27  1  0  0  0  0
 14 15  1  0  0  0  0
 14 28  1  0  0  0  0
 14 29  1  0  0  0  0
 15 16  1  0  0  0  0
 15 30  1  0  0  0  0
 15 31  1  0  0  0  0
 16 17  1  0  0  0  0
 16 32  1  0  0  0  0
 16 33  1  0  0  0  0
 17 34  1  0  0  0  0
 17 35  1  0  0  0  0
 19 20  2  0  0  0  0
 19 36  1  0  0  0  0
 20 37  1  0  0  0  0
M  END
$$$$
