
 OpenBabel09162610133D

 31 34  0  0  0  0  0  0  0  0999 V2000
    2.2114   -0.9834   -1.3222 C   0  0  0  0  0  0  0  0  0  0  0  0
    2.6796    0.1382    0.0084 S   0  0  0  0  0  0  0  0  0  0  0  0
    3.2012    1.5177   -0.9048 C   0  0  0  0  0  0  0  0  0  0  0  0
    3.1020    1.6241   -2.2006 N   0  0  0  0  0  0  0  0  0  0  0  0
    3.6247    2.8375   -2.4959 N   0  0  0  0  0  0  0  0  0  0  0  0
    3.7832    3.5081   -3.6680 C   0  0  0  0  0  0  0  0  0  0  0  0
    4.3690    4.7063   -3.2903 C   0  0  0  0  0  0  0  0  0  0  0  0
    4.7157    5.8242   -4.2039 C   0  0  0  0  0  0  0  0  0  0  0  0
    5.3591    6.9791   -3.8039 C   0  0  0  0  0  0  0  0  0  0  0  0
    5.4660    7.8096   -4.9434 C   0  0  0  0  0  0  0  0  0  0  0  0
    5.9912    9.0874   -5.1950 C   0  0  0  0  0  0  0  0  0  0  0  0
    5.8860    9.6123   -6.4853 C   0  0  0  0  0  0  0  0  0  0  0  0
    5.2704    8.8852   -7.5086 C   0  0  0  0  0  0  0  0  0  0  0  0
    4.7384    7.5995   -7.2909 C   0  0  0  0  0  0  0  0  0  0  0  0
    4.0644    6.8396   -8.3881 C   0  0  0  0  0  0  0  0  0  0  0  0
    4.8711    7.1080   -5.9859 C   0  0  0  0  0  0  0  0  0  0  0  0
    4.4339    5.8912   -5.5402 O   0  0  0  0  0  0  0  0  0  0  0  0
    4.5857    4.7678   -1.9213 N   0  0  0  0  0  0  0  0  0  0  0  0
    4.1061    3.6316   -1.5071 C   0  0  0  0  0  0  0  0  0  0  0  0
    3.9177    2.8627    0.0068 S   0  0  0  0  0  0  0  0  0  0  0  0
    1.9069   -1.9413   -0.8919 H   0  0  0  0  0  0  0  0  0  0  0  0
    3.0560   -1.1615   -1.9933 H   0  0  0  0  0  0  0  0  0  0  0  0
    1.3700   -0.5774   -1.8902 H   0  0  0  0  0  0  0  0  0  0  0  0
    3.4794    3.1038   -4.6217 H   0  0  0  0  0  0  0  0  0  0  0  0
    5.6962    7.1906   -2.7988 H   0  0  0  0  0  0  0  0  0  0  0  0
    6.4627    9.6626   -4.4019 H   0  0  0  0  0  0  0  0  0  0  0  0
    6.2824   10.6043   -6.6941 H   0  0  0  0  0  0  0  0  0  0  0  0
    5.2000    9.3363   -8.4973 H   0  0  0  0  0  0  0  0  0  0  0  0
    4.0574    7.4084   -9.3241 H   0  0  0  0  0  0  0  0  0  0  0  0
    3.0255    6.6295   -8.1155 H   0  0  0  0  0  0  0  0  0  0  0  0
    4.5853    5.8948   -8.5704 H   0  0  0  0  0  0  0  0  0  0  0  0
  1  2  1  0  0  0  0
  1 21  1  0  0  0  0
  1 22  1  0  0  0  0
  1 23  1  0  0  0  0
  2  3  1  0  0  0  0
  3  4  2  0  0  0  0
  3 20  1  0  0  0  0
  4  5  1  0  0  0  0
  5  6  1  0  0  0  0
  5 19  1  0  0  0  0
  6  7  2  0  0  0  0
  6 24  1  0  0  0  0
  7  8  1  0  0  0  0
  7 18  1  0  0  0  0
  8  9  2  0  0  0  0
  8 17  1  0  0  0  0
  9 10  1  0  0  0  0
  9 25  1  0  0  0  0
 10 11  2  0  0  0  0
 10 16  1  0  0  0  0
 11 12  1  0  0  0  0
 11 26  1  0  0  0  0
 12 13  2  0  0  0  0
 12 27  1  0  0  0  0
 13 14  1  0  0  0  0
 13 28  1  0  0  0  0
 14 15  1  0  0  0  0
 14 16  2  0  0  0  0
 15 29  1  0  0  0  0
 15 30  1  0  0  0  0
 15 31  1  0  0  0  0
 16 17  1  0  0  0  0
 18 19  2  0  0  0  0
 19 20  1  0  0  0  0
M  END
$$$$
