
 OpenBabel09162610133D

 38 40  0  0  0  0  0  0  0  0999 V2000
    1.2032   -0.3108    0.0243 O   0  0  0  0  0  0  0  0  0  0  0  0
    2.4074   -0.0480    0.0367 C   0  0  0  0  0  0  0  0  0  0  0  0
    3.2120   -0.0068   -1.1139 O   0  0  0  0  0  0  0  0  0  0  0  0
    2.5839   -0.2267   -2.3731 C   0  0  0  0  0  0  0  0  0  0  0  0
    1.6339   -1.2313   -2.5358 C   0  0  0  0  0  0  0  0  0  0  0  0
    0.9611   -1.2891   -3.7370 C   0  0  0  0  0  0  0  0  0  0  0  0
    1.1850   -0.4445   -4.7643 N   0  0  0  0  0  0  0  0  0  0  0  0
    2.1483    0.4803   -4.6286 C   0  0  0  0  0  0  0  0  0  0  0  0
    2.3669    1.3482   -5.6863 C   0  0  0  0  0  0  0  0  0  0  0  0
    3.3775    2.3032   -5.6353 C   0  0  0  0  0  0  0  0  0  0  0  0
    3.5912    3.3925   -6.9508 Cl  0  0  0  0  0  0  0  0  0  0  0  0
    4.2103    2.3877   -4.5253 C   0  0  0  0  0  0  0  0  0  0  0  0
    3.9811    1.5513   -3.4324 C   0  0  0  0  0  0  0  0  0  0  0  0
    2.9275    0.6097   -3.4555 C   0  0  0  0  0  0  0  0  0  0  0  0
    3.0860    0.2125    1.2260 N   0  0  0  0  0  0  0  0  0  0  0  0
    4.3620    0.9088    1.2809 C   0  0  0  0  0  0  0  0  0  0  0  0
    5.5334   -0.0178    1.6021 C   0  0  0  0  0  0  0  0  0  0  0  0
    5.5530   -0.6364    3.0026 C   0  0  0  0  0  0  0  0  0  0  0  0
    4.2487   -1.2693    3.4861 C   0  0  0  0  0  0  0  0  0  0  0  0
    3.1500   -0.2341    3.7134 C   0  0  0  0  0  0  0  0  0  0  0  0
    2.3251    0.0535    2.4635 C   0  0  0  0  0  0  0  0  0  0  0  0
    1.3809   -1.9272   -1.7448 H   0  0  0  0  0  0  0  0  0  0  0  0
    0.1818   -2.0267   -3.9062 H   0  0  0  0  0  0  0  0  0  0  0  0
    1.7281    1.2755   -6.5622 H   0  0  0  0  0  0  0  0  0  0  0  0
    5.0251    3.1067   -4.5012 H   0  0  0  0  0  0  0  0  0  0  0  0
    4.6345    1.6229   -2.5657 H   0  0  0  0  0  0  0  0  0  0  0  0
    4.2887    1.7206    2.0119 H   0  0  0  0  0  0  0  0  0  0  0  0
    4.5515    1.3870    0.3142 H   0  0  0  0  0  0  0  0  0  0  0  0
    6.4598    0.5609    1.4906 H   0  0  0  0  0  0  0  0  0  0  0  0
    5.5745   -0.8191    0.8563 H   0  0  0  0  0  0  0  0  0  0  0  0
    5.8695    0.1232    3.7290 H   0  0  0  0  0  0  0  0  0  0  0  0
    6.3343   -1.4069    3.0172 H   0  0  0  0  0  0  0  0  0  0  0  0
    4.4553   -1.7622    4.4446 H   0  0  0  0  0  0  0  0  0  0  0  0
    3.9180   -2.0556    2.7971 H   0  0  0  0  0  0  0  0  0  0  0  0
    3.5799    0.6953    4.1059 H   0  0  0  0  0  0  0  0  0  0  0  0
    2.4657   -0.5996    4.4894 H   0  0  0  0  0  0  0  0  0  0  0  0
    1.7404    0.9690    2.6103 H   0  0  0  0  0  0  0  0  0  0  0  0
    1.6033   -0.7629    2.3320 H   0  0  0  0  0  0  0  0  0  0  0  0
  1  2  2  0  0  0  0
  2  3  1  0  0  0  0
  2 15  1  0  0  0  0
  3  4  1  0  0  0  0
  4  5  2  0  0  0  0
  4 14  1  0  0  0  0
  5  6  1  0  0  0  0
  5 22  1  0  0  0  0
  6  7  2  0  0  0  0
  6 23  1  0  0  0  0
  7  8  1  0  0  0  0
  8  9  1  0  0  0  0
  8 14  2  0  0  0  0
  9 10  2  0  0  0  0
  9 24  1  0  0  0  0
 10 11  1  0  0  0  0
 10 12  1  0  0  0  0
 12 13  2  0  0  0  0
 12 25  1  0  0  0  0
 13 14  1  0  0  0  0
 13 26  1  0  0  0  0
 15 16  1  0  0  0  0
 15 21  1  0  0  0  0
 16 17  1  0  0  0  0
 16 27  1  0  0  0  0
 16 28  1  0  0  0  0
 17 18  1  0  0  0  0
 17 29  1  0  0  0  0
 17 30  1  0  0  0  0
 18 19  1  0  0  0  0
 18 31  1  0  0  0  0
 18 32  1  0  0  0  0
 19 20  1  0  0  0  0
 19 33  1  0  0  0  0
 19 34  1  0  0  0  0
 20 21  1  0  0  0  0
 20 35  1  0  0  0  0
 20 36  1  0  0  0  0
 21 37  1  0  0  0  0
 21 38  1  0  0  0  0
M  END
$$$$
