
 OpenBabel09162610133D

 30 31  0  0  0  0  0  0  0  0999 V2000
    1.1132    0.1316    0.2828 C   0  0  0  0  0  0  0  0  0  0  0  0
    2.5735    0.0584   -0.1235 C   0  0  0  0  0  0  0  0  0  0  0  0
    2.7518    0.1031   -1.6436 C   0  0  0  0  0  0  0  0  0  0  0  0
    3.2474   -1.0884    0.4194 N   0  0  0  0  0  0  0  0  0  0  0  0
    4.5115   -0.7641    0.8676 C   0  0  0  0  0  0  0  0  0  0  0  0
    5.3205   -1.6269    1.1727 O   0  0  0  0  0  0  0  0  0  0  0  0
    4.6233    0.6094    0.9145 N   0  0  0  0  0  0  0  0  0  0  0  0
    5.8010    1.3302    1.2456 C   0  0  0  0  0  0  0  0  0  0  0  0
    7.0627    0.7438    1.1034 C   0  0  0  0  0  0  0  0  0  0  0  0
    8.2294    1.4855    1.3134 C   0  0  0  0  0  0  0  0  0  0  0  0
    8.1668    2.8248    1.7061 C   0  0  0  0  0  0  0  0  0  0  0  0
    9.6730    3.6421    1.8909 Cl  0  0  0  0  0  0  0  0  0  0  0  0
    6.9272    3.4316    1.9113 C   0  0  0  0  0  0  0  0  0  0  0  0
    6.7357    4.8502    2.3847 C   0  0  0  0  0  0  0  0  0  0  0  0
    7.8626    5.5592    2.6510 F   0  0  0  0  0  0  0  0  0  0  0  0
    6.0402    5.5979    1.4808 F   0  0  0  0  0  0  0  0  0  0  0  0
    6.0020    4.8977    3.5351 F   0  0  0  0  0  0  0  0  0  0  0  0
    5.7564    2.6701    1.6618 C   0  0  0  0  0  0  0  0  0  0  0  0
    3.4314    1.1736    0.4966 C   0  0  0  0  0  0  0  0  0  0  0  0
    3.1192    2.3575    0.4588 O   0  0  0  0  0  0  0  0  0  0  0  0
    0.5546   -0.7271   -0.1069 H   0  0  0  0  0  0  0  0  0  0  0  0
    0.6414    1.0441   -0.0980 H   0  0  0  0  0  0  0  0  0  0  0  0
    1.0002    0.1333    1.3723 H   0  0  0  0  0  0  0  0  0  0  0  0
    2.2870   -0.7666   -2.1204 H   0  0  0  0  0  0  0  0  0  0  0  0
    3.8118    0.1021   -1.9262 H   0  0  0  0  0  0  0  0  0  0  0  0
    2.3058    1.0095   -2.0670 H   0  0  0  0  0  0  0  0  0  0  0  0
    3.0288   -2.0554    0.2080 H   0  0  0  0  0  0  0  0  0  0  0  0
    7.1797   -0.2845    0.7685 H   0  0  0  0  0  0  0  0  0  0  0  0
    9.1922    1.0050    1.1481 H   0  0  0  0  0  0  0  0  0  0  0  0
    4.7967    3.1604    1.8299 H   0  0  0  0  0  0  0  0  0  0  0  0
  1  2  1  0  0  0  0
  1 21  1  0  0  0  0
  1 22  1  0  0  0  0
  1 23  1  0  0  0  0
  2  3  1  0  0  0  0
  2  4  1  0  0  0  0
  2 19  1  0  0  0  0
  3 24  1  0  0  0  0
  3 25  1  0  0  0  0
  3 26  1  0  0  0  0
  4  5  1  0  0  0  0
  4 27  1  0  0  0  0
  5  6  2  0  0  0  0
  5  7  1  0  0  0  0
  7  8  1  0  0  0  0
  7 19  1  0  0  0  0
  8  9  2  0  0  0  0
  8 18  1  0  0  0  0
  9 10  1  0  0  0  0
  9 28  1  0  0  0  0
 10 11  2  0  0  0  0
 10 29  1  0  0  0  0
 11 12  1  0  0  0  0
 11 13  1  0  0  0  0
 13 14  1  0  0  0  0
 13 18  2  0  0  0  0
 14 15  1  0  0  0  0
 14 16  1  0  0  0  0
 14 17  1  0  0  0  0
 18 30  1  0  0  0  0
 19 20  2  0  0  0  0
M  END
$$$$
