
 OpenBabel09162610133D

 29 31  0  0  0  0  0  0  0  0999 V2000
    0.9376   -0.0307    0.1159 C   0  0  0  0  0  0  0  0  0  0  0  0
    2.3561   -0.0862    0.1014 O   0  0  0  0  0  0  0  0  0  0  0  0
    3.0390    1.1009    0.0700 C   0  0  0  0  0  0  0  0  0  0  0  0
    2.4514    2.3723    0.0680 C   0  0  0  0  0  0  0  0  0  0  0  0
    3.2403    3.5382    0.0244 C   0  0  0  0  0  0  0  0  0  0  0  0
    2.5864    4.8597    0.0404 C   0  0  0  0  0  0  0  0  0  0  0  0
    1.4436    5.1172    0.6464 N   0  0  0  0  0  0  0  0  0  0  0  0
    1.1253    6.4616    0.5298 C   0  0  0  0  0  0  0  0  0  0  0  0
    0.0085    7.0997    1.1025 C   0  0  0  0  0  0  0  0  0  0  0  0
   -0.1624    8.4684    0.9062 C   0  0  0  0  0  0  0  0  0  0  0  0
   -1.2165    9.0821    1.4604 F   0  0  0  0  0  0  0  0  0  0  0  0
    0.7343    9.2140    0.1539 C   0  0  0  0  0  0  0  0  0  0  0  0
    1.8441    8.6008   -0.4315 C   0  0  0  0  0  0  0  0  0  0  0  0
    2.0213    7.2216   -0.2247 C   0  0  0  0  0  0  0  0  0  0  0  0
    3.2795    6.1995   -0.7920 S   0  0  0  0  0  0  0  0  0  0  0  0
    4.6383    3.4025    0.0036 C   0  0  0  0  0  0  0  0  0  0  0  0
    5.2360    2.1416    0.0123 C   0  0  0  0  0  0  0  0  0  0  0  0
    4.4365    1.0024    0.0432 C   0  0  0  0  0  0  0  0  0  0  0  0
    5.0226   -0.2353    0.0543 O   0  0  0  0  0  0  0  0  0  0  0  0
    0.5648   -1.0599    0.1293 H   0  0  0  0  0  0  0  0  0  0  0  0
    0.5512    0.4503   -0.7884 H   0  0  0  0  0  0  0  0  0  0  0  0
    0.5711    0.4673    1.0190 H   0  0  0  0  0  0  0  0  0  0  0  0
    1.3714    2.4877    0.0998 H   0  0  0  0  0  0  0  0  0  0  0  0
   -0.7024    6.5373    1.6966 H   0  0  0  0  0  0  0  0  0  0  0  0
    0.5666   10.2799    0.0261 H   0  0  0  0  0  0  0  0  0  0  0  0
    2.5529    9.1748   -1.0210 H   0  0  0  0  0  0  0  0  0  0  0  0
    5.2851    4.2772   -0.0002 H   0  0  0  0  0  0  0  0  0  0  0  0
    6.3195    2.0694   -0.0012 H   0  0  0  0  0  0  0  0  0  0  0  0
    5.9862   -0.1327    0.0758 H   0  0  0  0  0  0  0  0  0  0  0  0
  1  2  1  0  0  0  0
  1 20  1  0  0  0  0
  1 21  1  0  0  0  0
  1 22  1  0  0  0  0
  2  3  1  0  0  0  0
  3  4  2  0  0  0  0
  3 18  1  0  0  0  0
  4  5  1  0  0  0  0
  4 23  1  0  0  0  0
  5  6  1  0  0  0  0
  5 16  2  0  0  0  0
  6  7  2  0  0  0  0
  6 15  1  0  0  0  0
  7  8  1  0  0  0  0
  8  9  2  0  0  0  0
  8 14  1  0  0  0  0
  9 10  1  0  0  0  0
  9 24  1  0  0  0  0
 10 11  1  0  0  0  0
 10 12  2  0  0  0  0
 12 13  1  0  0  0  0
 12 25  1  0  0  0  0
 13 14  2  0  0  0  0
 13 26  1  0  0  0  0
 14 15  1  0  0  0  0
 16 17  1  0  0  0  0
 16 27  1  0  0  0  0
 17 18  2  0  0  0  0
 17 28  1  0  0  0  0
 18 19  1  0  0  0  0
 19 29  1  0  0  0  0
M  END
$$$$
