
 OpenBabel09162610133D

 35 37  0  0  0  0  0  0  0  0999 V2000
   -1.9919   -0.1525   -0.0272 C   0  0  0  0  0  0  0  0  0  0  0  0
   -0.5261   -0.1243   -0.1657 C   0  0  0  0  0  0  0  0  0  0  0  0
    0.3293   -1.0921   -0.4233 N   0  0  0  0  0  0  0  0  0  0  0  0
    1.5895   -0.5218   -0.3824 N   0  0  0  0  0  0  0  0  0  0  0  0
    1.4096    0.7522   -0.1083 C   0  0  0  0  0  0  0  0  0  0  0  0
    2.3816    1.8395    0.1967 C   0  0  0  0  0  0  0  0  0  0  0  0
    3.5327    1.9362   -0.8172 C   0  0  0  0  0  0  0  0  0  0  0  0
    4.7374    1.0321   -0.5185 C   0  0  0  0  0  0  0  0  0  0  0  0
    5.0728    1.1214    0.9005 N   0  0  0  0  0  0  0  0  0  0  0  0
    6.2900    1.5782    1.3720 C   0  0  0  0  0  0  0  0  0  0  0  0
    6.4095    2.2217    2.6188 C   0  0  0  0  0  0  0  0  0  0  0  0
    7.6421    2.6654    3.1153 C   0  0  0  0  0  0  0  0  0  0  0  0
    8.7865    2.4729    2.3642 C   0  0  0  0  0  0  0  0  0  0  0  0
    9.9695    2.8872    2.8355 F   0  0  0  0  0  0  0  0  0  0  0  0
    8.7181    1.8491    1.1286 C   0  0  0  0  0  0  0  0  0  0  0  0
    7.4808    1.4082    0.6441 C   0  0  0  0  0  0  0  0  0  0  0  0
    3.9941    0.7226    1.8002 C   0  0  0  0  0  0  0  0  0  0  0  0
    2.8561    1.7248    1.6528 C   0  0  0  0  0  0  0  0  0  0  0  0
    0.0860    1.0802    0.0321 O   0  0  0  0  0  0  0  0  0  0  0  0
   -2.3664   -1.1797   -0.0249 H   0  0  0  0  0  0  0  0  0  0  0  0
   -2.4654    0.3882   -0.8516 H   0  0  0  0  0  0  0  0  0  0  0  0
   -2.2950    0.3211    0.9126 H   0  0  0  0  0  0  0  0  0  0  0  0
    1.8161    2.7787    0.1141 H   0  0  0  0  0  0  0  0  0  0  0  0
    3.8920    2.9747   -0.8060 H   0  0  0  0  0  0  0  0  0  0  0  0
    3.1768    1.7468   -1.8376 H   0  0  0  0  0  0  0  0  0  0  0  0
    5.5552    1.3516   -1.1742 H   0  0  0  0  0  0  0  0  0  0  0  0
    4.5092   -0.0069   -0.7783 H   0  0  0  0  0  0  0  0  0  0  0  0
    5.5301    2.4146    3.2268 H   0  0  0  0  0  0  0  0  0  0  0  0
    7.7049    3.1583    4.0805 H   0  0  0  0  0  0  0  0  0  0  0  0
    9.6241    1.6931    0.5535 H   0  0  0  0  0  0  0  0  0  0  0  0
    7.4715    0.8881   -0.3104 H   0  0  0  0  0  0  0  0  0  0  0  0
    4.3065    0.6499    2.8469 H   0  0  0  0  0  0  0  0  0  0  0  0
    3.6567   -0.2859    1.5289 H   0  0  0  0  0  0  0  0  0  0  0  0
    3.2022    2.7118    1.9866 H   0  0  0  0  0  0  0  0  0  0  0  0
    2.0288    1.4387    2.3140 H   0  0  0  0  0  0  0  0  0  0  0  0
  1  2  1  0  0  0  0
  1 20  1  0  0  0  0
  1 21  1  0  0  0  0
  1 22  1  0  0  0  0
  2  3  2  0  0  0  0
  2 19  1  0  0  0  0
  3  4  1  0  0  0  0
  4  5  2  0  0  0  0
  5  6  1  0  0  0  0
  5 19  1  0  0  0  0
  6  7  1  0  0  0  0
  6 18  1  0  0  0  0
  6 23  1  0  0  0  0
  7  8  1  0  0  0  0
  7 24  1  0  0  0  0
  7 25  1  0  0  0  0
  8  9  1  0  0  0  0
  8 26  1  0  0  0  0
  8 27  1  0  0  0  0
  9 10  1  0  0  0  0
  9 17  1  0  0  0  0
 10 11  2  0  0  0  0
 10 16  1  0  0  0  0
 11 12  1  0  0  0  0
 11 28  1  0  0  0  0
 12 13  2  0  0  0  0
 12 29  1  0  0  0  0
 13 14  1  0  0  0  0
 13 15  1  0  0  0  0
 15 16  2  0  0  0  0
 15 30  1  0  0  0  0
 16 31  1  0  0  0  0
 17 18  1  0  0  0  0
 17 32  1  0  0  0  0
 17 33  1  0  0  0  0
 18 34  1  0  0  0  0
 18 35  1  0  0  0  0
M  END
$$$$
