
 OpenBabel09162610133D

 38 40  0  0  0  0  0  0  0  0999 V2000
    0.4330    2.3982   -1.2754 C   0  0  0  0  0  0  0  0  0  0  0  0
    0.7638    1.0864   -0.6621 C   0  0  0  0  0  0  0  0  0  0  0  0
    1.9963    0.6661   -0.1662 C   0  0  0  0  0  0  0  0  0  0  0  0
    3.2858    1.3469   -0.0558 C   0  0  0  0  0  0  0  0  0  0  0  0
    3.3557    2.5761   -0.0349 O   0  0  0  0  0  0  0  0  0  0  0  0
    4.4616    0.5623    0.0194 N   0  0  0  0  0  0  0  0  0  0  0  0
    5.7181    1.2281    0.3468 C   0  0  0  0  0  0  0  0  0  0  0  0
    6.5376    1.5578   -0.8981 C   0  0  0  0  0  0  0  0  0  0  0  0
    7.3100    0.3708   -1.4716 C   0  0  0  0  0  0  0  0  0  0  0  0
    6.4534   -0.8311   -1.8595 C   0  0  0  0  0  0  0  0  0  0  0  0
    5.8046   -1.5062   -0.6558 C   0  0  0  0  0  0  0  0  0  0  0  0
    4.4742   -0.8759   -0.2586 C   0  0  0  0  0  0  0  0  0  0  0  0
    1.8750   -0.6085    0.3168 O   0  0  0  0  0  0  0  0  0  0  0  0
    0.6170   -1.0371    0.0697 C   0  0  0  0  0  0  0  0  0  0  0  0
    0.1475   -2.3189    0.3409 C   0  0  0  0  0  0  0  0  0  0  0  0
   -1.1876   -2.5680    0.0147 C   0  0  0  0  0  0  0  0  0  0  0  0
   -1.9929   -1.5657   -0.5313 C   0  0  0  0  0  0  0  0  0  0  0  0
   -1.4820   -0.2840   -0.7933 C   0  0  0  0  0  0  0  0  0  0  0  0
   -0.1301   -0.0222   -0.5015 C   0  0  0  0  0  0  0  0  0  0  0  0
    1.3178    2.8868   -1.6936 H   0  0  0  0  0  0  0  0  0  0  0  0
   -0.0164    3.0651   -0.5333 H   0  0  0  0  0  0  0  0  0  0  0  0
   -0.2816    2.2693   -2.0958 H   0  0  0  0  0  0  0  0  0  0  0  0
    6.2793    0.6104    1.0566 H   0  0  0  0  0  0  0  0  0  0  0  0
    5.4984    2.1645    0.8731 H   0  0  0  0  0  0  0  0  0  0  0  0
    7.2714    2.3294   -0.6339 H   0  0  0  0  0  0  0  0  0  0  0  0
    5.8928    1.9870   -1.6744 H   0  0  0  0  0  0  0  0  0  0  0  0
    8.0736    0.0526   -0.7504 H   0  0  0  0  0  0  0  0  0  0  0  0
    7.8527    0.7109   -2.3619 H   0  0  0  0  0  0  0  0  0  0  0  0
    7.1078   -1.5635   -2.3483 H   0  0  0  0  0  0  0  0  0  0  0  0
    5.6985   -0.5428   -2.6005 H   0  0  0  0  0  0  0  0  0  0  0  0
    6.4939   -1.5306    0.1958 H   0  0  0  0  0  0  0  0  0  0  0  0
    5.6026   -2.5543   -0.9117 H   0  0  0  0  0  0  0  0  0  0  0  0
    4.1206   -1.3802    0.6489 H   0  0  0  0  0  0  0  0  0  0  0  0
    3.7601   -1.0767   -1.0652 H   0  0  0  0  0  0  0  0  0  0  0  0
    0.7908   -3.0773    0.7678 H   0  0  0  0  0  0  0  0  0  0  0  0
   -1.6025   -3.5586    0.1914 H   0  0  0  0  0  0  0  0  0  0  0  0
   -3.0333   -1.7830   -0.7646 H   0  0  0  0  0  0  0  0  0  0  0  0
   -2.1189    0.4819   -1.2239 H   0  0  0  0  0  0  0  0  0  0  0  0
  1  2  1  0  0  0  0
  1 20  1  0  0  0  0
  1 21  1  0  0  0  0
  1 22  1  0  0  0  0
  2  3  2  0  0  0  0
  2 19  1  0  0  0  0
  3  4  1  0  0  0  0
  3 13  1  0  0  0  0
  4  5  2  0  0  0  0
  4  6  1  0  0  0  0
  6  7  1  0  0  0  0
  6 12  1  0  0  0  0
  7  8  1  0  0  0  0
  7 23  1  0  0  0  0
  7 24  1  0  0  0  0
  8  9  1  0  0  0  0
  8 25  1  0  0  0  0
  8 26  1  0  0  0  0
  9 10  1  0  0  0  0
  9 27  1  0  0  0  0
  9 28  1  0  0  0  0
 10 11  1  0  0  0  0
 10 29  1  0  0  0  0
 10 30  1  0  0  0  0
 11 12  1  0  0  0  0
 11 31  1  0  0  0  0
 11 32  1  0  0  0  0
 12 33  1  0  0  0  0
 12 34  1  0  0  0  0
 13 14  1  0  0  0  0
 14 15  1  0  0  0  0
 14 19  2  0  0  0  0
 15 16  2  0  0  0  0
 15 35  1  0  0  0  0
 16 17  1  0  0  0  0
 16 36  1  0  0  0  0
 17 18  2  0  0  0  0
 17 37  1  0  0  0  0
 18 19  1  0  0  0  0
 18 38  1  0  0  0  0
M  END
$$$$
