
 OpenBabel09162610133D

 41 44  0  0  0  0  0  0  0  0999 V2000
    0.8454   -0.5231   -0.0637 C   0  0  0  0  0  0  0  0  0  0  0  0
    2.3388   -0.4083    0.0100 C   0  0  0  0  0  0  0  0  0  0  0  0
    3.1631   -1.4906   -0.3229 C   0  0  0  0  0  0  0  0  0  0  0  0
    4.5561   -1.3736   -0.2785 C   0  0  0  0  0  0  0  0  0  0  0  0
    5.3551   -2.5180   -0.4824 N   0  0  0  0  0  0  0  0  0  0  0  0
    5.1485   -0.1632    0.1531 C   0  0  0  0  0  0  0  0  0  0  0  0
    4.3188    0.9133    0.5244 C   0  0  0  0  0  0  0  0  0  0  0  0
    2.9243    0.7813    0.4556 C   0  0  0  0  0  0  0  0  0  0  0  0
    4.9259    2.2123    1.0008 C   0  0  0  0  0  0  0  0  0  0  0  0
    6.3573    2.3161    0.6488 N   0  0  0  0  0  0  0  0  0  0  0  0
    7.0309    1.0647    0.9828 C   0  0  0  0  0  0  0  0  0  0  0  0
    6.5739   -0.0108    0.1102 N   0  0  0  0  0  0  0  0  0  0  0  0
    7.0258    0.2464   -1.2705 C   0  0  0  0  0  0  0  0  0  0  0  0
    6.7774    1.6721   -1.6976 C   0  0  0  0  0  0  0  0  0  0  0  0
    6.8067    2.0073   -3.0601 C   0  0  0  0  0  0  0  0  0  0  0  0
    6.5293    3.3111   -3.4801 C   0  0  0  0  0  0  0  0  0  0  0  0
    6.4410    3.6344   -4.9421 C   0  0  0  0  0  0  0  0  0  0  0  0
    6.2504    4.2928   -2.5208 C   0  0  0  0  0  0  0  0  0  0  0  0
    6.2915    3.9956   -1.1545 C   0  0  0  0  0  0  0  0  0  0  0  0
    5.9226    4.9839   -0.2127 N   0  0  0  0  0  0  0  0  0  0  0  0
    6.4950    2.6597   -0.7346 C   0  0  0  0  0  0  0  0  0  0  0  0
    0.5400   -1.4146   -0.6208 H   0  0  0  0  0  0  0  0  0  0  0  0
    0.4242    0.3458   -0.5812 H   0  0  0  0  0  0  0  0  0  0  0  0
    0.4224   -0.5808    0.9435 H   0  0  0  0  0  0  0  0  0  0  0  0
    2.7175   -2.4377   -0.6151 H   0  0  0  0  0  0  0  0  0  0  0  0
    5.0367   -3.1044   -1.2437 H   0  0  0  0  0  0  0  0  0  0  0  0
    6.3370   -2.2558   -0.5327 H   0  0  0  0  0  0  0  0  0  0  0  0
    2.2908    1.6206    0.7364 H   0  0  0  0  0  0  0  0  0  0  0  0
    4.8406    2.2455    2.0949 H   0  0  0  0  0  0  0  0  0  0  0  0
    4.3450    3.0605    0.6198 H   0  0  0  0  0  0  0  0  0  0  0  0
    6.8550    0.8012    2.0355 H   0  0  0  0  0  0  0  0  0  0  0  0
    8.1199    1.1892    0.8996 H   0  0  0  0  0  0  0  0  0  0  0  0
    6.5625   -0.4478   -1.9822 H   0  0  0  0  0  0  0  0  0  0  0  0
    8.1074    0.0618   -1.3159 H   0  0  0  0  0  0  0  0  0  0  0  0
    7.0061    1.2329   -3.7980 H   0  0  0  0  0  0  0  0  0  0  0  0
    7.0525    2.9463   -5.5353 H   0  0  0  0  0  0  0  0  0  0  0  0
    6.8050    4.6476   -5.1389 H   0  0  0  0  0  0  0  0  0  0  0  0
    5.4019    3.5568   -5.2782 H   0  0  0  0  0  0  0  0  0  0  0  0
    5.9905    5.2985   -2.8409 H   0  0  0  0  0  0  0  0  0  0  0  0
    6.2301    5.9122   -0.4787 H   0  0  0  0  0  0  0  0  0  0  0  0
    6.2723    4.6996    0.7032 H   0  0  0  0  0  0  0  0  0  0  0  0
  1  2  1  0  0  0  0
  1 22  1  0  0  0  0
  1 23  1  0  0  0  0
  1 24  1  0  0  0  0
  2  3  2  0  0  0  0
  2  8  1  0  0  0  0
  3  4  1  0  0  0  0
  3 25  1  0  0  0  0
  4  5  1  0  0  0  0
  4  6  2  0  0  0  0
  5 26  1  0  0  0  0
  5 27  1  0  0  0  0
  6  7  1  0  0  0  0
  6 12  1  0  0  0  0
  7  8  2  0  0  0  0
  7  9  1  0  0  0  0
  8 28  1  0  0  0  0
  9 10  1  0  0  0  0
  9 29  1  0  0  0  0
  9 30  1  0  0  0  0
 10 11  1  0  0  0  0
 10 21  1  0  0  0  0
 11 12  1  0  0  0  0
 11 31  1  0  0  0  0
 11 32  1  0  0  0  0
 12 13  1  0  0  0  0
 13 14  1  0  0  0  0
 13 33  1  0  0  0  0
 13 34  1  0  0  0  0
 14 15  2  0  0  0  0
 14 21  1  0  0  0  0
 15 16  1  0  0  0  0
 15 35  1  0  0  0  0
 16 17  1  0  0  0  0
 16 18  2  0  0  0  0
 17 36  1  0  0  0  0
 17 37  1  0  0  0  0
 17 38  1  0  0  0  0
 18 19  1  0  0  0  0
 18 39  1  0  0  0  0
 19 20  1  0  0  0  0
 19 21  2  0  0  0  0
 20 40  1  0  0  0  0
 20 41  1  0  0  0  0
M  END
$$$$
