
 OpenBabel09162610133D

 33 36  0  0  0  0  0  0  0  0999 V2000
    1.1174   -0.0482    0.1166 O   0  0  0  0  0  0  0  0  0  0  0  0
    2.3419    0.0094    0.0699 C   0  0  0  0  0  0  0  0  0  0  0  0
    3.1900   -0.9091    0.8035 C   0  0  0  0  0  0  0  0  0  0  0  0
    4.4416   -0.7334    1.3723 C   0  0  0  0  0  0  0  0  0  0  0  0
    4.8317   -1.9485    1.9915 C   0  0  0  0  0  0  0  0  0  0  0  0
    5.9757   -2.3572    2.7015 C   0  0  0  0  0  0  0  0  0  0  0  0
    6.0441   -3.6667    3.1875 C   0  0  0  0  0  0  0  0  0  0  0  0
    4.9967   -4.5594    2.9728 C   0  0  0  0  0  0  0  0  0  0  0  0
    3.8474   -4.1718    2.2748 C   0  0  0  0  0  0  0  0  0  0  0  0
    3.7924   -2.8560    1.8007 C   0  0  0  0  0  0  0  0  0  0  0  0
    2.7997   -2.1937    1.1154 N   0  0  0  0  0  0  0  0  0  0  0  0
    3.0410    0.9994   -0.7289 C   0  0  0  0  0  0  0  0  0  0  0  0
    4.2666    0.9473   -1.3740 C   0  0  0  0  0  0  0  0  0  0  0  0
    4.4682    2.1716   -2.0630 C   0  0  0  0  0  0  0  0  0  0  0  0
    5.5011    2.6705   -2.8799 C   0  0  0  0  0  0  0  0  0  0  0  0
    5.3642    3.9502   -3.4185 C   0  0  0  0  0  0  0  0  0  0  0  0
    6.3255    4.4729   -4.2357 O   0  0  0  0  0  0  0  0  0  0  0  0
    4.2490    4.7354   -3.1523 C   0  0  0  0  0  0  0  0  0  0  0  0
    3.2133    4.2562   -2.3434 C   0  0  0  0  0  0  0  0  0  0  0  0
    3.3480    2.9642   -1.8211 C   0  0  0  0  0  0  0  0  0  0  0  0
    2.4913    2.2242   -1.0382 N   0  0  0  0  0  0  0  0  0  0  0  0
    5.0208    0.1813    1.3539 H   0  0  0  0  0  0  0  0  0  0  0  0
    6.7953   -1.6655    2.8713 H   0  0  0  0  0  0  0  0  0  0  0  0
    6.9252   -3.9868    3.7394 H   0  0  0  0  0  0  0  0  0  0  0  0
    5.0714   -5.5739    3.3580 H   0  0  0  0  0  0  0  0  0  0  0  0
    3.0326   -4.8701    2.1145 H   0  0  0  0  0  0  0  0  0  0  0  0
    1.9086   -2.5946    0.8532 H   0  0  0  0  0  0  0  0  0  0  0  0
    4.9462    0.1039   -1.3720 H   0  0  0  0  0  0  0  0  0  0  0  0
    6.3730    2.0585   -3.0807 H   0  0  0  0  0  0  0  0  0  0  0  0
    7.0051    3.7946   -4.3833 H   0  0  0  0  0  0  0  0  0  0  0  0
    4.1785    5.7296   -3.5861 H   0  0  0  0  0  0  0  0  0  0  0  0
    2.3386    4.8658   -2.1426 H   0  0  0  0  0  0  0  0  0  0  0  0
    1.5805    2.5321   -0.7236 H   0  0  0  0  0  0  0  0  0  0  0  0
  1  2  2  0  0  0  0
  2  3  1  0  0  0  0
  2 12  1  0  0  0  0
  3  4  2  0  0  0  0
  3 11  1  0  0  0  0
  4  5  1  0  0  0  0
  4 22  1  0  0  0  0
  5  6  2  0  0  0  0
  5 10  1  0  0  0  0
  6  7  1  0  0  0  0
  6 23  1  0  0  0  0
  7  8  2  0  0  0  0
  7 24  1  0  0  0  0
  8  9  1  0  0  0  0
  8 25  1  0  0  0  0
  9 10  2  0  0  0  0
  9 26  1  0  0  0  0
 10 11  1  0  0  0  0
 11 27  1  0  0  0  0
 12 13  2  0  0  0  0
 12 21  1  0  0  0  0
 13 14  1  0  0  0  0
 13 28  1  0  0  0  0
 14 15  2  0  0  0  0
 14 20  1  0  0  0  0
 15 16  1  0  0  0  0
 15 29  1  0  0  0  0
 16 17  1  0  0  0  0
 16 18  2  0  0  0  0
 17 30  1  0  0  0  0
 18 19  1  0  0  0  0
 18 31  1  0  0  0  0
 19 20  2  0  0  0  0
 19 32  1  0  0  0  0
 20 21  1  0  0  0  0
 21 33  1  0  0  0  0
M  END
$$$$
