
 OpenBabel09162610133D

 23 25  0  0  0  0  0  0  0  0999 V2000
    2.0761    0.0791   -0.2302 Cl  0  0  0  0  0  0  0  0  0  0  0  0
    0.3667    0.0240   -0.1052 C   0  0  0  0  0  0  0  0  0  0  0  0
   -0.2431   -0.5747    0.9895 C   0  0  0  0  0  0  0  0  0  0  0  0
   -1.6364   -0.5997    1.0606 C   0  0  0  0  0  0  0  0  0  0  0  0
   -2.3836   -0.0225    0.0310 C   0  0  0  0  0  0  0  0  0  0  0  0
   -3.8479   -0.0353    0.0949 C   0  0  0  0  0  0  0  0  0  0  0  0
   -4.6634    0.4772   -0.8400 N   0  0  0  0  0  0  0  0  0  0  0  0
   -5.9404    0.2328   -0.3377 O   0  0  0  0  0  0  0  0  0  0  0  0
   -5.7863   -0.4086    0.8629 C   0  0  0  0  0  0  0  0  0  0  0  0
   -6.8849   -0.8212    1.6829 C   0  0  0  0  0  0  0  0  0  0  0  0
   -8.1962   -0.6100    1.3138 O   0  0  0  0  0  0  0  0  0  0  0  0
   -8.9932   -1.1091    2.2928 C   0  0  0  0  0  0  0  0  0  0  0  0
   -8.2359   -1.6469    3.3040 C   0  0  0  0  0  0  0  0  0  0  0  0
   -6.8948   -1.4602    2.9100 C   0  0  0  0  0  0  0  0  0  0  0  0
   -5.4490   -2.0288    3.9667 Br  0  0  0  0  0  0  0  0  0  0  0  0
   -4.5189   -0.5943    1.1649 N   0  0  0  0  0  0  0  0  0  0  0  0
   -1.7972    0.5645   -1.0461 N   0  0  0  0  0  0  0  0  0  0  0  0
   -0.4416    0.5736   -1.0876 C   0  0  0  0  0  0  0  0  0  0  0  0
    0.3493   -1.0188    1.7841 H   0  0  0  0  0  0  0  0  0  0  0  0
   -2.1269   -1.0639    1.9120 H   0  0  0  0  0  0  0  0  0  0  0  0
  -10.0572   -1.0073    2.1267 H   0  0  0  0  0  0  0  0  0  0  0  0
   -8.6091   -2.1115    4.2058 H   0  0  0  0  0  0  0  0  0  0  0  0
   -0.0151    1.0534   -1.9645 H   0  0  0  0  0  0  0  0  0  0  0  0
  1  2  1  0  0  0  0
  2  3  2  0  0  0  0
  2 18  1  0  0  0  0
  3  4  1  0  0  0  0
  3 19  1  0  0  0  0
  4  5  2  0  0  0  0
  4 20  1  0  0  0  0
  5  6  1  0  0  0  0
  5 17  1  0  0  0  0
  6  7  2  0  0  0  0
  6 16  1  0  0  0  0
  7  8  1  0  0  0  0
  8  9  1  0  0  0  0
  9 10  1  0  0  0  0
  9 16  2  0  0  0  0
 10 11  1  0  0  0  0
 10 14  2  0  0  0  0
 11 12  1  0  0  0  0
 12 13  2  0  0  0  0
 12 21  1  0  0  0  0
 13 14  1  0  0  0  0
 13 22  1  0  0  0  0
 14 15  1  0  0  0  0
 17 18  2  0  0  0  0
 18 23  1  0  0  0  0
M  END
$$$$
