
 OpenBabel09162610133D

 30 32  0  0  0  0  0  0  0  0999 V2000
    3.5480    0.3382   -1.1059 C   0  0  0  0  0  0  0  0  0  0  0  0
    2.5325    0.1500    0.0223 C   0  0  0  0  0  0  0  0  0  0  0  0
    1.1772   -0.2626   -0.5733 C   0  0  0  0  0  0  0  0  0  0  0  0
    3.0192   -0.8919    0.9932 C   0  0  0  0  0  0  0  0  0  0  0  0
    2.8213   -2.1841    0.7739 N   0  0  0  0  0  0  0  0  0  0  0  0
    3.2500   -2.8381    1.8857 C   0  0  0  0  0  0  0  0  0  0  0  0
    3.7495   -1.9482    2.7992 C   0  0  0  0  0  0  0  0  0  0  0  0
    4.2769   -2.1841    4.1053 C   0  0  0  0  0  0  0  0  0  0  0  0
    4.3463   -3.2825    4.6446 O   0  0  0  0  0  0  0  0  0  0  0  0
    4.7191   -1.0586    4.7528 N   0  0  0  0  0  0  0  0  0  0  0  0
    4.7096    0.2233    4.1860 C   0  0  0  0  0  0  0  0  0  0  0  0
    5.2324    1.2765    4.9391 C   0  0  0  0  0  0  0  0  0  0  0  0
    5.2705    2.5529    4.3898 C   0  0  0  0  0  0  0  0  0  0  0  0
    5.9152    3.8579    5.3063 Cl  0  0  0  0  0  0  0  0  0  0  0  0
    4.8036    2.7765    3.0958 C   0  0  0  0  0  0  0  0  0  0  0  0
    4.2758    1.7209    2.3378 C   0  0  0  0  0  0  0  0  0  0  0  0
    4.2025    0.4395    2.8851 C   0  0  0  0  0  0  0  0  0  0  0  0
    3.6725   -0.6985    2.2120 N   0  0  0  0  0  0  0  0  0  0  0  0
    3.1732    1.0407   -1.8580 H   0  0  0  0  0  0  0  0  0  0  0  0
    3.7620   -0.6107   -1.6128 H   0  0  0  0  0  0  0  0  0  0  0  0
    4.4983    0.7269   -0.7260 H   0  0  0  0  0  0  0  0  0  0  0  0
    2.3484    1.1000    0.5269 H   0  0  0  0  0  0  0  0  0  0  0  0
    1.2476   -1.1988   -1.1394 H   0  0  0  0  0  0  0  0  0  0  0  0
    0.8010    0.5096   -1.2530 H   0  0  0  0  0  0  0  0  0  0  0  0
    0.4316   -0.4061    0.2170 H   0  0  0  0  0  0  0  0  0  0  0  0
    3.1699   -3.9137    1.9829 H   0  0  0  0  0  0  0  0  0  0  0  0
    5.0958   -1.2162    5.6790 H   0  0  0  0  0  0  0  0  0  0  0  0
    5.6147    1.1082    5.9424 H   0  0  0  0  0  0  0  0  0  0  0  0
    4.8551    3.7741    2.6647 H   0  0  0  0  0  0  0  0  0  0  0  0
    3.9700    1.9546    1.3279 H   0  0  0  0  0  0  0  0  0  0  0  0
  1  2  1  0  0  0  0
  1 19  1  0  0  0  0
  1 20  1  0  0  0  0
  1 21  1  0  0  0  0
  2  3  1  0  0  0  0
  2  4  1  0  0  0  0
  2 22  1  0  0  0  0
  3 23  1  0  0  0  0
  3 24  1  0  0  0  0
  3 25  1  0  0  0  0
  4  5  2  0  0  0  0
  4 18  1  0  0  0  0
  5  6  1  0  0  0  0
  6  7  2  0  0  0  0
  6 26  1  0  0  0  0
  7  8  1  0  0  0  0
  7 18  1  0  0  0  0
  8  9  2  0  0  0  0
  8 10  1  0  0  0  0
 10 11  1  0  0  0  0
 10 27  1  0  0  0  0
 11 12  1  0  0  0  0
 11 17  2  0  0  0  0
 12 13  2  0  0  0  0
 12 28  1  0  0  0  0
 13 14  1  0  0  0  0
 13 15  1  0  0  0  0
 15 16  2  0  0  0  0
 15 29  1  0  0  0  0
 16 17  1  0  0  0  0
 16 30  1  0  0  0  0
 17 18  1  0  0  0  0
M  END
$$$$
