
 OpenBabel09162610133D

 29 30  0  0  0  0  0  0  0  0999 V2000
    2.4612   -0.1167    0.0196 C   0  0  0  0  0  0  0  0  0  0  0  0
    0.9628   -0.0618    0.0266 C   0  0  0  0  0  0  0  0  0  0  0  0
    0.2850    1.0268   -0.5236 C   0  0  0  0  0  0  0  0  0  0  0  0
   -1.1126    1.0613   -0.5284 C   0  0  0  0  0  0  0  0  0  0  0  0
   -1.8785    0.0073    0.0036 C   0  0  0  0  0  0  0  0  0  0  0  0
   -3.3542    0.0184   -0.0513 C   0  0  0  0  0  0  0  0  0  0  0  0
   -4.0548    0.6200   -1.0933 C   0  0  0  0  0  0  0  0  0  0  0  0
   -5.4573    0.6085   -1.0968 C   0  0  0  0  0  0  0  0  0  0  0  0
   -6.2088    1.2630   -2.2234 C   0  0  0  0  0  0  0  0  0  0  0  0
   -5.3927    1.8249   -3.1573 F   0  0  0  0  0  0  0  0  0  0  0  0
   -6.9967    0.3859   -2.8978 F   0  0  0  0  0  0  0  0  0  0  0  0
   -7.0203    2.2628   -1.7911 F   0  0  0  0  0  0  0  0  0  0  0  0
   -6.1252   -0.0226   -0.0403 C   0  0  0  0  0  0  0  0  0  0  0  0
   -7.5510   -0.0673    0.0203 C   0  0  0  0  0  0  0  0  0  0  0  0
   -8.7056   -0.1272    0.1131 N   0  0  0  0  0  0  0  0  0  0  0  0
   -5.3551   -0.6124    0.9547 C   0  0  0  0  0  0  0  0  0  0  0  0
   -5.8836   -1.2639    2.0321 O   0  0  0  0  0  0  0  0  0  0  0  0
   -4.0065   -0.6039    0.9588 N   0  0  0  0  0  0  0  0  0  0  0  0
   -1.1794   -1.0681    0.5775 C   0  0  0  0  0  0  0  0  0  0  0  0
    0.2206   -1.1064    0.5851 C   0  0  0  0  0  0  0  0  0  0  0  0
    2.8924    0.7855   -0.4277 H   0  0  0  0  0  0  0  0  0  0  0  0
    2.8034   -0.9763   -0.5652 H   0  0  0  0  0  0  0  0  0  0  0  0
    2.8422   -0.1981    1.0421 H   0  0  0  0  0  0  0  0  0  0  0  0
    0.8361    1.8601   -0.9540 H   0  0  0  0  0  0  0  0  0  0  0  0
   -1.5941    1.9401   -0.9507 H   0  0  0  0  0  0  0  0  0  0  0  0
   -3.5166    1.0857   -1.9162 H   0  0  0  0  0  0  0  0  0  0  0  0
   -6.8529   -1.2361    2.0285 H   0  0  0  0  0  0  0  0  0  0  0  0
   -1.7293   -1.8989    1.0185 H   0  0  0  0  0  0  0  0  0  0  0  0
    0.7252   -1.9620    1.0287 H   0  0  0  0  0  0  0  0  0  0  0  0
  1  2  1  0  0  0  0
  1 21  1  0  0  0  0
  1 22  1  0  0  0  0
  1 23  1  0  0  0  0
  2  3  2  0  0  0  0
  2 20  1  0  0  0  0
  3  4  1  0  0  0  0
  3 24  1  0  0  0  0
  4  5  2  0  0  0  0
  4 25  1  0  0  0  0
  5  6  1  0  0  0  0
  5 19  1  0  0  0  0
  6  7  2  0  0  0  0
  6 18  1  0  0  0  0
  7  8  1  0  0  0  0
  7 26  1  0  0  0  0
  8  9  1  0  0  0  0
  8 13  2  0  0  0  0
  9 10  1  0  0  0  0
  9 11  1  0  0  0  0
  9 12  1  0  0  0  0
 13 14  1  0  0  0  0
 13 16  1  0  0  0  0
 14 15  3  0  0  0  0
 16 17  1  0  0  0  0
 16 18  2  0  0  0  0
 17 27  1  0  0  0  0
 19 20  2  0  0  0  0
 19 28  1  0  0  0  0
 20 29  1  0  0  0  0
M  END
$$$$
