
 OpenBabel09162610133D

 21 23  0  0  0  0  0  0  0  0999 V2000
   -2.0194   -0.0600   -0.0963 Cl  0  0  0  0  0  0  0  0  0  0  0  0
   -0.3002   -0.0342   -0.0637 C   0  0  0  0  0  0  0  0  0  0  0  0
    0.3746    1.1839   -0.0520 C   0  0  0  0  0  0  0  0  0  0  0  0
    1.7718    1.2012   -0.0198 C   0  0  0  0  0  0  0  0  0  0  0  0
    2.5038    0.0052    0.0118 C   0  0  0  0  0  0  0  0  0  0  0  0
    3.9554    0.0604    0.0706 C   0  0  0  0  0  0  0  0  0  0  0  0
    4.7901   -0.9292    0.5756 C   0  0  0  0  0  0  0  0  0  0  0  0
    6.0393   -0.4074    0.4570 N   0  0  0  0  0  0  0  0  0  0  0  0
    7.2566   -0.8832    0.7964 N   0  0  0  0  0  0  0  0  0  0  0  0
    8.0888    0.0624    0.4649 C   0  0  0  0  0  0  0  0  0  0  0  0
    9.7594   -0.1081    0.7269 Cl  0  0  0  0  0  0  0  0  0  0  0  0
    7.4526    1.5472   -0.2663 S   0  0  0  0  0  0  0  0  0  0  0  0
    5.9139    0.8221   -0.0990 C   0  0  0  0  0  0  0  0  0  0  0  0
    4.6836    1.1686   -0.3468 N   0  0  0  0  0  0  0  0  0  0  0  0
    1.8095   -1.2135   -0.0110 C   0  0  0  0  0  0  0  0  0  0  0  0
    0.4111   -1.2320   -0.0493 C   0  0  0  0  0  0  0  0  0  0  0  0
   -0.1749    2.1211   -0.0661 H   0  0  0  0  0  0  0  0  0  0  0  0
    2.2904    2.1591   -0.0113 H   0  0  0  0  0  0  0  0  0  0  0  0
    4.6127   -1.9010    1.0107 H   0  0  0  0  0  0  0  0  0  0  0  0
    2.3421   -2.1606   -0.0106 H   0  0  0  0  0  0  0  0  0  0  0  0
   -0.1148   -2.1833   -0.0680 H   0  0  0  0  0  0  0  0  0  0  0  0
  1  2  1  0  0  0  0
  2  3  2  0  0  0  0
  2 16  1  0  0  0  0
  3  4  1  0  0  0  0
  3 17  1  0  0  0  0
  4  5  2  0  0  0  0
  4 18  1  0  0  0  0
  5  6  1  0  0  0  0
  5 15  1  0  0  0  0
  6  7  2  0  0  0  0
  6 14  1  0  0  0  0
  7  8  1  0  0  0  0
  7 19  1  0  0  0  0
  8  9  1  0  0  0  0
  8 13  1  0  0  0  0
  9 10  2  0  0  0  0
 10 11  1  0  0  0  0
 10 12  1  0  0  0  0
 12 13  1  0  0  0  0
 13 14  2  0  0  0  0
 15 16  2  0  0  0  0
 15 20  1  0  0  0  0
 16 21  1  0  0  0  0
M  END
$$$$
