
 OpenBabel09162610133D

 34 37  0  0  1  0  0  0  0  0999 V2000
   -1.9888    1.3071    0.2880 O   0  0  0  0  0  0  0  0  0  0  0  0
   -0.9284    0.7153    0.1132 C   0  0  0  0  0  0  0  0  0  0  0  0
   -0.7456   -0.7988    0.0720 C   0  0  0  0  0  0  0  0  0  0  0  0
   -1.7418   -1.6888   -0.0425 C   0  0  0  0  0  0  0  0  0  0  0  0
   -3.1628   -1.3310   -0.1566 C   0  0  0  0  0  0  0  0  0  0  0  0
   -3.9085   -1.2043    1.0244 C   0  0  0  0  0  0  0  0  0  0  0  0
   -5.1959   -0.7215    0.9289 C   0  0  0  0  0  0  0  0  0  0  0  0
   -5.7568   -0.3819   -0.2806 C   0  0  0  0  0  0  0  0  0  0  0  0
   -5.0759   -0.5342   -1.4671 C   0  0  0  0  0  0  0  0  0  0  0  0
   -3.7666   -1.0224   -1.4039 C   0  0  0  0  0  0  0  0  0  0  0  0
   -2.9172   -1.2345   -2.8981 Cl  0  0  0  0  0  0  0  0  0  0  0  0
   -7.0177    0.1111   -0.1464 O   0  0  0  0  0  0  0  0  0  0  0  0
   -7.1540    0.1155    1.2897 C   0  0  0  0  0  0  0  0  0  0  0  0
   -6.0404   -0.4975    1.9714 O   0  0  0  0  0  0  0  0  0  0  0  0
    0.6357   -1.1260    0.0984 N   0  0  0  0  0  0  0  0  0  0  0  0
    1.3427   -0.6486   -1.1295 C   0  0  0  0  0  0  0  0  0  0  0  0
    1.1301    0.8768   -1.2515 C   0  0  0  0  0  0  0  0  0  0  0  0
    0.4205    1.4197    0.0066 C   0  0  2  0  0  0  0  0  0  0  0  0
    1.2011    0.9899    1.2600 C   0  0  0  0  0  0  0  0  0  0  0  0
    1.3454   -0.5489    1.2847 C   0  0  0  0  0  0  0  0  0  0  0  0
   -1.5160   -2.7502   -0.0823 H   0  0  0  0  0  0  0  0  0  0  0  0
   -3.4782   -1.4298    1.9942 H   0  0  0  0  0  0  0  0  0  0  0  0
   -5.5387   -0.2621   -2.4088 H   0  0  0  0  0  0  0  0  0  0  0  0
   -8.0706   -0.4225    1.5549 H   0  0  0  0  0  0  0  0  0  0  0  0
   -7.2437    1.1537    1.6316 H   0  0  0  0  0  0  0  0  0  0  0  0
    0.9519   -1.1655   -2.0143 H   0  0  0  0  0  0  0  0  0  0  0  0
    2.4114   -0.8877   -1.0684 H   0  0  0  0  0  0  0  0  0  0  0  0
    0.5289    1.0882   -2.1448 H   0  0  0  0  0  0  0  0  0  0  0  0
    2.0967    1.3744   -1.3933 H   0  0  0  0  0  0  0  0  0  0  0  0
    0.2817    2.5031   -0.0486 H   0  0  0  0  0  0  0  0  0  0  0  0
    0.6740    1.3181    2.1647 H   0  0  0  0  0  0  0  0  0  0  0  0
    2.1903    1.4610    1.2794 H   0  0  0  0  0  0  0  0  0  0  0  0
    0.9164   -0.9596    2.2069 H   0  0  0  0  0  0  0  0  0  0  0  0
    2.4031   -0.8378    1.2708 H   0  0  0  0  0  0  0  0  0  0  0  0
  1  2  2  0  0  0  0
  2  3  1  0  0  0  0
  2 18  1  0  0  0  0
  3  4  2  0  0  0  0
  3 15  1  0  0  0  0
  4  5  1  0  0  0  0
  4 21  1  0  0  0  0
  5  6  2  0  0  0  0
  5 10  1  0  0  0  0
  6  7  1  0  0  0  0
  6 22  1  0  0  0  0
  7  8  2  0  0  0  0
  7 14  1  0  0  0  0
  8  9  1  0  0  0  0
  8 12  1  0  0  0  0
  9 10  2  0  0  0  0
  9 23  1  0  0  0  0
 10 11  1  0  0  0  0
 12 13  1  0  0  0  0
 13 14  1  0  0  0  0
 13 24  1  0  0  0  0
 13 25  1  0  0  0  0
 15 16  1  0  0  0  0
 15 20  1  0  0  0  0
 16 17  1  0  0  0  0
 16 26  1  0  0  0  0
 16 27  1  0  0  0  0
 17 18  1  0  0  0  0
 17 28  1  0  0  0  0
 17 29  1  0  0  0  0
 18 19  1  0  0  0  0
 18 30  1  6  0  0  0
 19 20  1  0  0  0  0
 19 31  1  0  0  0  0
 19 32  1  0  0  0  0
 20 33  1  0  0  0  0
 20 34  1  0  0  0  0
M  END
$$$$
