
 OpenBabel09162610133D

 39 41  0  0  0  0  0  0  0  0999 V2000
    0.9202   -0.4770    0.0992 C   0  0  0  0  0  0  0  0  0  0  0  0
    2.4044   -0.3715    0.0905 C   0  0  0  0  0  0  0  0  0  0  0  0
    2.9642    0.8792    0.1164 N   0  0  0  0  0  0  0  0  0  0  0  0
    4.4063    1.1397    0.1111 N   0  0  0  0  0  0  0  0  0  0  0  0
    5.3688    0.1659    0.0697 C   0  0  0  0  0  0  0  0  0  0  0  0
    6.7951    0.5878    0.0886 C   0  0  0  0  0  0  0  0  0  0  0  0
    4.8019   -1.1234    0.0293 C   0  0  0  0  0  0  0  0  0  0  0  0
    5.4553   -2.3376   -0.0585 C   0  0  0  0  0  0  0  0  0  0  0  0
    6.9037   -2.6711   -0.1956 C   0  0  0  0  0  0  0  0  0  0  0  0
    4.4706   -3.3247    0.0143 N   0  0  0  0  0  0  0  0  0  0  0  0
    4.7477   -4.7657    0.1183 C   0  0  0  0  0  0  0  0  0  0  0  0
    4.6136   -5.5414   -1.1736 C   0  0  0  0  0  0  0  0  0  0  0  0
    4.4324   -4.9418   -2.4293 C   0  0  0  0  0  0  0  0  0  0  0  0
    4.2602   -5.7224   -3.5756 C   0  0  0  0  0  0  0  0  0  0  0  0
    4.2858   -7.1117   -3.4888 C   0  0  0  0  0  0  0  0  0  0  0  0
    4.5059   -7.7238   -2.2584 C   0  0  0  0  0  0  0  0  0  0  0  0
    4.6735   -6.9451   -1.1113 C   0  0  0  0  0  0  0  0  0  0  0  0
    3.1974   -2.7492    0.0422 C   0  0  0  0  0  0  0  0  0  0  0  0
    1.9365   -3.5464    0.0568 C   0  0  0  0  0  0  0  0  0  0  0  0
    3.3881   -1.3804    0.0517 C   0  0  0  0  0  0  0  0  0  0  0  0
    0.4635    0.5182    0.1063 H   0  0  0  0  0  0  0  0  0  0  0  0
    0.5789   -1.0093    0.9910 H   0  0  0  0  0  0  0  0  0  0  0  0
    0.5681   -0.9983   -0.7950 H   0  0  0  0  0  0  0  0  0  0  0  0
    6.8784    1.6588    0.3003 H   0  0  0  0  0  0  0  0  0  0  0  0
    7.2598    0.3999   -0.8827 H   0  0  0  0  0  0  0  0  0  0  0  0
    7.3439    0.0513    0.8682 H   0  0  0  0  0  0  0  0  0  0  0  0
    7.4505   -1.8795   -0.7161 H   0  0  0  0  0  0  0  0  0  0  0  0
    7.0566   -3.5756   -0.7914 H   0  0  0  0  0  0  0  0  0  0  0  0
    7.3546   -2.8164    0.7899 H   0  0  0  0  0  0  0  0  0  0  0  0
    4.0568   -5.1627    0.8725 H   0  0  0  0  0  0  0  0  0  0  0  0
    5.7562   -4.8900    0.5272 H   0  0  0  0  0  0  0  0  0  0  0  0
    4.4065   -3.8594   -2.5380 H   0  0  0  0  0  0  0  0  0  0  0  0
    4.0982   -5.2411   -4.5371 H   0  0  0  0  0  0  0  0  0  0  0  0
    4.1363   -7.7155   -4.3800 H   0  0  0  0  0  0  0  0  0  0  0  0
    4.5397   -8.8085   -2.1907 H   0  0  0  0  0  0  0  0  0  0  0  0
    4.8414   -7.4464   -0.1595 H   0  0  0  0  0  0  0  0  0  0  0  0
    2.0979   -4.6255    0.0220 H   0  0  0  0  0  0  0  0  0  0  0  0
    1.3190   -3.2906   -0.8097 H   0  0  0  0  0  0  0  0  0  0  0  0
    1.3673   -3.3330    0.9668 H   0  0  0  0  0  0  0  0  0  0  0  0
  1  2  1  0  0  0  0
  1 21  1  0  0  0  0
  1 22  1  0  0  0  0
  1 23  1  0  0  0  0
  2  3  2  0  0  0  0
  2 20  1  0  0  0  0
  3  4  1  0  0  0  0
  4  5  2  0  0  0  0
  5  6  1  0  0  0  0
  5  7  1  0  0  0  0
  6 24  1  0  0  0  0
  6 25  1  0  0  0  0
  6 26  1  0  0  0  0
  7  8  2  0  0  0  0
  7 20  1  0  0  0  0
  8  9  1  0  0  0  0
  8 10  1  0  0  0  0
  9 27  1  0  0  0  0
  9 28  1  0  0  0  0
  9 29  1  0  0  0  0
 10 11  1  0  0  0  0
 10 18  1  0  0  0  0
 11 12  1  0  0  0  0
 11 30  1  0  0  0  0
 11 31  1  0  0  0  0
 12 13  2  0  0  0  0
 12 17  1  0  0  0  0
 13 14  1  0  0  0  0
 13 32  1  0  0  0  0
 14 15  2  0  0  0  0
 14 33  1  0  0  0  0
 15 16  1  0  0  0  0
 15 34  1  0  0  0  0
 16 17  2  0  0  0  0
 16 35  1  0  0  0  0
 17 36  1  0  0  0  0
 18 19  1  0  0  0  0
 18 20  2  0  0  0  0
 19 37  1  0  0  0  0
 19 38  1  0  0  0  0
 19 39  1  0  0  0  0
M  END
$$$$
