
 OpenBabel09162610133D

 42 46  0  0  0  0  0  0  0  0999 V2000
   -1.3800    2.3409   -0.6458 C   0  0  0  0  0  0  0  0  0  0  0  0
   -0.9556    1.0261   -0.0584 C   0  0  0  0  0  0  0  0  0  0  0  0
    0.1256    0.9359    0.8193 C   0  0  0  0  0  0  0  0  0  0  0  0
    0.4871   -0.2969    1.3623 C   0  0  0  0  0  0  0  0  0  0  0  0
   -0.2289   -1.4547    1.0350 C   0  0  0  0  0  0  0  0  0  0  0  0
   -1.3125   -1.3876    0.1468 C   0  0  0  0  0  0  0  0  0  0  0  0
   -2.0221   -2.5828   -0.1958 N   0  0  0  0  0  0  0  0  0  0  0  0
   -1.7458   -3.7669    0.4275 N   0  0  0  0  0  0  0  0  0  0  0  0
   -2.5405   -4.6627   -0.1667 C   0  0  0  0  0  0  0  0  0  0  0  0
   -3.3612   -4.0996   -1.1667 C   0  0  0  0  0  0  0  0  0  0  0  0
   -4.2910   -4.5322   -2.1309 C   0  0  0  0  0  0  0  0  0  0  0  0
   -4.6357   -5.8488   -2.4215 N   0  0  0  0  0  0  0  0  0  0  0  0
   -5.2380   -6.0820   -3.7491 C   0  0  0  0  0  0  0  0  0  0  0  0
   -5.0555   -7.5748   -4.0195 C   0  0  0  0  0  0  0  0  0  0  0  0
   -5.2716   -8.0702   -2.6264 C   0  0  0  0  0  0  0  0  0  0  0  0
   -5.7493   -9.3040   -2.2356 C   0  0  0  0  0  0  0  0  0  0  0  0
   -5.8927   -9.5282   -0.8691 C   0  0  0  0  0  0  0  0  0  0  0  0
   -5.5166   -8.5371    0.0550 C   0  0  0  0  0  0  0  0  0  0  0  0
   -5.0324   -7.2860   -0.3655 C   0  0  0  0  0  0  0  0  0  0  0  0
   -4.9345   -7.0407   -1.7203 C   0  0  0  0  0  0  0  0  0  0  0  0
   -4.7771   -3.5712   -2.9780 N   0  0  0  0  0  0  0  0  0  0  0  0
   -4.3673   -2.3042   -2.8764 C   0  0  0  0  0  0  0  0  0  0  0  0
   -3.4922   -1.8168   -2.0062 N   0  0  0  0  0  0  0  0  0  0  0  0
   -3.0092   -2.7547   -1.1685 C   0  0  0  0  0  0  0  0  0  0  0  0
   -1.6650   -0.1391   -0.3901 C   0  0  0  0  0  0  0  0  0  0  0  0
   -0.7361    3.1600   -0.3114 H   0  0  0  0  0  0  0  0  0  0  0  0
   -2.4064    2.5740   -0.3423 H   0  0  0  0  0  0  0  0  0  0  0  0
   -1.3325    2.3003   -1.7394 H   0  0  0  0  0  0  0  0  0  0  0  0
    0.6929    1.8241    1.0875 H   0  0  0  0  0  0  0  0  0  0  0  0
    1.3320   -0.3603    2.0437 H   0  0  0  0  0  0  0  0  0  0  0  0
    0.0825   -2.4015    1.4704 H   0  0  0  0  0  0  0  0  0  0  0  0
   -2.4773   -5.6929    0.1399 H   0  0  0  0  0  0  0  0  0  0  0  0
   -4.7794   -5.4942   -4.5550 H   0  0  0  0  0  0  0  0  0  0  0  0
   -6.3102   -5.8333   -3.7102 H   0  0  0  0  0  0  0  0  0  0  0  0
   -5.7669   -7.9591   -4.7510 H   0  0  0  0  0  0  0  0  0  0  0  0
   -4.0259   -7.7885   -4.3320 H   0  0  0  0  0  0  0  0  0  0  0  0
   -6.0413  -10.0544   -2.9618 H   0  0  0  0  0  0  0  0  0  0  0  0
   -6.3104  -10.4715   -0.5207 H   0  0  0  0  0  0  0  0  0  0  0  0
   -5.6348   -8.7413    1.1160 H   0  0  0  0  0  0  0  0  0  0  0  0
   -4.7977   -6.5312    0.3729 H   0  0  0  0  0  0  0  0  0  0  0  0
   -4.7801   -1.6047   -3.5961 H   0  0  0  0  0  0  0  0  0  0  0  0
   -2.5057   -0.0235   -1.0667 H   0  0  0  0  0  0  0  0  0  0  0  0
  1  2  1  0  0  0  0
  1 26  1  0  0  0  0
  1 27  1  0  0  0  0
  1 28  1  0  0  0  0
  2  3  2  0  0  0  0
  2 25  1  0  0  0  0
  3  4  1  0  0  0  0
  3 29  1  0  0  0  0
  4  5  2  0  0  0  0
  4 30  1  0  0  0  0
  5  6  1  0  0  0  0
  5 31  1  0  0  0  0
  6  7  1  0  0  0  0
  6 25  2  0  0  0  0
  7  8  1  0  0  0  0
  7 24  1  0  0  0  0
  8  9  2  0  0  0  0
  9 10  1  0  0  0  0
  9 32  1  0  0  0  0
 10 11  2  0  0  0  0
 10 24  1  0  0  0  0
 11 12  1  0  0  0  0
 11 21  1  0  0  0  0
 12 13  1  0  0  0  0
 12 20  1  0  0  0  0
 13 14  1  0  0  0  0
 13 33  1  0  0  0  0
 13 34  1  0  0  0  0
 14 15  1  0  0  0  0
 14 35  1  0  0  0  0
 14 36  1  0  0  0  0
 15 16  1  0  0  0  0
 15 20  2  0  0  0  0
 16 17  2  0  0  0  0
 16 37  1  0  0  0  0
 17 18  1  0  0  0  0
 17 38  1  0  0  0  0
 18 19  2  0  0  0  0
 18 39  1  0  0  0  0
 19 20  1  0  0  0  0
 19 40  1  0  0  0  0
 21 22  2  0  0  0  0
 22 23  1  0  0  0  0
 22 41  1  0  0  0  0
 23 24  2  0  0  0  0
 25 42  1  0  0  0  0
M  END
$$$$
