
 OpenBabel09162610133D

 31 34  0  0  0  0  0  0  0  0999 V2000
    0.9643    0.0512   -0.0615 C   0  0  0  0  0  0  0  0  0  0  0  0
    2.4280    0.0374   -0.0614 N   0  0  0  0  0  0  0  0  0  0  0  0
    3.1946   -1.1191   -0.0616 C   0  0  0  0  0  0  0  0  0  0  0  0
    4.5347   -1.1784   -0.0616 C   0  0  0  0  0  0  0  0  0  0  0  0
    5.3068    0.0684   -0.0619 C   0  0  0  0  0  0  0  0  0  0  0  0
    6.5311    0.0752   -0.0615 O   0  0  0  0  0  0  0  0  0  0  0  0
    4.5233    1.3296   -0.0616 C   0  0  0  0  0  0  0  0  0  0  0  0
    5.2332    2.5399   -0.0621 C   0  0  0  0  0  0  0  0  0  0  0  0
    4.5437    3.7463   -0.0627 C   0  0  0  0  0  0  0  0  0  0  0  0
    3.1528    3.7347   -0.0626 C   0  0  0  0  0  0  0  0  0  0  0  0
    2.2966    5.2287   -0.0634 Cl  0  0  0  0  0  0  0  0  0  0  0  0
    2.4398    2.5286   -0.0620 C   0  0  0  0  0  0  0  0  0  0  0  0
    3.1054    1.2903   -0.0616 C   0  0  0  0  0  0  0  0  0  0  0  0
    5.0152   -2.5400   -0.0620 C   0  0  0  0  0  0  0  0  0  0  0  0
    6.2980   -3.0591   -0.0625 C   0  0  0  0  0  0  0  0  0  0  0  0
    6.4505   -4.4488   -0.0627 C   0  0  0  0  0  0  0  0  0  0  0  0
    5.3275   -5.2960   -0.0625 C   0  0  0  0  0  0  0  0  0  0  0  0
    4.0353   -4.7649   -0.0623 C   0  0  0  0  0  0  0  0  0  0  0  0
    3.9171   -3.3871   -0.0621 C   0  0  0  0  0  0  0  0  0  0  0  0
    2.7194   -2.5437   -0.0620 C   0  0  0  0  0  0  0  0  0  0  0  0
    1.5780   -2.9628   -0.0623 O   0  0  0  0  0  0  0  0  0  0  0  0
    0.5162   -0.9428   -0.0615 H   0  0  0  0  0  0  0  0  0  0  0  0
    0.5830    0.5591   -0.9552 H   0  0  0  0  0  0  0  0  0  0  0  0
    0.5828    0.5594    0.8319 H   0  0  0  0  0  0  0  0  0  0  0  0
    6.3219    2.5391   -0.0622 H   0  0  0  0  0  0  0  0  0  0  0  0
    5.0945    4.6831   -0.0632 H   0  0  0  0  0  0  0  0  0  0  0  0
    1.3555    2.5852   -0.0620 H   0  0  0  0  0  0  0  0  0  0  0  0
    7.1687   -2.4084   -0.0627 H   0  0  0  0  0  0  0  0  0  0  0  0
    7.4513   -4.8765   -0.0631 H   0  0  0  0  0  0  0  0  0  0  0  0
    5.4719   -6.3744   -0.0626 H   0  0  0  0  0  0  0  0  0  0  0  0
    3.1589   -5.4043   -0.0622 H   0  0  0  0  0  0  0  0  0  0  0  0
  1  2  1  0  0  0  0
  1 22  1  0  0  0  0
  1 23  1  0  0  0  0
  1 24  1  0  0  0  0
  2  3  1  0  0  0  0
  2 13  1  0  0  0  0
  3  4  2  0  0  0  0
  3 20  1  0  0  0  0
  4  5  1  0  0  0  0
  4 14  1  0  0  0  0
  5  6  2  0  0  0  0
  5  7  1  0  0  0  0
  7  8  1  0  0  0  0
  7 13  2  0  0  0  0
  8  9  2  0  0  0  0
  8 25  1  0  0  0  0
  9 10  1  0  0  0  0
  9 26  1  0  0  0  0
 10 11  1  0  0  0  0
 10 12  2  0  0  0  0
 12 13  1  0  0  0  0
 12 27  1  0  0  0  0
 14 15  2  0  0  0  0
 14 19  1  0  0  0  0
 15 16  1  0  0  0  0
 15 28  1  0  0  0  0
 16 17  2  0  0  0  0
 16 29  1  0  0  0  0
 17 18  1  0  0  0  0
 17 30  1  0  0  0  0
 18 19  2  0  0  0  0
 18 31  1  0  0  0  0
 19 20  1  0  0  0  0
 20 21  2  0  0  0  0
M  END
$$$$
