
 OpenBabel09162610133D

 31 33  0  0  1  0  0  0  0  0999 V2000
   -2.3485    0.3888    0.0287 O   0  0  0  0  0  0  0  0  0  0  0  0
   -1.1596    0.0954    0.0212 C   0  0  0  0  0  0  0  0  0  0  0  0
   -0.0790    1.1027   -0.3164 C   0  0  0  0  0  0  0  0  0  0  0  0
    1.5124    0.2714   -0.1081 S   0  0  0  0  0  0  0  0  0  0  0  0
    0.7513   -1.3693   -0.0979 C   0  0  1  0  0  0  0  0  0  0  0  0
    1.4729   -2.3776    0.7761 C   0  0  0  0  0  0  0  0  0  0  0  0
    1.6270   -2.1826    2.1607 C   0  0  0  0  0  0  0  0  0  0  0  0
    2.1344   -3.1996    2.9707 C   0  0  0  0  0  0  0  0  0  0  0  0
    2.5034   -4.4201    2.4100 C   0  0  0  0  0  0  0  0  0  0  0  0
    2.3893   -4.6181    1.0363 C   0  0  0  0  0  0  0  0  0  0  0  0
    1.8817   -3.6033    0.2235 C   0  0  0  0  0  0  0  0  0  0  0  0
   -0.6286   -1.1611    0.2981 N   0  0  0  0  0  0  0  0  0  0  0  0
   -1.4839   -2.2693    0.4751 C   0  0  0  0  0  0  0  0  0  0  0  0
   -1.8178   -3.1045   -0.5937 C   0  0  0  0  0  0  0  0  0  0  0  0
   -2.6082   -4.2343   -0.3683 C   0  0  0  0  0  0  0  0  0  0  0  0
   -3.0397   -4.5321    0.9253 C   0  0  0  0  0  0  0  0  0  0  0  0
   -4.0889   -6.0744    1.2312 Br  0  0  0  0  0  0  0  0  0  0  0  0
   -2.7026   -3.7045    1.9949 C   0  0  0  0  0  0  0  0  0  0  0  0
   -1.9331   -2.5635    1.7660 C   0  0  0  0  0  0  0  0  0  0  0  0
   -0.1506    1.9593    0.3579 H   0  0  0  0  0  0  0  0  0  0  0  0
   -0.1972    1.4253   -1.3539 H   0  0  0  0  0  0  0  0  0  0  0  0
    0.7517   -1.7035   -1.1417 H   0  0  0  0  0  0  0  0  0  0  0  0
    1.3122   -1.2493    2.6234 H   0  0  0  0  0  0  0  0  0  0  0  0
    2.2197   -3.0477    4.0438 H   0  0  0  0  0  0  0  0  0  0  0  0
    2.8726   -5.2213    3.0453 H   0  0  0  0  0  0  0  0  0  0  0  0
    2.6738   -5.5717    0.5998 H   0  0  0  0  0  0  0  0  0  0  0  0
    1.7724   -3.7932   -0.8423 H   0  0  0  0  0  0  0  0  0  0  0  0
   -1.4875   -2.8782   -1.6032 H   0  0  0  0  0  0  0  0  0  0  0  0
   -2.8808   -4.8739   -1.2023 H   0  0  0  0  0  0  0  0  0  0  0  0
   -3.0245   -3.9397    3.0052 H   0  0  0  0  0  0  0  0  0  0  0  0
   -1.6557   -1.9270    2.6025 H   0  0  0  0  0  0  0  0  0  0  0  0
  1  2  2  0  0  0  0
  2  3  1  0  0  0  0
  2 12  1  0  0  0  0
  3  4  1  0  0  0  0
  3 20  1  0  0  0  0
  3 21  1  0  0  0  0
  4  5  1  0  0  0  0
  5  6  1  0  0  0  0
  5 12  1  0  0  0  0
  5 22  1  6  0  0  0
  6  7  2  0  0  0  0
  6 11  1  0  0  0  0
  7  8  1  0  0  0  0
  7 23  1  0  0  0  0
  8  9  2  0  0  0  0
  8 24  1  0  0  0  0
  9 10  1  0  0  0  0
  9 25  1  0  0  0  0
 10 11  2  0  0  0  0
 10 26  1  0  0  0  0
 11 27  1  0  0  0  0
 12 13  1  0  0  0  0
 13 14  2  0  0  0  0
 13 19  1  0  0  0  0
 14 15  1  0  0  0  0
 14 28  1  0  0  0  0
 15 16  2  0  0  0  0
 15 29  1  0  0  0  0
 16 17  1  0  0  0  0
 16 18  1  0  0  0  0
 18 19  2  0  0  0  0
 18 30  1  0  0  0  0
 19 31  1  0  0  0  0
M  END
$$$$
