
 OpenBabel09162610133D

 27 30  0  0  0  0  0  0  0  0999 V2000
    4.2253    0.9253   -0.9354 C   0  0  0  0  0  0  0  0  0  0  0  0
    2.9979   -0.0076    0.0037 S   0  0  0  0  0  0  0  0  0  0  0  0
    3.4542   -1.6673   -0.3802 C   0  0  0  0  0  0  0  0  0  0  0  0
    4.4762   -1.8899   -1.1701 N   0  0  0  0  0  0  0  0  0  0  0  0
    4.7926   -3.2034   -1.4089 C   0  0  0  0  0  0  0  0  0  0  0  0
    6.1354   -3.6672   -2.3942 S   0  0  0  0  0  0  0  0  0  0  0  0
    5.8058   -5.2912   -2.1263 C   0  0  0  0  0  0  0  0  0  0  0  0
    4.7162   -5.5276   -1.3326 C   0  0  0  0  0  0  0  0  0  0  0  0
    4.1422   -4.3285   -0.9175 C   0  0  0  0  0  0  0  0  0  0  0  0
    3.0001   -4.0310   -0.0530 C   0  0  0  0  0  0  0  0  0  0  0  0
    2.1674   -4.8161    0.5819 N   0  0  0  0  0  0  0  0  0  0  0  0
    1.2909   -3.9955    1.2664 N   0  0  0  0  0  0  0  0  0  0  0  0
    1.6287   -2.7455    1.0211 C   0  0  0  0  0  0  0  0  0  0  0  0
    2.7070   -2.7146    0.1839 N   0  0  0  0  0  0  0  0  0  0  0  0
    4.4878   -6.9771   -1.1361 C   0  0  0  0  0  0  0  0  0  0  0  0
    5.4074   -7.6005   -2.2342 C   0  0  0  0  0  0  0  0  0  0  0  0
    6.4867   -6.5261   -2.5826 C   0  0  0  0  0  0  0  0  0  0  0  0
    4.1285    1.9860   -0.6871 H   0  0  0  0  0  0  0  0  0  0  0  0
    4.0569    0.8065   -2.0091 H   0  0  0  0  0  0  0  0  0  0  0  0
    5.2411    0.6100   -0.6830 H   0  0  0  0  0  0  0  0  0  0  0  0
    1.1371   -1.8671    1.4162 H   0  0  0  0  0  0  0  0  0  0  0  0
    3.4439   -7.2683   -1.2808 H   0  0  0  0  0  0  0  0  0  0  0  0
    4.8181   -7.2860   -0.1389 H   0  0  0  0  0  0  0  0  0  0  0  0
    4.8040   -7.8006   -3.1298 H   0  0  0  0  0  0  0  0  0  0  0  0
    5.8497   -8.5499   -1.9168 H   0  0  0  0  0  0  0  0  0  0  0  0
    6.7206   -6.5289   -3.6505 H   0  0  0  0  0  0  0  0  0  0  0  0
    7.3993   -6.7016   -2.0034 H   0  0  0  0  0  0  0  0  0  0  0  0
  1  2  1  0  0  0  0
  1 18  1  0  0  0  0
  1 19  1  0  0  0  0
  1 20  1  0  0  0  0
  2  3  1  0  0  0  0
  3  4  2  0  0  0  0
  3 14  1  0  0  0  0
  4  5  1  0  0  0  0
  5  6  1  0  0  0  0
  5  9  2  0  0  0  0
  6  7  1  0  0  0  0
  7  8  2  0  0  0  0
  7 17  1  0  0  0  0
  8  9  1  0  0  0  0
  8 15  1  0  0  0  0
  9 10  1  0  0  0  0
 10 11  2  0  0  0  0
 10 14  1  0  0  0  0
 11 12  1  0  0  0  0
 12 13  2  0  0  0  0
 13 14  1  0  0  0  0
 13 21  1  0  0  0  0
 15 16  1  0  0  0  0
 15 22  1  0  0  0  0
 15 23  1  0  0  0  0
 16 17  1  0  0  0  0
 16 24  1  0  0  0  0
 16 25  1  0  0  0  0
 17 26  1  0  0  0  0
 17 27  1  0  0  0  0
M  END
$$$$
