
 OpenBabel09162610133D

 35 38  0  0  0  0  0  0  0  0999 V2000
   -0.2096    2.4912    0.2069 C   0  0  0  0  0  0  0  0  0  0  0  0
    0.9636    1.8440    0.5584 C   0  0  0  0  0  0  0  0  0  0  0  0
    1.8903    1.5251   -0.4414 C   0  0  0  0  0  0  0  0  0  0  0  0
    3.1126    0.8096   -0.1006 C   0  0  0  0  0  0  0  0  0  0  0  0
    3.6232    0.2663    1.0572 C   0  0  0  0  0  0  0  0  0  0  0  0
    4.8276   -0.3338    0.8151 N   0  0  0  0  0  0  0  0  0  0  0  0
    5.0292   -0.1377   -0.4739 C   0  0  0  0  0  0  0  0  0  0  0  0
    6.1755   -0.5654   -1.2749 C   0  0  0  0  0  0  0  0  0  0  0  0
    7.1481   -1.3778   -0.6700 C   0  0  0  0  0  0  0  0  0  0  0  0
    8.2858   -1.7811   -1.3693 C   0  0  0  0  0  0  0  0  0  0  0  0
    8.4732   -1.3710   -2.6850 C   0  0  0  0  0  0  0  0  0  0  0  0
    7.5020   -0.5955   -3.3289 C   0  0  0  0  0  0  0  0  0  0  0  0
    6.3594   -0.1870   -2.6135 C   0  0  0  0  0  0  0  0  0  0  0  0
    7.6930   -0.1684   -4.7574 C   0  0  0  0  0  0  0  0  0  0  0  0
    8.7906   -0.9872   -5.4246 C   0  0  0  0  0  0  0  0  0  0  0  0
    9.9726   -1.0882   -4.4764 C   0  0  0  0  0  0  0  0  0  0  0  0
    9.6286   -1.7972   -3.2836 O   0  0  0  0  0  0  0  0  0  0  0  0
    4.0228    0.5568   -1.1006 O   0  0  0  0  0  0  0  0  0  0  0  0
    1.5899    1.8922   -1.7546 C   0  0  0  0  0  0  0  0  0  0  0  0
    0.3891    2.5375   -2.0084 C   0  0  0  0  0  0  0  0  0  0  0  0
   -0.5174    2.8432   -1.0569 N   0  0  0  0  0  0  0  0  0  0  0  0
   -0.9545    2.7456    0.9556 H   0  0  0  0  0  0  0  0  0  0  0  0
    1.1340    1.5948    1.6002 H   0  0  0  0  0  0  0  0  0  0  0  0
    3.1865    0.2656    2.0470 H   0  0  0  0  0  0  0  0  0  0  0  0
    7.0261   -1.6961    0.3644 H   0  0  0  0  0  0  0  0  0  0  0  0
    9.0314   -2.4026   -0.8811 H   0  0  0  0  0  0  0  0  0  0  0  0
    5.6165    0.4359   -3.1078 H   0  0  0  0  0  0  0  0  0  0  0  0
    7.9665    0.8937   -4.7694 H   0  0  0  0  0  0  0  0  0  0  0  0
    6.7606   -0.2852   -5.3210 H   0  0  0  0  0  0  0  0  0  0  0  0
    9.0868   -0.5279   -6.3732 H   0  0  0  0  0  0  0  0  0  0  0  0
    8.4129   -1.9947   -5.6409 H   0  0  0  0  0  0  0  0  0  0  0  0
   10.3661   -0.0994   -4.2086 H   0  0  0  0  0  0  0  0  0  0  0  0
   10.7863   -1.6414   -4.9573 H   0  0  0  0  0  0  0  0  0  0  0  0
    2.2668    1.6765   -2.5748 H   0  0  0  0  0  0  0  0  0  0  0  0
    0.1133    2.8309   -3.0173 H   0  0  0  0  0  0  0  0  0  0  0  0
  1  2  2  0  0  0  0
  1 21  1  0  0  0  0
  1 22  1  0  0  0  0
  2  3  1  0  0  0  0
  2 23  1  0  0  0  0
  3  4  1  0  0  0  0
  3 19  2  0  0  0  0
  4  5  2  0  0  0  0
  4 18  1  0  0  0  0
  5  6  1  0  0  0  0
  5 24  1  0  0  0  0
  6  7  2  0  0  0  0
  7  8  1  0  0  0  0
  7 18  1  0  0  0  0
  8  9  2  0  0  0  0
  8 13  1  0  0  0  0
  9 10  1  0  0  0  0
  9 25  1  0  0  0  0
 10 11  2  0  0  0  0
 10 26  1  0  0  0  0
 11 12  1  0  0  0  0
 11 17  1  0  0  0  0
 12 13  2  0  0  0  0
 12 14  1  0  0  0  0
 13 27  1  0  0  0  0
 14 15  1  0  0  0  0
 14 28  1  0  0  0  0
 14 29  1  0  0  0  0
 15 16  1  0  0  0  0
 15 30  1  0  0  0  0
 15 31  1  0  0  0  0
 16 17  1  0  0  0  0
 16 32  1  0  0  0  0
 16 33  1  0  0  0  0
 19 20  1  0  0  0  0
 19 34  1  0  0  0  0
 20 21  2  0  0  0  0
 20 35  1  0  0  0  0
M  END
$$$$
