
 OpenBabel09162610133D

 38 41  0  0  1  0  0  0  0  0999 V2000
    2.3599    0.0101   -0.3199 C   0  0  0  0  0  0  0  0  0  0  0  0
    0.8626   -0.1050   -0.3128 C   0  0  0  0  0  0  0  0  0  0  0  0
    0.1034    0.3834   -1.3728 C   0  0  0  0  0  0  0  0  0  0  0  0
   -1.2957    0.3108   -1.3348 C   0  0  0  0  0  0  0  0  0  0  0  0
   -1.9739   -0.2251   -0.2274 C   0  0  0  0  0  0  0  0  0  0  0  0
   -3.3922   -0.0860   -0.0981 N   0  0  0  0  0  0  0  0  0  0  0  0
   -4.2356    0.2253   -1.1313 C   0  0  0  0  0  0  0  0  0  0  0  0
   -4.0381    0.0976   -2.3448 O   0  0  0  0  0  0  0  0  0  0  0  0
   -5.4906    0.8482   -0.5665 C   0  0  2  0  0  0  0  0  0  0  0  0
   -5.4529    2.3211   -0.9545 C   0  0  0  0  0  0  0  0  0  0  0  0
   -4.6677    3.0672    0.0941 C   0  0  0  0  0  0  0  0  0  0  0  0
   -3.3487    3.4764   -0.0382 C   0  0  0  0  0  0  0  0  0  0  0  0
   -2.7207    4.0965    1.0431 C   0  0  0  0  0  0  0  0  0  0  0  0
   -3.4617    4.4372    2.1784 C   0  0  0  0  0  0  0  0  0  0  0  0
   -4.7397    3.9170    2.3500 C   0  0  0  0  0  0  0  0  0  0  0  0
   -5.2025    3.0261    1.3886 C   0  0  0  0  0  0  0  0  0  0  0  0
   -5.8391    1.6883    1.7857 C   0  0  0  0  0  0  0  0  0  0  0  0
   -5.3387    0.6269    0.8629 N   0  0  0  0  0  0  0  0  0  0  0  0
   -4.0502    0.0859    1.1225 C   0  0  0  0  0  0  0  0  0  0  0  0
   -3.6114   -0.0647    2.2483 O   0  0  0  0  0  0  0  0  0  0  0  0
   -1.1963   -0.7777    0.7975 C   0  0  0  0  0  0  0  0  0  0  0  0
    0.2040   -0.7264    0.7504 C   0  0  0  0  0  0  0  0  0  0  0  0
    2.6872    0.8342   -0.9641 H   0  0  0  0  0  0  0  0  0  0  0  0
    2.8115   -0.9176   -0.6834 H   0  0  0  0  0  0  0  0  0  0  0  0
    2.7364    0.2228    0.6861 H   0  0  0  0  0  0  0  0  0  0  0  0
    0.5888    0.8571   -2.2239 H   0  0  0  0  0  0  0  0  0  0  0  0
   -1.8262    0.7582   -2.1723 H   0  0  0  0  0  0  0  0  0  0  0  0
   -6.3736    0.3204   -0.9356 H   0  0  0  0  0  0  0  0  0  0  0  0
   -6.4780    2.7187   -0.9444 H   0  0  0  0  0  0  0  0  0  0  0  0
   -5.0676    2.5106   -1.9617 H   0  0  0  0  0  0  0  0  0  0  0  0
   -2.7738    3.2254   -0.9268 H   0  0  0  0  0  0  0  0  0  0  0  0
   -1.6555    4.3037    1.0088 H   0  0  0  0  0  0  0  0  0  0  0  0
   -3.0009    5.0140    2.9759 H   0  0  0  0  0  0  0  0  0  0  0  0
   -5.2780    4.0823    3.2779 H   0  0  0  0  0  0  0  0  0  0  0  0
   -6.9308    1.7289    1.7555 H   0  0  0  0  0  0  0  0  0  0  0  0
   -5.5009    1.4387    2.7975 H   0  0  0  0  0  0  0  0  0  0  0  0
   -1.6581   -1.2504    1.6593 H   0  0  0  0  0  0  0  0  0  0  0  0
    0.7720   -1.1551    1.5775 H   0  0  0  0  0  0  0  0  0  0  0  0
  1  2  1  0  0  0  0
  1 23  1  0  0  0  0
  1 24  1  0  0  0  0
  1 25  1  0  0  0  0
  2  3  2  0  0  0  0
  2 22  1  0  0  0  0
  3  4  1  0  0  0  0
  3 26  1  0  0  0  0
  4  5  2  0  0  0  0
  4 27  1  0  0  0  0
  5 21  1  0  0  0  0
  5  6  1  0  0  0  0
  6  7  1  0  0  0  0
  6 19  1  0  0  0  0
  7  9  1  0  0  0  0
  7  8  2  0  0  0  0
  9 10  1  0  0  0  0
  9 18  1  0  0  0  0
  9 28  1  6  0  0  0
 10 11  1  0  0  0  0
 10 29  1  0  0  0  0
 10 30  1  0  0  0  0
 11 12  2  0  0  0  0
 11 16  1  0  0  0  0
 12 13  1  0  0  0  0
 12 31  1  0  0  0  0
 13 14  2  0  0  0  0
 13 32  1  0  0  0  0
 14 15  1  0  0  0  0
 14 33  1  0  0  0  0
 15 16  2  0  0  0  0
 15 34  1  0  0  0  0
 16 17  1  0  0  0  0
 17 18  1  0  0  0  0
 17 35  1  0  0  0  0
 17 36  1  0  0  0  0
 18 19  1  0  0  0  0
 19 20  2  0  0  0  0
 21 22  2  0  0  0  0
 21 37  1  0  0  0  0
 22 38  1  0  0  0  0
M  END
$$$$
