
 OpenBabel09162610133D

 38 41  0  0  0  0  0  0  0  0999 V2000
    2.3359    0.0769    0.3866 N   0  0  0  0  0  0  0  0  0  0  0  0
    0.9541   -0.0045    0.1839 C   0  0  0  0  0  0  0  0  0  0  0  0
    0.2195   -1.0491    0.7476 C   0  0  0  0  0  0  0  0  0  0  0  0
   -1.1783   -1.0688    0.6682 C   0  0  0  0  0  0  0  0  0  0  0  0
   -1.8755   -0.0132    0.0692 C   0  0  0  0  0  0  0  0  0  0  0  0
   -3.3341   -0.0084    0.0077 C   0  0  0  0  0  0  0  0  0  0  0  0
   -4.1373   -0.5355    1.0072 C   0  0  0  0  0  0  0  0  0  0  0  0
   -5.4488   -0.3267    0.6637 N   0  0  0  0  0  0  0  0  0  0  0  0
   -5.5153    0.3319   -0.5313 C   0  0  0  0  0  0  0  0  0  0  0  0
   -6.6598    0.7032   -1.1278 N   0  0  0  0  0  0  0  0  0  0  0  0
   -6.4515    1.3354   -2.3138 C   0  0  0  0  0  0  0  0  0  0  0  0
   -5.2211    1.5901   -2.9337 C   0  0  0  0  0  0  0  0  0  0  0  0
   -5.1164    2.2577   -4.2507 C   0  0  0  0  0  0  0  0  0  0  0  0
   -4.0313    3.1044   -4.5599 C   0  0  0  0  0  0  0  0  0  0  0  0
   -3.9003    3.6997   -5.8203 C   0  0  0  0  0  0  0  0  0  0  0  0
   -4.8668    3.4684   -6.7872 C   0  0  0  0  0  0  0  0  0  0  0  0
   -4.7770    4.0168   -8.0312 O   0  0  0  0  0  0  0  0  0  0  0  0
   -5.9598    2.6600   -6.5130 C   0  0  0  0  0  0  0  0  0  0  0  0
   -6.0792    2.0560   -5.2565 C   0  0  0  0  0  0  0  0  0  0  0  0
   -4.0787    1.1601   -2.2374 C   0  0  0  0  0  0  0  0  0  0  0  0
   -4.2179    0.5278   -0.9865 C   0  0  0  0  0  0  0  0  0  0  0  0
   -1.1381    1.0632   -0.4393 C   0  0  0  0  0  0  0  0  0  0  0  0
    0.2600    1.0707   -0.3696 C   0  0  0  0  0  0  0  0  0  0  0  0
    2.7866   -0.8243    0.5088 H   0  0  0  0  0  0  0  0  0  0  0  0
    2.8165    0.6589   -0.2921 H   0  0  0  0  0  0  0  0  0  0  0  0
    0.7285   -1.8626    1.2575 H   0  0  0  0  0  0  0  0  0  0  0  0
   -1.7110   -1.9160    1.0930 H   0  0  0  0  0  0  0  0  0  0  0  0
   -3.8944   -1.0247    1.9411 H   0  0  0  0  0  0  0  0  0  0  0  0
   -6.2609   -0.5964    1.1978 H   0  0  0  0  0  0  0  0  0  0  0  0
   -7.3793    1.6577   -2.7830 H   0  0  0  0  0  0  0  0  0  0  0  0
   -3.2675    3.3158   -3.8150 H   0  0  0  0  0  0  0  0  0  0  0  0
   -3.0417    4.3328   -6.0202 H   0  0  0  0  0  0  0  0  0  0  0  0
   -3.9468    4.5162   -8.0913 H   0  0  0  0  0  0  0  0  0  0  0  0
   -6.7129    2.4861   -7.2754 H   0  0  0  0  0  0  0  0  0  0  0  0
   -6.9338    1.4029   -5.0873 H   0  0  0  0  0  0  0  0  0  0  0  0
   -3.0877    1.2882   -2.6593 H   0  0  0  0  0  0  0  0  0  0  0  0
   -1.6382    1.9289   -0.8634 H   0  0  0  0  0  0  0  0  0  0  0  0
    0.8007    1.9361   -0.7445 H   0  0  0  0  0  0  0  0  0  0  0  0
  1  2  1  0  0  0  0
  1 24  1  0  0  0  0
  1 25  1  0  0  0  0
  2  3  2  0  0  0  0
  2 23  1  0  0  0  0
  3  4  1  0  0  0  0
  3 26  1  0  0  0  0
  4  5  2  0  0  0  0
  4 27  1  0  0  0  0
  5  6  1  0  0  0  0
  5 22  1  0  0  0  0
  6  7  2  0  0  0  0
  6 21  1  0  0  0  0
  7  8  1  0  0  0  0
  7 28  1  0  0  0  0
  8  9  1  0  0  0  0
  8 29  1  0  0  0  0
  9 10  2  0  0  0  0
  9 21  1  0  0  0  0
 10 11  1  0  0  0  0
 11 12  2  0  0  0  0
 11 30  1  0  0  0  0
 12 13  1  0  0  0  0
 12 20  1  0  0  0  0
 13 14  2  0  0  0  0
 13 19  1  0  0  0  0
 14 15  1  0  0  0  0
 14 31  1  0  0  0  0
 15 16  2  0  0  0  0
 15 32  1  0  0  0  0
 16 17  1  0  0  0  0
 16 18  1  0  0  0  0
 17 33  1  0  0  0  0
 18 19  2  0  0  0  0
 18 34  1  0  0  0  0
 19 35  1  0  0  0  0
 20 21  2  0  0  0  0
 20 36  1  0  0  0  0
 22 23  2  0  0  0  0
 22 37  1  0  0  0  0
 23 38  1  0  0  0  0
M  END
$$$$
