
 OpenBabel09162610133D

 28 30  0  0  0  0  0  0  0  0999 V2000
    1.7601    0.4423    1.6652 Cl  0  0  0  0  0  0  0  0  0  0  0  0
    0.1524    0.5735    1.0765 C   0  0  0  0  0  0  0  0  0  0  0  0
   -0.3052    1.4753    0.1562 C   0  0  0  0  0  0  0  0  0  0  0  0
   -1.6986    1.2891   -0.0903 C   0  0  0  0  0  0  0  0  0  0  0  0
   -2.2569    0.2536    0.6509 C   0  0  0  0  0  0  0  0  0  0  0  0
   -3.5933   -0.2470    0.7047 C   0  0  0  0  0  0  0  0  0  0  0  0
   -4.5820    0.2776   -0.0376 C   0  0  0  0  0  0  0  0  0  0  0  0
   -5.9764   -0.1894   -0.0116 C   0  0  0  0  0  0  0  0  0  0  0  0
   -6.9144    0.4128   -0.8403 C   0  0  0  0  0  0  0  0  0  0  0  0
   -8.2302   -0.0333   -0.7946 C   0  0  0  0  0  0  0  0  0  0  0  0
   -8.5800   -1.0664    0.0791 C   0  0  0  0  0  0  0  0  0  0  0  0
   -9.8996   -1.5433    0.1629 C   0  0  0  0  0  0  0  0  0  0  0  0
  -10.2207   -2.5686    1.0491 C   0  0  0  0  0  0  0  0  0  0  0  0
   -9.2266   -3.1201    1.8492 C   0  0  0  0  0  0  0  0  0  0  0  0
   -7.9142   -2.6446    1.7587 C   0  0  0  0  0  0  0  0  0  0  0  0
   -7.5652   -1.6221    0.8862 C   0  0  0  0  0  0  0  0  0  0  0  0
   -6.2900   -1.1936    0.8391 N   0  0  0  0  0  0  0  0  0  0  0  0
   -1.0410   -0.4781    1.6417 S   0  0  0  0  0  0  0  0  0  0  0  0
    0.3115    2.2281   -0.3176 H   0  0  0  0  0  0  0  0  0  0  0  0
   -2.2602    1.9000   -0.7857 H   0  0  0  0  0  0  0  0  0  0  0  0
   -3.8079   -1.0785    1.3746 H   0  0  0  0  0  0  0  0  0  0  0  0
   -4.3930    1.1045   -0.7130 H   0  0  0  0  0  0  0  0  0  0  0  0
   -6.6397    1.2183   -1.5128 H   0  0  0  0  0  0  0  0  0  0  0  0
   -8.9741    0.4301   -1.4369 H   0  0  0  0  0  0  0  0  0  0  0  0
  -10.6821   -1.1159   -0.4597 H   0  0  0  0  0  0  0  0  0  0  0  0
  -11.2422   -2.9339    1.1152 H   0  0  0  0  0  0  0  0  0  0  0  0
   -9.4659   -3.9192    2.5461 H   0  0  0  0  0  0  0  0  0  0  0  0
   -7.1429   -3.0819    2.3883 H   0  0  0  0  0  0  0  0  0  0  0  0
  1  2  1  0  0  0  0
  2  3  2  0  0  0  0
  2 18  1  0  0  0  0
  3  4  1  0  0  0  0
  3 19  1  0  0  0  0
  4  5  2  0  0  0  0
  4 20  1  0  0  0  0
  5  6  1  0  0  0  0
  5 18  1  0  0  0  0
  6  7  2  0  0  0  0
  6 21  1  0  0  0  0
  7  8  1  0  0  0  0
  7 22  1  0  0  0  0
  8  9  2  0  0  0  0
  8 17  1  0  0  0  0
  9 10  1  0  0  0  0
  9 23  1  0  0  0  0
 10 11  2  0  0  0  0
 10 24  1  0  0  0  0
 11 12  1  0  0  0  0
 11 16  1  0  0  0  0
 12 13  2  0  0  0  0
 12 25  1  0  0  0  0
 13 14  1  0  0  0  0
 13 26  1  0  0  0  0
 14 15  2  0  0  0  0
 14 27  1  0  0  0  0
 15 16  1  0  0  0  0
 15 28  1  0  0  0  0
 16 17  2  0  0  0  0
M  END
$$$$
