
 OpenBabel09162610133D

 20 21  0  0  0  0  0  0  0  0999 V2000
    1.0441   -0.0310    0.0456 C   0  0  0  0  0  0  0  0  0  0  0  0
    2.4973   -0.0690    0.0453 N   0  0  0  0  0  0  0  0  0  0  0  0
    3.2230   -1.2644    0.0492 C   0  0  0  0  0  0  0  0  0  0  0  0
    4.5729   -1.3141    0.0562 C   0  0  0  0  0  0  0  0  0  0  0  0
    5.5121   -2.9221    0.0632 Br  0  0  0  0  0  0  0  0  0  0  0  0
    5.3380   -0.0692    0.0591 C   0  0  0  0  0  0  0  0  0  0  0  0
    4.6983    1.1040    0.0544 C   0  0  0  0  0  0  0  0  0  0  0  0
    5.1440    2.3879    0.0573 N   0  0  0  0  0  0  0  0  0  0  0  0
    4.0346    3.0915    0.0535 C   0  0  0  0  0  0  0  0  0  0  0  0
    4.0007    4.6209    0.0590 C   0  0  0  0  0  0  0  0  0  0  0  0
    2.7383    5.1349    0.0458 F   0  0  0  0  0  0  0  0  0  0  0  0
    4.6117    5.1464    1.1596 F   0  0  0  0  0  0  0  0  0  0  0  0
    4.6387    5.1563   -1.0212 F   0  0  0  0  0  0  0  0  0  0  0  0
    2.8348    2.3566    0.0474 N   0  0  0  0  0  0  0  0  0  0  0  0
    3.2179    1.1138    0.0483 C   0  0  0  0  0  0  0  0  0  0  0  0
    0.6111   -1.0380    0.0436 H   0  0  0  0  0  0  0  0  0  0  0  0
    0.6743    0.4906   -0.8433 H   0  0  0  0  0  0  0  0  0  0  0  0
    0.6750    0.4866    0.9372 H   0  0  0  0  0  0  0  0  0  0  0  0
    2.6158   -2.1649    0.0465 H   0  0  0  0  0  0  0  0  0  0  0  0
    6.4210   -0.1038    0.0653 H   0  0  0  0  0  0  0  0  0  0  0  0
  1  2  1  0  0  0  0
  1 16  1  0  0  0  0
  1 17  1  0  0  0  0
  1 18  1  0  0  0  0
  2  3  1  0  0  0  0
  2 15  1  0  0  0  0
  3  4  2  0  0  0  0
  3 19  1  0  0  0  0
  4  5  1  0  0  0  0
  4  6  1  0  0  0  0
  6  7  2  0  0  0  0
  6 20  1  0  0  0  0
  7  8  1  0  0  0  0
  7 15  1  0  0  0  0
  8  9  2  0  0  0  0
  9 10  1  0  0  0  0
  9 14  1  0  0  0  0
 10 11  1  0  0  0  0
 10 12  1  0  0  0  0
 10 13  1  0  0  0  0
 14 15  2  0  0  0  0
M  END
$$$$
