
 OpenBabel09162610133D

 27 29  0  0  0  0  0  0  0  0999 V2000
    1.0437   -0.2929    0.1981 F   0  0  0  0  0  0  0  0  0  0  0  0
    2.3956   -0.1739    0.0623 C   0  0  0  0  0  0  0  0  0  0  0  0
    2.9029   -0.0151    1.3191 F   0  0  0  0  0  0  0  0  0  0  0  0
    3.0930   -1.6590   -0.7256 S   0  0  0  0  0  0  0  0  0  0  0  0
    2.5901   -2.9248    0.4123 C   0  0  0  0  0  0  0  0  0  0  0  0
    2.9410   -4.2421    0.1272 C   0  0  0  0  0  0  0  0  0  0  0  0
    2.5595   -5.2526    1.0071 C   0  0  0  0  0  0  0  0  0  0  0  0
    1.8385   -4.9221    2.1458 C   0  0  0  0  0  0  0  0  0  0  0  0
    1.5313   -3.5894    2.3545 C   0  0  0  0  0  0  0  0  0  0  0  0
    1.8927   -2.5926    1.5159 N   0  0  0  0  0  0  0  0  0  0  0  0
    2.7246    1.0333   -0.7813 C   0  0  0  0  0  0  0  0  0  0  0  0
    2.0345    1.5910   -1.7708 N   0  0  0  0  0  0  0  0  0  0  0  0
    2.8237    2.6355   -2.1795 C   0  0  0  0  0  0  0  0  0  0  0  0
    2.6377    3.5929   -3.1847 C   0  0  0  0  0  0  0  0  0  0  0  0
    3.6419    4.5544   -3.3770 C   0  0  0  0  0  0  0  0  0  0  0  0
    4.7995    4.5599   -2.5878 C   0  0  0  0  0  0  0  0  0  0  0  0
    4.9985    3.6094   -1.5786 C   0  0  0  0  0  0  0  0  0  0  0  0
    3.9810    2.6764   -1.4211 C   0  0  0  0  0  0  0  0  0  0  0  0
    3.9302    1.6544   -0.5213 O   0  0  0  0  0  0  0  0  0  0  0  0
    3.5047   -4.4894   -0.7671 H   0  0  0  0  0  0  0  0  0  0  0  0
    2.8234   -6.2862    0.8025 H   0  0  0  0  0  0  0  0  0  0  0  0
    1.5236   -5.6820    2.8522 H   0  0  0  0  0  0  0  0  0  0  0  0
    0.9679   -3.2752    3.2290 H   0  0  0  0  0  0  0  0  0  0  0  0
    1.7406    3.5852   -3.7939 H   0  0  0  0  0  0  0  0  0  0  0  0
    3.5172    5.3073   -4.1530 H   0  0  0  0  0  0  0  0  0  0  0  0
    5.5606    5.3187   -2.7619 H   0  0  0  0  0  0  0  0  0  0  0  0
    5.8861    3.5978   -0.9589 H   0  0  0  0  0  0  0  0  0  0  0  0
  1  2  1  0  0  0  0
  2  3  1  0  0  0  0
  2  4  1  0  0  0  0
  2 11  1  0  0  0  0
  4  5  1  0  0  0  0
  5  6  2  0  0  0  0
  5 10  1  0  0  0  0
  6  7  1  0  0  0  0
  6 20  1  0  0  0  0
  7  8  2  0  0  0  0
  7 21  1  0  0  0  0
  8  9  1  0  0  0  0
  8 22  1  0  0  0  0
  9 10  2  0  0  0  0
  9 23  1  0  0  0  0
 11 12  2  0  0  0  0
 11 19  1  0  0  0  0
 12 13  1  0  0  0  0
 13 14  2  0  0  0  0
 13 18  1  0  0  0  0
 14 15  1  0  0  0  0
 14 24  1  0  0  0  0
 15 16  2  0  0  0  0
 15 25  1  0  0  0  0
 16 17  1  0  0  0  0
 16 26  1  0  0  0  0
 17 18  2  0  0  0  0
 17 27  1  0  0  0  0
 18 19  1  0  0  0  0
M  END
$$$$
