
 OpenBabel09162610133D

 32 34  0  0  0  0  0  0  0  0999 V2000
    1.2169   -0.4407   -0.4540 O   0  0  0  0  0  0  0  0  0  0  0  0
    2.3314   -0.1139   -0.0508 C   0  0  0  0  0  0  0  0  0  0  0  0
    3.0951   -0.9720    0.8930 C   0  0  0  0  0  0  0  0  0  0  0  0
    2.4137   -1.8622    1.6266 C   0  0  0  0  0  0  0  0  0  0  0  0
    3.0525   -2.7187    2.5629 C   0  0  0  0  0  0  0  0  0  0  0  0
    2.4503   -3.6592    3.3929 C   0  0  0  0  0  0  0  0  0  0  0  0
    3.4615   -4.3001    4.1486 C   0  0  0  0  0  0  0  0  0  0  0  0
    3.4989   -5.3134    5.1200 C   0  0  0  0  0  0  0  0  0  0  0  0
    4.7409   -5.6881    5.6515 C   0  0  0  0  0  0  0  0  0  0  0  0
    5.9192   -5.0663    5.2290 C   0  0  0  0  0  0  0  0  0  0  0  0
    5.8986   -4.0533    4.2620 C   0  0  0  0  0  0  0  0  0  0  0  0
    4.6491   -3.7068    3.7513 C   0  0  0  0  0  0  0  0  0  0  0  0
    4.4101   -2.7587    2.8043 O   0  0  0  0  0  0  0  0  0  0  0  0
    2.9557    1.1361   -0.5557 C   0  0  0  0  0  0  0  0  0  0  0  0
    2.6218    1.5374   -1.8593 C   0  0  0  0  0  0  0  0  0  0  0  0
    3.1242    2.7285   -2.3865 C   0  0  0  0  0  0  0  0  0  0  0  0
    3.9577    3.5331   -1.6127 C   0  0  0  0  0  0  0  0  0  0  0  0
    4.2877    3.1517   -0.3116 C   0  0  0  0  0  0  0  0  0  0  0  0
    3.7830    1.9604    0.2178 C   0  0  0  0  0  0  0  0  0  0  0  0
    4.0763    1.6365    1.5124 O   0  0  0  0  0  0  0  0  0  0  0  0
    4.1676   -0.8440    0.9679 H   0  0  0  0  0  0  0  0  0  0  0  0
    1.3339   -1.9403    1.5255 H   0  0  0  0  0  0  0  0  0  0  0  0
    1.3887   -3.8590    3.4349 H   0  0  0  0  0  0  0  0  0  0  0  0
    2.5870   -5.8005    5.4537 H   0  0  0  0  0  0  0  0  0  0  0  0
    4.7848   -6.4736    6.4024 H   0  0  0  0  0  0  0  0  0  0  0  0
    6.8700   -5.3765    5.6574 H   0  0  0  0  0  0  0  0  0  0  0  0
    6.8030   -3.5640    3.9230 H   0  0  0  0  0  0  0  0  0  0  0  0
    1.9579    0.9232   -2.4659 H   0  0  0  0  0  0  0  0  0  0  0  0
    2.8556    3.0312   -3.3959 H   0  0  0  0  0  0  0  0  0  0  0  0
    4.3407    4.4659   -2.0196 H   0  0  0  0  0  0  0  0  0  0  0  0
    4.9267    3.8018    0.2790 H   0  0  0  0  0  0  0  0  0  0  0  0
    4.5893    2.3553    1.9204 H   0  0  0  0  0  0  0  0  0  0  0  0
  1  2  2  0  0  0  0
  2  3  1  0  0  0  0
  2 14  1  0  0  0  0
  3  4  2  0  0  0  0
  3 21  1  0  0  0  0
  4  5  1  0  0  0  0
  4 22  1  0  0  0  0
  5  6  2  0  0  0  0
  5 13  1  0  0  0  0
  6  7  1  0  0  0  0
  6 23  1  0  0  0  0
  7  8  2  0  0  0  0
  7 12  1  0  0  0  0
  8  9  1  0  0  0  0
  8 24  1  0  0  0  0
  9 10  2  0  0  0  0
  9 25  1  0  0  0  0
 10 11  1  0  0  0  0
 10 26  1  0  0  0  0
 11 12  2  0  0  0  0
 11 27  1  0  0  0  0
 12 13  1  0  0  0  0
 14 15  2  0  0  0  0
 14 19  1  0  0  0  0
 15 16  1  0  0  0  0
 15 28  1  0  0  0  0
 16 17  2  0  0  0  0
 16 29  1  0  0  0  0
 17 18  1  0  0  0  0
 17 30  1  0  0  0  0
 18 19  2  0  0  0  0
 18 31  1  0  0  0  0
 19 20  1  0  0  0  0
 20 32  1  0  0  0  0
M  END
$$$$
