
 OpenBabel09162610133D

 35 37  0  0  0  0  0  0  0  0999 V2000
    1.9583   -0.2417    2.6460 C   0  0  0  0  0  0  0  0  0  0  0  0
    0.5844   -0.1599    2.0503 C   0  0  0  0  0  0  0  0  0  0  0  0
    0.0899    1.0423    1.5324 C   0  0  0  0  0  0  0  0  0  0  0  0
   -1.2011    1.1119    0.9947 C   0  0  0  0  0  0  0  0  0  0  0  0
   -2.0197   -0.0232    0.9779 C   0  0  0  0  0  0  0  0  0  0  0  0
   -3.4123   -0.0406    0.4457 C   0  0  0  0  0  0  0  0  0  0  0  0
   -3.9541   -1.1218    0.2138 O   0  0  0  0  0  0  0  0  0  0  0  0
   -4.1281    1.2408    0.2025 C   0  0  0  0  0  0  0  0  0  0  0  0
   -5.3808    1.2410   -0.2892 C   0  0  0  0  0  0  0  0  0  0  0  0
   -6.1482    0.1242   -0.5611 N   0  0  0  0  0  0  0  0  0  0  0  0
   -7.2391    0.1801   -1.4341 C   0  0  0  0  0  0  0  0  0  0  0  0
   -7.9021   -0.9830   -1.8288 C   0  0  0  0  0  0  0  0  0  0  0  0
   -8.9911   -0.9060   -2.6995 C   0  0  0  0  0  0  0  0  0  0  0  0
   -9.4354    0.3357   -3.1589 C   0  0  0  0  0  0  0  0  0  0  0  0
   -8.8097    1.5086   -2.7304 C   0  0  0  0  0  0  0  0  0  0  0  0
   -7.7210    1.4267   -1.8630 C   0  0  0  0  0  0  0  0  0  0  0  0
   -7.0895    2.5978   -1.4146 N   0  0  0  0  0  0  0  0  0  0  0  0
   -5.9602    2.6012   -0.6273 C   0  0  0  0  0  0  0  0  0  0  0  0
   -5.4405    3.6552   -0.2661 O   0  0  0  0  0  0  0  0  0  0  0  0
   -1.5103   -1.2326    1.4741 C   0  0  0  0  0  0  0  0  0  0  0  0
   -0.2219   -1.3005    2.0067 C   0  0  0  0  0  0  0  0  0  0  0  0
    2.4633    0.7294    2.6271 H   0  0  0  0  0  0  0  0  0  0  0  0
    2.5719   -0.9533    2.0844 H   0  0  0  0  0  0  0  0  0  0  0  0
    1.8949   -0.5660    3.6899 H   0  0  0  0  0  0  0  0  0  0  0  0
    0.7076    1.9385    1.5429 H   0  0  0  0  0  0  0  0  0  0  0  0
   -1.5243    2.0645    0.5885 H   0  0  0  0  0  0  0  0  0  0  0  0
   -3.6181    2.1751    0.3908 H   0  0  0  0  0  0  0  0  0  0  0  0
   -5.6636   -0.7673   -0.4453 H   0  0  0  0  0  0  0  0  0  0  0  0
   -7.5692   -1.9524   -1.4697 H   0  0  0  0  0  0  0  0  0  0  0  0
   -9.4903   -1.8158   -3.0212 H   0  0  0  0  0  0  0  0  0  0  0  0
  -10.2742    0.3884   -3.8473 H   0  0  0  0  0  0  0  0  0  0  0  0
   -9.1707    2.4685   -3.0854 H   0  0  0  0  0  0  0  0  0  0  0  0
   -7.4478    3.5018   -1.6780 H   0  0  0  0  0  0  0  0  0  0  0  0
   -2.1194   -2.1350    1.4530 H   0  0  0  0  0  0  0  0  0  0  0  0
    0.1450   -2.2499    2.3907 H   0  0  0  0  0  0  0  0  0  0  0  0
  1  2  1  0  0  0  0
  1 22  1  0  0  0  0
  1 23  1  0  0  0  0
  1 24  1  0  0  0  0
  2  3  2  0  0  0  0
  2 21  1  0  0  0  0
  3  4  1  0  0  0  0
  3 25  1  0  0  0  0
  4  5  2  0  0  0  0
  4 26  1  0  0  0  0
  5  6  1  0  0  0  0
  5 20  1  0  0  0  0
  6  7  2  0  0  0  0
  6  8  1  0  0  0  0
  8  9  2  0  0  0  0
  8 27  1  0  0  0  0
  9 10  1  0  0  0  0
  9 18  1  0  0  0  0
 10 11  1  0  0  0  0
 10 28  1  0  0  0  0
 11 12  2  0  0  0  0
 11 16  1  0  0  0  0
 12 13  1  0  0  0  0
 12 29  1  0  0  0  0
 13 14  2  0  0  0  0
 13 30  1  0  0  0  0
 14 15  1  0  0  0  0
 14 31  1  0  0  0  0
 15 16  2  0  0  0  0
 15 32  1  0  0  0  0
 16 17  1  0  0  0  0
 17 18  1  0  0  0  0
 17 33  1  0  0  0  0
 18 19  2  0  0  0  0
 20 21  2  0  0  0  0
 20 34  1  0  0  0  0
 21 35  1  0  0  0  0
M  END
$$$$
