5656
 OpenBabel07292612043D

 48 49  0  0  1  0  0  0  0  0999 V2000
   -1.5464    0.8575   -1.5169 O   0  0  0  0  0  0  0  0  0  0  0  0
    4.5360    1.3463    0.2342 O   0  0  0  0  0  0  0  0  0  0  0  0
    0.0437   -3.0779   -0.0290 N   0  3  0  0  0  0  0  0  0  0  0  0
   -1.8157    0.3953   -0.1842 C   0  0  0  0  0  0  0  0  0  0  0  0
   -0.7843   -0.6907    0.2860 C   0  0  1  0  0  0  0  0  0  0  0  0
   -1.7436    1.6207    0.7594 C   0  0  0  0  0  0  0  0  0  0  0  0
   -3.2488   -0.1701   -0.2014 C   0  0  0  0  0  0  0  0  0  0  0  0
   -2.7872    2.6810    0.4202 C   0  0  0  0  0  0  0  0  0  0  0  0
   -4.2822    0.8970   -0.5495 C   0  0  0  0  0  0  0  0  0  0  0  0
   -4.1900    2.0899    0.3906 C   0  0  0  0  0  0  0  0  0  0  0  0
   -0.8696   -2.0218   -0.5109 C   0  0  0  0  0  0  0  0  0  0  0  0
    0.6429   -0.1625    0.2664 C   0  0  0  0  0  0  0  0  0  0  0  0
    1.3870   -0.0294    1.4458 C   0  0  0  0  0  0  0  0  0  0  0  0
    1.2360    0.1999   -0.9514 C   0  0  0  0  0  0  0  0  0  0  0  0
   -0.0176   -4.2426   -0.9084 C   0  0  0  0  0  0  0  0  0  0  0  0
   -0.2497   -3.4534    1.3509 C   0  0  0  0  0  0  0  0  0  0  0  0
    2.6901    0.4691    1.3974 C   0  0  0  0  0  0  0  0  0  0  0  0
    2.5182    0.7176   -0.9895 C   0  0  0  0  0  0  0  0  0  0  0  0
    3.2592    0.8523    0.1810 C   0  0  0  0  0  0  0  0  0  0  0  0
    5.0886    1.7413   -1.0108 C   0  0  0  0  0  0  0  0  0  0  0  0
   -0.6495    1.2248   -1.5566 H   0  0  0  0  0  0  0  0  0  0  0  0
    0.9924   -2.7038   -0.0476 H   0  0  0  0  0  0  0  0  0  0  0  0
   -1.0604   -0.9134    1.2955 H   0  0  0  0  0  0  0  0  0  0  0  0
   -0.7706    2.0587    0.6794 H   0  0  0  0  0  0  0  0  0  0  0  0
   -1.9397    1.2776    1.7537 H   0  0  0  0  0  0  0  0  0  0  0  0
   -3.4749   -0.5667    0.7664 H   0  0  0  0  0  0  0  0  0  0  0  0
   -3.2942   -0.9306   -0.9527 H   0  0  0  0  0  0  0  0  0  0  0  0
   -2.5634    3.0948   -0.5408 H   0  0  0  0  0  0  0  0  0  0  0  0
   -2.7564    3.4378    1.1759 H   0  0  0  0  0  0  0  0  0  0  0  0
   -5.2608    0.4707   -0.4754 H   0  0  0  0  0  0  0  0  0  0  0  0
   -4.0900    1.2385   -1.5452 H   0  0  0  0  0  0  0  0  0  0  0  0
   -4.8760    2.8428    0.0628 H   0  0  0  0  0  0  0  0  0  0  0  0
   -4.4296    1.7539    1.3778 H   0  0  0  0  0  0  0  0  0  0  0  0
   -1.8723   -2.3892   -0.4432 H   0  0  0  0  0  0  0  0  0  0  0  0
   -0.5761   -1.7973   -1.5150 H   0  0  0  0  0  0  0  0  0  0  0  0
    0.9717   -0.3000    2.3510 H   0  0  0  0  0  0  0  0  0  0  0  0
    0.7092    0.0788   -1.8306 H   0  0  0  0  0  0  0  0  0  0  0  0
   -1.0088   -4.6455   -0.8982 H   0  0  0  0  0  0  0  0  0  0  0  0
    0.6727   -4.9849   -0.5658 H   0  0  0  0  0  0  0  0  0  0  0  0
    0.2385   -3.9505   -1.9054 H   0  0  0  0  0  0  0  0  0  0  0  0
   -1.2411   -3.8516    1.4091 H   0  0  0  0  0  0  0  0  0  0  0  0
   -0.1745   -2.5905    1.9791 H   0  0  0  0  0  0  0  0  0  0  0  0
    0.4515   -4.1934    1.6760 H   0  0  0  0  0  0  0  0  0  0  0  0
    3.2375    0.5553    2.2680 H   0  0  0  0  0  0  0  0  0  0  0  0
    2.9281    1.0058   -1.8917 H   0  0  0  0  0  0  0  0  0  0  0  0
    6.0817    2.1098   -0.8595 H   0  0  0  0  0  0  0  0  0  0  0  0
    4.4838    2.5122   -1.4409 H   0  0  0  0  0  0  0  0  0  0  0  0
    5.1171    0.9000   -1.6714 H   0  0  0  0  0  0  0  0  0  0  0  0
  1  4  1  0  0  0  0
  1 21  1  0  0  0  0
  2 19  1  0  0  0  0
  2 20  1  0  0  0  0
  3 11  1  0  0  0  0
  3 15  1  0  0  0  0
  3 16  1  0  0  0  0
  3 22  1  0  0  0  0
  4  5  1  0  0  0  0
  4  6  1  0  0  0  0
  4  7  1  0  0  0  0
  5 11  1  0  0  0  0
  5 12  1  0  0  0  0
  5 23  1  1  0  0  0
  6  8  1  0  0  0  0
  6 24  1  0  0  0  0
  6 25  1  0  0  0  0
  7  9  1  0  0  0  0
  7 26  1  0  0  0  0
  7 27  1  0  0  0  0
  8 10  1  0  0  0  0
  8 28  1  0  0  0  0
  8 29  1  0  0  0  0
  9 10  1  0  0  0  0
  9 30  1  0  0  0  0
  9 31  1  0  0  0  0
 10 32  1  0  0  0  0
 10 33  1  0  0  0  0
 11 34  1  0  0  0  0
 11 35  1  0  0  0  0
 12 13  2  0  0  0  0
 12 14  1  0  0  0  0
 13 17  1  0  0  0  0
 13 36  1  0  0  0  0
 14 18  2  0  0  0  0
 14 37  1  0  0  0  0
 15 38  1  0  0  0  0
 15 39  1  0  0  0  0
 15 40  1  0  0  0  0
 16 41  1  0  0  0  0
 16 42  1  0  0  0  0
 16 43  1  0  0  0  0
 17 19  2  0  0  0  0
 17 44  1  0  0  0  0
 18 19  1  0  0  0  0
 18 45  1  0  0  0  0
 20 46  1  0  0  0  0
 20 47  1  0  0  0  0
 20 48  1  0  0  0  0
M  CHG  1   3   1
M  END
>  <PUBCHEM_COMPOUND_CID>
5656

>  <PUBCHEM_CONFORMER_RMSD>
0.8

>  <PUBCHEM_CONFORMER_DIVERSEORDER>
1
9
13
7
3
4
8
6
11
10
2
12
5

>  <PUBCHEM_MMFF94_PARTIAL_CHARGES>
20
1 -0.68
11 0.27
12 -0.14
13 -0.15
14 -0.15
15 0.27
16 0.27
17 -0.15
18 -0.15
19 0.08
2 -0.36
20 0.28
3 -0.81
34 0.4
35 0.15
36 0.15
4 0.28
43 0.15
44 0.15
5 0.14

>  <PUBCHEM_EFFECTIVE_ROTOR_COUNT>
6.2

>  <PUBCHEM_PHARMACOPHORE_FEATURES>
6
1 1 acceptor
1 1 donor
1 2 acceptor
1 3 cation
6 12 13 14 17 18 19 rings
6 4 6 7 8 9 10 rings

>  <PUBCHEM_HEAVY_ATOM_COUNT>
20

>  <PUBCHEM_ATOM_DEF_STEREO_COUNT>
0

>  <PUBCHEM_ATOM_UDEF_STEREO_COUNT>
1

>  <PUBCHEM_BOND_DEF_STEREO_COUNT>
0

>  <PUBCHEM_BOND_UDEF_STEREO_COUNT>
0

>  <PUBCHEM_ISOTOPIC_ATOM_COUNT>
0

>  <PUBCHEM_COMPONENT_COUNT>
1

>  <PUBCHEM_CACTVS_TAUTO_COUNT>
1

>  <PUBCHEM_CONFORMER_ID>
0000161800000001

>  <PUBCHEM_MMFF94_ENERGY>
69.2294

>  <PUBCHEM_FEATURE_SELFOVERLAP>
30.446

>  <PUBCHEM_SHAPE_FINGERPRINT>
10498660 4 18271521992641298905
11582403 64 15836709653886312730
11725454 13 16484398977108011554
12173636 292 18340760515889540748
12236239 1 17967527999611623865
12500047 106 18341612672340755294
12788726 201 18046338914532580826
13140716 1 18263646177660182347
133893 2 18047461228199363339
13681431 1 17547276814134146383
15309172 13 18260827081480890109
15906896 17 18189897706564086363
16752209 62 18193263311767348267
16945 1 18200861997823983379
1741750 31 18409448119973709640
17539 30 17911230942669691622
1813 80 17400924098484480363
18186145 218 16917064468917145873
18785283 64 18192155884456589818
204376 136 18335139782547069949
20510252 161 18342180020029490585
20600515 1 17256477283214212727
20645476 183 18335982068440790886
20671657 1 17979924808863202157
212916 134 18271227370858658240
21524375 3 18336540547291078691
2255824 54 18051130289969469451
23366157 5 17975414616424524907
23402539 116 18271516589260619740
23419403 2 14251307297633967203
23526113 38 17560533840989783758
23557571 272 17911511318614575480
23559900 14 17767672868377109251
23566358 27 18125721189115609839
23598288 3 17973740365031493094
298252 57 18334860532347341520
305870 269 18267582412212914737
3091708 16 9194377348548308611
3729539 64 17978536160444041214
3759504 43 18335986449223056258
394222 165 18261105214962528402
458136 41 18269281170831665163
474 4 18263643974594920089
474229 33 18337393841951389915
59755656 520 18410008849270790206
6138700 20 17980486659738558478
633830 44 18271807856873515669
6442390 28 18342747329506767987
7364860 26 17982728572035705571
81228 2 17977085087866560731
81539 233 18336820871548980191
84936 182 18129098909693763313
9981440 41 18410572860165438977

>  <PUBCHEM_SHAPE_MULTIPOLES>
394.87
7.32
3.8
1.28
2.99
5.39
-0.15
-8.05
1.07
-0.89
0.1
0.59
0.16
-0.63

>  <PUBCHEM_SHAPE_SELFOVERLAP>
815.385

>  <PUBCHEM_SHAPE_VOLUME>
226.8

>  <PUBCHEM_COORDINATE_TYPE>
2
5
10

>  <Energy>
79.1155

$$$$
