192197
 OpenBabel07292612043D

 42 43  0  0  1  0  0  0  0  0999 V2000
   -5.9888   -0.4822    0.2353 O   0  0  0  0  0  0  0  0  0  0  0  0
    5.9821    0.5150   -0.1240 O   0  0  0  0  0  0  0  0  0  0  0  0
   -0.4317    0.5980   -0.2701 C   0  0  2  0  0  0  0  0  0  0  0  0
    0.4275   -0.6251    0.2178 C   0  0  1  0  0  0  0  0  0  0  0  0
   -0.0595    1.9180    0.4600 C   0  0  0  0  0  0  0  0  0  0  0  0
    0.0764   -1.9301   -0.5489 C   0  0  0  0  0  0  0  0  0  0  0  0
   -1.9251    0.3180   -0.1294 C   0  0  0  0  0  0  0  0  0  0  0  0
    1.9206   -0.3336    0.1184 C   0  0  0  0  0  0  0  0  0  0  0  0
   -0.7781    3.1428   -0.0993 C   0  0  0  0  0  0  0  0  0  0  0  0
    0.8512   -3.1524   -0.0637 C   0  0  0  0  0  0  0  0  0  0  0  0
   -2.7401    0.2930   -1.2731 C   0  0  0  0  0  0  0  0  0  0  0  0
    2.7053   -0.3244    1.2826 C   0  0  0  0  0  0  0  0  0  0  0  0
   -2.5092    0.0757    1.1241 C   0  0  0  0  0  0  0  0  0  0  0  0
    2.5330   -0.0609   -1.1150 C   0  0  0  0  0  0  0  0  0  0  0  0
   -4.1063    0.0271   -1.1660 C   0  0  0  0  0  0  0  0  0  0  0  0
    4.0695   -0.0432    1.2176 C   0  0  0  0  0  0  0  0  0  0  0  0
   -3.8736   -0.1925    1.2299 C   0  0  0  0  0  0  0  0  0  0  0  0
    3.8960    0.2225   -1.1793 C   0  0  0  0  0  0  0  0  0  0  0  0
   -4.6603   -0.2152    0.0862 C   0  0  0  0  0  0  0  0  0  0  0  0
    4.6532    0.2304   -0.0154 C   0  0  0  0  0  0  0  0  0  0  0  0
   -6.5491   -0.5054   -0.5154 H   0  0  0  0  0  0  0  0  0  0  0  0
    6.5223    0.5288    0.6415 H   0  0  0  0  0  0  0  0  0  0  0  0
   -0.2027    0.7308   -1.3068 H   0  0  0  0  0  0  0  0  0  0  0  0
    0.1822   -0.7783    1.2479 H   0  0  0  0  0  0  0  0  0  0  0  0
    0.9953    2.0715    0.3667 H   0  0  0  0  0  0  0  0  0  0  0  0
   -0.3638    1.8116    1.4803 H   0  0  0  0  0  0  0  0  0  0  0  0
    0.2938   -1.7819   -1.5860 H   0  0  0  0  0  0  0  0  0  0  0  0
   -0.9607   -2.1269   -0.3740 H   0  0  0  0  0  0  0  0  0  0  0  0
   -0.4989    3.2837   -1.1226 H   0  0  0  0  0  0  0  0  0  0  0  0
   -0.5032    4.0075    0.4677 H   0  0  0  0  0  0  0  0  0  0  0  0
   -1.8361    2.9957   -0.0353 H   0  0  0  0  0  0  0  0  0  0  0  0
    1.8980   -2.9967   -0.2210 H   0  0  0  0  0  0  0  0  0  0  0  0
    0.5331   -4.0161   -0.6094 H   0  0  0  0  0  0  0  0  0  0  0  0
    0.6655   -3.3014    0.9795 H   0  0  0  0  0  0  0  0  0  0  0  0
   -2.3253    0.4729   -2.2007 H   0  0  0  0  0  0  0  0  0  0  0  0
    2.2682   -0.5276    2.1952 H   0  0  0  0  0  0  0  0  0  0  0  0
   -1.9242    0.0961    1.9740 H   0  0  0  0  0  0  0  0  0  0  0  0
    1.9701   -0.0704   -1.9799 H   0  0  0  0  0  0  0  0  0  0  0  0
   -4.7005    0.0104   -2.0096 H   0  0  0  0  0  0  0  0  0  0  0  0
    4.6413   -0.0381    2.0767 H   0  0  0  0  0  0  0  0  0  0  0  0
   -4.2965   -0.3731    2.1538 H   0  0  0  0  0  0  0  0  0  0  0  0
    4.3407    0.4256   -2.0881 H   0  0  0  0  0  0  0  0  0  0  0  0
  1 19  1  0  0  0  0
  1 21  1  0  0  0  0
  2 20  1  0  0  0  0
  2 22  1  0  0  0  0
  3  4  1  0  0  0  0
  3  5  1  0  0  0  0
  3  7  1  0  0  0  0
  3 23  1  6  0  0  0
  4  6  1  0  0  0  0
  4  8  1  0  0  0  0
  4 24  1  1  0  0  0
  5  9  1  0  0  0  0
  5 25  1  0  0  0  0
  5 26  1  0  0  0  0
  6 10  1  0  0  0  0
  6 27  1  0  0  0  0
  6 28  1  0  0  0  0
  7 11  2  0  0  0  0
  7 13  1  0  0  0  0
  8 12  2  0  0  0  0
  8 14  1  0  0  0  0
  9 29  1  0  0  0  0
  9 30  1  0  0  0  0
  9 31  1  0  0  0  0
 10 32  1  0  0  0  0
 10 33  1  0  0  0  0
 10 34  1  0  0  0  0
 11 15  1  0  0  0  0
 11 35  1  0  0  0  0
 12 16  1  0  0  0  0
 12 36  1  0  0  0  0
 13 17  2  0  0  0  0
 13 37  1  0  0  0  0
 14 18  2  0  0  0  0
 14 38  1  0  0  0  0
 15 19  2  0  0  0  0
 15 39  1  0  0  0  0
 16 20  2  0  0  0  0
 16 40  1  0  0  0  0
 17 19  1  0  0  0  0
 17 41  1  0  0  0  0
 18 20  1  0  0  0  0
 18 42  1  0  0  0  0
M  END
>  <PUBCHEM_COMPOUND_CID>
192197

>  <PUBCHEM_CONFORMER_RMSD>
0.8

>  <PUBCHEM_CONFORMER_DIVERSEORDER>
1
2
3

>  <PUBCHEM_MMFF94_PARTIAL_CHARGES>
26
1 -0.53
11 -0.15
12 -0.15
13 -0.15
14 -0.15
15 -0.15
16 -0.15
17 -0.15
18 -0.15
19 0.08
2 -0.53
20 0.08
3 0.14
33 0.15
34 0.15
35 0.15
36 0.15
37 0.15
38 0.15
39 0.15
4 0.14
40 0.15
41 0.45
42 0.45
7 -0.14
8 -0.14

>  <PUBCHEM_EFFECTIVE_ROTOR_COUNT>
5

>  <PUBCHEM_PHARMACOPHORE_FEATURES>
7
1 1 donor
1 10 hydrophobe
1 2 donor
1 9 hydrophobe
4 3 4 5 6 hydrophobe
6 7 11 13 15 17 19 rings
6 8 12 14 16 18 20 rings

>  <PUBCHEM_HEAVY_ATOM_COUNT>
20

>  <PUBCHEM_ATOM_DEF_STEREO_COUNT>
2

>  <PUBCHEM_ATOM_UDEF_STEREO_COUNT>
0

>  <PUBCHEM_BOND_DEF_STEREO_COUNT>
0

>  <PUBCHEM_BOND_UDEF_STEREO_COUNT>
0

>  <PUBCHEM_ISOTOPIC_ATOM_COUNT>
0

>  <PUBCHEM_COMPONENT_COUNT>
1

>  <PUBCHEM_CACTVS_TAUTO_COUNT>
3

>  <PUBCHEM_CONFORMER_ID>
0002EEC500000001

>  <PUBCHEM_MMFF94_ENERGY>
53.312

>  <PUBCHEM_FEATURE_SELFOVERLAP>
35.522

>  <PUBCHEM_SHAPE_FINGERPRINT>
10090160 65 18187080641761887338
10366900 7 18412544310046455161
10906281 52 18189353315691507849
11370993 70 16008745814193437987
12236239 1 17821726135493048968
12553582 1 18341040874638633871
128620 24 18411419492445016508
12969540 114 18336814385974192788
13140716 1 18268707397175601027
13224815 77 18339361855431015563
13533116 47 18040709235105087554
13583140 156 17167864200857620576
13911987 19 18335700576205285397
14787075 74 17895477028386815107
14790565 3 18341058479219937625
15209289 33 17846499244272723307
15848702 151 16917073247872542204
16945 1 18411418392901713934
17349148 13 18040999496893717146
1813 80 18201728357268744741
18186145 218 17346308289615652258
19784866 170 18340211782552130425
200 152 17822007605536709800
20028762 73 17914618495604879103
204376 136 18410292531829405790
20600515 1 18199486487524865012
22224240 67 18412544344844458851
23402539 116 18272365391178813414
23419403 2 17317077901772428489
23557571 272 17095521756257131245
23558518 356 17828768343743401673
23559900 14 17169252763837444738
23569914 2 14760650419925270491
26918003 58 17095243635338784952
3286 77 15068623824876641374
34934 24 18270402660113465633
351380 180 15574432128542063756
4214541 1 16008743598232879901
465052 167 17894919550295653259
469060 322 18338811030498046769
474 4 17488731415074563392
474229 33 18409167722849453114
5486654 2 18410298033808800774
57003041 33 18410290298335232964
59755656 215 18337115570915267918
59755656 520 18130787871260483598
633830 44 17847058899980836816
7495541 125 17676776482426744753
81228 2 18045792178281077209

>  <PUBCHEM_SHAPE_MULTIPOLES>
399.85
10.42
2.1
1.24
0.2
0.01
0.03
-0.05
0.28
-0.07
-0.1
0.01
0.01
0.03

>  <PUBCHEM_SHAPE_SELFOVERLAP>
841.362

>  <PUBCHEM_SHAPE_VOLUME>
225.8

>  <PUBCHEM_COORDINATE_TYPE>
2
5
10

>  <Energy>
33.1782

$$$$
