5282360
  -OEChem-06182612533D

 45 48  0     1  0  0  0  0  0999 V2000
    5.3192    0.9814    0.3388 O   0  0  0  0  0  0  0  0  0  0  0  0
   -4.2282   -1.8320    0.4383 O   0  0  0  0  0  0  0  0  0  0  0  0
   -5.6384    0.5252    0.3626 O   0  0  0  0  0  0  0  0  0  0  0  0
    2.8991    0.5380    0.1742 C   0  0  1  0  0  0  0  0  0  0  0  0
    2.1637   -0.6864   -0.4065 C   0  0  2  0  0  0  0  0  0  0  0  0
    0.6877   -0.7144   -0.0100 C   0  0  1  0  0  0  0  0  0  0  0  0
   -0.0064    0.5589   -0.5818 C   0  0  2  0  0  0  0  0  0  0  0  0
    4.3219    0.2384   -0.3352 C   0  0  2  0  0  0  0  0  0  0  0  0
    2.2571    1.8018   -0.4109 C   0  0  0  0  0  0  0  0  0  0  0  0
    3.0637   -1.8572   -0.0216 C   0  0  0  0  0  0  0  0  0  0  0  0
    0.7398    1.8488   -0.1465 C   0  0  0  0  0  0  0  0  0  0  0  0
    4.4872   -1.2772   -0.1089 C   0  0  0  0  0  0  0  0  0  0  0  0
   -0.0381   -1.9547   -0.5346 C   0  0  0  0  0  0  0  0  0  0  0  0
    2.8892    0.6286    1.7218 C   0  0  0  0  0  0  0  0  0  0  0  0
   -1.5051    0.5493   -0.2925 C   0  0  0  0  0  0  0  0  0  0  0  0
   -1.4615   -1.9919    0.0135 C   0  0  0  0  0  0  0  0  0  0  0  0
   -2.1819   -0.6675   -0.0561 C   0  0  0  0  0  0  0  0  0  0  0  0
   -2.2634    1.7325   -0.3420 C   0  0  0  0  0  0  0  0  0  0  0  0
   -3.5690   -0.6643    0.1744 C   0  0  0  0  0  0  0  0  0  0  0  0
   -3.6421    1.7202   -0.1200 C   0  0  0  0  0  0  0  0  0  0  0  0
   -4.2946    0.5228    0.1430 C   0  0  0  0  0  0  0  0  0  0  0  0
    2.1975   -0.6267   -1.5073 H   0  0  0  0  0  0  0  0  0  0  0  0
    0.6019   -0.7208    1.0843 H   0  0  0  0  0  0  0  0  0  0  0  0
    0.0705    0.5144   -1.6794 H   0  0  0  0  0  0  0  0  0  0  0  0
    4.4024    0.4598   -1.4070 H   0  0  0  0  0  0  0  0  0  0  0  0
    2.4193    1.8353   -1.4962 H   0  0  0  0  0  0  0  0  0  0  0  0
    2.7304    2.7025   -0.0019 H   0  0  0  0  0  0  0  0  0  0  0  0
    2.9401   -2.7093   -0.6977 H   0  0  0  0  0  0  0  0  0  0  0  0
    2.8551   -2.2076    0.9954 H   0  0  0  0  0  0  0  0  0  0  0  0
    0.5507    2.0459    0.9156 H   0  0  0  0  0  0  0  0  0  0  0  0
    0.3474    2.7152   -0.6912 H   0  0  0  0  0  0  0  0  0  0  0  0
    5.0545   -1.4990    0.8021 H   0  0  0  0  0  0  0  0  0  0  0  0
    5.0394   -1.7229   -0.9439 H   0  0  0  0  0  0  0  0  0  0  0  0
    0.4792   -2.8737   -0.2371 H   0  0  0  0  0  0  0  0  0  0  0  0
   -0.0601   -1.9417   -1.6320 H   0  0  0  0  0  0  0  0  0  0  0  0
    3.4324    1.5191    2.0591 H   0  0  0  0  0  0  0  0  0  0  0  0
    1.8798    0.7008    2.1351 H   0  0  0  0  0  0  0  0  0  0  0  0
    3.3655   -0.2359    2.1947 H   0  0  0  0  0  0  0  0  0  0  0  0
   -1.4298   -2.3046    1.0651 H   0  0  0  0  0  0  0  0  0  0  0  0
   -2.0189   -2.7553   -0.5428 H   0  0  0  0  0  0  0  0  0  0  0  0
    6.1824    0.6687    0.0186 H   0  0  0  0  0  0  0  0  0  0  0  0
   -1.7990    2.6890   -0.5620 H   0  0  0  0  0  0  0  0  0  0  0  0
   -4.1924    2.6566   -0.1601 H   0  0  0  0  0  0  0  0  0  0  0  0
   -5.1713   -1.6324    0.5702 H   0  0  0  0  0  0  0  0  0  0  0  0
   -5.9685    1.4380    0.3005 H   0  0  0  0  0  0  0  0  0  0  0  0
  1  8  1  0  0  0  0
  1 41  1  0  0  0  0
  2 19  1  0  0  0  0
  2 44  1  0  0  0  0
  3 21  1  0  0  0  0
  3 45  1  0  0  0  0
  4  5  1  0  0  0  0
  4  8  1  0  0  0  0
  4  9  1  0  0  0  0
  4 14  1  0  0  0  0
  5  6  1  0  0  0  0
  5 10  1  0  0  0  0
  5 22  1  0  0  0  0
  6  7  1  0  0  0  0
  6 13  1  0  0  0  0
  6 23  1  0  0  0  0
  7 11  1  0  0  0  0
  7 15  1  0  0  0  0
  7 24  1  0  0  0  0
  8 12  1  0  0  0  0
  8 25  1  0  0  0  0
  9 11  1  0  0  0  0
  9 26  1  0  0  0  0
  9 27  1  0  0  0  0
 10 12  1  0  0  0  0
 10 28  1  0  0  0  0
 10 29  1  0  0  0  0
 11 30  1  0  0  0  0
 11 31  1  0  0  0  0
 12 32  1  0  0  0  0
 12 33  1  0  0  0  0
 13 16  1  0  0  0  0
 13 34  1  0  0  0  0
 13 35  1  0  0  0  0
 14 36  1  0  0  0  0
 14 37  1  0  0  0  0
 14 38  1  0  0  0  0
 15 17  2  0  0  0  0
 15 18  1  0  0  0  0
 16 17  1  0  0  0  0
 16 39  1  0  0  0  0
 16 40  1  0  0  0  0
 17 19  1  0  0  0  0
 18 20  2  0  0  0  0
 18 42  1  0  0  0  0
 19 21  2  0  0  0  0
 20 21  1  0  0  0  0
 20 43  1  0  0  0  0
M  END
> <PUBCHEM_COMPOUND_CID>
5282360

> <PUBCHEM_CONFORMER_RMSD>
0.6

> <PUBCHEM_CONFORMER_DIVERSEORDER>
1

> <PUBCHEM_MMFF94_PARTIAL_CHARGES>
17
1 -0.68
15 -0.14
16 0.14
17 -0.14
18 -0.15
19 0.08
2 -0.53
20 -0.15
21 0.08
3 -0.53
41 0.4
42 0.15
43 0.15
44 0.45
45 0.45
7 0.14
8 0.28

> <PUBCHEM_EFFECTIVE_ROTOR_COUNT>
1.4

> <PUBCHEM_PHARMACOPHORE_FEATURES>
8
1 1 acceptor
1 1 donor
1 2 donor
1 3 donor
5 4 5 8 10 12 rings
6 15 17 18 19 20 21 rings
6 4 5 6 7 9 11 rings
6 6 7 13 15 16 17 rings

> <PUBCHEM_HEAVY_ATOM_COUNT>
21

> <PUBCHEM_ATOM_DEF_STEREO_COUNT>
5

> <PUBCHEM_ATOM_UDEF_STEREO_COUNT>
0

> <PUBCHEM_BOND_DEF_STEREO_COUNT>
0

> <PUBCHEM_BOND_UDEF_STEREO_COUNT>
0

> <PUBCHEM_ISOTOPIC_ATOM_COUNT>
0

> <PUBCHEM_COMPONENT_COUNT>
1

> <PUBCHEM_CACTVS_TAUTO_COUNT>
53

> <PUBCHEM_CONFORMER_ID>
00509A3800000001

> <PUBCHEM_MMFF94_ENERGY>
71.6333

> <PUBCHEM_FEATURE_SELFOVERLAP>
40.7

> <PUBCHEM_SHAPE_FINGERPRINT>
10 15 18337944706136028568
10616163 171 18338239378613588718
10646746 165 18412263908753552157
10967382 1 18410575050324472222
11132069 177 18409164407392845149
11578080 2 13612869239478669505
11595378 159 17531514408907043712
12011746 2 18411421682952210062
12107183 9 17688025314764126601
12236239 1 17385725789686913924
12251169 10 18408040727577971285
12403259 226 18340200890684002481
12403259 415 18340482279408062821
12788726 201 17561091254725391784
128620 24 12468356851429954160
13140716 1 17978227488931895698
13224815 77 18335134293462580823
13675066 3 18272649064746223624
14178342 30 18124575729869945250
14341114 176 18410581660484940481
14790565 3 17688034523771088724
14866123 147 16974214592279662994
15042514 8 18264495151773206739
15196674 1 18410575076194626118
15256400 18 18411420574877138077
15295992 7 17846773035526438115
15536298 74 18341895173239766750
15788980 27 16515399651265035391
1601671 61 18409450289069558532
16945 1 18267014136484202814
17349148 13 18412256229842669981
17492 89 18263367052273565355
17804303 29 18410859879797365005
1813 80 17022625256100617580
18186145 218 18202289073812122661
19141452 34 18412826902110528599
19591789 44 18337671901859732302
200 152 18060695092248894293
20261772 1 18271246122511967807
20510252 161 18342458114650921289
21033648 29 17917134048826597849
21267235 1 18337401460569245246
21279426 13 18124035624335362004
21421861 104 17895745181039794050
221490 88 18334867159276124528
22854114 59 18342177765124161161
23402539 116 18341888615225587215
23558518 356 17755018936497207802
23559900 14 18411981321739144446
2748010 2 18339075978118147150
3004659 81 18261116215217966918
335352 9 18410013195846298015
34934 24 18411696612936928934
350125 39 18410015463510233437
351380 180 18410573989868457119
3545911 37 18411983550494848596
4214541 1 18409450258709290805
495365 180 17274809273449818634
5104073 3 18410573968024395322
542803 24 17418095407724247553
59755656 215 18337672993276687381
69090 78 18343016696770282575
77779 3 18409731746549570470
9709674 26 18409454716769611303

> <PUBCHEM_SHAPE_MULTIPOLES>
414.56
10.04
2.2
0.84
2.05
0.3
0.22
-0.59
1.35
0.25
-0.15
-0.42
-0.1
0.41

> <PUBCHEM_SHAPE_SELFOVERLAP>
906.385

> <PUBCHEM_SHAPE_VOLUME>
224.1

> <PUBCHEM_COORDINATE_TYPE>
2
5
10

$$$$
