5282364
  -OEChem-06182612293D

 51 54  0     1  0  0  0  0  0999 V2000
   -4.7704    1.7237   -0.2112 O   0  0  0  0  0  0  0  0  0  0  0  0
   -4.9463   -0.7646   -1.2221 O   0  0  0  0  0  0  0  0  0  0  0  0
    6.0136   -0.3499   -0.3738 O   0  0  0  0  0  0  0  0  0  0  0  0
   -2.4271    0.9063   -0.1448 C   0  0  1  0  0  0  0  0  0  0  0  0
   -1.8812   -0.4440    0.3609 C   0  0  2  0  0  0  0  0  0  0  0  0
   -0.4238   -0.6616   -0.0461 C   0  0  1  0  0  0  0  0  0  0  0  0
   -3.8799    0.7857    0.3614 C   0  0  2  0  0  0  0  0  0  0  0  0
   -2.9414   -1.4574   -0.0748 C   0  0  0  0  0  0  0  0  0  0  0  0
   -4.2809   -0.6804    0.0373 C   0  0  2  0  0  0  0  0  0  0  0  0
    0.4467    0.4557    0.6057 C   0  0  2  0  0  0  0  0  0  0  0  0
   -1.6117    2.0253    0.5190 C   0  0  0  0  0  0  0  0  0  0  0  0
   -0.1000    1.8678    0.2639 C   0  0  0  0  0  0  0  0  0  0  0  0
    0.1119   -2.0267    0.3898 C   0  0  0  0  0  0  0  0  0  0  0  0
   -2.3848    1.0950   -1.6813 C   0  0  0  0  0  0  0  0  0  0  0  0
    1.9292    0.2472    0.3079 C   0  0  0  0  0  0  0  0  0  0  0  0
    1.5166   -2.2339   -0.1683 C   0  0  0  0  0  0  0  0  0  0  0  0
   -5.2105   -1.2655    1.0955 C   0  0  0  0  0  0  0  0  0  0  0  0
    2.4223   -1.0366   -0.0135 C   0  0  0  0  0  0  0  0  0  0  0  0
    2.8515    1.3015    0.4315 C   0  0  0  0  0  0  0  0  0  0  0  0
    3.7960   -1.2199   -0.2515 C   0  0  0  0  0  0  0  0  0  0  0  0
    4.2146    1.1035    0.2009 C   0  0  0  0  0  0  0  0  0  0  0  0
    4.6868   -0.1559   -0.1452 C   0  0  0  0  0  0  0  0  0  0  0  0
    6.8689    0.7848   -0.2411 C   0  0  0  0  0  0  0  0  0  0  0  0
   -1.9055   -0.4411    1.4638 H   0  0  0  0  0  0  0  0  0  0  0  0
   -0.3364   -0.6066   -1.1390 H   0  0  0  0  0  0  0  0  0  0  0  0
   -3.8956    0.9439    1.4475 H   0  0  0  0  0  0  0  0  0  0  0  0
   -2.7574   -1.8011   -1.0995 H   0  0  0  0  0  0  0  0  0  0  0  0
   -2.9209   -2.3387    0.5757 H   0  0  0  0  0  0  0  0  0  0  0  0
    0.3597    0.3487    1.6982 H   0  0  0  0  0  0  0  0  0  0  0  0
   -1.7790    2.0165    1.6040 H   0  0  0  0  0  0  0  0  0  0  0  0
   -1.9446    3.0087    0.1657 H   0  0  0  0  0  0  0  0  0  0  0  0
    0.1308    2.1119   -0.7800 H   0  0  0  0  0  0  0  0  0  0  0  0
    0.4071    2.6264    0.8715 H   0  0  0  0  0  0  0  0  0  0  0  0
   -0.5320   -2.8388    0.0345 H   0  0  0  0  0  0  0  0  0  0  0  0
    0.1316   -2.0909    1.4854 H   0  0  0  0  0  0  0  0  0  0  0  0
   -2.9149    0.3076   -2.2226 H   0  0  0  0  0  0  0  0  0  0  0  0
   -2.8385    2.0511   -1.9664 H   0  0  0  0  0  0  0  0  0  0  0  0
   -1.3649    1.1045   -2.0752 H   0  0  0  0  0  0  0  0  0  0  0  0
    1.4449   -2.4644   -1.2391 H   0  0  0  0  0  0  0  0  0  0  0  0
    1.9645   -3.1047    0.3258 H   0  0  0  0  0  0  0  0  0  0  0  0
   -6.1468   -0.6985    1.1430 H   0  0  0  0  0  0  0  0  0  0  0  0
   -5.4819   -2.2986    0.8504 H   0  0  0  0  0  0  0  0  0  0  0  0
   -4.7489   -1.2574    2.0881 H   0  0  0  0  0  0  0  0  0  0  0  0
   -4.9517    1.4506   -1.1262 H   0  0  0  0  0  0  0  0  0  0  0  0
   -5.1245   -1.7030   -1.4054 H   0  0  0  0  0  0  0  0  0  0  0  0
    2.5293    2.2983    0.7176 H   0  0  0  0  0  0  0  0  0  0  0  0
    4.1713   -2.2053   -0.5207 H   0  0  0  0  0  0  0  0  0  0  0  0
    4.8490    1.9762    0.3139 H   0  0  0  0  0  0  0  0  0  0  0  0
    7.8879    0.4489   -0.4601 H   0  0  0  0  0  0  0  0  0  0  0  0
    6.8718    1.1682    0.7849 H   0  0  0  0  0  0  0  0  0  0  0  0
    6.6236    1.5614   -0.9734 H   0  0  0  0  0  0  0  0  0  0  0  0
  1  7  1  0  0  0  0
  1 44  1  0  0  0  0
  2  9  1  0  0  0  0
  2 45  1  0  0  0  0
  3 22  1  0  0  0  0
  3 23  1  0  0  0  0
  4  5  1  0  0  0  0
  4  7  1  0  0  0  0
  4 11  1  0  0  0  0
  4 14  1  0  0  0  0
  5  6  1  0  0  0  0
  5  8  1  0  0  0  0
  5 24  1  0  0  0  0
  6 10  1  0  0  0  0
  6 13  1  0  0  0  0
  6 25  1  0  0  0  0
  7  9  1  0  0  0  0
  7 26  1  0  0  0  0
  8  9  1  0  0  0  0
  8 27  1  0  0  0  0
  8 28  1  0  0  0  0
  9 17  1  0  0  0  0
 10 12  1  0  0  0  0
 10 15  1  0  0  0  0
 10 29  1  0  0  0  0
 11 12  1  0  0  0  0
 11 30  1  0  0  0  0
 11 31  1  0  0  0  0
 12 32  1  0  0  0  0
 12 33  1  0  0  0  0
 13 16  1  0  0  0  0
 13 34  1  0  0  0  0
 13 35  1  0  0  0  0
 14 36  1  0  0  0  0
 14 37  1  0  0  0  0
 14 38  1  0  0  0  0
 15 18  2  0  0  0  0
 15 19  1  0  0  0  0
 16 18  1  0  0  0  0
 16 39  1  0  0  0  0
 16 40  1  0  0  0  0
 17 41  1  0  0  0  0
 17 42  1  0  0  0  0
 17 43  1  0  0  0  0
 18 20  1  0  0  0  0
 19 21  2  0  0  0  0
 19 46  1  0  0  0  0
 20 22  2  0  0  0  0
 20 47  1  0  0  0  0
 21 22  1  0  0  0  0
 21 48  1  0  0  0  0
 23 49  1  0  0  0  0
 23 50  1  0  0  0  0
 23 51  1  0  0  0  0
M  END
> <PUBCHEM_COMPOUND_CID>
5282364

> <PUBCHEM_CONFORMER_RMSD>
0.6

> <PUBCHEM_CONFORMER_DIVERSEORDER>
1

> <PUBCHEM_MMFF94_PARTIAL_CHARGES>
19
1 -0.68
10 0.14
15 -0.14
16 0.14
18 -0.14
19 -0.15
2 -0.68
20 -0.15
21 -0.15
22 0.08
23 0.28
3 -0.36
44 0.4
45 0.4
46 0.15
47 0.15
48 0.15
7 0.28
9 0.28

> <PUBCHEM_EFFECTIVE_ROTOR_COUNT>
2.4

> <PUBCHEM_PHARMACOPHORE_FEATURES>
9
1 1 acceptor
1 1 donor
1 2 acceptor
1 2 donor
1 3 acceptor
5 4 5 7 8 9 rings
6 15 18 19 20 21 22 rings
6 4 5 6 10 11 12 rings
6 6 10 13 15 16 18 rings

> <PUBCHEM_HEAVY_ATOM_COUNT>
23

> <PUBCHEM_ATOM_DEF_STEREO_COUNT>
6

> <PUBCHEM_ATOM_UDEF_STEREO_COUNT>
0

> <PUBCHEM_BOND_DEF_STEREO_COUNT>
0

> <PUBCHEM_BOND_UDEF_STEREO_COUNT>
0

> <PUBCHEM_ISOTOPIC_ATOM_COUNT>
0

> <PUBCHEM_COMPONENT_COUNT>
1

> <PUBCHEM_CACTVS_TAUTO_COUNT>
1

> <PUBCHEM_CONFORMER_ID>
00509A3C00000001

> <PUBCHEM_MMFF94_ENERGY>
97.4778

> <PUBCHEM_FEATURE_SELFOVERLAP>
45.782

> <PUBCHEM_SHAPE_FINGERPRINT>
10411042 1 17977949321692881027
10591671 39 18188223082304900166
11488393 25 17415860002313188518
11578080 2 17243003567106167815
11963148 33 18261950864054473787
12011746 2 18410004460230957823
12166972 35 17967537887301670492
12236239 1 17821446855292145008
12403259 415 18342170098803100240
12403814 3 17749106669480586013
12596602 18 15068629313781606996
12788726 201 17345476981162507448
128620 24 18259988162572081687
13140716 1 18050291672056427835
13224815 77 18410289185928173227
13288520 33 18341614836962132873
13402501 40 18410857685200932578
13533116 47 16950834831072913354
13862211 1 18412820304771892362
14787075 74 18410011069568519187
14790565 3 18411989073881255424
15183329 4 18340213999594044614
15196674 1 18411419479586579130
16988056 13 14000926187909064045
17349148 13 18333730208808890960
18681886 176 18411696630254130280
19489759 90 16008745809856252516
19591789 44 18268428104158600459
200 152 18060418010343173954
21236236 1 18341616996940630745
21267235 1 18339931501634324203
21279426 13 18267870493213460190
21709351 56 18408599266579134292
221357 26 18273494568066737152
23402539 116 18413666911692798548
23557571 272 18412552006617338598
23559900 14 18342731944855201864
2871803 45 18410006628588100827
3004659 81 18335143047714076198
335352 9 18412545431022460485
34934 24 18338514123993257225
350125 39 18411421722060972888
3545911 37 18411139129901784552
4214541 1 18411982446814990545
4325135 7 18412825802298188143
474229 33 18410293627288561930
5104073 3 18338516339595119579
542803 24 17822012008231525108
59755656 215 18411421696233192454
59755656 520 17530962510221291946
9709674 26 18340493278692726791

> <PUBCHEM_SHAPE_MULTIPOLES>
455.72
12.72
2.1
0.91
9.79
0.11
0.2
-0.41
0.98
-0.62
-0.1
-0.78
-0.09
0.5

> <PUBCHEM_SHAPE_SELFOVERLAP>
985.767

> <PUBCHEM_SHAPE_VOLUME>
249.5

> <PUBCHEM_COORDINATE_TYPE>
2
5
10

$$$$
