440266
  -OEChem-07292614343D

 22 22  0     1  0  0  0  0  0999 V2000
   -2.1797   -0.0481    1.5274 O   0  0  0  0  0  0  0  0  0  0  0  0
    3.8259    0.2969   -0.2004 O   0  0  0  0  0  0  0  0  0  0  0  0
   -3.9708    0.1788   -0.7174 N   0  0  0  0  0  0  0  0  0  0  0  0
   -1.7527   -0.4372    0.2150 C   0  0  2  0  0  0  0  0  0  0  0  0
   -0.2783   -0.2428    0.1057 C   0  0  0  0  0  0  0  0  0  0  0  0
   -2.5283    0.3770   -0.8397 C   0  0  0  0  0  0  0  0  0  0  0  0
    0.5564   -1.3414   -0.0992 C   0  0  0  0  0  0  0  0  0  0  0  0
    0.2662    1.0374    0.2073 C   0  0  0  0  0  0  0  0  0  0  0  0
    1.9356   -1.1599   -0.2023 C   0  0  0  0  0  0  0  0  0  0  0  0
    1.6454    1.2189    0.1041 C   0  0  0  0  0  0  0  0  0  0  0  0
    2.4801    0.1202   -0.1005 C   0  0  0  0  0  0  0  0  0  0  0  0
   -2.0021   -1.5002    0.1035 H   0  0  0  0  0  0  0  0  0  0  0  0
   -2.2098    0.0853   -1.8470 H   0  0  0  0  0  0  0  0  0  0  0  0
   -2.3386    1.4503   -0.7294 H   0  0  0  0  0  0  0  0  0  0  0  0
    0.1480   -2.3451   -0.1807 H   0  0  0  0  0  0  0  0  0  0  0  0
   -0.3635    1.9057    0.3797 H   0  0  0  0  0  0  0  0  0  0  0  0
    2.5750   -2.0240   -0.3618 H   0  0  0  0  0  0  0  0  0  0  0  0
    2.0641    2.2182    0.1871 H   0  0  0  0  0  0  0  0  0  0  0  0
   -3.1082   -0.3192    1.6238 H   0  0  0  0  0  0  0  0  0  0  0  0
   -4.4465    0.7250   -1.4347 H   0  0  0  0  0  0  0  0  0  0  0  0
   -4.2939    0.5471    0.1760 H   0  0  0  0  0  0  0  0  0  0  0  0
    4.2478   -0.5683   -0.3403 H   0  0  0  0  0  0  0  0  0  0  0  0
  1  4  1  0  0  0  0
  1 19  1  0  0  0  0
  2 11  1  0  0  0  0
  2 22  1  0  0  0  0
  3  6  1  0  0  0  0
  3 20  1  0  0  0  0
  3 21  1  0  0  0  0
  4  5  1  0  0  0  0
  4  6  1  0  0  0  0
  4 12  1  0  0  0  0
  5  7  2  0  0  0  0
  5  8  1  0  0  0  0
  6 13  1  0  0  0  0
  6 14  1  0  0  0  0
  7  9  1  0  0  0  0
  7 15  1  0  0  0  0
  8 10  2  0  0  0  0
  8 16  1  0  0  0  0
  9 11  2  0  0  0  0
  9 17  1  0  0  0  0
 10 11  1  0  0  0  0
 10 18  1  0  0  0  0
M  END
> <PUBCHEM_COMPOUND_CID>
440266

> <PUBCHEM_CONFORMER_RMSD>
0.4

> <PUBCHEM_CONFORMER_DIVERSEORDER>
1
7
8
2
3
5
4
6

> <PUBCHEM_MMFF94_PARTIAL_CHARGES>
19
1 -0.68
10 -0.15
11 0.08
15 0.15
16 0.15
17 0.15
18 0.15
19 0.4
2 -0.53
20 0.36
21 0.36
22 0.45
3 -0.99
4 0.42
5 -0.14
6 0.27
7 -0.15
8 -0.15
9 -0.15

> <PUBCHEM_EFFECTIVE_ROTOR_COUNT>
2

> <PUBCHEM_PHARMACOPHORE_FEATURES>
6
1 1 acceptor
1 1 donor
1 2 donor
1 3 cation
1 3 donor
6 5 7 8 9 10 11 rings

> <PUBCHEM_HEAVY_ATOM_COUNT>
11

> <PUBCHEM_ATOM_DEF_STEREO_COUNT>
1

> <PUBCHEM_ATOM_UDEF_STEREO_COUNT>
0

> <PUBCHEM_BOND_DEF_STEREO_COUNT>
0

> <PUBCHEM_BOND_UDEF_STEREO_COUNT>
0

> <PUBCHEM_ISOTOPIC_ATOM_COUNT>
0

> <PUBCHEM_COMPONENT_COUNT>
1

> <PUBCHEM_CACTVS_TAUTO_COUNT>
2

> <PUBCHEM_CONFORMER_ID>
0006B7CA00000001

> <PUBCHEM_MMFF94_ENERGY>
22.0978

> <PUBCHEM_FEATURE_SELFOVERLAP>
30.448

> <PUBCHEM_SHAPE_FINGERPRINT>
10219947 1 18411703183994071286
11031198 65 18334013878329286695
11062470 55 18113334206458463196
11401426 45 18343010104216782260
12138202 97 17603861226195561163
124424 183 17822003199174388936
12897270 3 18412541020180640181
14325111 11 18337669814415351516
14911166 2 18413393150709388796
14993402 34 17846497041022942500
15775835 57 18412541028791771511
16945 1 18341341041144204994
20201158 50 18334293149829466655
20645477 70 18339636720917853423
21040471 1 18196092359749043394
21293036 1 18341890805210469614
23402539 116 17023171743755694327
23402655 69 18339911629110841869
2748010 2 18053388987563474352
276578 36 15575270974700191601
29004967 10 18334305257537388154
5084963 1 18266742569881012355
528886 8 18412819200885877162
63268167 104 18343021081725981490
8030462 33 17560804320549510251

> <PUBCHEM_SHAPE_MULTIPOLES>
209.66
5.33
1.2
0.88
1.58
0.09
0.18
-0.56
-1.04
-0.57
-0.01
0.65
-0.02
0.17

> <PUBCHEM_SHAPE_SELFOVERLAP>
429.818

> <PUBCHEM_SHAPE_VOLUME>
121.6

> <PUBCHEM_COORDINATE_TYPE>
2
5
10

$$$$
