3032539
  -OEChem-06182612293D

 46 47  0     0  0  0  0  0  0999 V2000
   -5.9885   -0.1531    0.2316 O   0  0  0  0  0  0  0  0  0  0  0  0
    5.9885    0.1532    0.2313 O   0  0  0  0  0  0  0  0  0  0  0  0
   -0.4253    0.5290    0.2320 C   0  0  0  0  0  0  0  0  0  0  0  0
    0.4252   -0.5284    0.2328 C   0  0  0  0  0  0  0  0  0  0  0  0
    0.0164    1.9787    0.2846 C   0  0  0  0  0  0  0  0  0  0  0  0
   -0.0164   -1.9781    0.2868 C   0  0  0  0  0  0  0  0  0  0  0  0
   -1.8965    0.3492    0.2321 C   0  0  0  0  0  0  0  0  0  0  0  0
    1.8964   -0.3488    0.2326 C   0  0  0  0  0  0  0  0  0  0  0  0
    0.2318    2.5679   -1.1035 C   0  0  0  0  0  0  0  0  0  0  0  0
   -0.2311   -2.5689   -1.1008 C   0  0  0  0  0  0  0  0  0  0  0  0
   -2.5615    0.2688    1.4399 C   0  0  0  0  0  0  0  0  0  0  0  0
    2.5614   -0.2666    1.4403 C   0  0  0  0  0  0  0  0  0  0  0  0
   -2.5608    0.2664   -0.9761 C   0  0  0  0  0  0  0  0  0  0  0  0
    2.5608   -0.2678   -0.9757 C   0  0  0  0  0  0  0  0  0  0  0  0
   -3.9460    0.0989    1.4396 C   0  0  0  0  0  0  0  0  0  0  0  0
    3.9460   -0.0969    1.4398 C   0  0  0  0  0  0  0  0  0  0  0  0
   -3.9454    0.0966   -0.9763 C   0  0  0  0  0  0  0  0  0  0  0  0
    3.9454   -0.0982   -0.9761 C   0  0  0  0  0  0  0  0  0  0  0  0
   -4.6379    0.0129    0.2315 C   0  0  0  0  0  0  0  0  0  0  0  0
    4.6379   -0.0127    0.2316 C   0  0  0  0  0  0  0  0  0  0  0  0
   -6.6333   -0.2334   -1.0388 C   0  0  0  0  0  0  0  0  0  0  0  0
    6.6332    0.2316   -1.0392 C   0  0  0  0  0  0  0  0  0  0  0  0
    0.9399    2.0862    0.8646 H   0  0  0  0  0  0  0  0  0  0  0  0
   -0.7246    2.5852    0.8210 H   0  0  0  0  0  0  0  0  0  0  0  0
    0.7245   -2.5841    0.8243 H   0  0  0  0  0  0  0  0  0  0  0  0
   -0.9401   -2.0850    0.8665 H   0  0  0  0  0  0  0  0  0  0  0  0
    0.5811    3.6023   -1.0181 H   0  0  0  0  0  0  0  0  0  0  0  0
   -0.6988    2.5813   -1.6799 H   0  0  0  0  0  0  0  0  0  0  0  0
    0.9776    2.0121   -1.6773 H   0  0  0  0  0  0  0  0  0  0  0  0
   -0.9766   -2.0135   -1.6756 H   0  0  0  0  0  0  0  0  0  0  0  0
   -0.5807   -3.6030   -1.0143 H   0  0  0  0  0  0  0  0  0  0  0  0
    0.6997   -2.5831   -1.6767 H   0  0  0  0  0  0  0  0  0  0  0  0
   -2.0325    0.3345    2.3866 H   0  0  0  0  0  0  0  0  0  0  0  0
    2.0324   -0.3308    2.3872 H   0  0  0  0  0  0  0  0  0  0  0  0
   -2.0320    0.3311   -1.9230 H   0  0  0  0  0  0  0  0  0  0  0  0
    2.0319   -0.3338   -1.9225 H   0  0  0  0  0  0  0  0  0  0  0  0
   -4.4800    0.0341    2.3837 H   0  0  0  0  0  0  0  0  0  0  0  0
    4.4800   -0.0307    2.3838 H   0  0  0  0  0  0  0  0  0  0  0  0
   -4.4197    0.0374   -1.9500 H   0  0  0  0  0  0  0  0  0  0  0  0
    4.4197   -0.0405   -1.9498 H   0  0  0  0  0  0  0  0  0  0  0  0
   -6.5203    0.6963   -1.6067 H   0  0  0  0  0  0  0  0  0  0  0  0
   -7.7039   -0.3647   -0.8502 H   0  0  0  0  0  0  0  0  0  0  0  0
   -6.2986   -1.1092   -1.6052 H   0  0  0  0  0  0  0  0  0  0  0  0
    6.5202   -0.6989   -1.6058 H   0  0  0  0  0  0  0  0  0  0  0  0
    7.7037    0.3631   -0.8508 H   0  0  0  0  0  0  0  0  0  0  0  0
    6.2986    1.1065   -1.6068 H   0  0  0  0  0  0  0  0  0  0  0  0
  1 19  1  0  0  0  0
  1 21  1  0  0  0  0
  2 20  1  0  0  0  0
  2 22  1  0  0  0  0
  3  4  2  0  0  0  0
  3  5  1  0  0  0  0
  3  7  1  0  0  0  0
  4  6  1  0  0  0  0
  4  8  1  0  0  0  0
  5  9  1  0  0  0  0
  5 23  1  0  0  0  0
  5 24  1  0  0  0  0
  6 10  1  0  0  0  0
  6 25  1  0  0  0  0
  6 26  1  0  0  0  0
  7 11  2  0  0  0  0
  7 13  1  0  0  0  0
  8 12  2  0  0  0  0
  8 14  1  0  0  0  0
  9 27  1  0  0  0  0
  9 28  1  0  0  0  0
  9 29  1  0  0  0  0
 10 30  1  0  0  0  0
 10 31  1  0  0  0  0
 10 32  1  0  0  0  0
 11 15  1  0  0  0  0
 11 33  1  0  0  0  0
 12 16  1  0  0  0  0
 12 34  1  0  0  0  0
 13 17  2  0  0  0  0
 13 35  1  0  0  0  0
 14 18  2  0  0  0  0
 14 36  1  0  0  0  0
 15 19  2  0  0  0  0
 15 37  1  0  0  0  0
 16 20  2  0  0  0  0
 16 38  1  0  0  0  0
 17 19  1  0  0  0  0
 17 39  1  0  0  0  0
 18 20  1  0  0  0  0
 18 40  1  0  0  0  0
 21 41  1  0  0  0  0
 21 42  1  0  0  0  0
 21 43  1  0  0  0  0
 22 44  1  0  0  0  0
 22 45  1  0  0  0  0
 22 46  1  0  0  0  0
M  END
> <PUBCHEM_COMPOUND_CID>
3032539

> <PUBCHEM_CONFORMER_RMSD>
0.8

> <PUBCHEM_CONFORMER_DIVERSEORDER>
1
2
3

> <PUBCHEM_MMFF94_PARTIAL_CHARGES>
28
1 -0.36
11 -0.15
12 -0.15
13 -0.15
14 -0.15
15 -0.15
16 -0.15
17 -0.15
18 -0.15
19 0.08
2 -0.36
20 0.08
21 0.28
22 0.28
3 -0.17
33 0.15
34 0.15
35 0.15
36 0.15
37 0.15
38 0.15
39 0.15
4 -0.17
40 0.15
5 0.14
6 0.14
7 0.03
8 0.03

> <PUBCHEM_EFFECTIVE_ROTOR_COUNT>
6

> <PUBCHEM_PHARMACOPHORE_FEATURES>
6
1 1 acceptor
1 10 hydrophobe
1 2 acceptor
1 9 hydrophobe
6 7 11 13 15 17 19 rings
6 8 12 14 16 18 20 rings

> <PUBCHEM_HEAVY_ATOM_COUNT>
22

> <PUBCHEM_ATOM_DEF_STEREO_COUNT>
0

> <PUBCHEM_ATOM_UDEF_STEREO_COUNT>
0

> <PUBCHEM_BOND_DEF_STEREO_COUNT>
1

> <PUBCHEM_BOND_UDEF_STEREO_COUNT>
0

> <PUBCHEM_ISOTOPIC_ATOM_COUNT>
0

> <PUBCHEM_COMPONENT_COUNT>
1

> <PUBCHEM_CACTVS_TAUTO_COUNT>
1

> <PUBCHEM_CONFORMER_ID>
002E45DB00000001

> <PUBCHEM_MMFF94_ENERGY>
84.8584

> <PUBCHEM_FEATURE_SELFOVERLAP>
30.447

> <PUBCHEM_SHAPE_FINGERPRINT>
10906281 52 18115039498055273641
11796584 16 16153710920694621729
12011746 2 18410575088958046459
12236239 1 18410855438653325465
13288520 33 16200150998081454937
13533116 47 17822002065762154234
13583140 156 17240769513944283912
13911987 19 18187655716407511557
14787075 74 17418087750034851809
15048467 5 15719110262139125783
15849732 13 18410575119028099037
1813 80 18343310248931623341
18222031 100 18411416211116603385
18681886 176 18200867478745585211
200 152 17095523985229268720
21267235 1 16200434688944759811
23035841 295 17561081406080245887
23402539 116 18413386540633452838
23559900 14 16630231606504257330
23569943 247 17487354637771032038
23576562 1 18042686289992057621
26918003 58 16370729231550530184
283562 15 18269560450711335816
300161 21 15574712503880468105
3004659 81 16370998560570562288
3009799 131 18113053839699723293
34797466 226 17095252401467490118
3545911 37 15841833347716384963
4072396 5 18187917353083438067
4214541 1 15626226797106209209
4340502 62 15267340725811759516
465052 167 18114187453678910115
5486654 2 18040157322895759226
57003041 33 18335421244422328071
59755656 215 17418376869858293735
59755656 520 18130784564241167279
67856867 119 14924524042384519222
7495541 125 17458634457865754281

> <PUBCHEM_SHAPE_MULTIPOLES>
441.01
13.6
1.65
1.41
0
0
0.17
0
-2.13
0
-0.56
0
0
-0.27

> <PUBCHEM_SHAPE_SELFOVERLAP>
928.913

> <PUBCHEM_SHAPE_VOLUME>
250.4

> <PUBCHEM_COORDINATE_TYPE>
2
5
10

$$$$
