3878
 OpenBabel07292612043D

 23 24  0  0  0  0  0  0  0  0999 V2000
   -1.0531    2.3027   -0.1326 Cl  0  0  0  0  0  0  0  0  0  0  0  0
   -4.2105    1.7012   -0.0686 Cl  0  0  0  0  0  0  0  0  0  0  0  0
    1.2979   -0.0178    1.3500 N   0  0  0  0  0  0  0  0  0  0  0  0
    2.8160   -0.1165   -0.9692 N   0  0  0  0  0  0  0  0  0  0  0  0
    0.9268   -0.4678   -2.2720 N   0  0  0  0  0  0  0  0  0  0  0  0
    2.6522    0.1052    1.3870 N   0  0  0  0  0  0  0  0  0  0  0  0
    4.7401    0.1409    0.3075 N   0  0  0  0  0  0  0  0  0  0  0  0
   -0.7482   -0.3896    0.1788 C   0  0  0  0  0  0  0  0  0  0  0  0
    0.7021   -0.2015    0.1556 C   0  0  0  0  0  0  0  0  0  0  0  0
   -1.6552    0.6830    0.0614 C   0  0  0  0  0  0  0  0  0  0  0  0
   -1.2608   -1.6960    0.3120 C   0  0  0  0  0  0  0  0  0  0  0  0
    1.4777   -0.2360   -1.0045 C   0  0  0  0  0  0  0  0  0  0  0  0
   -3.0382    0.4366    0.0782 C   0  0  0  0  0  0  0  0  0  0  0  0
   -2.6339   -1.9345    0.3212 C   0  0  0  0  0  0  0  0  0  0  0  0
   -3.5215   -0.8690    0.2052 C   0  0  0  0  0  0  0  0  0  0  0  0
    3.3636    0.0344    0.2436 C   0  0  0  0  0  0  0  0  0  0  0  0
    1.5085   -0.4844   -3.0660 H   0  0  0  0  0  0  0  0  0  0  0  0
   -0.0420   -0.6142   -2.3683 H   0  0  0  0  0  0  0  0  0  0  0  0
    5.2764    0.0916   -0.5166 H   0  0  0  0  0  0  0  0  0  0  0  0
    5.1843    0.2660    1.1771 H   0  0  0  0  0  0  0  0  0  0  0  0
   -0.6078   -2.4897    0.4044 H   0  0  0  0  0  0  0  0  0  0  0  0
   -2.9913   -2.8982    0.4138 H   0  0  0  0  0  0  0  0  0  0  0  0
   -4.5387   -1.0430    0.2129 H   0  0  0  0  0  0  0  0  0  0  0  0
  1 10  1  0  0  0  0
  2 13  1  0  0  0  0
  3  6  2  0  0  0  0
  3  9  1  0  0  0  0
  4 12  1  0  0  0  0
  4 16  2  0  0  0  0
  5 12  1  0  0  0  0
  5 17  1  0  0  0  0
  5 18  1  0  0  0  0
  6 16  1  0  0  0  0
  7 16  1  0  0  0  0
  7 19  1  0  0  0  0
  7 20  1  0  0  0  0
  8  9  1  0  0  0  0
  8 10  2  0  0  0  0
  8 11  1  0  0  0  0
  9 12  2  0  0  0  0
 10 13  1  0  0  0  0
 11 14  2  0  0  0  0
 11 21  1  0  0  0  0
 13 15  2  0  0  0  0
 14 15  1  0  0  0  0
 14 22  1  0  0  0  0
 15 23  1  0  0  0  0
M  END
>  <PUBCHEM_COMPOUND_CID>
3878

>  <PUBCHEM_CONFORMER_RMSD>
0.6

>  <PUBCHEM_CONFORMER_DIVERSEORDER>
1
3
2

>  <PUBCHEM_MMFF94_PARTIAL_CHARGES>
22
1 -0.18
10 0.18
11 -0.15
12 0.41
13 0.18
14 -0.15
15 -0.15
16 0.72
17 0.15
18 0.15
19 0.15
2 -0.18
20 0.4
21 0.4
22 0.4
23 0.4
3 -0.31
4 -0.62
5 -0.9
6 -0.31
7 -0.9
9 0.31

>  <PUBCHEM_EFFECTIVE_ROTOR_COUNT>
1

>  <PUBCHEM_PHARMACOPHORE_FEATURES>
6
1 5 cation
1 5 donor
1 7 donor
4 4 6 7 16 cation
6 3 4 6 9 12 16 rings
6 8 10 11 13 14 15 rings

>  <PUBCHEM_HEAVY_ATOM_COUNT>
16

>  <PUBCHEM_ATOM_DEF_STEREO_COUNT>
0

>  <PUBCHEM_ATOM_UDEF_STEREO_COUNT>
0

>  <PUBCHEM_BOND_DEF_STEREO_COUNT>
0

>  <PUBCHEM_BOND_UDEF_STEREO_COUNT>
0

>  <PUBCHEM_ISOTOPIC_ATOM_COUNT>
0

>  <PUBCHEM_COMPONENT_COUNT>
1

>  <PUBCHEM_CACTVS_TAUTO_COUNT>
9

>  <PUBCHEM_CONFORMER_ID>
00000F2600000001

>  <PUBCHEM_MMFF94_ENERGY>
59.2673

>  <PUBCHEM_FEATURE_SELFOVERLAP>
30.446

>  <PUBCHEM_SHAPE_FINGERPRINT>
11132069 177 18410578362076832981
12119455 92 17418086611863197630
12236239 1 17530682125701426739
124424 183 17988922249910282586
12500047 106 18411976957799358915
13214271 11 18272929444743832717
13538477 17 17967816050372837571
13581323 91 18333730234214821202
14115302 16 17386850697942004195
15219456 202 17917999355829537686
15375358 24 18131914836545529349
15775835 57 18113618950137550633
16945 1 18409451375648519169
17846911 113 18337951199651695889
18175812 5 17988922314033975080
18186145 218 18059308551829635555
19049666 15 17844823485478084671
200 152 15864064412295054819
20201158 50 17632864104931068791
20279233 1 17917715703441577455
20344682 1 17846778515957669485
20510252 161 18341334405530801673
20645477 56 18410578366493074177
20645477 70 16773522057632256334
22112679 90 17822582684641162837
22802520 49 17985850141407767623
232386 152 18188212125336977543
23402539 116 18341041965106795893
23557571 272 18343028812619569957
23559900 14 18341899546175993678
2748010 2 18266734869653652969
350125 39 17688315581998152249
474 4 16734966767988122788
7364860 26 18124876750715428995
77492 1 17458345259983957363
81228 2 18268733639790153193

>  <PUBCHEM_SHAPE_MULTIPOLES>
308.11
6.91
1.76
1.19
2.66
0.27
-0.44
1.33
0.84
-2.17
0.08
0.94
-0.09
0.23

>  <PUBCHEM_SHAPE_SELFOVERLAP>
650.01

>  <PUBCHEM_SHAPE_VOLUME>
172.7

>  <PUBCHEM_COORDINATE_TYPE>
2
5
10

>  <Energy>
2.65888

$$$$
