4946
 OpenBabel07292612043D

 41 42  0  0  1  0  0  0  0  0999 V2000
    0.3551    1.4550    0.6861 O   0  0  0  0  0  0  0  0  0  0  0  0
    2.9092    2.1834    1.9526 O   0  0  0  0  0  0  0  0  0  0  0  0
    3.0368   -0.4536   -0.6802 N   0  3  0  0  0  0  0  0  0  0  0  0
    2.7908    1.6761    0.6156 C   0  0  1  0  0  0  0  0  0  0  0  0
    3.0147    0.1509    0.6580 C   0  0  0  0  0  0  0  0  0  0  0  0
    3.2477   -1.9080   -0.6584 C   0  0  0  0  0  0  0  0  0  0  0  0
    1.4420    2.0665   -0.0197 C   0  0  0  0  0  0  0  0  0  0  0  0
    3.2844   -2.4007   -2.1080 C   0  0  0  0  0  0  0  0  0  0  0  0
    2.1601   -2.6647    0.1081 C   0  0  0  0  0  0  0  0  0  0  0  0
   -0.7893    1.2417   -0.0513 C   0  0  0  0  0  0  0  0  0  0  0  0
   -1.6044    0.1446    0.3221 C   0  0  0  0  0  0  0  0  0  0  0  0
   -2.7876   -0.1139   -0.4157 C   0  0  0  0  0  0  0  0  0  0  0  0
   -1.1744    2.0788   -1.1047 C   0  0  0  0  0  0  0  0  0  0  0  0
   -1.2925   -0.7179    1.3960 C   0  0  0  0  0  0  0  0  0  0  0  0
   -3.1329    0.7223   -1.4864 C   0  0  0  0  0  0  0  0  0  0  0  0
   -2.3363    1.8132   -1.8261 C   0  0  0  0  0  0  0  0  0  0  0  0
   -3.6052   -1.2036   -0.0684 C   0  0  0  0  0  0  0  0  0  0  0  0
   -2.1181   -1.7958    1.7303 C   0  0  0  0  0  0  0  0  0  0  0  0
   -3.2723   -2.0385    0.9960 C   0  0  0  0  0  0  0  0  0  0  0  0
    3.7665    1.9213    2.3232 H   0  0  0  0  0  0  0  0  0  0  0  0
    3.7913   -0.0251   -1.2164 H   0  0  0  0  0  0  0  0  0  0  0  0
    2.1229   -0.2874   -1.1016 H   0  0  0  0  0  0  0  0  0  0  0  0
    3.5359    2.1159   -0.0140 H   0  0  0  0  0  0  0  0  0  0  0  0
    3.9506   -0.0450    1.1382 H   0  0  0  0  0  0  0  0  0  0  0  0
    2.1973   -0.2820    1.1960 H   0  0  0  0  0  0  0  0  0  0  0  0
    4.1681   -2.1003   -0.1477 H   0  0  0  0  0  0  0  0  0  0  0  0
    1.3309    3.1300    0.0170 H   0  0  0  0  0  0  0  0  0  0  0  0
    1.4281    1.7271   -1.0344 H   0  0  0  0  0  0  0  0  0  0  0  0
    2.3478   -2.1894   -2.5803 H   0  0  0  0  0  0  0  0  0  0  0  0
    3.4606   -3.4560   -2.1216 H   0  0  0  0  0  0  0  0  0  0  0  0
    4.0703   -1.9010   -2.6348 H   0  0  0  0  0  0  0  0  0  0  0  0
    1.2137   -2.5046   -0.3647 H   0  0  0  0  0  0  0  0  0  0  0  0
    2.1203   -2.3079    1.1160 H   0  0  0  0  0  0  0  0  0  0  0  0
    2.3862   -3.7105    0.1086 H   0  0  0  0  0  0  0  0  0  0  0  0
   -0.5947    2.8971   -1.3484 H   0  0  0  0  0  0  0  0  0  0  0  0
   -0.4361   -0.5489    1.9464 H   0  0  0  0  0  0  0  0  0  0  0  0
   -3.9882    0.5271   -2.0300 H   0  0  0  0  0  0  0  0  0  0  0  0
   -2.6067    2.4247   -2.6121 H   0  0  0  0  0  0  0  0  0  0  0  0
   -4.4644   -1.3877   -0.6097 H   0  0  0  0  0  0  0  0  0  0  0  0
   -1.8704   -2.4104    2.5215 H   0  0  0  0  0  0  0  0  0  0  0  0
   -3.8816   -2.8353    1.2386 H   0  0  0  0  0  0  0  0  0  0  0  0
  1  7  1  0  0  0  0
  1 10  1  0  0  0  0
  2  4  1  0  0  0  0
  2 20  1  0  0  0  0
  3  5  1  0  0  0  0
  3  6  1  0  0  0  0
  3 21  1  0  0  0  0
  3 22  1  0  0  0  0
  4  5  1  0  0  0  0
  4  7  1  0  0  0  0
  4 23  1  6  0  0  0
  5 24  1  0  0  0  0
  5 25  1  0  0  0  0
  6  8  1  0  0  0  0
  6  9  1  0  0  0  0
  6 26  1  0  0  0  0
  7 27  1  0  0  0  0
  7 28  1  0  0  0  0
  8 29  1  0  0  0  0
  8 30  1  0  0  0  0
  8 31  1  0  0  0  0
  9 32  1  0  0  0  0
  9 33  1  0  0  0  0
  9 34  1  0  0  0  0
 10 11  1  0  0  0  0
 10 13  2  0  0  0  0
 11 12  1  0  0  0  0
 11 14  2  0  0  0  0
 12 15  1  0  0  0  0
 12 17  2  0  0  0  0
 13 16  1  0  0  0  0
 13 35  1  0  0  0  0
 14 18  1  0  0  0  0
 14 36  1  0  0  0  0
 15 16  2  0  0  0  0
 15 37  1  0  0  0  0
 16 38  1  0  0  0  0
 17 19  1  0  0  0  0
 17 39  1  0  0  0  0
 18 19  2  0  0  0  0
 18 40  1  0  0  0  0
 19 41  1  0  0  0  0
M  CHG  1   3   1
M  END
>  <PUBCHEM_COMPOUND_CID>
4946

>  <PUBCHEM_CONFORMER_RMSD>
0.8

>  <PUBCHEM_CONFORMER_DIVERSEORDER>
4
53
60
64
88
126
95
111
117
82
85
98
34
91
114
101
115
107
44
50
23
86
49
105
8
80
51
35
32
72
127
113
71
120
55
106
84
93
108
110
13
123
109
10
81
54
47
78
69
124
42
128
118
20
52
41
19
38
26
122
94
67
46
92
12
76
31
68
83
24
112
102
48
59
61
45
125
16
129
37
119
17
43
25
77
30
104
18
11
96
116
66
70
58
65
27
99
79
100
40
121
9
97
36
3
74
56
15
73
7
22
28
103
29
39
1
14
62
57
90
6
63
89
21
33
75
87
2
5

>  <PUBCHEM_MMFF94_PARTIAL_CHARGES>
24
1 -0.36
10 0.08
13 -0.15
14 -0.15
15 -0.15
16 -0.15
17 -0.15
18 -0.15
19 -0.15
2 -0.68
24 0.36
3 -0.9
33 0.4
34 0.15
35 0.15
36 0.15
37 0.15
38 0.15
39 0.15
4 0.28
40 0.15
5 0.27
6 0.27
7 0.28

>  <PUBCHEM_EFFECTIVE_ROTOR_COUNT>
6

>  <PUBCHEM_PHARMACOPHORE_FEATURES>
8
1 1 acceptor
1 2 acceptor
1 2 donor
1 3 cation
1 3 donor
3 6 8 9 hydrophobe
6 10 11 12 13 15 16 rings
6 11 12 14 17 18 19 rings

>  <PUBCHEM_HEAVY_ATOM_COUNT>
19

>  <PUBCHEM_ATOM_DEF_STEREO_COUNT>
0

>  <PUBCHEM_ATOM_UDEF_STEREO_COUNT>
1

>  <PUBCHEM_BOND_DEF_STEREO_COUNT>
0

>  <PUBCHEM_BOND_UDEF_STEREO_COUNT>
0

>  <PUBCHEM_ISOTOPIC_ATOM_COUNT>
0

>  <PUBCHEM_COMPONENT_COUNT>
1

>  <PUBCHEM_CACTVS_TAUTO_COUNT>
1

>  <PUBCHEM_CONFORMER_ID>
0000135200000004

>  <PUBCHEM_MMFF94_ENERGY>
48.1445

>  <PUBCHEM_FEATURE_SELFOVERLAP>
40.624

>  <PUBCHEM_SHAPE_FINGERPRINT>
10764073 3 16891779863723744569
107951 10 15463869315572570790
11137873 295 18271528589467517535
11322862 65 18114178580387122877
11582403 64 16608487621546417140
117890 22 18338804514800192159
12202030 40 18410300219762635500
12363563 72 17842837725066881342
12553582 1 17909275684994469034
13533116 47 18131080367808636259
13544592 145 18335697192166772453
13583140 156 17202488973484293169
15635459 17 18410293639904542514
15848702 151 18339643460069446723
19049666 15 18337100181503678953
20645477 70 18130494293086518612
20693207 138 18409170974207969716
21285901 2 18116421717294074303
22182313 1 18187638137860956835
22802520 49 18333725836405771289
23557571 272 18114459049924943061
23559900 14 18260257543411718180
2748010 2 18334573581160727595
5262128 65 18128814149409786814
7097593 13 13398070804387529238
7987 15 18338254716026127178
81228 2 17967817162959726129
84936 31 17845934129940627906
9709674 26 18335692853875114068

>  <PUBCHEM_SHAPE_MULTIPOLES>
374.29
6.87
3.16
1.81
1.95
0.42
0.25
3.08
1.32
1.11
0.1
0.42
0.11
3.29

>  <PUBCHEM_SHAPE_SELFOVERLAP>
781.704

>  <PUBCHEM_SHAPE_VOLUME>
214.2

>  <PUBCHEM_COORDINATE_TYPE>
2
5
10

>  <Energy>
81.5808

$$$$
