5253
 OpenBabel07292612043D

 39 39  0  0  1  0  0  0  0  0999 V2000
    4.4644    0.7524   -0.2946 S   0  0  0  0  0  0  0  0  0  0  0  0
   -2.4763   -2.1009    0.7286 O   0  0  0  0  0  0  0  0  0  0  0  0
    5.8761    0.5849   -0.0151 O   0  0  0  0  0  0  0  0  0  0  0  0
    3.9631    0.7603   -1.6475 O   0  0  0  0  0  0  0  0  0  0  0  0
   -4.1537   -0.0662   -0.4371 N   0  3  0  0  0  0  0  0  0  0  0  0
    3.6660   -0.4123    0.6292 N   0  0  0  0  0  0  0  0  0  0  0  0
   -1.9444   -1.2231   -0.2651 C   0  0  1  0  0  0  0  0  0  0  0  0
   -2.7047    0.1233   -0.2345 C   0  0  0  0  0  0  0  0  0  0  0  0
   -4.8845    1.2141   -0.3960 C   0  0  0  0  0  0  0  0  0  0  0  0
   -0.4669   -1.0298   -0.0068 C   0  0  0  0  0  0  0  0  0  0  0  0
    0.4694   -1.4342   -0.9668 C   0  0  0  0  0  0  0  0  0  0  0  0
   -0.0034   -0.4294    1.1771 C   0  0  0  0  0  0  0  0  0  0  0  0
   -4.7614    1.9183    0.9588 C   0  0  0  0  0  0  0  0  0  0  0  0
   -6.3562    0.9375   -0.7025 C   0  0  0  0  0  0  0  0  0  0  0  0
    2.2759   -0.6242    0.4194 C   0  0  0  0  0  0  0  0  0  0  0  0
    1.8326   -1.2296   -0.7541 C   0  0  0  0  0  0  0  0  0  0  0  0
    1.3611   -0.2186    1.3870 C   0  0  0  0  0  0  0  0  0  0  0  0
    3.9561    2.2551    0.5124 C   0  0  0  0  0  0  0  0  0  0  0  0
   -3.4245   -2.2310    0.5710 H   0  0  0  0  0  0  0  0  0  0  0  0
   -4.5130   -0.6752    0.2981 H   0  0  0  0  0  0  0  0  0  0  0  0
   -4.2935   -0.4816   -1.3581 H   0  0  0  0  0  0  0  0  0  0  0  0
    4.1554   -0.9372    1.3031 H   0  0  0  0  0  0  0  0  0  0  0  0
   -2.0688   -1.6456   -1.2402 H   0  0  0  0  0  0  0  0  0  0  0  0
   -2.5450    0.5907    0.7147 H   0  0  0  0  0  0  0  0  0  0  0  0
   -2.3330    0.7355   -1.0294 H   0  0  0  0  0  0  0  0  0  0  0  0
   -4.4546    1.8689   -1.1249 H   0  0  0  0  0  0  0  0  0  0  0  0
    0.1486   -1.8864   -1.8372 H   0  0  0  0  0  0  0  0  0  0  0  0
   -0.6804   -0.1407    1.9005 H   0  0  0  0  0  0  0  0  0  0  0  0
   -5.1805    1.2975    1.7229 H   0  0  0  0  0  0  0  0  0  0  0  0
   -5.2885    2.8489    0.9262 H   0  0  0  0  0  0  0  0  0  0  0  0
   -3.7291    2.1004    1.1735 H   0  0  0  0  0  0  0  0  0  0  0  0
   -6.7582    0.2816    0.0412 H   0  0  0  0  0  0  0  0  0  0  0  0
   -6.4398    0.4787   -1.6655 H   0  0  0  0  0  0  0  0  0  0  0  0
   -6.9007    1.8585   -0.6977 H   0  0  0  0  0  0  0  0  0  0  0  0
    2.5151   -1.5278   -1.4686 H   0  0  0  0  0  0  0  0  0  0  0  0
    1.6891    0.2350    2.2540 H   0  0  0  0  0  0  0  0  0  0  0  0
    4.4000    3.0935    0.0174 H   0  0  0  0  0  0  0  0  0  0  0  0
    4.2724    2.2358    1.5344 H   0  0  0  0  0  0  0  0  0  0  0  0
    2.8902    2.3395    0.4705 H   0  0  0  0  0  0  0  0  0  0  0  0
  1  3  2  0  0  0  0
  1  4  2  0  0  0  0
  1  6  1  0  0  0  0
  1 18  1  0  0  0  0
  2  7  1  0  0  0  0
  2 19  1  0  0  0  0
  5  8  1  0  0  0  0
  5  9  1  0  0  0  0
  5 20  1  0  0  0  0
  5 21  1  0  0  0  0
  6 15  1  0  0  0  0
  6 22  1  0  0  0  0
  7  8  1  0  0  0  0
  7 10  1  0  0  0  0
  7 23  1  6  0  0  0
  8 24  1  0  0  0  0
  8 25  1  0  0  0  0
  9 13  1  0  0  0  0
  9 14  1  0  0  0  0
  9 26  1  0  0  0  0
 10 11  2  0  0  0  0
 10 12  1  0  0  0  0
 11 16  1  0  0  0  0
 11 27  1  0  0  0  0
 12 17  2  0  0  0  0
 12 28  1  0  0  0  0
 13 29  1  0  0  0  0
 13 30  1  0  0  0  0
 13 31  1  0  0  0  0
 14 32  1  0  0  0  0
 14 33  1  0  0  0  0
 14 34  1  0  0  0  0
 15 16  2  0  0  0  0
 15 17  1  0  0  0  0
 16 35  1  0  0  0  0
 17 36  1  0  0  0  0
 18 37  1  0  0  0  0
 18 38  1  0  0  0  0
 18 39  1  0  0  0  0
M  CHG  1   5   1
M  END
>  <PUBCHEM_COMPOUND_CID>
5253

>  <PUBCHEM_CONFORMER_RMSD>
0.8

>  <PUBCHEM_CONFORMER_DIVERSEORDER>
1
81
69
41
35
12
95
19
60
93
88
61
7
92
64
73
65
34
23
66
31
75
16
89
33
72
84
94
30
51
90
85
5
22
77
97
96
38
36
44
25
20
45
42
10
82
67
74
18
24
28
56
43
62
32
87
17
37
78
6
80
47
68
55
57
59
15
53
50
70
21
26
83
40
11
2
48
76
86
71
58
9
13
54
52
27
14
39
79
49
3
63
4
46
8
29
91

>  <PUBCHEM_MMFF94_PARTIAL_CHARGES>
23
1 1.33
10 -0.14
11 -0.15
12 -0.15
15 0.2
16 -0.15
17 -0.15
18 0.11
2 -0.68
23 0.36
24 0.15
25 0.15
3 -0.65
32 0.15
33 0.15
34 0.4
35 0.42
4 -0.65
5 -0.9
6 -0.76
7 0.42
8 0.27
9 0.27

>  <PUBCHEM_EFFECTIVE_ROTOR_COUNT>
6

>  <PUBCHEM_PHARMACOPHORE_FEATURES>
9
1 2 acceptor
1 2 donor
1 3 acceptor
1 4 acceptor
1 5 cation
1 5 donor
1 6 donor
3 9 13 14 hydrophobe
6 10 11 12 15 16 17 rings

>  <PUBCHEM_HEAVY_ATOM_COUNT>
18

>  <PUBCHEM_ATOM_DEF_STEREO_COUNT>
0

>  <PUBCHEM_ATOM_UDEF_STEREO_COUNT>
1

>  <PUBCHEM_BOND_DEF_STEREO_COUNT>
0

>  <PUBCHEM_BOND_UDEF_STEREO_COUNT>
0

>  <PUBCHEM_ISOTOPIC_ATOM_COUNT>
0

>  <PUBCHEM_COMPONENT_COUNT>
1

>  <PUBCHEM_CACTVS_TAUTO_COUNT>
1

>  <PUBCHEM_CONFORMER_ID>
0000148500000001

>  <PUBCHEM_MMFF94_ENERGY>
35.6404

>  <PUBCHEM_FEATURE_SELFOVERLAP>
45.69

>  <PUBCHEM_SHAPE_FINGERPRINT>
100836 57 18410575076336946917
106641 1 13407085816303786796
10670039 82 18201159849548651201
11089746 13 18412537730452092660
11796584 16 10663826269270447405
12596602 18 14634879655604040036
12633257 1 16298938892227310708
12670543 26 17346323661345776710
13551218 46 8214148469058304865
13675066 3 15647330806126066687
14123255 352 18409165506988829965
1420 369 9871749104874572293
14251764 30 13182722785413516221
14252887 29 14418129569898043258
14911166 2 16917348155955039978
15048467 5 18334855021994036076
15188451 53 14129357225452190241
15209294 21 17458341961459656099
15342816 4 12463303496505829340
17834072 32 18413107294354482341
17959699 21 18413389843157647160
18186145 218 17530955900350681090
193927 3 11239720828640475429
19784866 140 13901905601299272855
200 152 12679460880913930635
20281389 69 18187077338921383276
20374829 77 9295282846860561409
20645477 56 18259984868701580215
20645477 70 17203048461240919367
21150785 3 15913321420590807157
21637258 2 11383834827353125732
22079108 93 16805327703856726281
221357 26 16702013154937081657
23402539 116 18335414694639659758
23402655 69 17561078060775313451
23503953 91 15213310728802339803
23557571 272 18336557125917939379
23559900 14 18342177705158980870
26918003 58 13334742306540708445
2838139 119 18410567383934969181
2916195 48 18333729113840221605
29717793 49 12751233714535929473
3060560 45 15841544172190438406
33382 64 10303818695725243780
3472631 163 18261395576184337133
351380 3 10375866381584985941
4047638 21 18187083923232757638
465052 167 8358250475383228312
474 4 17749394784102313132
4990 188 16200146595033094839
5104073 3 17967245429650186882
56616090 163 18343023298198365383
59682541 52 16844727500600458037
633830 44 18188483705146771182
76465 3 8718820977485910897
8272917 22 18261107431762173690

>  <PUBCHEM_SHAPE_MULTIPOLES>
346.71
13.04
1.9
1.17
6.84
0.39
-0.02
8.82
2.72
0.22
-0.15
-0.33
0.01
-0.01

>  <PUBCHEM_SHAPE_SELFOVERLAP>
683.273

>  <PUBCHEM_SHAPE_VOLUME>
209.3

>  <PUBCHEM_COORDINATE_TYPE>
2
5
10

>  <Energy>
-4.69216

$$$$
