10836
 OpenBabel07292612043D

 27 27  0  0  1  0  0  0  0  0999 V2000
   -3.2903    0.1116   -0.0618 N   0  3  0  0  0  0  0  0  0  0  0  0
   -1.8599    0.2483   -0.4113 C   0  0  2  0  0  0  0  0  0  0  0  0
   -0.9179   -0.2064    0.7295 C   0  0  0  0  0  0  0  0  0  0  0  0
    0.5515   -0.1552    0.3758 C   0  0  0  0  0  0  0  0  0  0  0  0
   -1.6346    1.7252   -0.7719 C   0  0  0  0  0  0  0  0  0  0  0  0
    1.1613   -1.2282   -0.2858 C   0  0  0  0  0  0  0  0  0  0  0  0
    1.3209    0.9671    0.7104 C   0  0  0  0  0  0  0  0  0  0  0  0
   -3.6804   -1.2578    0.2469 C   0  0  0  0  0  0  0  0  0  0  0  0
    2.5198   -1.1801   -0.6029 C   0  0  0  0  0  0  0  0  0  0  0  0
    2.6757    1.0176    0.3819 C   0  0  0  0  0  0  0  0  0  0  0  0
    3.2745   -0.0569   -0.2709 C   0  0  0  0  0  0  0  0  0  0  0  0
   -3.8488    0.4371   -0.8509 H   0  0  0  0  0  0  0  0  0  0  0  0
   -3.4503    0.6677    0.7781 H   0  0  0  0  0  0  0  0  0  0  0  0
   -1.6235   -0.3925   -1.2350 H   0  0  0  0  0  0  0  0  0  0  0  0
   -1.1661   -1.2146    0.9882 H   0  0  0  0  0  0  0  0  0  0  0  0
   -1.0637    0.4767    1.5401 H   0  0  0  0  0  0  0  0  0  0  0  0
   -1.8789    2.3391    0.0697 H   0  0  0  0  0  0  0  0  0  0  0  0
   -2.2591    1.9895   -1.5995 H   0  0  0  0  0  0  0  0  0  0  0  0
   -0.6088    1.8751   -1.0369 H   0  0  0  0  0  0  0  0  0  0  0  0
    0.6036   -2.0584   -0.5402 H   0  0  0  0  0  0  0  0  0  0  0  0
    0.8826    1.7611    1.2029 H   0  0  0  0  0  0  0  0  0  0  0  0
   -3.5266   -1.8751   -0.6134 H   0  0  0  0  0  0  0  0  0  0  0  0
   -4.7142   -1.2807    0.5221 H   0  0  0  0  0  0  0  0  0  0  0  0
   -3.0870   -1.6232    1.0589 H   0  0  0  0  0  0  0  0  0  0  0  0
    2.9656   -1.9771   -1.0837 H   0  0  0  0  0  0  0  0  0  0  0  0
    3.2343    1.8513    0.6226 H   0  0  0  0  0  0  0  0  0  0  0  0
    4.2780   -0.0212   -0.5089 H   0  0  0  0  0  0  0  0  0  0  0  0
  1  2  1  0  0  0  0
  1  8  1  0  0  0  0
  1 12  1  0  0  0  0
  1 13  1  0  0  0  0
  2  3  1  0  0  0  0
  2  5  1  0  0  0  0
  2 14  1  6  0  0  0
  3  4  1  0  0  0  0
  3 15  1  0  0  0  0
  3 16  1  0  0  0  0
  4  6  2  0  0  0  0
  4  7  1  0  0  0  0
  5 17  1  0  0  0  0
  5 18  1  0  0  0  0
  5 19  1  0  0  0  0
  6  9  1  0  0  0  0
  6 20  1  0  0  0  0
  7 10  2  0  0  0  0
  7 21  1  0  0  0  0
  8 22  1  0  0  0  0
  8 23  1  0  0  0  0
  8 24  1  0  0  0  0
  9 11  2  0  0  0  0
  9 25  1  0  0  0  0
 10 11  1  0  0  0  0
 10 26  1  0  0  0  0
 11 27  1  0  0  0  0
M  CHG  1   1   1
M  END
>  <PUBCHEM_COMPOUND_CID>
10836

>  <PUBCHEM_CONFORMER_RMSD>
0.6

>  <PUBCHEM_CONFORMER_DIVERSEORDER>
1
3
2
4
5
7
6

>  <PUBCHEM_MMFF94_PARTIAL_CHARGES>
16
1 -0.9
10 -0.15
11 -0.15
18 0.36
19 0.15
2 0.27
20 0.15
24 0.15
25 0.15
26 0.15
3 0.14
4 -0.14
6 -0.15
7 -0.15
8 0.27
9 -0.15

>  <PUBCHEM_EFFECTIVE_ROTOR_COUNT>
3

>  <PUBCHEM_PHARMACOPHORE_FEATURES>
3
1 1 cation
1 1 donor
6 4 6 7 9 10 11 rings

>  <PUBCHEM_HEAVY_ATOM_COUNT>
11

>  <PUBCHEM_ATOM_DEF_STEREO_COUNT>
1

>  <PUBCHEM_ATOM_UDEF_STEREO_COUNT>
0

>  <PUBCHEM_BOND_DEF_STEREO_COUNT>
0

>  <PUBCHEM_BOND_UDEF_STEREO_COUNT>
0

>  <PUBCHEM_ISOTOPIC_ATOM_COUNT>
0

>  <PUBCHEM_COMPONENT_COUNT>
1

>  <PUBCHEM_CACTVS_TAUTO_COUNT>
1

>  <PUBCHEM_CONFORMER_ID>
00002A5400000001

>  <PUBCHEM_MMFF94_ENERGY>
21.5113

>  <PUBCHEM_FEATURE_SELFOVERLAP>
15.223

>  <PUBCHEM_SHAPE_FINGERPRINT>
10608611 8 18410568474809098377
12897270 3 18409443670187065861
12932764 1 18115028498168930739
14325111 11 18412825797871156857
14993402 34 14779266418914809330
15219456 202 18412541002911210521
15310529 11 18343015562729838527
15775835 57 18131350860021019500
16945 1 18131340912987447044
17844478 74 18410015442145783393
18175812 5 18411136956959562759
19973954 147 18337388240702281588
20201158 50 18412545396647053547
20645477 70 18131347462892059079
21293036 1 18343591750278868244
21501502 16 18190459367973843584
22802520 49 18267299824787186916
23402539 116 17968085447748661022
23402655 69 18272084976864099237
5084963 1 18409451379627085864
57812782 119 18408880733050007054
8030462 33 17167861920119184273

>  <PUBCHEM_SHAPE_MULTIPOLES>
221.39
5.63
1.52
0.84
2.2
0.17
0
-0.97
0.24
0.16
0.21
-0.01
0.09
0.72

>  <PUBCHEM_SHAPE_SELFOVERLAP>
443.145

>  <PUBCHEM_SHAPE_VOLUME>
131.4

>  <PUBCHEM_COORDINATE_TYPE>
2
5
10

>  <Energy>
31.9921

$$$$
