5283387
 OpenBabel07292612043D

 55 54  0  0  0  0  0  0  0  0999 V2000
   -7.9344    1.2780   -1.2598 O   0  0  0  0  0  0  0  0  0  0  0  0
   -8.3278    2.8581    0.3078 N   0  0  0  0  0  0  0  0  0  0  0  0
    5.1997    0.0543    0.0544 C   0  0  0  0  0  0  0  0  0  0  0  0
    4.0685   -0.5545   -0.7866 C   0  0  0  0  0  0  0  0  0  0  0  0
   -2.0130   -1.1282    0.8035 C   0  0  0  0  0  0  0  0  0  0  0  0
   -3.2680   -0.8039   -0.0151 C   0  0  0  0  0  0  0  0  0  0  0  0
    5.7061    1.3828   -0.5299 C   0  0  0  0  0  0  0  0  0  0  0  0
    3.5233   -1.8516   -0.1717 C   0  0  0  0  0  0  0  0  0  0  0  0
   -1.2275   -2.3010    0.2011 C   0  0  0  0  0  0  0  0  0  0  0  0
   -4.1044    0.3138    0.6171 C   0  0  0  0  0  0  0  0  0  0  0  0
    6.7910    2.0186    0.3504 C   0  0  0  0  0  0  0  0  0  0  0  0
    2.3507   -2.4134   -0.9833 C   0  0  0  0  0  0  0  0  0  0  0  0
    0.0272   -2.6194    1.0199 C   0  0  0  0  0  0  0  0  0  0  0  0
   -5.3854    0.5632   -0.1855 C   0  0  0  0  0  0  0  0  0  0  0  0
    7.3507    3.3115   -0.2526 C   0  0  0  0  0  0  0  0  0  0  0  0
    1.8229   -3.6960   -0.3979 C   0  0  0  0  0  0  0  0  0  0  0  0
    0.7871   -3.7881    0.4527 C   0  0  0  0  0  0  0  0  0  0  0  0
   -6.2500    1.6547    0.4580 C   0  0  0  0  0  0  0  0  0  0  0  0
    8.4699    3.8873    0.6061 C   0  0  0  0  0  0  0  0  0  0  0  0
   -7.5610    1.8847   -0.2638 C   0  0  0  0  0  0  0  0  0  0  0  0
   -9.2019    3.0885   -0.0821 H   0  0  0  0  0  0  0  0  0  0  0  0
   -8.0068    3.3299    1.1100 H   0  0  0  0  0  0  0  0  0  0  0  0
    6.0139   -0.6390    0.0906 H   0  0  0  0  0  0  0  0  0  0  0  0
    4.8129    0.2514    1.0324 H   0  0  0  0  0  0  0  0  0  0  0  0
    4.4434   -0.7681   -1.7657 H   0  0  0  0  0  0  0  0  0  0  0  0
    3.2676    0.1543   -0.8228 H   0  0  0  0  0  0  0  0  0  0  0  0
   -2.3060   -1.3832    1.8005 H   0  0  0  0  0  0  0  0  0  0  0  0
   -1.3799   -0.2656    0.7977 H   0  0  0  0  0  0  0  0  0  0  0  0
   -3.8699   -1.6858   -0.0855 H   0  0  0  0  0  0  0  0  0  0  0  0
   -2.9506   -0.4683   -0.9803 H   0  0  0  0  0  0  0  0  0  0  0  0
    4.8830    2.0619   -0.6092 H   0  0  0  0  0  0  0  0  0  0  0  0
    6.1338    1.1813   -1.4898 H   0  0  0  0  0  0  0  0  0  0  0  0
    3.1903   -1.6499    0.8250 H   0  0  0  0  0  0  0  0  0  0  0  0
    4.3090   -2.5779   -0.1733 H   0  0  0  0  0  0  0  0  0  0  0  0
   -0.9358   -2.0474   -0.7967 H   0  0  0  0  0  0  0  0  0  0  0  0
   -1.8590   -3.1647    0.2070 H   0  0  0  0  0  0  0  0  0  0  0  0
   -3.5255    1.2134    0.6403 H   0  0  0  0  0  0  0  0  0  0  0  0
   -4.3761    0.0168    1.6085 H   0  0  0  0  0  0  0  0  0  0  0  0
    7.5922    1.3190    0.4671 H   0  0  0  0  0  0  0  0  0  0  0  0
    6.3444    2.2645    1.2912 H   0  0  0  0  0  0  0  0  0  0  0  0
    2.6812   -2.6004   -1.9836 H   0  0  0  0  0  0  0  0  0  0  0  0
    1.5606   -1.6920   -0.9652 H   0  0  0  0  0  0  0  0  0  0  0  0
   -0.2642   -2.8506    2.0232 H   0  0  0  0  0  0  0  0  0  0  0  0
    0.6676   -1.7627    0.9914 H   0  0  0  0  0  0  0  0  0  0  0  0
   -5.9493   -0.3450   -0.2309 H   0  0  0  0  0  0  0  0  0  0  0  0
   -5.1083    0.8897   -1.1661 H   0  0  0  0  0  0  0  0  0  0  0  0
    6.5624    4.0313   -0.3254 H   0  0  0  0  0  0  0  0  0  0  0  0
    7.7503    3.0864   -1.2194 H   0  0  0  0  0  0  0  0  0  0  0  0
    2.2934   -4.5728   -0.6714 H   0  0  0  0  0  0  0  0  0  0  0  0
    0.4894   -4.7337    0.7395 H   0  0  0  0  0  0  0  0  0  0  0  0
   -5.6967    2.5706    0.4570 H   0  0  0  0  0  0  0  0  0  0  0  0
   -6.4872    1.3275    1.4487 H   0  0  0  0  0  0  0  0  0  0  0  0
    8.0896    4.1194    1.5789 H   0  0  0  0  0  0  0  0  0  0  0  0
    8.8478    4.7779    0.1491 H   0  0  0  0  0  0  0  0  0  0  0  0
    9.2581    3.1690    0.6933 H   0  0  0  0  0  0  0  0  0  0  0  0
  1 20  2  0  0  0  0
  2 20  1  0  0  0  0
  2 21  1  0  0  0  0
  2 22  1  0  0  0  0
  3  4  1  0  0  0  0
  3  7  1  0  0  0  0
  3 23  1  0  0  0  0
  3 24  1  0  0  0  0
  4  8  1  0  0  0  0
  4 25  1  0  0  0  0
  4 26  1  0  0  0  0
  5  6  1  0  0  0  0
  5  9  1  0  0  0  0
  5 27  1  0  0  0  0
  5 28  1  0  0  0  0
  6 10  1  0  0  0  0
  6 29  1  0  0  0  0
  6 30  1  0  0  0  0
  7 11  1  0  0  0  0
  7 31  1  0  0  0  0
  7 32  1  0  0  0  0
  8 12  1  0  0  0  0
  8 33  1  0  0  0  0
  8 34  1  0  0  0  0
  9 13  1  0  0  0  0
  9 35  1  0  0  0  0
  9 36  1  0  0  0  0
 10 14  1  0  0  0  0
 10 37  1  0  0  0  0
 10 38  1  0  0  0  0
 11 15  1  0  0  0  0
 11 39  1  0  0  0  0
 11 40  1  0  0  0  0
 12 16  1  0  0  0  0
 12 41  1  0  0  0  0
 12 42  1  0  0  0  0
 13 17  1  0  0  0  0
 13 43  1  0  0  0  0
 13 44  1  0  0  0  0
 14 18  1  0  0  0  0
 14 45  1  0  0  0  0
 14 46  1  0  0  0  0
 15 19  1  0  0  0  0
 15 47  1  0  0  0  0
 15 48  1  0  0  0  0
 16 17  2  0  0  0  0
 16 49  1  0  0  0  0
 17 50  1  0  0  0  0
 18 20  1  0  0  0  0
 18 51  1  0  0  0  0
 18 52  1  0  0  0  0
 19 53  1  0  0  0  0
 19 54  1  0  0  0  0
 19 55  1  0  0  0  0
M  END
>  <PUBCHEM_COMPOUND_CID>
5283387

>  <PUBCHEM_CONFORMER_RMSD>
1.4

>  <PUBCHEM_CONFORMER_DIVERSEORDER>
1
23
40
31
89
71
22
6
37
9
35
19
4
83
39
72
101
5
51
34
99
98
100
94
68
49
105
78
54
76
13
43
48
11
60
75
84
36
25
45
87
16
92
29
20
28
21
12
3
106
63
57
33
62
96
97
53
86
59
32
102
82
17
47
10
56
64
55
81
69
7
50
42
15
24
93
79
61
8
74
103
27
41
80
46
52
91
38
66
26
70
58
65
44
30
2
104
18
77
73
85
90
14
88
67
95

>  <PUBCHEM_MMFF94_PARTIAL_CHARGES>
12
1 -0.57
12 0.14
13 0.14
16 -0.29
17 -0.29
18 0.06
2 -0.8
20 0.57
47 0.15
48 0.15
54 0.37
55 0.37

>  <PUBCHEM_EFFECTIVE_ROTOR_COUNT>
15

>  <PUBCHEM_PHARMACOPHORE_FEATURES>
3
1 1 acceptor
1 19 hydrophobe
1 2 donor

>  <PUBCHEM_HEAVY_ATOM_COUNT>
20

>  <PUBCHEM_ATOM_DEF_STEREO_COUNT>
0

>  <PUBCHEM_ATOM_UDEF_STEREO_COUNT>
0

>  <PUBCHEM_BOND_DEF_STEREO_COUNT>
1

>  <PUBCHEM_BOND_UDEF_STEREO_COUNT>
0

>  <PUBCHEM_ISOTOPIC_ATOM_COUNT>
0

>  <PUBCHEM_COMPONENT_COUNT>
1

>  <PUBCHEM_CACTVS_TAUTO_COUNT>
2

>  <PUBCHEM_CONFORMER_ID>
00509E3B00000001

>  <PUBCHEM_MMFF94_ENERGY>
4.8674

>  <PUBCHEM_FEATURE_SELFOVERLAP>
15.223

>  <PUBCHEM_SHAPE_FINGERPRINT>
10280341 67 18271234045681480784
10740516 88 10591756627976420325
11135609 127 18337384916914636999
11135609 187 18412265042941748161
11421887 103 18337099163966935956
11476731 99 17391049471183200349
12821665 9 18412822496154909343
14223995 32 18197496432436437792
14251764 30 9151181939382309146
14931854 50 17846506932686261048
15152005 77 11386354972123336073
15803439 3 16702028621061697814
16120349 189 18339081592273704470
20165401 70 8430014457516181593
21095086 4 8935011369208636712
21298829 104 18409731776451253285
21682296 61 10087633806794828591
23522609 53 17344641336189669763
270888 7 18410856594590696458
2748736 6 18410852196554364600
34797466 226 18056482756077128775
393628 179 18059568148776555256
393628 194 18264208182926865116
56633871 153 11097855232970667992
58260988 114 11170728613529957886
58260988 647 9799683818708454023
6327066 14 18340206388373912798
636775 8 8357721603051151224

>  <PUBCHEM_SHAPE_MULTIPOLES>
400.74
27.6
5.65
0.94
13.02
0.89
-0.05
-49.39
-1.61
-7
0.48
0.2
0.14
1.71

>  <PUBCHEM_SHAPE_SELFOVERLAP>
733.782

>  <PUBCHEM_SHAPE_VOLUME>
253.6

>  <PUBCHEM_COORDINATE_TYPE>
2
5
10

>  <Energy>
-22.5614

$$$$
