444732


 24 24  0  0  0  0  0  0  0  0999 V2000
    0.0801    6.7696    5.6201 C   0  0  0  0  0  0  0  0  0  0  0  0
    1.4164    7.1746    6.2440 C   0  0  0  0  0  0  0  0  0  0  0  0
   -0.5807    5.7013    6.4552 C   0  0  0  0  0  0  0  0  0  0  0  0
   -0.3526    5.3946    7.7504 C   0  0  0  0  0  0  0  0  0  0  0  0
    0.6849    6.0755    8.6047 C   0  0  0  0  0  0  0  0  0  0  0  0
   -1.1457    4.3278    8.3682 C   0  0  0  0  0  0  0  0  0  0  0  0
   -1.5992    4.3046    9.6312 C   0  0  0  0  0  0  0  0  0  0  0  0
   -2.7363    2.2182    9.3887 O   0  0  0  0  0  0  0  0  0  0  0  0
   -3.4631    2.2200   11.9964 O   0  0  0  0  0  0  0  0  0  0  0  0
   -2.7041    3.2638   11.4496 N   0  0  0  0  0  0  0  0  0  0  0  0
   -2.4005    3.1463   10.1171 C   0  0  0  0  0  0  0  0  0  0  0  0
   -2.5141    4.0568   12.0519 H   0  0  0  0  0  0  0  0  0  0  0  0
   -2.7556    1.6793   12.3866 H   0  0  0  0  0  0  0  0  0  0  0  0
   -0.4637    5.3591    3.7376 O   0  0  0  0  0  0  0  0  0  0  0  0
    0.3089    6.1845    4.2244 C   0  0  0  0  0  0  0  0  0  0  0  0
    1.4812    6.6286    3.4152 C   0  0  0  0  0  0  0  0  0  0  0  0
    3.6440    7.4464    1.9229 C   0  0  0  0  0  0  0  0  0  0  0  0
    1.5865    6.1942    2.1135 C   0  0  0  0  0  0  0  0  0  0  0  0
    2.4127    7.4548    4.0016 C   0  0  0  0  0  0  0  0  0  0  0  0
    2.6828    6.6086    1.3571 C   0  0  0  0  0  0  0  0  0  0  0  0
    3.5089    7.8693    3.2453 C   0  0  0  0  0  0  0  0  0  0  0  0
    4.7524    7.8653    1.1581 N   0  0  0  0  0  0  0  0  0  0  0  0
    5.7757    8.7054    1.7478 C   0  0  0  0  0  0  0  0  0  0  0  0
    4.8900    7.4494   -0.2237 C   0  0  0  0  0  0  0  0  0  0  0  0
 14 15  2  0
  8 11  2  0
  9 10  1  0
  9 13  1  0
 22 17  1  0
 22 23  1  0
 22 24  1  0
 10 11  1  0
 10 12  1  0
  1 15  1  0
  1  3  1  0
  1  2  1  0
 15 16  1  0
 16 18  2  0
 16 19  1  0
  3  4  2  0
 17 20  2  0
 17 21  1  0
 18 20  1  0
 19 21  2  0
  4  5  1  0
  4  6  1  0
  6  7  2  0
  7 11  1  0
M  END
> <PUBCHEM_COMPOUND_CID>
444732

> <PUBCHEM_CONFORMER_RMSD>
0.8

> <PUBCHEM_CONFORMER_DIVERSEORDER>
2
40
76
12
44
10
59
54
7
73
38
27
93
70
18
22
43
90
77
26
35
80
60
14
3
96
31
83
49
4
58
69
6
5
21
78
30
55
41
63
39
11
20
89
45
75
84
37
65
48
28
15
57
32
91
72
17
42
8
9
16
13
52
53
33
85
92
29
56
86
81
1
71
87
23
97
79
47
94
68
19
50
46
24
36
62
67
34
74
88
51
66
95
25
61
82
98
64

> <PUBCHEM_MMFF94_PARTIAL_CHARGES>
30
1 -0.57
11 0.1
12 -0.15
13 -0.15
14 -0.15
15 -0.15
16 -0.14
17 0.14
18 0.37
19 0.37
2 -0.57
20 -0.15
21 -0.14
22 0.62
24 0.15
28 0.15
29 0.15
3 -0.44
30 0.15
31 0.15
4 -0.84
41 0.15
42 0.15
43 0.37
44 0.4
5 -0.39
6 0.2
7 0.42
8 0.09
9 -0.29

> <PUBCHEM_EFFECTIVE_ROTOR_COUNT>
7

> <PUBCHEM_PHARMACOPHORE_FEATURES>
7
1 1 acceptor
1 10 hydrophobe
1 17 hydrophobe
1 2 acceptor
1 4 cation
1 5 donor
6 8 11 12 13 14 15 rings

> <PUBCHEM_HEAVY_ATOM_COUNT>
22

> <PUBCHEM_ATOM_DEF_STEREO_COUNT>
1

> <PUBCHEM_ATOM_UDEF_STEREO_COUNT>
0

> <PUBCHEM_BOND_DEF_STEREO_COUNT>
2

> <PUBCHEM_BOND_UDEF_STEREO_COUNT>
0

> <PUBCHEM_ISOTOPIC_ATOM_COUNT>
0

> <PUBCHEM_COMPONENT_COUNT>
1

> <PUBCHEM_CACTVS_TAUTO_COUNT>
9

> <PUBCHEM_CONFORMER_ID>
0006C93C00000002

> <PUBCHEM_MMFF94_ENERGY>
68.5736

> <PUBCHEM_FEATURE_SELFOVERLAP>
35.52

> <PUBCHEM_SHAPE_FINGERPRINT>
10319926 262 15697732496763557303
10692045 39 11815635055283359444
12293681 160 12973598932778199301
12403259 118 12319444550194199881
12592606 108 18410855504254728187
12596602 18 17131834304279926931
12633257 1 14907895015762341657
12760667 363 18409168800717199234
12895836 83 12757141399334142939
12895837 130 11025807491535449987
13103583 49 16773795926253527159
13533116 47 18124311864596212585
13540713 4 18268967891206584945
13673619 4 18130787854560239896
13690498 29 18187078447376276677
13757389 114 17752197293529989333
14123256 34 18334017211271614963
14251764 30 18413387648445131050
14420673 8 18410295830955217299
14765038 42 14764051377869384406
14931854 50 17458337533417374899
15061688 2 9151177566536318361
15188451 53 16845284008419407207
15238133 3 12967125056148805194
17492 54 14706922956090611105
17780758 139 17561361751364416001
1813 80 18341623632459686820
193927 3 18334573581498500097
19784866 240 18335702788862333573
20871999 31 16443056201953700861
21033648 29 13973701524307103169
21054139 6 18041841706575929146
21298829 104 8142096376683825887
21307412 95 17895472635511529595
21401589 2 10591765411262862869
21403212 168 15554450656981572695
21637258 2 18272649064820128705
22765269 38 9871756779986210251
22950370 63 18342741823174253368
23522609 53 18123222110744769216
23559900 14 16661202702150013749
2748736 6 8574717888096135782
2767999 5 8070029952208260022
2838139 119 11530478956365527086
312425 83 14347452915209619779
3472631 163 11169907286595898211
351380 3 18412823590448124066
3737641 26 17987805090320306142
393628 179 7853571254228018870
393628 194 9007055794471491195
4107672 100 17604143715159178813
465052 167 18342180015428633199
474 4 10303825306196850713
474113 269 17773867770798226359
484985 159 18340482249728134233
5104073 3 14404600174171725018
54039377 194 18413111641758503542
543368 44 10809331245035261055
6327066 14 9007056859474492474
636775 8 18270689671814971022
77188 2 18341611563786720841
7970288 3 18413103974361184510
8217 86 17967816075936971442
999808 66 18335990830338241987

> <PUBCHEM_SHAPE_MULTIPOLES>
425.18
16.88
2.68
1.47
16.09
1.23
0
-19.37
-0.29
-0.05
0.04
-0.97
0.03
0.23

> <PUBCHEM_SHAPE_SELFOVERLAP>
868.487

> <PUBCHEM_SHAPE_VOLUME>
246.3

> <PUBCHEM_COORDINATE_TYPE>
2
5
10

> <minimizedAffinity>
-8.50879

> <CNNscore>
0.9493699074

> <CNNaffinity>
6.9879279137

> <CNN_VS>
6.6341285706

> <CNNaffinity_variance>
0.1663838774

$$$$
444732


 24 24  0  0  0  0  0  0  0  0999 V2000
    0.3682    7.1617    4.5948 C   0  0  0  0  0  0  0  0  0  0  0  0
    0.9244    6.2839    3.4726 C   0  0  0  0  0  0  0  0  0  0  0  0
   -0.3888    6.3165    5.5888 C   0  0  0  0  0  0  0  0  0  0  0  0
   -0.0914    6.0865    6.8858 C   0  0  0  0  0  0  0  0  0  0  0  0
    1.1331    6.6290    7.5759 C   0  0  0  0  0  0  0  0  0  0  0  0
   -0.9993    5.2490    7.6752 C   0  0  0  0  0  0  0  0  0  0  0  0
   -0.8581    4.9257    8.9701 C   0  0  0  0  0  0  0  0  0  0  0  0
   -2.5904    3.2824    9.0261 O   0  0  0  0  0  0  0  0  0  0  0  0
   -2.8178    3.4977   11.7151 O   0  0  0  0  0  0  0  0  0  0  0  0
   -1.8890    4.2639   10.9974 N   0  0  0  0  0  0  0  0  0  0  0  0
   -1.8713    4.0633    9.6406 C   0  0  0  0  0  0  0  0  0  0  0  0
   -1.3690    4.9606   11.5189 H   0  0  0  0  0  0  0  0  0  0  0  0
   -2.2475    2.7671   12.0086 H   0  0  0  0  0  0  0  0  0  0  0  0
   -1.4459    7.8731    3.1693 O   0  0  0  0  0  0  0  0  0  0  0  0
   -0.6143    8.1856    4.0213 C   0  0  0  0  0  0  0  0  0  0  0  0
   -0.5883    9.5953    4.5097 C   0  0  0  0  0  0  0  0  0  0  0  0
   -0.5399   12.1956    5.4092 C   0  0  0  0  0  0  0  0  0  0  0  0
   -1.6150   10.4375    4.1480 C   0  0  0  0  0  0  0  0  0  0  0  0
    0.4616    9.9996    5.3024 C   0  0  0  0  0  0  0  0  0  0  0  0
   -1.5904   11.7555    4.6037 C   0  0  0  0  0  0  0  0  0  0  0  0
    0.4862   11.3175    5.7583 C   0  0  0  0  0  0  0  0  0  0  0  0
   -0.5151   13.5283    5.8699 N   0  0  0  0  0  0  0  0  0  0  0  0
   -1.6949   14.3635    5.7646 C   0  0  0  0  0  0  0  0  0  0  0  0
    0.6865   14.0759    6.4680 C   0  0  0  0  0  0  0  0  0  0  0  0
 14 15  2  0
  8 11  2  0
  9 10  1  0
  9 13  1  0
 22 17  1  0
 22 23  1  0
 22 24  1  0
 10 11  1  0
 10 12  1  0
  1 15  1  0
  1  3  1  0
  1  2  1  0
 15 16  1  0
 16 18  2  0
 16 19  1  0
  3  4  2  0
 17 20  2  0
 17 21  1  0
 18 20  1  0
 19 21  2  0
  4  5  1  0
  4  6  1  0
  6  7  2  0
  7 11  1  0
M  END
> <PUBCHEM_COMPOUND_CID>
444732

> <PUBCHEM_CONFORMER_RMSD>
0.8

> <PUBCHEM_CONFORMER_DIVERSEORDER>
2
40
76
12
44
10
59
54
7
73
38
27
93
70
18
22
43
90
77
26
35
80
60
14
3
96
31
83
49
4
58
69
6
5
21
78
30
55
41
63
39
11
20
89
45
75
84
37
65
48
28
15
57
32
91
72
17
42
8
9
16
13
52
53
33
85
92
29
56
86
81
1
71
87
23
97
79
47
94
68
19
50
46
24
36
62
67
34
74
88
51
66
95
25
61
82
98
64

> <PUBCHEM_MMFF94_PARTIAL_CHARGES>
30
1 -0.57
11 0.1
12 -0.15
13 -0.15
14 -0.15
15 -0.15
16 -0.14
17 0.14
18 0.37
19 0.37
2 -0.57
20 -0.15
21 -0.14
22 0.62
24 0.15
28 0.15
29 0.15
3 -0.44
30 0.15
31 0.15
4 -0.84
41 0.15
42 0.15
43 0.37
44 0.4
5 -0.39
6 0.2
7 0.42
8 0.09
9 -0.29

> <PUBCHEM_EFFECTIVE_ROTOR_COUNT>
7

> <PUBCHEM_PHARMACOPHORE_FEATURES>
7
1 1 acceptor
1 10 hydrophobe
1 17 hydrophobe
1 2 acceptor
1 4 cation
1 5 donor
6 8 11 12 13 14 15 rings

> <PUBCHEM_HEAVY_ATOM_COUNT>
22

> <PUBCHEM_ATOM_DEF_STEREO_COUNT>
1

> <PUBCHEM_ATOM_UDEF_STEREO_COUNT>
0

> <PUBCHEM_BOND_DEF_STEREO_COUNT>
2

> <PUBCHEM_BOND_UDEF_STEREO_COUNT>
0

> <PUBCHEM_ISOTOPIC_ATOM_COUNT>
0

> <PUBCHEM_COMPONENT_COUNT>
1

> <PUBCHEM_CACTVS_TAUTO_COUNT>
9

> <PUBCHEM_CONFORMER_ID>
0006C93C00000002

> <PUBCHEM_MMFF94_ENERGY>
68.5736

> <PUBCHEM_FEATURE_SELFOVERLAP>
35.52

> <PUBCHEM_SHAPE_FINGERPRINT>
10319926 262 15697732496763557303
10692045 39 11815635055283359444
12293681 160 12973598932778199301
12403259 118 12319444550194199881
12592606 108 18410855504254728187
12596602 18 17131834304279926931
12633257 1 14907895015762341657
12760667 363 18409168800717199234
12895836 83 12757141399334142939
12895837 130 11025807491535449987
13103583 49 16773795926253527159
13533116 47 18124311864596212585
13540713 4 18268967891206584945
13673619 4 18130787854560239896
13690498 29 18187078447376276677
13757389 114 17752197293529989333
14123256 34 18334017211271614963
14251764 30 18413387648445131050
14420673 8 18410295830955217299
14765038 42 14764051377869384406
14931854 50 17458337533417374899
15061688 2 9151177566536318361
15188451 53 16845284008419407207
15238133 3 12967125056148805194
17492 54 14706922956090611105
17780758 139 17561361751364416001
1813 80 18341623632459686820
193927 3 18334573581498500097
19784866 240 18335702788862333573
20871999 31 16443056201953700861
21033648 29 13973701524307103169
21054139 6 18041841706575929146
21298829 104 8142096376683825887
21307412 95 17895472635511529595
21401589 2 10591765411262862869
21403212 168 15554450656981572695
21637258 2 18272649064820128705
22765269 38 9871756779986210251
22950370 63 18342741823174253368
23522609 53 18123222110744769216
23559900 14 16661202702150013749
2748736 6 8574717888096135782
2767999 5 8070029952208260022
2838139 119 11530478956365527086
312425 83 14347452915209619779
3472631 163 11169907286595898211
351380 3 18412823590448124066
3737641 26 17987805090320306142
393628 179 7853571254228018870
393628 194 9007055794471491195
4107672 100 17604143715159178813
465052 167 18342180015428633199
474 4 10303825306196850713
474113 269 17773867770798226359
484985 159 18340482249728134233
5104073 3 14404600174171725018
54039377 194 18413111641758503542
543368 44 10809331245035261055
6327066 14 9007056859474492474
636775 8 18270689671814971022
77188 2 18341611563786720841
7970288 3 18413103974361184510
8217 86 17967816075936971442
999808 66 18335990830338241987

> <PUBCHEM_SHAPE_MULTIPOLES>
425.18
16.88
2.68
1.47
16.09
1.23
0
-19.37
-0.29
-0.05
0.04
-0.97
0.03
0.23

> <PUBCHEM_SHAPE_SELFOVERLAP>
868.487

> <PUBCHEM_SHAPE_VOLUME>
246.3

> <PUBCHEM_COORDINATE_TYPE>
2
5
10

> <minimizedAffinity>
-7.88312

> <CNNscore>
0.8827993274

> <CNNaffinity>
6.8522353172

> <CNN_VS>
6.0491485596

> <CNNaffinity_variance>
0.2428374141

$$$$
444732


 24 24  0  0  0  0  0  0  0  0999 V2000
    0.0166    6.9688    5.1262 C   0  0  0  0  0  0  0  0  0  0  0  0
    1.5446    7.0193    5.1689 C   0  0  0  0  0  0  0  0  0  0  0  0
   -0.4953    5.9168    6.0783 C   0  0  0  0  0  0  0  0  0  0  0  0
   -0.1186    5.6933    7.3557 C   0  0  0  0  0  0  0  0  0  0  0  0
    0.9626    6.4703    8.0608 C   0  0  0  0  0  0  0  0  0  0  0  0
   -0.7844    4.6243    8.1060 C   0  0  0  0  0  0  0  0  0  0  0  0
   -1.4316    4.7578    9.2741 C   0  0  0  0  0  0  0  0  0  0  0  0
   -2.4257    2.5861    9.2846 O   0  0  0  0  0  0  0  0  0  0  0  0
   -2.7822    2.6744   11.9667 O   0  0  0  0  0  0  0  0  0  0  0  0
   -2.1897    3.7390   11.2736 N   0  0  0  0  0  0  0  0  0  0  0  0
   -2.0654    3.5729    9.9177 C   0  0  0  0  0  0  0  0  0  0  0  0
   -1.9802    4.5743   11.8086 H   0  0  0  0  0  0  0  0  0  0  0  0
   -1.9876    2.2067   12.2750 H   0  0  0  0  0  0  0  0  0  0  0  0
   -0.7312    5.4215    3.4304 O   0  0  0  0  0  0  0  0  0  0  0  0
   -0.4562    6.5854    3.7219 C   0  0  0  0  0  0  0  0  0  0  0  0
   -0.6102    7.6382    2.6759 C   0  0  0  0  0  0  0  0  0  0  0  0
   -0.8951    9.5794    0.7461 C   0  0  0  0  0  0  0  0  0  0  0  0
   -1.6336    8.5496    2.8032 C   0  0  0  0  0  0  0  0  0  0  0  0
    0.2765    7.6573    1.6235 C   0  0  0  0  0  0  0  0  0  0  0  0
   -1.7781    9.5334    1.8251 C   0  0  0  0  0  0  0  0  0  0  0  0
    0.1322    8.6411    0.6454 C   0  0  0  0  0  0  0  0  0  0  0  0
   -1.0413   10.5741   -0.2429 N   0  0  0  0  0  0  0  0  0  0  0  0
   -2.3522   11.1015   -0.5653 C   0  0  0  0  0  0  0  0  0  0  0  0
    0.1193   11.0923   -0.9398 C   0  0  0  0  0  0  0  0  0  0  0  0
 14 15  2  0
  8 11  2  0
  9 10  1  0
  9 13  1  0
 22 17  1  0
 22 23  1  0
 22 24  1  0
 10 11  1  0
 10 12  1  0
  1 15  1  0
  1  3  1  0
  1  2  1  0
 15 16  1  0
 16 18  2  0
 16 19  1  0
  3  4  2  0
 17 20  2  0
 17 21  1  0
 18 20  1  0
 19 21  2  0
  4  5  1  0
  4  6  1  0
  6  7  2  0
  7 11  1  0
M  END
> <PUBCHEM_COMPOUND_CID>
444732

> <PUBCHEM_CONFORMER_RMSD>
0.8

> <PUBCHEM_CONFORMER_DIVERSEORDER>
2
40
76
12
44
10
59
54
7
73
38
27
93
70
18
22
43
90
77
26
35
80
60
14
3
96
31
83
49
4
58
69
6
5
21
78
30
55
41
63
39
11
20
89
45
75
84
37
65
48
28
15
57
32
91
72
17
42
8
9
16
13
52
53
33
85
92
29
56
86
81
1
71
87
23
97
79
47
94
68
19
50
46
24
36
62
67
34
74
88
51
66
95
25
61
82
98
64

> <PUBCHEM_MMFF94_PARTIAL_CHARGES>
30
1 -0.57
11 0.1
12 -0.15
13 -0.15
14 -0.15
15 -0.15
16 -0.14
17 0.14
18 0.37
19 0.37
2 -0.57
20 -0.15
21 -0.14
22 0.62
24 0.15
28 0.15
29 0.15
3 -0.44
30 0.15
31 0.15
4 -0.84
41 0.15
42 0.15
43 0.37
44 0.4
5 -0.39
6 0.2
7 0.42
8 0.09
9 -0.29

> <PUBCHEM_EFFECTIVE_ROTOR_COUNT>
7

> <PUBCHEM_PHARMACOPHORE_FEATURES>
7
1 1 acceptor
1 10 hydrophobe
1 17 hydrophobe
1 2 acceptor
1 4 cation
1 5 donor
6 8 11 12 13 14 15 rings

> <PUBCHEM_HEAVY_ATOM_COUNT>
22

> <PUBCHEM_ATOM_DEF_STEREO_COUNT>
1

> <PUBCHEM_ATOM_UDEF_STEREO_COUNT>
0

> <PUBCHEM_BOND_DEF_STEREO_COUNT>
2

> <PUBCHEM_BOND_UDEF_STEREO_COUNT>
0

> <PUBCHEM_ISOTOPIC_ATOM_COUNT>
0

> <PUBCHEM_COMPONENT_COUNT>
1

> <PUBCHEM_CACTVS_TAUTO_COUNT>
9

> <PUBCHEM_CONFORMER_ID>
0006C93C00000002

> <PUBCHEM_MMFF94_ENERGY>
68.5736

> <PUBCHEM_FEATURE_SELFOVERLAP>
35.52

> <PUBCHEM_SHAPE_FINGERPRINT>
10319926 262 15697732496763557303
10692045 39 11815635055283359444
12293681 160 12973598932778199301
12403259 118 12319444550194199881
12592606 108 18410855504254728187
12596602 18 17131834304279926931
12633257 1 14907895015762341657
12760667 363 18409168800717199234
12895836 83 12757141399334142939
12895837 130 11025807491535449987
13103583 49 16773795926253527159
13533116 47 18124311864596212585
13540713 4 18268967891206584945
13673619 4 18130787854560239896
13690498 29 18187078447376276677
13757389 114 17752197293529989333
14123256 34 18334017211271614963
14251764 30 18413387648445131050
14420673 8 18410295830955217299
14765038 42 14764051377869384406
14931854 50 17458337533417374899
15061688 2 9151177566536318361
15188451 53 16845284008419407207
15238133 3 12967125056148805194
17492 54 14706922956090611105
17780758 139 17561361751364416001
1813 80 18341623632459686820
193927 3 18334573581498500097
19784866 240 18335702788862333573
20871999 31 16443056201953700861
21033648 29 13973701524307103169
21054139 6 18041841706575929146
21298829 104 8142096376683825887
21307412 95 17895472635511529595
21401589 2 10591765411262862869
21403212 168 15554450656981572695
21637258 2 18272649064820128705
22765269 38 9871756779986210251
22950370 63 18342741823174253368
23522609 53 18123222110744769216
23559900 14 16661202702150013749
2748736 6 8574717888096135782
2767999 5 8070029952208260022
2838139 119 11530478956365527086
312425 83 14347452915209619779
3472631 163 11169907286595898211
351380 3 18412823590448124066
3737641 26 17987805090320306142
393628 179 7853571254228018870
393628 194 9007055794471491195
4107672 100 17604143715159178813
465052 167 18342180015428633199
474 4 10303825306196850713
474113 269 17773867770798226359
484985 159 18340482249728134233
5104073 3 14404600174171725018
54039377 194 18413111641758503542
543368 44 10809331245035261055
6327066 14 9007056859474492474
636775 8 18270689671814971022
77188 2 18341611563786720841
7970288 3 18413103974361184510
8217 86 17967816075936971442
999808 66 18335990830338241987

> <PUBCHEM_SHAPE_MULTIPOLES>
425.18
16.88
2.68
1.47
16.09
1.23
0
-19.37
-0.29
-0.05
0.04
-0.97
0.03
0.23

> <PUBCHEM_SHAPE_SELFOVERLAP>
868.487

> <PUBCHEM_SHAPE_VOLUME>
246.3

> <PUBCHEM_COORDINATE_TYPE>
2
5
10

> <minimizedAffinity>
-7.12847

> <CNNscore>
0.8371616602

> <CNNaffinity>
6.7712683678

> <CNN_VS>
5.6686463356

> <CNNaffinity_variance>
0.2248735875

$$$$
444732


 24 24  0  0  0  0  0  0  0  0999 V2000
    1.0236    6.7283    4.7014 C   0  0  0  0  0  0  0  0  0  0  0  0
    0.6266    6.3553    3.2723 C   0  0  0  0  0  0  0  0  0  0  0  0
    0.0695    6.1001    5.6865 C   0  0  0  0  0  0  0  0  0  0  0  0
    0.1722    6.0506    7.0321 C   0  0  0  0  0  0  0  0  0  0  0  0
    1.3398    6.6049    7.8064 C   0  0  0  0  0  0  0  0  0  0  0  0
   -0.9035    5.4093    7.7940 C   0  0  0  0  0  0  0  0  0  0  0  0
   -0.7624    4.6995    8.9243 C   0  0  0  0  0  0  0  0  0  0  0  0
   -2.8636    3.5647    8.9682 O   0  0  0  0  0  0  0  0  0  0  0  0
   -2.9906    3.7364   11.6669 O   0  0  0  0  0  0  0  0  0  0  0  0
   -1.9034    4.2584   10.9527 N   0  0  0  0  0  0  0  0  0  0  0  0
   -1.9570    4.1084    9.5903 C   0  0  0  0  0  0  0  0  0  0  0  0
   -1.2122    4.7762   11.4837 H   0  0  0  0  0  0  0  0  0  0  0  0
   -2.6276    2.8723   11.9251 H   0  0  0  0  0  0  0  0  0  0  0  0
    1.8299    8.8698    5.4715 O   0  0  0  0  0  0  0  0  0  0  0  0
    0.9435    8.2452    4.8889 C   0  0  0  0  0  0  0  0  0  0  0  0
   -0.2209    9.0014    4.3424 C   0  0  0  0  0  0  0  0  0  0  0  0
   -2.3692   10.3949    3.3344 C   0  0  0  0  0  0  0  0  0  0  0  0
   -1.1502    9.5075    5.2223 C   0  0  0  0  0  0  0  0  0  0  0  0
   -0.3214    9.1630    2.9793 C   0  0  0  0  0  0  0  0  0  0  0  0
   -2.2392   10.2137    4.7114 C   0  0  0  0  0  0  0  0  0  0  0  0
   -1.4103    9.8693    2.4684 C   0  0  0  0  0  0  0  0  0  0  0  0
   -3.4703   11.1089    2.8179 N   0  0  0  0  0  0  0  0  0  0  0  0
   -4.6136   11.4036    3.6585 C   0  0  0  0  0  0  0  0  0  0  0  0
   -3.4669   11.5697    1.4435 C   0  0  0  0  0  0  0  0  0  0  0  0
 14 15  2  0
  8 11  2  0
  9 10  1  0
  9 13  1  0
 22 17  1  0
 22 23  1  0
 22 24  1  0
 10 11  1  0
 10 12  1  0
  1 15  1  0
  1  3  1  0
  1  2  1  0
 15 16  1  0
 16 18  2  0
 16 19  1  0
  3  4  2  0
 17 20  2  0
 17 21  1  0
 18 20  1  0
 19 21  2  0
  4  5  1  0
  4  6  1  0
  6  7  2  0
  7 11  1  0
M  END
> <PUBCHEM_COMPOUND_CID>
444732

> <PUBCHEM_CONFORMER_RMSD>
0.8

> <PUBCHEM_CONFORMER_DIVERSEORDER>
2
40
76
12
44
10
59
54
7
73
38
27
93
70
18
22
43
90
77
26
35
80
60
14
3
96
31
83
49
4
58
69
6
5
21
78
30
55
41
63
39
11
20
89
45
75
84
37
65
48
28
15
57
32
91
72
17
42
8
9
16
13
52
53
33
85
92
29
56
86
81
1
71
87
23
97
79
47
94
68
19
50
46
24
36
62
67
34
74
88
51
66
95
25
61
82
98
64

> <PUBCHEM_MMFF94_PARTIAL_CHARGES>
30
1 -0.57
11 0.1
12 -0.15
13 -0.15
14 -0.15
15 -0.15
16 -0.14
17 0.14
18 0.37
19 0.37
2 -0.57
20 -0.15
21 -0.14
22 0.62
24 0.15
28 0.15
29 0.15
3 -0.44
30 0.15
31 0.15
4 -0.84
41 0.15
42 0.15
43 0.37
44 0.4
5 -0.39
6 0.2
7 0.42
8 0.09
9 -0.29

> <PUBCHEM_EFFECTIVE_ROTOR_COUNT>
7

> <PUBCHEM_PHARMACOPHORE_FEATURES>
7
1 1 acceptor
1 10 hydrophobe
1 17 hydrophobe
1 2 acceptor
1 4 cation
1 5 donor
6 8 11 12 13 14 15 rings

> <PUBCHEM_HEAVY_ATOM_COUNT>
22

> <PUBCHEM_ATOM_DEF_STEREO_COUNT>
1

> <PUBCHEM_ATOM_UDEF_STEREO_COUNT>
0

> <PUBCHEM_BOND_DEF_STEREO_COUNT>
2

> <PUBCHEM_BOND_UDEF_STEREO_COUNT>
0

> <PUBCHEM_ISOTOPIC_ATOM_COUNT>
0

> <PUBCHEM_COMPONENT_COUNT>
1

> <PUBCHEM_CACTVS_TAUTO_COUNT>
9

> <PUBCHEM_CONFORMER_ID>
0006C93C00000002

> <PUBCHEM_MMFF94_ENERGY>
68.5736

> <PUBCHEM_FEATURE_SELFOVERLAP>
35.52

> <PUBCHEM_SHAPE_FINGERPRINT>
10319926 262 15697732496763557303
10692045 39 11815635055283359444
12293681 160 12973598932778199301
12403259 118 12319444550194199881
12592606 108 18410855504254728187
12596602 18 17131834304279926931
12633257 1 14907895015762341657
12760667 363 18409168800717199234
12895836 83 12757141399334142939
12895837 130 11025807491535449987
13103583 49 16773795926253527159
13533116 47 18124311864596212585
13540713 4 18268967891206584945
13673619 4 18130787854560239896
13690498 29 18187078447376276677
13757389 114 17752197293529989333
14123256 34 18334017211271614963
14251764 30 18413387648445131050
14420673 8 18410295830955217299
14765038 42 14764051377869384406
14931854 50 17458337533417374899
15061688 2 9151177566536318361
15188451 53 16845284008419407207
15238133 3 12967125056148805194
17492 54 14706922956090611105
17780758 139 17561361751364416001
1813 80 18341623632459686820
193927 3 18334573581498500097
19784866 240 18335702788862333573
20871999 31 16443056201953700861
21033648 29 13973701524307103169
21054139 6 18041841706575929146
21298829 104 8142096376683825887
21307412 95 17895472635511529595
21401589 2 10591765411262862869
21403212 168 15554450656981572695
21637258 2 18272649064820128705
22765269 38 9871756779986210251
22950370 63 18342741823174253368
23522609 53 18123222110744769216
23559900 14 16661202702150013749
2748736 6 8574717888096135782
2767999 5 8070029952208260022
2838139 119 11530478956365527086
312425 83 14347452915209619779
3472631 163 11169907286595898211
351380 3 18412823590448124066
3737641 26 17987805090320306142
393628 179 7853571254228018870
393628 194 9007055794471491195
4107672 100 17604143715159178813
465052 167 18342180015428633199
474 4 10303825306196850713
474113 269 17773867770798226359
484985 159 18340482249728134233
5104073 3 14404600174171725018
54039377 194 18413111641758503542
543368 44 10809331245035261055
6327066 14 9007056859474492474
636775 8 18270689671814971022
77188 2 18341611563786720841
7970288 3 18413103974361184510
8217 86 17967816075936971442
999808 66 18335990830338241987

> <PUBCHEM_SHAPE_MULTIPOLES>
425.18
16.88
2.68
1.47
16.09
1.23
0
-19.37
-0.29
-0.05
0.04
-0.97
0.03
0.23

> <PUBCHEM_SHAPE_SELFOVERLAP>
868.487

> <PUBCHEM_SHAPE_VOLUME>
246.3

> <PUBCHEM_COORDINATE_TYPE>
2
5
10

> <minimizedAffinity>
-7.96344

> <CNNscore>
0.8326318860

> <CNNaffinity>
6.7671685219

> <CNN_VS>
5.6345601082

> <CNNaffinity_variance>
0.1269279122

$$$$
444732


 24 24  0  0  0  0  0  0  0  0999 V2000
    0.4263    6.9510    4.7323 C   0  0  0  0  0  0  0  0  0  0  0  0
    0.5677    6.1825    3.4176 C   0  0  0  0  0  0  0  0  0  0  0  0
   -0.3874    6.1496    5.7177 C   0  0  0  0  0  0  0  0  0  0  0  0
   -0.1587    5.9680    7.0361 C   0  0  0  0  0  0  0  0  0  0  0  0
    1.0333    6.5291    7.7670 C   0  0  0  0  0  0  0  0  0  0  0  0
   -1.1127    5.1673    7.8092 C   0  0  0  0  0  0  0  0  0  0  0  0
   -0.9407    4.7173    9.0619 C   0  0  0  0  0  0  0  0  0  0  0  0
   -2.7706    3.1827    9.0977 O   0  0  0  0  0  0  0  0  0  0  0  0
   -2.9986    3.3930   11.7870 O   0  0  0  0  0  0  0  0  0  0  0  0
   -2.0209    4.1059   11.0794 N   0  0  0  0  0  0  0  0  0  0  0  0
   -2.0083    3.9139    9.7212 C   0  0  0  0  0  0  0  0  0  0  0  0
   -1.4620    4.7658   11.6084 H   0  0  0  0  0  0  0  0  0  0  0  0
   -2.4755    2.6269   12.0780 H   0  0  0  0  0  0  0  0  0  0  0  0
   -1.2666    8.3410    3.7170 O   0  0  0  0  0  0  0  0  0  0  0  0
   -0.3130    8.2694    4.4920 C   0  0  0  0  0  0  0  0  0  0  0  0
    0.1083    9.5015    5.2206 C   0  0  0  0  0  0  0  0  0  0  0  0
    0.8856   11.7745    6.5632 C   0  0  0  0  0  0  0  0  0  0  0  0
   -0.7857   10.5424    5.3278 C   0  0  0  0  0  0  0  0  0  0  0  0
    1.3749    9.5502    5.7568 C   0  0  0  0  0  0  0  0  0  0  0  0
   -0.3917   11.6946    6.0082 C   0  0  0  0  0  0  0  0  0  0  0  0
    1.7689   10.7023    6.4373 C   0  0  0  0  0  0  0  0  0  0  0  0
    1.2839   12.9395    7.2511 N   0  0  0  0  0  0  0  0  0  0  0  0
    0.8615   14.2462    6.7877 C   0  0  0  0  0  0  0  0  0  0  0  0
    2.1093   12.8444    8.4389 C   0  0  0  0  0  0  0  0  0  0  0  0
 14 15  2  0
  8 11  2  0
  9 10  1  0
  9 13  1  0
 22 17  1  0
 22 23  1  0
 22 24  1  0
 10 11  1  0
 10 12  1  0
  1 15  1  0
  1  3  1  0
  1  2  1  0
 15 16  1  0
 16 18  2  0
 16 19  1  0
  3  4  2  0
 17 20  2  0
 17 21  1  0
 18 20  1  0
 19 21  2  0
  4  5  1  0
  4  6  1  0
  6  7  2  0
  7 11  1  0
M  END
> <PUBCHEM_COMPOUND_CID>
444732

> <PUBCHEM_CONFORMER_RMSD>
0.8

> <PUBCHEM_CONFORMER_DIVERSEORDER>
2
40
76
12
44
10
59
54
7
73
38
27
93
70
18
22
43
90
77
26
35
80
60
14
3
96
31
83
49
4
58
69
6
5
21
78
30
55
41
63
39
11
20
89
45
75
84
37
65
48
28
15
57
32
91
72
17
42
8
9
16
13
52
53
33
85
92
29
56
86
81
1
71
87
23
97
79
47
94
68
19
50
46
24
36
62
67
34
74
88
51
66
95
25
61
82
98
64

> <PUBCHEM_MMFF94_PARTIAL_CHARGES>
30
1 -0.57
11 0.1
12 -0.15
13 -0.15
14 -0.15
15 -0.15
16 -0.14
17 0.14
18 0.37
19 0.37
2 -0.57
20 -0.15
21 -0.14
22 0.62
24 0.15
28 0.15
29 0.15
3 -0.44
30 0.15
31 0.15
4 -0.84
41 0.15
42 0.15
43 0.37
44 0.4
5 -0.39
6 0.2
7 0.42
8 0.09
9 -0.29

> <PUBCHEM_EFFECTIVE_ROTOR_COUNT>
7

> <PUBCHEM_PHARMACOPHORE_FEATURES>
7
1 1 acceptor
1 10 hydrophobe
1 17 hydrophobe
1 2 acceptor
1 4 cation
1 5 donor
6 8 11 12 13 14 15 rings

> <PUBCHEM_HEAVY_ATOM_COUNT>
22

> <PUBCHEM_ATOM_DEF_STEREO_COUNT>
1

> <PUBCHEM_ATOM_UDEF_STEREO_COUNT>
0

> <PUBCHEM_BOND_DEF_STEREO_COUNT>
2

> <PUBCHEM_BOND_UDEF_STEREO_COUNT>
0

> <PUBCHEM_ISOTOPIC_ATOM_COUNT>
0

> <PUBCHEM_COMPONENT_COUNT>
1

> <PUBCHEM_CACTVS_TAUTO_COUNT>
9

> <PUBCHEM_CONFORMER_ID>
0006C93C00000002

> <PUBCHEM_MMFF94_ENERGY>
68.5736

> <PUBCHEM_FEATURE_SELFOVERLAP>
35.52

> <PUBCHEM_SHAPE_FINGERPRINT>
10319926 262 15697732496763557303
10692045 39 11815635055283359444
12293681 160 12973598932778199301
12403259 118 12319444550194199881
12592606 108 18410855504254728187
12596602 18 17131834304279926931
12633257 1 14907895015762341657
12760667 363 18409168800717199234
12895836 83 12757141399334142939
12895837 130 11025807491535449987
13103583 49 16773795926253527159
13533116 47 18124311864596212585
13540713 4 18268967891206584945
13673619 4 18130787854560239896
13690498 29 18187078447376276677
13757389 114 17752197293529989333
14123256 34 18334017211271614963
14251764 30 18413387648445131050
14420673 8 18410295830955217299
14765038 42 14764051377869384406
14931854 50 17458337533417374899
15061688 2 9151177566536318361
15188451 53 16845284008419407207
15238133 3 12967125056148805194
17492 54 14706922956090611105
17780758 139 17561361751364416001
1813 80 18341623632459686820
193927 3 18334573581498500097
19784866 240 18335702788862333573
20871999 31 16443056201953700861
21033648 29 13973701524307103169
21054139 6 18041841706575929146
21298829 104 8142096376683825887
21307412 95 17895472635511529595
21401589 2 10591765411262862869
21403212 168 15554450656981572695
21637258 2 18272649064820128705
22765269 38 9871756779986210251
22950370 63 18342741823174253368
23522609 53 18123222110744769216
23559900 14 16661202702150013749
2748736 6 8574717888096135782
2767999 5 8070029952208260022
2838139 119 11530478956365527086
312425 83 14347452915209619779
3472631 163 11169907286595898211
351380 3 18412823590448124066
3737641 26 17987805090320306142
393628 179 7853571254228018870
393628 194 9007055794471491195
4107672 100 17604143715159178813
465052 167 18342180015428633199
474 4 10303825306196850713
474113 269 17773867770798226359
484985 159 18340482249728134233
5104073 3 14404600174171725018
54039377 194 18413111641758503542
543368 44 10809331245035261055
6327066 14 9007056859474492474
636775 8 18270689671814971022
77188 2 18341611563786720841
7970288 3 18413103974361184510
8217 86 17967816075936971442
999808 66 18335990830338241987

> <PUBCHEM_SHAPE_MULTIPOLES>
425.18
16.88
2.68
1.47
16.09
1.23
0
-19.37
-0.29
-0.05
0.04
-0.97
0.03
0.23

> <PUBCHEM_SHAPE_SELFOVERLAP>
868.487

> <PUBCHEM_SHAPE_VOLUME>
246.3

> <PUBCHEM_COORDINATE_TYPE>
2
5
10

> <minimizedAffinity>
-8.44113

> <CNNscore>
0.8017485738

> <CNNaffinity>
6.6899528503

> <CNN_VS>
5.3636603355

> <CNNaffinity_variance>
0.3696456850

$$$$
444732


 24 24  0  0  0  0  0  0  0  0999 V2000
    0.4591    7.1129    4.6142 C   0  0  0  0  0  0  0  0  0  0  0  0
   -0.3112    6.8364    3.3222 C   0  0  0  0  0  0  0  0  0  0  0  0
   -0.2483    6.4799    5.7864 C   0  0  0  0  0  0  0  0  0  0  0  0
    0.1789    6.3791    7.0635 C   0  0  0  0  0  0  0  0  0  0  0  0
    1.5212    6.8688    7.5413 C   0  0  0  0  0  0  0  0  0  0  0  0
   -0.7015    5.7448    8.0491 C   0  0  0  0  0  0  0  0  0  0  0  0
   -0.8563    4.4259    8.2437 C   0  0  0  0  0  0  0  0  0  0  0  0
   -2.6594    3.0931    9.0668 O   0  0  0  0  0  0  0  0  0  0  0  0
   -2.3896    4.1225   11.5560 O   0  0  0  0  0  0  0  0  0  0  0  0
   -1.5530    4.5241   10.5055 N   0  0  0  0  0  0  0  0  0  0  0  0
   -1.7907    3.9292    9.2926 C   0  0  0  0  0  0  0  0  0  0  0  0
   -0.9021    5.2766   10.6999 H   0  0  0  0  0  0  0  0  0  0  0  0
   -1.8275    3.4491   11.9753 H   0  0  0  0  0  0  0  0  0  0  0  0
    1.4375    9.1233    5.5251 O   0  0  0  0  0  0  0  0  0  0  0  0
    0.5214    8.6197    4.8753 C   0  0  0  0  0  0  0  0  0  0  0  0
   -0.5357    9.5146    4.3204 C   0  0  0  0  0  0  0  0  0  0  0  0
   -2.4848   11.1664    3.2976 C   0  0  0  0  0  0  0  0  0  0  0  0
   -0.2508   10.2521    3.1938 C   0  0  0  0  0  0  0  0  0  0  0  0
   -1.7549    9.5691    4.9568 C   0  0  0  0  0  0  0  0  0  0  0  0
   -1.2386   11.0894    2.6755 C   0  0  0  0  0  0  0  0  0  0  0  0
   -2.7428   10.4062    4.4384 C   0  0  0  0  0  0  0  0  0  0  0  0
   -3.4835   12.0130    2.7734 N   0  0  0  0  0  0  0  0  0  0  0  0
   -3.3223   12.6161    1.4655 C   0  0  0  0  0  0  0  0  0  0  0  0
   -4.6909   12.2797    3.5300 C   0  0  0  0  0  0  0  0  0  0  0  0
 14 15  2  0
  8 11  2  0
  9 10  1  0
  9 13  1  0
 22 17  1  0
 22 23  1  0
 22 24  1  0
 10 11  1  0
 10 12  1  0
  1 15  1  0
  1  3  1  0
  1  2  1  0
 15 16  1  0
 16 18  2  0
 16 19  1  0
  3  4  2  0
 17 20  2  0
 17 21  1  0
 18 20  1  0
 19 21  2  0
  4  5  1  0
  4  6  1  0
  6  7  2  0
  7 11  1  0
M  END
> <PUBCHEM_COMPOUND_CID>
444732

> <PUBCHEM_CONFORMER_RMSD>
0.8

> <PUBCHEM_CONFORMER_DIVERSEORDER>
2
40
76
12
44
10
59
54
7
73
38
27
93
70
18
22
43
90
77
26
35
80
60
14
3
96
31
83
49
4
58
69
6
5
21
78
30
55
41
63
39
11
20
89
45
75
84
37
65
48
28
15
57
32
91
72
17
42
8
9
16
13
52
53
33
85
92
29
56
86
81
1
71
87
23
97
79
47
94
68
19
50
46
24
36
62
67
34
74
88
51
66
95
25
61
82
98
64

> <PUBCHEM_MMFF94_PARTIAL_CHARGES>
30
1 -0.57
11 0.1
12 -0.15
13 -0.15
14 -0.15
15 -0.15
16 -0.14
17 0.14
18 0.37
19 0.37
2 -0.57
20 -0.15
21 -0.14
22 0.62
24 0.15
28 0.15
29 0.15
3 -0.44
30 0.15
31 0.15
4 -0.84
41 0.15
42 0.15
43 0.37
44 0.4
5 -0.39
6 0.2
7 0.42
8 0.09
9 -0.29

> <PUBCHEM_EFFECTIVE_ROTOR_COUNT>
7

> <PUBCHEM_PHARMACOPHORE_FEATURES>
7
1 1 acceptor
1 10 hydrophobe
1 17 hydrophobe
1 2 acceptor
1 4 cation
1 5 donor
6 8 11 12 13 14 15 rings

> <PUBCHEM_HEAVY_ATOM_COUNT>
22

> <PUBCHEM_ATOM_DEF_STEREO_COUNT>
1

> <PUBCHEM_ATOM_UDEF_STEREO_COUNT>
0

> <PUBCHEM_BOND_DEF_STEREO_COUNT>
2

> <PUBCHEM_BOND_UDEF_STEREO_COUNT>
0

> <PUBCHEM_ISOTOPIC_ATOM_COUNT>
0

> <PUBCHEM_COMPONENT_COUNT>
1

> <PUBCHEM_CACTVS_TAUTO_COUNT>
9

> <PUBCHEM_CONFORMER_ID>
0006C93C00000002

> <PUBCHEM_MMFF94_ENERGY>
68.5736

> <PUBCHEM_FEATURE_SELFOVERLAP>
35.52

> <PUBCHEM_SHAPE_FINGERPRINT>
10319926 262 15697732496763557303
10692045 39 11815635055283359444
12293681 160 12973598932778199301
12403259 118 12319444550194199881
12592606 108 18410855504254728187
12596602 18 17131834304279926931
12633257 1 14907895015762341657
12760667 363 18409168800717199234
12895836 83 12757141399334142939
12895837 130 11025807491535449987
13103583 49 16773795926253527159
13533116 47 18124311864596212585
13540713 4 18268967891206584945
13673619 4 18130787854560239896
13690498 29 18187078447376276677
13757389 114 17752197293529989333
14123256 34 18334017211271614963
14251764 30 18413387648445131050
14420673 8 18410295830955217299
14765038 42 14764051377869384406
14931854 50 17458337533417374899
15061688 2 9151177566536318361
15188451 53 16845284008419407207
15238133 3 12967125056148805194
17492 54 14706922956090611105
17780758 139 17561361751364416001
1813 80 18341623632459686820
193927 3 18334573581498500097
19784866 240 18335702788862333573
20871999 31 16443056201953700861
21033648 29 13973701524307103169
21054139 6 18041841706575929146
21298829 104 8142096376683825887
21307412 95 17895472635511529595
21401589 2 10591765411262862869
21403212 168 15554450656981572695
21637258 2 18272649064820128705
22765269 38 9871756779986210251
22950370 63 18342741823174253368
23522609 53 18123222110744769216
23559900 14 16661202702150013749
2748736 6 8574717888096135782
2767999 5 8070029952208260022
2838139 119 11530478956365527086
312425 83 14347452915209619779
3472631 163 11169907286595898211
351380 3 18412823590448124066
3737641 26 17987805090320306142
393628 179 7853571254228018870
393628 194 9007055794471491195
4107672 100 17604143715159178813
465052 167 18342180015428633199
474 4 10303825306196850713
474113 269 17773867770798226359
484985 159 18340482249728134233
5104073 3 14404600174171725018
54039377 194 18413111641758503542
543368 44 10809331245035261055
6327066 14 9007056859474492474
636775 8 18270689671814971022
77188 2 18341611563786720841
7970288 3 18413103974361184510
8217 86 17967816075936971442
999808 66 18335990830338241987

> <PUBCHEM_SHAPE_MULTIPOLES>
425.18
16.88
2.68
1.47
16.09
1.23
0
-19.37
-0.29
-0.05
0.04
-0.97
0.03
0.23

> <PUBCHEM_SHAPE_SELFOVERLAP>
868.487

> <PUBCHEM_SHAPE_VOLUME>
246.3

> <PUBCHEM_COORDINATE_TYPE>
2
5
10

> <minimizedAffinity>
-7.16297

> <CNNscore>
0.7991062999

> <CNNaffinity>
6.6154685020

> <CNN_VS>
5.2864627838

> <CNNaffinity_variance>
0.2300475389

$$$$
444732


 24 24  0  0  0  0  0  0  0  0999 V2000
    0.4249    6.9305    4.6664 C   0  0  0  0  0  0  0  0  0  0  0  0
    0.5493    6.1621    3.3499 C   0  0  0  0  0  0  0  0  0  0  0  0
   -0.3820    6.1321    5.6598 C   0  0  0  0  0  0  0  0  0  0  0  0
   -0.1534    5.9680    6.9805 C   0  0  0  0  0  0  0  0  0  0  0  0
    1.0316    6.5497    7.7066 C   0  0  0  0  0  0  0  0  0  0  0  0
   -1.1003    5.1664    7.7614 C   0  0  0  0  0  0  0  0  0  0  0  0
   -0.9230    4.7275    9.0173 C   0  0  0  0  0  0  0  0  0  0  0  0
   -2.7215    3.1567    9.0720 O   0  0  0  0  0  0  0  0  0  0  0  0
   -2.9936    3.4402   11.7505 O   0  0  0  0  0  0  0  0  0  0  0  0
   -2.0203    4.1525   11.0362 N   0  0  0  0  0  0  0  0  0  0  0  0
   -1.9836    3.9215    9.6846 C   0  0  0  0  0  0  0  0  0  0  0  0
   -1.4829    4.8391   11.5536 H   0  0  0  0  0  0  0  0  0  0  0  0
   -2.4594    2.6940   12.0713 H   0  0  0  0  0  0  0  0  0  0  0  0
   -1.2602    8.3326    3.6548 O   0  0  0  0  0  0  0  0  0  0  0  0
   -0.3111    8.2523    4.4345 C   0  0  0  0  0  0  0  0  0  0  0  0
    0.1078    9.4768    5.1771 C   0  0  0  0  0  0  0  0  0  0  0  0
    0.8801   11.7345    6.5479 C   0  0  0  0  0  0  0  0  0  0  0  0
    1.3948    9.5474    5.6596 C   0  0  0  0  0  0  0  0  0  0  0  0
   -0.8090   10.4883    5.3518 C   0  0  0  0  0  0  0  0  0  0  0  0
    1.7862   10.6917    6.3545 C   0  0  0  0  0  0  0  0  0  0  0  0
   -0.4176   11.6326    6.0466 C   0  0  0  0  0  0  0  0  0  0  0  0
    1.2760   12.8915    7.2506 N   0  0  0  0  0  0  0  0  0  0  0  0
    2.0802   12.7818    8.4513 C   0  0  0  0  0  0  0  0  0  0  0  0
    0.8956   14.2063    6.7731 C   0  0  0  0  0  0  0  0  0  0  0  0
 14 15  2  0
  8 11  2  0
  9 10  1  0
  9 13  1  0
 22 17  1  0
 22 23  1  0
 22 24  1  0
 10 11  1  0
 10 12  1  0
  1 15  1  0
  1  3  1  0
  1  2  1  0
 15 16  1  0
 16 18  2  0
 16 19  1  0
  3  4  2  0
 17 20  2  0
 17 21  1  0
 18 20  1  0
 19 21  2  0
  4  5  1  0
  4  6  1  0
  6  7  2  0
  7 11  1  0
M  END
> <PUBCHEM_COMPOUND_CID>
444732

> <PUBCHEM_CONFORMER_RMSD>
0.8

> <PUBCHEM_CONFORMER_DIVERSEORDER>
2
40
76
12
44
10
59
54
7
73
38
27
93
70
18
22
43
90
77
26
35
80
60
14
3
96
31
83
49
4
58
69
6
5
21
78
30
55
41
63
39
11
20
89
45
75
84
37
65
48
28
15
57
32
91
72
17
42
8
9
16
13
52
53
33
85
92
29
56
86
81
1
71
87
23
97
79
47
94
68
19
50
46
24
36
62
67
34
74
88
51
66
95
25
61
82
98
64

> <PUBCHEM_MMFF94_PARTIAL_CHARGES>
30
1 -0.57
11 0.1
12 -0.15
13 -0.15
14 -0.15
15 -0.15
16 -0.14
17 0.14
18 0.37
19 0.37
2 -0.57
20 -0.15
21 -0.14
22 0.62
24 0.15
28 0.15
29 0.15
3 -0.44
30 0.15
31 0.15
4 -0.84
41 0.15
42 0.15
43 0.37
44 0.4
5 -0.39
6 0.2
7 0.42
8 0.09
9 -0.29

> <PUBCHEM_EFFECTIVE_ROTOR_COUNT>
7

> <PUBCHEM_PHARMACOPHORE_FEATURES>
7
1 1 acceptor
1 10 hydrophobe
1 17 hydrophobe
1 2 acceptor
1 4 cation
1 5 donor
6 8 11 12 13 14 15 rings

> <PUBCHEM_HEAVY_ATOM_COUNT>
22

> <PUBCHEM_ATOM_DEF_STEREO_COUNT>
1

> <PUBCHEM_ATOM_UDEF_STEREO_COUNT>
0

> <PUBCHEM_BOND_DEF_STEREO_COUNT>
2

> <PUBCHEM_BOND_UDEF_STEREO_COUNT>
0

> <PUBCHEM_ISOTOPIC_ATOM_COUNT>
0

> <PUBCHEM_COMPONENT_COUNT>
1

> <PUBCHEM_CACTVS_TAUTO_COUNT>
9

> <PUBCHEM_CONFORMER_ID>
0006C93C00000002

> <PUBCHEM_MMFF94_ENERGY>
68.5736

> <PUBCHEM_FEATURE_SELFOVERLAP>
35.52

> <PUBCHEM_SHAPE_FINGERPRINT>
10319926 262 15697732496763557303
10692045 39 11815635055283359444
12293681 160 12973598932778199301
12403259 118 12319444550194199881
12592606 108 18410855504254728187
12596602 18 17131834304279926931
12633257 1 14907895015762341657
12760667 363 18409168800717199234
12895836 83 12757141399334142939
12895837 130 11025807491535449987
13103583 49 16773795926253527159
13533116 47 18124311864596212585
13540713 4 18268967891206584945
13673619 4 18130787854560239896
13690498 29 18187078447376276677
13757389 114 17752197293529989333
14123256 34 18334017211271614963
14251764 30 18413387648445131050
14420673 8 18410295830955217299
14765038 42 14764051377869384406
14931854 50 17458337533417374899
15061688 2 9151177566536318361
15188451 53 16845284008419407207
15238133 3 12967125056148805194
17492 54 14706922956090611105
17780758 139 17561361751364416001
1813 80 18341623632459686820
193927 3 18334573581498500097
19784866 240 18335702788862333573
20871999 31 16443056201953700861
21033648 29 13973701524307103169
21054139 6 18041841706575929146
21298829 104 8142096376683825887
21307412 95 17895472635511529595
21401589 2 10591765411262862869
21403212 168 15554450656981572695
21637258 2 18272649064820128705
22765269 38 9871756779986210251
22950370 63 18342741823174253368
23522609 53 18123222110744769216
23559900 14 16661202702150013749
2748736 6 8574717888096135782
2767999 5 8070029952208260022
2838139 119 11530478956365527086
312425 83 14347452915209619779
3472631 163 11169907286595898211
351380 3 18412823590448124066
3737641 26 17987805090320306142
393628 179 7853571254228018870
393628 194 9007055794471491195
4107672 100 17604143715159178813
465052 167 18342180015428633199
474 4 10303825306196850713
474113 269 17773867770798226359
484985 159 18340482249728134233
5104073 3 14404600174171725018
54039377 194 18413111641758503542
543368 44 10809331245035261055
6327066 14 9007056859474492474
636775 8 18270689671814971022
77188 2 18341611563786720841
7970288 3 18413103974361184510
8217 86 17967816075936971442
999808 66 18335990830338241987

> <PUBCHEM_SHAPE_MULTIPOLES>
425.18
16.88
2.68
1.47
16.09
1.23
0
-19.37
-0.29
-0.05
0.04
-0.97
0.03
0.23

> <PUBCHEM_SHAPE_SELFOVERLAP>
868.487

> <PUBCHEM_SHAPE_VOLUME>
246.3

> <PUBCHEM_COORDINATE_TYPE>
2
5
10

> <minimizedAffinity>
-8.46564

> <CNNscore>
0.7936376929

> <CNNaffinity>
6.6803393364

> <CNN_VS>
5.3017692566

> <CNNaffinity_variance>
0.3845223188

$$$$
444732


 24 24  0  0  0  0  0  0  0  0999 V2000
    0.3982    5.8765    5.7737 C   0  0  0  0  0  0  0  0  0  0  0  0
   -0.6903    5.7904    4.7027 C   0  0  0  0  0  0  0  0  0  0  0  0
   -0.1556    5.4563    7.1123 C   0  0  0  0  0  0  0  0  0  0  0  0
   -1.4440    5.4483    7.5170 C   0  0  0  0  0  0  0  0  0  0  0  0
   -2.5940    5.9246    6.6682 C   0  0  0  0  0  0  0  0  0  0  0  0
   -1.7521    4.9628    8.8654 C   0  0  0  0  0  0  0  0  0  0  0  0
   -2.0683    3.7030    9.2032 C   0  0  0  0  0  0  0  0  0  0  0  0
   -1.9155    4.0103   11.5669 O   0  0  0  0  0  0  0  0  0  0  0  0
   -3.4642    1.8388   12.0300 O   0  0  0  0  0  0  0  0  0  0  0  0
   -3.1460    2.2437   10.7264 N   0  0  0  0  0  0  0  0  0  0  0  0
   -2.3538    3.3589   10.6245 C   0  0  0  0  0  0  0  0  0  0  0  0
   -3.4501    1.6392    9.9715 H   0  0  0  0  0  0  0  0  0  0  0  0
   -4.3385    2.2523   12.1297 H   0  0  0  0  0  0  0  0  0  0  0  0
    1.8589    7.6087    6.6072 O   0  0  0  0  0  0  0  0  0  0  0  0
    0.8849    7.3210    5.9117 C   0  0  0  0  0  0  0  0  0  0  0  0
    0.1841    8.4149    5.1778 C   0  0  0  0  0  0  0  0  0  0  0  0
   -1.1089   10.4316    3.8234 C   0  0  0  0  0  0  0  0  0  0  0  0
   -1.1141    8.7143    5.5229 C   0  0  0  0  0  0  0  0  0  0  0  0
    0.8625    9.0821    4.1834 C   0  0  0  0  0  0  0  0  0  0  0  0
   -1.7696    9.7363    4.8363 C   0  0  0  0  0  0  0  0  0  0  0  0
    0.2072   10.1043    3.4969 C   0  0  0  0  0  0  0  0  0  0  0  0
   -1.7717   11.4649    3.1292 N   0  0  0  0  0  0  0  0  0  0  0  0
   -3.2184   11.4820    3.0447 C   0  0  0  0  0  0  0  0  0  0  0  0
   -1.0152   12.5313    2.5033 C   0  0  0  0  0  0  0  0  0  0  0  0
 14 15  2  0
  8 11  2  0
  9 10  1  0
  9 13  1  0
 22 17  1  0
 22 23  1  0
 22 24  1  0
 10 11  1  0
 10 12  1  0
  1 15  1  0
  1  3  1  0
  1  2  1  0
 15 16  1  0
 16 18  2  0
 16 19  1  0
  3  4  2  0
 17 20  2  0
 17 21  1  0
 18 20  1  0
 19 21  2  0
  4  5  1  0
  4  6  1  0
  6  7  2  0
  7 11  1  0
M  END
> <PUBCHEM_COMPOUND_CID>
444732

> <PUBCHEM_CONFORMER_RMSD>
0.8

> <PUBCHEM_CONFORMER_DIVERSEORDER>
2
40
76
12
44
10
59
54
7
73
38
27
93
70
18
22
43
90
77
26
35
80
60
14
3
96
31
83
49
4
58
69
6
5
21
78
30
55
41
63
39
11
20
89
45
75
84
37
65
48
28
15
57
32
91
72
17
42
8
9
16
13
52
53
33
85
92
29
56
86
81
1
71
87
23
97
79
47
94
68
19
50
46
24
36
62
67
34
74
88
51
66
95
25
61
82
98
64

> <PUBCHEM_MMFF94_PARTIAL_CHARGES>
30
1 -0.57
11 0.1
12 -0.15
13 -0.15
14 -0.15
15 -0.15
16 -0.14
17 0.14
18 0.37
19 0.37
2 -0.57
20 -0.15
21 -0.14
22 0.62
24 0.15
28 0.15
29 0.15
3 -0.44
30 0.15
31 0.15
4 -0.84
41 0.15
42 0.15
43 0.37
44 0.4
5 -0.39
6 0.2
7 0.42
8 0.09
9 -0.29

> <PUBCHEM_EFFECTIVE_ROTOR_COUNT>
7

> <PUBCHEM_PHARMACOPHORE_FEATURES>
7
1 1 acceptor
1 10 hydrophobe
1 17 hydrophobe
1 2 acceptor
1 4 cation
1 5 donor
6 8 11 12 13 14 15 rings

> <PUBCHEM_HEAVY_ATOM_COUNT>
22

> <PUBCHEM_ATOM_DEF_STEREO_COUNT>
1

> <PUBCHEM_ATOM_UDEF_STEREO_COUNT>
0

> <PUBCHEM_BOND_DEF_STEREO_COUNT>
2

> <PUBCHEM_BOND_UDEF_STEREO_COUNT>
0

> <PUBCHEM_ISOTOPIC_ATOM_COUNT>
0

> <PUBCHEM_COMPONENT_COUNT>
1

> <PUBCHEM_CACTVS_TAUTO_COUNT>
9

> <PUBCHEM_CONFORMER_ID>
0006C93C00000002

> <PUBCHEM_MMFF94_ENERGY>
68.5736

> <PUBCHEM_FEATURE_SELFOVERLAP>
35.52

> <PUBCHEM_SHAPE_FINGERPRINT>
10319926 262 15697732496763557303
10692045 39 11815635055283359444
12293681 160 12973598932778199301
12403259 118 12319444550194199881
12592606 108 18410855504254728187
12596602 18 17131834304279926931
12633257 1 14907895015762341657
12760667 363 18409168800717199234
12895836 83 12757141399334142939
12895837 130 11025807491535449987
13103583 49 16773795926253527159
13533116 47 18124311864596212585
13540713 4 18268967891206584945
13673619 4 18130787854560239896
13690498 29 18187078447376276677
13757389 114 17752197293529989333
14123256 34 18334017211271614963
14251764 30 18413387648445131050
14420673 8 18410295830955217299
14765038 42 14764051377869384406
14931854 50 17458337533417374899
15061688 2 9151177566536318361
15188451 53 16845284008419407207
15238133 3 12967125056148805194
17492 54 14706922956090611105
17780758 139 17561361751364416001
1813 80 18341623632459686820
193927 3 18334573581498500097
19784866 240 18335702788862333573
20871999 31 16443056201953700861
21033648 29 13973701524307103169
21054139 6 18041841706575929146
21298829 104 8142096376683825887
21307412 95 17895472635511529595
21401589 2 10591765411262862869
21403212 168 15554450656981572695
21637258 2 18272649064820128705
22765269 38 9871756779986210251
22950370 63 18342741823174253368
23522609 53 18123222110744769216
23559900 14 16661202702150013749
2748736 6 8574717888096135782
2767999 5 8070029952208260022
2838139 119 11530478956365527086
312425 83 14347452915209619779
3472631 163 11169907286595898211
351380 3 18412823590448124066
3737641 26 17987805090320306142
393628 179 7853571254228018870
393628 194 9007055794471491195
4107672 100 17604143715159178813
465052 167 18342180015428633199
474 4 10303825306196850713
474113 269 17773867770798226359
484985 159 18340482249728134233
5104073 3 14404600174171725018
54039377 194 18413111641758503542
543368 44 10809331245035261055
6327066 14 9007056859474492474
636775 8 18270689671814971022
77188 2 18341611563786720841
7970288 3 18413103974361184510
8217 86 17967816075936971442
999808 66 18335990830338241987

> <PUBCHEM_SHAPE_MULTIPOLES>
425.18
16.88
2.68
1.47
16.09
1.23
0
-19.37
-0.29
-0.05
0.04
-0.97
0.03
0.23

> <PUBCHEM_SHAPE_SELFOVERLAP>
868.487

> <PUBCHEM_SHAPE_VOLUME>
246.3

> <PUBCHEM_COORDINATE_TYPE>
2
5
10

> <minimizedAffinity>
-6.50397

> <CNNscore>
0.7903119326

> <CNNaffinity>
6.7360024452

> <CNN_VS>
5.3235430717

> <CNNaffinity_variance>
0.3178313076

$$$$
444732


 24 24  0  0  0  0  0  0  0  0999 V2000
    1.6611    7.6430    5.8134 C   0  0  0  0  0  0  0  0  0  0  0  0
    1.6962    7.0853    4.3898 C   0  0  0  0  0  0  0  0  0  0  0  0
    0.6510    6.8891    6.6420 C   0  0  0  0  0  0  0  0  0  0  0  0
   -0.3759    6.1242    6.2131 C   0  0  0  0  0  0  0  0  0  0  0  0
   -0.7253    5.9243    4.7612 C   0  0  0  0  0  0  0  0  0  0  0  0
   -1.2159    5.4550    7.2108 C   0  0  0  0  0  0  0  0  0  0  0  0
   -0.7927    4.8695    8.3419 C   0  0  0  0  0  0  0  0  0  0  0  0
   -2.7093    3.5450    8.8683 O   0  0  0  0  0  0  0  0  0  0  0  0
   -2.3624    3.9539   11.5218 O   0  0  0  0  0  0  0  0  0  0  0  0
   -1.4890    4.5103   10.5772 N   0  0  0  0  0  0  0  0  0  0  0  0
   -1.7720    4.2297    9.2647 C   0  0  0  0  0  0  0  0  0  0  0  0
   -0.7756    5.1399   10.9274 H   0  0  0  0  0  0  0  0  0  0  0  0
   -1.8634    3.1569   11.7687 H   0  0  0  0  0  0  0  0  0  0  0  0
    1.7457    9.9450    6.5363 O   0  0  0  0  0  0  0  0  0  0  0  0
    1.2311    9.1117    5.7907 C   0  0  0  0  0  0  0  0  0  0  0  0
    0.1778    9.5633    4.8353 C   0  0  0  0  0  0  0  0  0  0  0  0
   -1.7647   10.3974    3.0734 C   0  0  0  0  0  0  0  0  0  0  0  0
    0.5595    9.9718    3.5776 C   0  0  0  0  0  0  0  0  0  0  0  0
   -1.1351    9.5548    5.2484 C   0  0  0  0  0  0  0  0  0  0  0  0
   -0.4250   10.3947    2.6846 C   0  0  0  0  0  0  0  0  0  0  0  0
   -2.1196    9.9776    4.3554 C   0  0  0  0  0  0  0  0  0  0  0  0
   -2.7601   10.8251    2.1704 N   0  0  0  0  0  0  0  0  0  0  0  0
   -2.6177   10.5772    0.7496 C   0  0  0  0  0  0  0  0  0  0  0  0
   -3.9455   11.5056    2.6531 C   0  0  0  0  0  0  0  0  0  0  0  0
 14 15  2  0
  8 11  2  0
  9 10  1  0
  9 13  1  0
 22 17  1  0
 22 23  1  0
 22 24  1  0
 10 11  1  0
 10 12  1  0
  1 15  1  0
  1  3  1  0
  1  2  1  0
 15 16  1  0
 16 18  2  0
 16 19  1  0
  3  4  2  0
 17 20  2  0
 17 21  1  0
 18 20  1  0
 19 21  2  0
  4  5  1  0
  4  6  1  0
  6  7  2  0
  7 11  1  0
M  END
> <PUBCHEM_COMPOUND_CID>
444732

> <PUBCHEM_CONFORMER_RMSD>
0.8

> <PUBCHEM_CONFORMER_DIVERSEORDER>
2
40
76
12
44
10
59
54
7
73
38
27
93
70
18
22
43
90
77
26
35
80
60
14
3
96
31
83
49
4
58
69
6
5
21
78
30
55
41
63
39
11
20
89
45
75
84
37
65
48
28
15
57
32
91
72
17
42
8
9
16
13
52
53
33
85
92
29
56
86
81
1
71
87
23
97
79
47
94
68
19
50
46
24
36
62
67
34
74
88
51
66
95
25
61
82
98
64

> <PUBCHEM_MMFF94_PARTIAL_CHARGES>
30
1 -0.57
11 0.1
12 -0.15
13 -0.15
14 -0.15
15 -0.15
16 -0.14
17 0.14
18 0.37
19 0.37
2 -0.57
20 -0.15
21 -0.14
22 0.62
24 0.15
28 0.15
29 0.15
3 -0.44
30 0.15
31 0.15
4 -0.84
41 0.15
42 0.15
43 0.37
44 0.4
5 -0.39
6 0.2
7 0.42
8 0.09
9 -0.29

> <PUBCHEM_EFFECTIVE_ROTOR_COUNT>
7

> <PUBCHEM_PHARMACOPHORE_FEATURES>
7
1 1 acceptor
1 10 hydrophobe
1 17 hydrophobe
1 2 acceptor
1 4 cation
1 5 donor
6 8 11 12 13 14 15 rings

> <PUBCHEM_HEAVY_ATOM_COUNT>
22

> <PUBCHEM_ATOM_DEF_STEREO_COUNT>
1

> <PUBCHEM_ATOM_UDEF_STEREO_COUNT>
0

> <PUBCHEM_BOND_DEF_STEREO_COUNT>
2

> <PUBCHEM_BOND_UDEF_STEREO_COUNT>
0

> <PUBCHEM_ISOTOPIC_ATOM_COUNT>
0

> <PUBCHEM_COMPONENT_COUNT>
1

> <PUBCHEM_CACTVS_TAUTO_COUNT>
9

> <PUBCHEM_CONFORMER_ID>
0006C93C00000002

> <PUBCHEM_MMFF94_ENERGY>
68.5736

> <PUBCHEM_FEATURE_SELFOVERLAP>
35.52

> <PUBCHEM_SHAPE_FINGERPRINT>
10319926 262 15697732496763557303
10692045 39 11815635055283359444
12293681 160 12973598932778199301
12403259 118 12319444550194199881
12592606 108 18410855504254728187
12596602 18 17131834304279926931
12633257 1 14907895015762341657
12760667 363 18409168800717199234
12895836 83 12757141399334142939
12895837 130 11025807491535449987
13103583 49 16773795926253527159
13533116 47 18124311864596212585
13540713 4 18268967891206584945
13673619 4 18130787854560239896
13690498 29 18187078447376276677
13757389 114 17752197293529989333
14123256 34 18334017211271614963
14251764 30 18413387648445131050
14420673 8 18410295830955217299
14765038 42 14764051377869384406
14931854 50 17458337533417374899
15061688 2 9151177566536318361
15188451 53 16845284008419407207
15238133 3 12967125056148805194
17492 54 14706922956090611105
17780758 139 17561361751364416001
1813 80 18341623632459686820
193927 3 18334573581498500097
19784866 240 18335702788862333573
20871999 31 16443056201953700861
21033648 29 13973701524307103169
21054139 6 18041841706575929146
21298829 104 8142096376683825887
21307412 95 17895472635511529595
21401589 2 10591765411262862869
21403212 168 15554450656981572695
21637258 2 18272649064820128705
22765269 38 9871756779986210251
22950370 63 18342741823174253368
23522609 53 18123222110744769216
23559900 14 16661202702150013749
2748736 6 8574717888096135782
2767999 5 8070029952208260022
2838139 119 11530478956365527086
312425 83 14347452915209619779
3472631 163 11169907286595898211
351380 3 18412823590448124066
3737641 26 17987805090320306142
393628 179 7853571254228018870
393628 194 9007055794471491195
4107672 100 17604143715159178813
465052 167 18342180015428633199
474 4 10303825306196850713
474113 269 17773867770798226359
484985 159 18340482249728134233
5104073 3 14404600174171725018
54039377 194 18413111641758503542
543368 44 10809331245035261055
6327066 14 9007056859474492474
636775 8 18270689671814971022
77188 2 18341611563786720841
7970288 3 18413103974361184510
8217 86 17967816075936971442
999808 66 18335990830338241987

> <PUBCHEM_SHAPE_MULTIPOLES>
425.18
16.88
2.68
1.47
16.09
1.23
0
-19.37
-0.29
-0.05
0.04
-0.97
0.03
0.23

> <PUBCHEM_SHAPE_SELFOVERLAP>
868.487

> <PUBCHEM_SHAPE_VOLUME>
246.3

> <PUBCHEM_COORDINATE_TYPE>
2
5
10

> <minimizedAffinity>
-7.57299

> <CNNscore>
0.7305217981

> <CNNaffinity>
6.5026440620

> <CNN_VS>
4.7503232956

> <CNNaffinity_variance>
0.1381828636

$$$$
