
 OpenBabel04292609583D

 39 42  0  0  0  0  0  0  0  0999 V2000
    2.7735    1.0634    0.0433 O   0  0  0  0  0  0  0  0  0  0  0  0
    2.3894   -0.0968   -0.1112 C   0  0  0  0  0  0  0  0  0  0  0  0
    1.1279   -0.3613   -0.8337 C   0  0  0  0  0  0  0  0  0  0  0  0
    0.8582   -1.5181   -1.4787 N   0  0  0  0  0  0  0  0  0  0  0  0
   -0.4255   -1.4125   -1.9788 O   0  0  0  0  0  0  0  0  0  0  0  0
   -0.8992   -0.1898   -1.6829 C   0  0  0  0  0  0  0  0  0  0  0  0
    0.0322    0.5327   -0.9852 C   0  0  0  0  0  0  0  0  0  0  0  0
   -0.2061    1.9340   -0.5585 C   0  0  0  0  0  0  0  0  0  0  0  0
   -1.7002    2.3095   -0.7180 C   0  0  0  0  0  0  0  0  0  0  0  0
   -2.3277    1.7563   -2.0191 C   0  0  0  0  0  0  0  0  0  0  0  0
   -2.2535    0.2182   -2.0926 C   0  0  0  0  0  0  0  0  0  0  0  0
    3.1011   -1.1729    0.4442 N   0  0  0  0  0  0  0  0  0  0  0  0
    2.6344   -2.5665    0.3963 C   0  0  0  0  0  0  0  0  0  0  0  0
    3.3534   -3.5323    1.3347 C   0  0  0  0  0  0  0  0  0  0  0  0
    4.8372   -3.3367    1.2347 C   0  0  0  0  0  0  0  0  0  0  0  0
    5.7253   -4.4148    1.2387 C   0  0  0  0  0  0  0  0  0  0  0  0
    7.0966   -4.1816    1.1801 C   0  0  0  0  0  0  0  0  0  0  0  0
    7.5829   -2.8729    1.1343 C   0  0  0  0  0  0  0  0  0  0  0  0
    6.6972   -1.7939    1.1346 C   0  0  0  0  0  0  0  0  0  0  0  0
    5.3172   -2.0177    1.1686 C   0  0  0  0  0  0  0  0  0  0  0  0
    4.3245   -0.8796    1.1920 C   0  0  0  0  0  0  0  0  0  0  0  0
    0.4004    2.6013   -1.1823 H   0  0  0  0  0  0  0  0  0  0  0  0
    0.0994    2.0844    0.4825 H   0  0  0  0  0  0  0  0  0  0  0  0
   -1.8047    3.4000   -0.6897 H   0  0  0  0  0  0  0  0  0  0  0  0
   -2.2633    1.9128    0.1369 H   0  0  0  0  0  0  0  0  0  0  0  0
   -1.7916    2.1842   -2.8767 H   0  0  0  0  0  0  0  0  0  0  0  0
   -3.3720    2.0762   -2.1000 H   0  0  0  0  0  0  0  0  0  0  0  0
   -2.4842   -0.1285   -3.1045 H   0  0  0  0  0  0  0  0  0  0  0  0
   -2.9886   -0.2209   -1.4081 H   0  0  0  0  0  0  0  0  0  0  0  0
    2.7808   -2.9069   -0.6361 H   0  0  0  0  0  0  0  0  0  0  0  0
    1.5658   -2.5953    0.6322 H   0  0  0  0  0  0  0  0  0  0  0  0
    3.0697   -4.5585    1.0757 H   0  0  0  0  0  0  0  0  0  0  0  0
    3.0457   -3.3528    2.3715 H   0  0  0  0  0  0  0  0  0  0  0  0
    5.3541   -5.4358    1.2807 H   0  0  0  0  0  0  0  0  0  0  0  0
    7.7888   -5.0194    1.1739 H   0  0  0  0  0  0  0  0  0  0  0  0
    8.6538   -2.6972    1.0990 H   0  0  0  0  0  0  0  0  0  0  0  0
    7.0919   -0.7808    1.1041 H   0  0  0  0  0  0  0  0  0  0  0  0
    4.7875    0.0382    0.8120 H   0  0  0  0  0  0  0  0  0  0  0  0
    4.0269   -0.6922    2.2321 H   0  0  0  0  0  0  0  0  0  0  0  0
  1  2  2  0  0  0  0
  2  3  1  0  0  0  0
  2 12  1  0  0  0  0
  3  4  2  0  0  0  0
  3  7  1  0  0  0  0
  4  5  1  0  0  0  0
  5  6  1  0  0  0  0
  6  7  2  0  0  0  0
  6 11  1  0  0  0  0
  7  8  1  0  0  0  0
  8  9  1  0  0  0  0
  8 22  1  0  0  0  0
  8 23  1  0  0  0  0
  9 10  1  0  0  0  0
  9 24  1  0  0  0  0
  9 25  1  0  0  0  0
 10 11  1  0  0  0  0
 10 26  1  0  0  0  0
 10 27  1  0  0  0  0
 11 28  1  0  0  0  0
 11 29  1  0  0  0  0
 12 13  1  0  0  0  0
 12 21  1  0  0  0  0
 13 14  1  0  0  0  0
 13 30  1  0  0  0  0
 13 31  1  0  0  0  0
 14 15  1  0  0  0  0
 14 32  1  0  0  0  0
 14 33  1  0  0  0  0
 15 16  2  0  0  0  0
 15 20  1  0  0  0  0
 16 17  1  0  0  0  0
 16 34  1  0  0  0  0
 17 18  2  0  0  0  0
 17 35  1  0  0  0  0
 18 19  1  0  0  0  0
 18 36  1  0  0  0  0
 19 20  2  0  0  0  0
 19 37  1  0  0  0  0
 20 21  1  0  0  0  0
 21 38  1  0  0  0  0
 21 39  1  0  0  0  0
M  END
$$$$
