
     RDKit          3D

 20 21  0  0  0  0  0  0  0  0999 V2000
   -4.7290   -1.2470   22.0110 C   0  0  0  0  0  0  0  0  0  0  0  0
   -3.2390   -1.5110   21.9880 C   0  0  0  0  0  0  0  0  0  0  0  0
   -2.9240   -2.9710   21.6910 C   0  0  0  0  0  0  0  0  0  0  0  0
   -3.7210   -3.6960   20.6240 C   0  0  0  0  0  0  0  0  0  0  0  0
   -3.3830   -3.6440   19.2760 C   0  0  0  0  0  0  0  0  0  0  0  0
   -4.1630   -4.3280   18.3500 C   0  0  0  0  0  0  0  0  0  0  0  0
   -5.2710   -5.0550   18.7690 C   0  0  0  0  0  0  0  0  0  0  0  0
   -6.0670   -5.7460   17.8450 O   0  0  0  0  0  0  0  0  0  0  0  0
   -5.6090   -5.1100   20.1080 C   0  0  0  0  0  0  0  0  0  0  0  0
   -4.8340   -4.4290   21.0280 C   0  0  0  0  0  0  0  0  0  0  0  0
   -1.9490   -3.6380   22.3650 C   0  0  0  0  0  0  0  0  0  0  0  0
   -1.1390   -2.9950   23.4820 C   0  0  1  0  0  0  0  0  0  0  0  0
   -1.7950   -2.7500   24.6800 C   0  0  0  0  0  0  0  0  0  0  0  0
   -1.1340   -2.1820   25.7510 C   0  0  0  0  0  0  0  0  0  0  0  0
    0.2070   -1.8750   25.6440 C   0  0  0  0  0  0  0  0  0  0  0  0
    0.8650   -1.3020   26.7500 O   0  0  0  0  0  0  0  0  0  0  0  0
    0.8840   -2.1330   24.4570 C   0  0  0  0  0  0  0  0  0  0  0  0
    0.2140   -2.6990   23.3770 C   0  0  0  0  0  0  0  0  0  0  0  0
   -1.6890   -5.0910   22.0280 C   0  0  0  0  0  0  0  0  0  0  0  0
   -0.4500   -5.2280   21.1760 C   0  0  0  0  0  0  0  0  0  0  0  0
  2  1  1  0
  3  2  1  0
  4  3  1  0
  5  4  1  0
  6  5  1  0
  7  6  1  0
  8  7  1  0
  9  7  1  0
 10  9  1  0
 10  4  1  0
 11  3  1  0
 12 11  1  1
 13 12  1  0
 14 13  1  0
 15 14  1  0
 16 15  1  0
 17 15  1  0
 18 17  1  0
 18 12  1  0
 19 11  1  0
 20 19  1  0
M  END
$$$$
