
     RDKit          3D

 23 24  0  0  0  0  0  0  0  0999 V2000
   24.8120    3.6820   10.8680 C   0  0  0  0  0  0  0  0  0  0  0  0
   23.5890    3.2310   10.0590 C   0  0  0  0  0  0  0  0  0  0  0  0
   23.5960    1.7970    9.6550 C   0  0  0  0  0  0  0  0  0  0  0  0
   22.4840    1.6080    8.6520 C   0  0  2  0  0  0  0  0  0  0  0  0
   22.2210    0.1630    8.3010 C   0  0  0  0  0  0  0  0  0  0  0  0
   22.7210    2.3860    7.5290 O   0  0  0  0  0  0  0  0  0  0  0  0
   21.7130    2.7680    6.8060 C   0  0  2  0  0  0  0  0  0  0  0  0
   20.5840    2.5010    7.1210 O   0  0  0  0  0  0  0  0  0  0  0  0
   22.0010    3.3790    5.5640 C   0  0  0  0  0  0  0  0  0  0  0  0
   20.9930    3.7300    4.6490 C   0  0  0  0  0  0  0  0  0  0  0  0
   19.7030    3.5240    4.9370 O   0  0  0  0  0  0  0  0  0  0  0  0
   21.2710    4.3090    3.4430 C   0  0  0  0  0  0  0  0  0  0  0  0
   22.5570    4.5580    3.0500 C   0  0  0  0  0  0  0  0  0  0  0  0
   22.8240    5.1170    1.8870 O   0  0  0  0  0  0  0  0  0  0  0  0
   23.5530    4.2360    3.9360 C   0  0  0  0  0  0  0  0  0  0  0  0
   23.3210    3.6650    5.1540 C   0  0  0  0  0  0  0  0  0  0  0  0
   24.4490    3.3750    5.8900 C   0  0  0  0  0  0  0  0  0  0  0  0
   25.3730    4.3280    6.2110 C   0  0  0  0  0  0  0  0  0  0  0  0
   26.5170    4.0170    6.9160 C   0  0  0  0  0  0  0  0  0  0  0  0
   26.7870    5.0580    7.9290 C   0  0  0  0  0  0  0  0  0  0  0  0
   25.8500    5.0050    9.1050 C   0  0  0  0  0  0  0  0  0  0  0  0
   26.0540    3.8530    9.9720 C   0  0  1  0  0  0  0  0  0  0  0  0
   27.0880    4.1270   10.7550 O   0  0  0  0  0  0  0  0  0  0  0  0
  2  1  1  0
  3  2  1  0
  4  3  1  0
  4  5  1  6
  6  4  1  0
  7  6  1  0
  7  8  1  6
  9  7  1  0
 10  9  1  0
 11 10  1  0
 12 10  1  0
 13 12  1  0
 14 13  1  0
 15 13  1  0
 16 15  1  0
 16  9  1  0
 17 16  1  0
 18 17  1  0
 19 18  1  0
 20 19  1  0
 21 20  1  0
 22 21  1  0
 22  1  1  0
 22 23  1  1
M  END
$$$$
