
     RDKit          3D

 17 18  0  0  0  0  0  0  0  0999 V2000
  -12.4770  -14.8930   45.6470 O   0  0  0  0  0  0  0  0  0  0  0  0
  -12.7890  -14.0320   46.6530 C   0  0  0  0  0  0  0  0  0  0  0  0
  -13.5150  -12.8760   46.3860 C   0  0  0  0  0  0  0  0  0  0  0  0
  -13.8280  -12.0020   47.4210 C   0  0  0  0  0  0  0  0  0  0  0  0
  -12.3810  -14.3110   47.9510 C   0  0  0  0  0  0  0  0  0  0  0  0
  -12.6980  -13.4370   48.9840 C   0  0  0  0  0  0  0  0  0  0  0  0
  -13.4160  -12.2770   48.7210 C   0  0  0  0  0  0  0  0  0  0  0  0
  -13.7840  -11.3070   49.8500 C   0  0  2  0  0  0  0  0  0  0  0  0
  -15.0270  -11.8460   50.5570 C   0  0  0  0  0  0  0  0  0  0  0  0
  -14.0800   -9.9270   49.2600 C   0  0  0  0  0  0  0  0  0  0  0  0
  -12.6670  -11.1400   50.8960 C   0  0  0  0  0  0  0  0  0  0  0  0
  -13.0250  -10.9160   52.2210 C   0  0  0  0  0  0  0  0  0  0  0  0
  -12.0470  -10.7470   53.1940 C   0  0  0  0  0  0  0  0  0  0  0  0
  -11.3190  -11.1840   50.5460 C   0  0  0  0  0  0  0  0  0  0  0  0
  -10.3370  -11.0170   51.5200 C   0  0  0  0  0  0  0  0  0  0  0  0
  -10.7050  -10.7970   52.8450 C   0  0  0  0  0  0  0  0  0  0  0  0
   -9.7560  -10.6300   53.8060 O   0  0  0  0  0  0  0  0  0  0  0  0
  2  1  1  0
  3  2  1  0
  4  3  1  0
  5  2  1  0
  6  5  1  0
  7  6  1  0
  7  4  1  0
  8  7  1  0
  8  9  1  1
 10  8  1  0
 11  8  1  0
 12 11  1  0
 13 12  1  0
 14 11  1  0
 15 14  1  0
 16 13  1  0
 16 15  1  0
 17 16  1  0
M  END
$$$$
