
     RDKit          3D

 20 23  0  0  0  0  0  0  0  0999 V2000
   40.7560   47.4340  139.4520 C   0  0  0  0  0  0  0  0  0  0  0  0
   41.2860   48.5620  140.0640 C   0  0  0  0  0  0  0  0  0  0  0  0
   40.8910   49.8050  139.6180 C   0  0  0  0  0  0  0  0  0  0  0  0
   41.4150   50.9430  140.2130 O   0  0  0  0  0  0  0  0  0  0  0  0
   39.9810   49.9970  138.5650 C   0  0  0  0  0  0  0  0  0  0  0  0
   39.4490   48.8300  137.9610 C   0  0  1  0  0  0  0  0  0  0  0  0
   38.5650   49.0580  136.7350 C   0  0  0  0  0  0  0  0  0  0  0  0
   38.1370   47.7750  136.0340 C   0  0  0  0  0  0  0  0  0  0  0  0
   37.9330   46.6490  137.0550 C   0  0  2  0  0  0  0  0  0  0  0  0
   39.2610   46.3430  137.7870 C   0  0  1  0  0  0  0  0  0  0  0  0
   39.8380   47.5660  138.4190 C   0  0  0  0  0  0  0  0  0  0  0  0
   39.0490   45.2340  138.7970 C   0  0  0  0  0  0  0  0  0  0  0  0
   38.6670   43.9360  138.0580 C   0  0  0  0  0  0  0  0  0  0  0  0
   37.3500   44.2180  137.3570 C   0  0  1  0  0  0  0  0  0  0  0  0
   37.5370   45.3880  136.3700 C   0  0  1  0  0  0  0  0  0  0  0  0
   36.1990   45.3410  135.6390 C   0  0  0  0  0  0  0  0  0  0  0  0
   36.1300   43.8250  135.2320 C   0  0  0  0  0  0  0  0  0  0  0  0
   36.9140   43.1390  136.3690 C   0  0  2  0  0  0  0  0  0  0  0  0
   36.2510   41.9750  136.8100 O   0  0  0  0  0  0  0  0  0  0  0  0
   36.2700   44.4800  138.3860 C   0  0  0  0  0  0  0  0  0  0  0  0
  2  1  1  0
  3  2  1  0
  4  3  1  0
  5  3  1  0
  6  5  1  6
  7  6  1  0
  8  7  1  0
  9  8  1  6
 10  9  1  0
 11 10  1  0
 11  6  1  0
 11  1  1  0
 10 12  1  1
 13 12  1  0
 14 13  1  0
 15 14  1  0
 15  9  1  0
 15 16  1  1
 17 16  1  0
 18 17  1  0
 18 14  1  0
 18 19  1  1
 14 20  1  1
M  END
$$$$
