68570
 OpenBabel07292612043D

 44 47  0  0  1  0  0  0  0  0999 V2000
    4.4056    0.8196   -1.3443 O   0  0  0  0  0  0  0  0  0  0  0  0
   -5.8371    0.0587    0.2669 O   0  0  0  0  0  0  0  0  0  0  0  0
    2.6774    0.6439    0.4059 C   0  0  1  0  0  0  0  0  0  0  0  0
    2.0449   -0.6089   -0.2340 C   0  0  2  0  0  0  0  0  0  0  0  0
    0.5597   -0.7451    0.1024 C   0  0  1  0  0  0  0  0  0  0  0  0
   -0.1985    0.4963   -0.4581 C   0  0  2  0  0  0  0  0  0  0  0  0
    4.1562    0.4439    0.0075 C   0  0  1  0  0  0  0  0  0  0  0  0
    1.9678    1.8773   -0.1698 C   0  0  0  0  0  0  0  0  0  0  0  0
    2.9980   -1.7335    0.1583 C   0  0  0  0  0  0  0  0  0  0  0  0
    0.4421    1.8169    0.0446 C   0  0  0  0  0  0  0  0  0  0  0  0
    4.3913   -1.0729    0.1705 C   0  0  0  0  0  0  0  0  0  0  0  0
   -0.0569   -2.0136   -0.4904 C   0  0  0  0  0  0  0  0  0  0  0  0
    2.5958    0.6784    1.9547 C   0  0  0  0  0  0  0  0  0  0  0  0
   -1.7031    0.3742   -0.2252 C   0  0  0  0  0  0  0  0  0  0  0  0
   -1.4915   -2.1683    0.0018 C   0  0  0  0  0  0  0  0  0  0  0  0
   -2.3003   -0.8956   -0.0542 C   0  0  0  0  0  0  0  0  0  0  0  0
   -2.5409    1.5029   -0.2670 C   0  0  0  0  0  0  0  0  0  0  0  0
   -3.6907   -0.9999    0.1243 C   0  0  0  0  0  0  0  0  0  0  0  0
   -3.9232    1.3861   -0.0982 C   0  0  0  0  0  0  0  0  0  0  0  0
   -4.4879    0.1369    0.1009 C   0  0  0  0  0  0  0  0  0  0  0  0
    4.2580    1.7728   -1.4475 H   0  0  0  0  0  0  0  0  0  0  0  0
   -6.2449   -0.7738    0.4032 H   0  0  0  0  0  0  0  0  0  0  0  0
    1.9689   -0.5921   -1.3012 H   0  0  0  0  0  0  0  0  0  0  0  0
    0.4695   -0.8071    1.1668 H   0  0  0  0  0  0  0  0  0  0  0  0
   -0.0894    0.5282   -1.5220 H   0  0  0  0  0  0  0  0  0  0  0  0
    4.8029    1.0490    0.6079 H   0  0  0  0  0  0  0  0  0  0  0  0
    2.1674    1.9323   -1.2196 H   0  0  0  0  0  0  0  0  0  0  0  0
    2.3397    2.7412    0.3402 H   0  0  0  0  0  0  0  0  0  0  0  0
    2.9620   -2.5270   -0.5586 H   0  0  0  0  0  0  0  0  0  0  0  0
    2.7462   -2.1691    1.1027 H   0  0  0  0  0  0  0  0  0  0  0  0
    0.2425    1.9139    1.0913 H   0  0  0  0  0  0  0  0  0  0  0  0
    0.0112    2.6139   -0.5247 H   0  0  0  0  0  0  0  0  0  0  0  0
    4.8875   -1.2729    1.0971 H   0  0  0  0  0  0  0  0  0  0  0  0
    5.0090   -1.4562   -0.6146 H   0  0  0  0  0  0  0  0  0  0  0  0
    0.5170   -2.8636   -0.1855 H   0  0  0  0  0  0  0  0  0  0  0  0
   -0.0552   -1.9419   -1.5580 H   0  0  0  0  0  0  0  0  0  0  0  0
    3.0902   -0.1810    2.3572 H   0  0  0  0  0  0  0  0  0  0  0  0
    1.5696    0.6742    2.2580 H   0  0  0  0  0  0  0  0  0  0  0  0
    3.0711    1.5658    2.3173 H   0  0  0  0  0  0  0  0  0  0  0  0
   -1.4643   -2.5053    1.0170 H   0  0  0  0  0  0  0  0  0  0  0  0
   -1.9693   -2.8677   -0.6519 H   0  0  0  0  0  0  0  0  0  0  0  0
   -2.1271    2.4350   -0.4254 H   0  0  0  0  0  0  0  0  0  0  0  0
   -4.1212   -1.9259    0.2734 H   0  0  0  0  0  0  0  0  0  0  0  0
   -4.5209    2.2271   -0.1216 H   0  0  0  0  0  0  0  0  0  0  0  0
  1  7  1  0  0  0  0
  1 21  1  0  0  0  0
  2 20  1  0  0  0  0
  2 22  1  0  0  0  0
  3  4  1  0  0  0  0
  3  7  1  0  0  0  0
  3  8  1  0  0  0  0
  3 13  1  1  0  0  0
  4  5  1  0  0  0  0
  4  9  1  0  0  0  0
  4 23  1  6  0  0  0
  5  6  1  0  0  0  0
  5 12  1  0  0  0  0
  5 24  1  1  0  0  0
  6 10  1  0  0  0  0
  6 14  1  0  0  0  0
  6 25  1  6  0  0  0
  7 11  1  0  0  0  0
  7 26  1  1  0  0  0
  8 10  1  0  0  0  0
  8 27  1  0  0  0  0
  8 28  1  0  0  0  0
  9 11  1  0  0  0  0
  9 29  1  0  0  0  0
  9 30  1  0  0  0  0
 10 31  1  0  0  0  0
 10 32  1  0  0  0  0
 11 33  1  0  0  0  0
 11 34  1  0  0  0  0
 12 15  1  0  0  0  0
 12 35  1  0  0  0  0
 12 36  1  0  0  0  0
 13 37  1  0  0  0  0
 13 38  1  0  0  0  0
 13 39  1  0  0  0  0
 14 16  2  0  0  0  0
 14 17  1  0  0  0  0
 15 16  1  0  0  0  0
 15 40  1  0  0  0  0
 15 41  1  0  0  0  0
 16 18  1  0  0  0  0
 17 19  2  0  0  0  0
 17 42  1  0  0  0  0
 18 20  2  0  0  0  0
 18 43  1  0  0  0  0
 19 20  1  0  0  0  0
 19 44  1  0  0  0  0
M  END
>  <PUBCHEM_COMPOUND_CID>
68570

>  <PUBCHEM_CONFORMER_RMSD>
0.6

>  <PUBCHEM_CONFORMER_DIVERSEORDER>
1

>  <PUBCHEM_MMFF94_PARTIAL_CHARGES>
16
1 -0.68
14 -0.14
15 0.14
16 -0.14
17 -0.15
18 -0.15
19 -0.15
2 -0.53
20 0.08
40 0.4
41 0.15
42 0.15
43 0.15
44 0.45
6 0.14
7 0.28

>  <PUBCHEM_EFFECTIVE_ROTOR_COUNT>
1.4

>  <PUBCHEM_PHARMACOPHORE_FEATURES>
7
1 1 acceptor
1 1 donor
1 2 donor
5 3 4 7 9 11 rings
6 14 16 17 18 19 20 rings
6 3 4 5 6 8 10 rings
6 5 6 12 14 15 16 rings

>  <PUBCHEM_HEAVY_ATOM_COUNT>
20

>  <PUBCHEM_ATOM_DEF_STEREO_COUNT>
5

>  <PUBCHEM_ATOM_UDEF_STEREO_COUNT>
0

>  <PUBCHEM_BOND_DEF_STEREO_COUNT>
0

>  <PUBCHEM_BOND_UDEF_STEREO_COUNT>
0

>  <PUBCHEM_ISOTOPIC_ATOM_COUNT>
0

>  <PUBCHEM_COMPONENT_COUNT>
1

>  <PUBCHEM_CACTVS_TAUTO_COUNT>
9

>  <PUBCHEM_CONFORMER_ID>
00010BDA00000001

>  <PUBCHEM_MMFF94_ENERGY>
69.3428

>  <PUBCHEM_FEATURE_SELFOVERLAP>
35.618

>  <PUBCHEM_SHAPE_FINGERPRINT>
10616163 171 18338519771284947038
10759866 29 18187370921990890310
10967382 1 18411135814155435478
11132069 177 18411128147955219289
11578080 2 17057794389455871787
12011746 2 18412266124977815126
12236239 1 17530965782521491253
12251169 10 18408601478724284839
12403259 415 18342449331748996329
12403814 3 17603581924282216789
12553582 1 18335972142856149292
12592029 89 18408605829616262163
12596602 18 16805328820511442865
12788726 201 17988655047010098944
128620 24 12612750224458463704
13140716 1 18194112138885451944
13221675 6 18334572460169111874
13583140 156 14045732764024906022
13675066 3 18273209824319078137
13862211 1 18411131425078913991
14004511 7 18131353011973597537
14178342 30 18052515945330118186
14341114 176 18408611353007066275
14790565 3 18409457959433100597
14866123 147 17047963252417928882
15196674 1 18410011009465155879
15295992 7 17774716562591187955
15536298 74 18343017796017945186
1601671 61 18408888429784642340
16945 1 18266729367362579950
17349148 13 18343577452232584525
17804303 29 18412265072906142549
1813 80 17167581570550668452
18186145 218 17704348883507215257
19591789 44 18266176128103673391
200 152 18059849567912636029
20028762 73 18130219458742002591
20261772 1 18412545439987025619
20510252 161 18271243829062774425
21033648 29 18271511036290094265
21267235 1 18337679624527194686
21279426 13 18125161524226373838
212847 35 18412826871760693450
22854114 59 18341894087061323305
22892500 29 17131823305216516480
23402539 116 18271799130037715485
23463225 33 18408884027216024692
23558518 356 17756421921850429074
23559900 14 18342737425333080802
2748010 2 18339071575766112638
3004659 81 18261396603478150918
335352 9 18410854321993581279
34934 24 18339639044658144766
350125 39 18410015416777367477
351380 180 18411134736635576307
3545911 37 18412265042624911722
4214541 1 18409448051275507149
465052 167 18113343020132333363
474 4 16661500665374500076
495365 180 17275091865007224026
5104073 3 18410009935728633491
537710 114 18410859849890907916
59755656 215 18338515236558585757
69090 78 18343295985788033031
7832392 63 18270112547471972486
9709674 26 18411704313365398047
9999458 23 18113057146950881966

>  <PUBCHEM_SHAPE_MULTIPOLES>
399.85
9.48
2.08
0.92
4.82
0.33
0.25
-0.57
0.29
-0.1
-0.12
-0.8
-0.19
0.05

>  <PUBCHEM_SHAPE_SELFOVERLAP>
871.523

>  <PUBCHEM_SHAPE_VOLUME>
217

>  <PUBCHEM_COORDINATE_TYPE>
2
5
10

>  <Energy>
59.2239

$$$$
