29212
 OpenBabel07292612043D

 49 51  0  0  1  0  0  0  0  0999 V2000
    5.1435    0.9457   -0.7827 O   0  0  0  0  0  0  0  0  0  0  0  0
   -0.9342    2.8220    0.5642 O   0  0  0  0  0  0  0  0  0  0  0  0
    3.2461    1.6634   -1.6780 O   0  0  0  0  0  0  0  0  0  0  0  0
    0.7329   -1.0562    0.4205 C   0  0  2  0  0  0  0  0  0  0  0  0
    1.5540    0.2324    0.0883 C   0  0  2  0  0  0  0  0  0  0  0  0
    3.1221    0.0826    0.2199 C   0  0  2  0  0  0  0  0  0  0  0  0
    1.2192   -2.2066   -0.5189 C   0  0  0  0  0  0  0  0  0  0  0  0
    3.5678   -1.3782   -0.0407 C   0  0  0  0  0  0  0  0  0  0  0  0
    2.6547   -2.0811   -1.0291 C   0  0  0  0  0  0  0  0  0  0  0  0
    1.0072    1.4588    0.8284 C   0  0  0  0  0  0  0  0  0  0  0  0
   -0.7695   -0.7876    0.2015 C   0  0  0  0  0  0  0  0  0  0  0  0
    0.8665   -1.4975    1.8978 C   0  0  0  0  0  0  0  0  0  0  0  0
    3.6735    0.5474    1.5838 C   0  0  0  0  0  0  0  0  0  0  0  0
   -1.3014    0.5130    0.2301 C   0  0  0  0  0  0  0  0  0  0  0  0
   -0.4472    1.6948    0.5128 C   0  0  0  0  0  0  0  0  0  0  0  0
    3.7965    0.9725   -0.8389 C   0  0  0  0  0  0  0  0  0  0  0  0
   -1.6697   -1.8544    0.0084 C   0  0  0  0  0  0  0  0  0  0  0  0
   -2.6731    0.7327    0.0250 C   0  0  0  0  0  0  0  0  0  0  0  0
   -3.5544   -0.3336   -0.1946 C   0  0  0  0  0  0  0  0  0  0  0  0
   -3.0355   -1.6310   -0.1937 C   0  0  0  0  0  0  0  0  0  0  0  0
   -5.0372   -0.1054   -0.4190 C   0  0  0  0  0  0  0  0  0  0  0  0
   -5.2888    0.7164   -1.6862 C   0  0  0  0  0  0  0  0  0  0  0  0
   -5.6926    0.5524    0.7983 C   0  0  0  0  0  0  0  0  0  0  0  0
    5.5751    0.4171   -0.1406 H   0  0  0  0  0  0  0  0  0  0  0  0
    1.4055    0.3924   -0.9592 H   0  0  0  0  0  0  0  0  0  0  0  0
    0.5692   -2.2346   -1.3684 H   0  0  0  0  0  0  0  0  0  0  0  0
    1.1961   -3.0974    0.0735 H   0  0  0  0  0  0  0  0  0  0  0  0
    3.5536   -1.9145    0.8851 H   0  0  0  0  0  0  0  0  0  0  0  0
    4.5528   -1.3549   -0.4579 H   0  0  0  0  0  0  0  0  0  0  0  0
    2.6459   -1.5243   -1.9428 H   0  0  0  0  0  0  0  0  0  0  0  0
    3.0346   -3.0710   -1.1729 H   0  0  0  0  0  0  0  0  0  0  0  0
    1.5702    2.3204    0.5357 H   0  0  0  0  0  0  0  0  0  0  0  0
    1.0970    1.2825    1.8799 H   0  0  0  0  0  0  0  0  0  0  0  0
    1.8937   -1.7012    2.1177 H   0  0  0  0  0  0  0  0  0  0  0  0
    0.2850   -2.3809    2.0602 H   0  0  0  0  0  0  0  0  0  0  0  0
    0.5132   -0.7155    2.5370 H   0  0  0  0  0  0  0  0  0  0  0  0
    3.2367   -0.0401    2.3641 H   0  0  0  0  0  0  0  0  0  0  0  0
    3.4298    1.5784    1.7345 H   0  0  0  0  0  0  0  0  0  0  0  0
    4.7366    0.4264    1.5987 H   0  0  0  0  0  0  0  0  0  0  0  0
   -1.3130   -2.8227    0.0162 H   0  0  0  0  0  0  0  0  0  0  0  0
   -3.0387    1.6977    0.0364 H   0  0  0  0  0  0  0  0  0  0  0  0
   -3.6670   -2.4333   -0.3438 H   0  0  0  0  0  0  0  0  0  0  0  0
   -5.4901   -1.0652   -0.5547 H   0  0  0  0  0  0  0  0  0  0  0  0
   -4.8453    1.6841   -1.5776 H   0  0  0  0  0  0  0  0  0  0  0  0
   -6.3425    0.8222   -1.8393 H   0  0  0  0  0  0  0  0  0  0  0  0
   -4.8546    0.2173   -2.5271 H   0  0  0  0  0  0  0  0  0  0  0  0
   -5.2586    1.5171    0.9593 H   0  0  0  0  0  0  0  0  0  0  0  0
   -5.5344   -0.0586    1.6623 H   0  0  0  0  0  0  0  0  0  0  0  0
   -6.7430    0.6585    0.6240 H   0  0  0  0  0  0  0  0  0  0  0  0
  1 16  1  0  0  0  0
  1 24  1  0  0  0  0
  2 15  2  0  0  0  0
  3 16  2  0  0  0  0
  4  5  1  0  0  0  0
  4  7  1  0  0  0  0
  4 11  1  0  0  0  0
  4 12  1  1  0  0  0
  5  6  1  0  0  0  0
  5 10  1  0  0  0  0
  5 25  1  6  0  0  0
  6  8  1  0  0  0  0
  6 13  1  0  0  0  0
  6 16  1  6  0  0  0
  7  9  1  0  0  0  0
  7 26  1  0  0  0  0
  7 27  1  0  0  0  0
  8  9  1  0  0  0  0
  8 28  1  0  0  0  0
  8 29  1  0  0  0  0
  9 30  1  0  0  0  0
  9 31  1  0  0  0  0
 10 15  1  0  0  0  0
 10 32  1  0  0  0  0
 10 33  1  0  0  0  0
 11 14  2  0  0  0  0
 11 17  1  0  0  0  0
 12 34  1  0  0  0  0
 12 35  1  0  0  0  0
 12 36  1  0  0  0  0
 13 37  1  0  0  0  0
 13 38  1  0  0  0  0
 13 39  1  0  0  0  0
 14 15  1  0  0  0  0
 14 18  1  0  0  0  0
 17 20  2  0  0  0  0
 17 40  1  0  0  0  0
 18 19  2  0  0  0  0
 18 41  1  0  0  0  0
 19 20  1  0  0  0  0
 19 21  1  0  0  0  0
 20 42  1  0  0  0  0
 21 22  1  0  0  0  0
 21 23  1  0  0  0  0
 21 43  1  0  0  0  0
 22 44  1  0  0  0  0
 22 45  1  0  0  0  0
 22 46  1  0  0  0  0
 23 47  1  0  0  0  0
 23 48  1  0  0  0  0
 23 49  1  0  0  0  0
M  END
>  <PUBCHEM_COMPOUND_CID>
29212

>  <PUBCHEM_CONFORMER_RMSD>
0.6

>  <PUBCHEM_CONFORMER_DIVERSEORDER>
1
3
2

>  <PUBCHEM_MMFF94_PARTIAL_CHARGES>
19
1 -0.65
10 0.06
11 -0.14
14 0.09
15 0.42
16 0.66
17 -0.15
18 -0.15
19 -0.14
2 -0.57
20 -0.15
21 0.14
3 -0.57
39 0.15
4 0.14
40 0.15
41 0.15
42 0.5
6 0.06

>  <PUBCHEM_EFFECTIVE_ROTOR_COUNT>
3

>  <PUBCHEM_PHARMACOPHORE_FEATURES>
8
1 1 acceptor
1 2 acceptor
1 3 acceptor
3 1 3 16 anion
3 21 22 23 hydrophobe
6 11 14 17 18 19 20 rings
6 4 5 10 11 14 15 rings
6 4 5 6 7 8 9 rings

>  <PUBCHEM_HEAVY_ATOM_COUNT>
23

>  <PUBCHEM_ATOM_DEF_STEREO_COUNT>
3

>  <PUBCHEM_ATOM_UDEF_STEREO_COUNT>
0

>  <PUBCHEM_BOND_DEF_STEREO_COUNT>
0

>  <PUBCHEM_BOND_UDEF_STEREO_COUNT>
0

>  <PUBCHEM_ISOTOPIC_ATOM_COUNT>
0

>  <PUBCHEM_COMPONENT_COUNT>
1

>  <PUBCHEM_CACTVS_TAUTO_COUNT>
2

>  <PUBCHEM_CONFORMER_ID>
0000721C00000001

>  <PUBCHEM_MMFF94_ENERGY>
80.3046

>  <PUBCHEM_FEATURE_SELFOVERLAP>
40.693

>  <PUBCHEM_SHAPE_FINGERPRINT>
10498660 4 18339931518856248548
10906281 52 18339091478887506280
10967382 1 18342174474894577290
116883 192 18199473172988700998
12236239 1 17967808392815478944
12403814 3 17675918807559330725
12553582 1 18342458157801164713
12788726 201 18270115713042510649
13140716 1 18196644309964432481
13224815 77 18260837002776216331
13583140 156 12391513040659031649
14787075 74 18042696176838311595
14790565 3 18269283365914043945
15081414 286 18341900679720435401
15196674 1 18412825798198581155
15475509 8 17630352799415824321
15664445 248 17987813998077371980
1601671 61 18413670227375928417
16752209 62 18269828740560265321
16945 1 18343026618207825560
17959699 21 18113616768352160813
17980427 23 18046045306784649684
18186145 218 17748823038077137422
19784866 9 17894621552653419691
19862831 5 18409164403008330503
200 152 17418089923557451715
20645477 70 18342740676386557959
20691752 17 17751095617211366272
20715895 44 18042391448945700797
21267235 1 18341340989272820691
21285901 2 18337950091550010789
21421861 104 18189331260501803939
21637258 2 14907907042039893012
23227448 37 18040999591741856719
23402539 116 18338510941296052838
23557571 272 17917149390818731896
23558518 356 18051137990660838449
23559900 14 18412548708626053574
23566358 2 18268430139872846373
25147074 1 18127139584520962104
2748010 2 17981599682499133961
2838139 119 17241895483172445460
2871803 45 18343022164310882718
296302 2 17821728359837884351
3004659 81 18335419037104809902
3060560 45 17775279491254492734
3286 77 16271348717881125163
34797466 226 15984818289890223585
34934 24 18342449374371335683
350125 39 18269278958949926746
4072396 5 18338778062249460962
4280585 95 17264425240993649046
4340502 62 16732988600767322739
474 4 17967538999233566798
5104073 3 18412823599212483667
537710 114 18411983567727549745
59755656 215 18412826850834743238
59755656 520 17095524028237451602
633830 44 17894627088813970958
70251023 43 18054238630631704883
7164475 11 18269559329956895316
9709674 26 18200318701709922246

>  <PUBCHEM_SHAPE_MULTIPOLES>
455.72
10.04
2.29
1.31
8.13
0.05
0.03
-1.97
-2.59
-0.85
-0.08
-0.43
-0.11
-0.14

>  <PUBCHEM_SHAPE_SELFOVERLAP>
977.809

>  <PUBCHEM_SHAPE_VOLUME>
250.1

>  <PUBCHEM_COORDINATE_TYPE>
2
5
10

>  <Energy>
58.632

$$$$
