7333
 OpenBabel07292612043D

 36 37  0  0  0  0  0  0  0  0999 V2000
    1.2269    1.0774    0.6237 N   0  0  0  0  0  0  0  0  0  0  0  0
   -0.7140   -0.0362   -0.1381 N   0  3  0  0  0  0  0  0  0  0  0  0
   -0.7488    2.0907    0.9085 N   0  0  0  0  0  0  0  0  0  0  0  0
    2.2532    0.1856    0.2371 C   0  0  0  0  0  0  0  0  0  0  0  0
    3.5503    0.6881   -0.0483 C   0  0  0  0  0  0  0  0  0  0  0  0
   -2.9101   -0.7167    0.6800 C   0  0  0  0  0  0  0  0  0  0  0  0
   -2.1138   -0.0559   -0.2713 C   0  0  0  0  0  0  0  0  0  0  0  0
    2.0330   -1.1907    0.0797 C   0  0  0  0  0  0  0  0  0  0  0  0
    4.5698   -0.1933   -0.4578 C   0  0  0  0  0  0  0  0  0  0  0  0
   -0.1262    0.9622    0.4300 C   0  0  0  0  0  0  0  0  0  0  0  0
    3.8695    2.1539    0.0636 C   0  0  0  0  0  0  0  0  0  0  0  0
    3.0561   -2.0565   -0.3295 C   0  0  0  0  0  0  0  0  0  0  0  0
    4.3221   -1.5538   -0.5969 C   0  0  0  0  0  0  0  0  0  0  0  0
   -4.3035   -0.7134    0.5304 C   0  0  0  0  0  0  0  0  0  0  0  0
   -2.7160    0.5497   -1.3772 C   0  0  0  0  0  0  0  0  0  0  0  0
   -2.2749   -1.4051    1.8556 C   0  0  0  0  0  0  0  0  0  0  0  0
   -4.8974   -0.0872   -0.5655 C   0  0  0  0  0  0  0  0  0  0  0  0
   -4.1039    0.5405   -1.5249 C   0  0  0  0  0  0  0  0  0  0  0  0
    1.5228    1.8897    1.0948 H   0  0  0  0  0  0  0  0  0  0  0  0
   -0.1793   -0.7887   -0.4803 H   0  0  0  0  0  0  0  0  0  0  0  0
   -0.2178    2.8051    1.3291 H   0  0  0  0  0  0  0  0  0  0  0  0
   -1.7257    2.1843    0.8306 H   0  0  0  0  0  0  0  0  0  0  0  0
    1.0944   -1.5753    0.2700 H   0  0  0  0  0  0  0  0  0  0  0  0
    5.5127    0.1759   -0.6570 H   0  0  0  0  0  0  0  0  0  0  0  0
    2.9976    2.6854    0.3832 H   0  0  0  0  0  0  0  0  0  0  0  0
    4.1835    2.5243   -0.8898 H   0  0  0  0  0  0  0  0  0  0  0  0
    4.6544    2.2945    0.7771 H   0  0  0  0  0  0  0  0  0  0  0  0
    2.8686   -3.0661   -0.4319 H   0  0  0  0  0  0  0  0  0  0  0  0
    5.0776   -2.1889   -0.8984 H   0  0  0  0  0  0  0  0  0  0  0  0
   -4.8951   -1.1781    1.2368 H   0  0  0  0  0  0  0  0  0  0  0  0
   -2.1290    1.0080   -2.0916 H   0  0  0  0  0  0  0  0  0  0  0  0
   -1.2116   -1.3010    1.7980 H   0  0  0  0  0  0  0  0  0  0  0  0
   -2.5329   -2.4434    1.8430 H   0  0  0  0  0  0  0  0  0  0  0  0
   -2.6282   -0.9607    2.7626 H   0  0  0  0  0  0  0  0  0  0  0  0
   -5.9245   -0.0886   -0.6662 H   0  0  0  0  0  0  0  0  0  0  0  0
   -4.5410    0.9967   -2.3409 H   0  0  0  0  0  0  0  0  0  0  0  0
  1  4  1  0  0  0  0
  1 10  1  0  0  0  0
  1 19  1  0  0  0  0
  2  7  1  0  0  0  0
  2 10  2  0  0  0  0
  2 20  1  0  0  0  0
  3 10  1  0  0  0  0
  3 21  1  0  0  0  0
  3 22  1  0  0  0  0
  4  5  1  0  0  0  0
  4  8  2  0  0  0  0
  5  9  2  0  0  0  0
  5 11  1  0  0  0  0
  6  7  1  0  0  0  0
  6 14  2  0  0  0  0
  6 16  1  0  0  0  0
  7 15  2  0  0  0  0
  8 12  1  0  0  0  0
  8 23  1  0  0  0  0
  9 13  1  0  0  0  0
  9 24  1  0  0  0  0
 11 25  1  0  0  0  0
 11 26  1  0  0  0  0
 11 27  1  0  0  0  0
 12 13  2  0  0  0  0
 12 28  1  0  0  0  0
 13 29  1  0  0  0  0
 14 17  1  0  0  0  0
 14 30  1  0  0  0  0
 15 18  1  0  0  0  0
 15 31  1  0  0  0  0
 16 32  1  0  0  0  0
 16 33  1  0  0  0  0
 16 34  1  0  0  0  0
 17 18  2  0  0  0  0
 17 35  1  0  0  0  0
 18 36  1  0  0  0  0
M  CHG  1   2   1
M  END
>  <PUBCHEM_COMPOUND_CID>
7333

>  <PUBCHEM_CONFORMER_RMSD>
0.6

>  <PUBCHEM_CONFORMER_DIVERSEORDER>
3
10
22
25
12
29
17
8
15
27
11
7
9
23
13
26
20
6
18
28
5
19
21
1
14
24
2
16
4

>  <PUBCHEM_MMFF94_PARTIAL_CHARGES>
29
1 -0.55
10 0.55
11 0.14
12 -0.15
13 -0.15
14 -0.15
15 -0.15
16 0.14
17 -0.15
18 -0.15
19 0.4
2 -0.63
20 0.15
21 0.15
25 0.15
26 0.15
27 0.15
28 0.15
3 -0.85
32 0.15
33 0.15
34 0.4
35 0.4
4 0.1
5 -0.14
6 -0.14
7 0.18
8 -0.15
9 -0.15

>  <PUBCHEM_EFFECTIVE_ROTOR_COUNT>
3

>  <PUBCHEM_PHARMACOPHORE_FEATURES>
5
1 1 donor
1 3 donor
4 1 2 3 10 cation
6 4 5 8 9 12 13 rings
6 6 7 14 15 17 18 rings

>  <PUBCHEM_HEAVY_ATOM_COUNT>
18

>  <PUBCHEM_ATOM_DEF_STEREO_COUNT>
0

>  <PUBCHEM_ATOM_UDEF_STEREO_COUNT>
0

>  <PUBCHEM_BOND_DEF_STEREO_COUNT>
0

>  <PUBCHEM_BOND_UDEF_STEREO_COUNT>
0

>  <PUBCHEM_ISOTOPIC_ATOM_COUNT>
0

>  <PUBCHEM_COMPONENT_COUNT>
1

>  <PUBCHEM_CACTVS_TAUTO_COUNT>
2

>  <PUBCHEM_CONFORMER_ID>
00001CA500000003

>  <PUBCHEM_MMFF94_ENERGY>
66.0177

>  <PUBCHEM_FEATURE_SELFOVERLAP>
25.429

>  <PUBCHEM_SHAPE_FINGERPRINT>
10498660 4 16950550048602242821
11471102 20 18341612637843840832
12173636 292 16951109691578655919
12236239 1 16917350351010200431
12553582 1 17846495928779419350
12596602 18 16271919445651028266
13544592 145 18041279885233327803
13760787 5 18060138747301156901
14251757 17 18186801361687142379
14386348 63 18334298681689549155
14573314 32 18259982656798528997
15188451 53 14476659911350731677
15375358 24 18260263083423463034
15375462 189 17704354381228910496
15635459 17 18409735040869218402
15961568 22 16805889627498263324
1813 80 17489318485385249756
18186145 218 18040152890051672617
200 152 18131068212349347328
20279233 1 18186803586353730834
20281475 54 17989200469011437613
20325693 3 17240485793316992095
20645477 56 17530681009416131285
20645477 70 18342739611371493806
20871999 31 17968096374240518213
21033650 10 15937257660279275684
21065201 7 17167859768330188346
22646028 1 16630522938335842999
22646028 28 17846497010884500110
23175994 123 18411140247142258405
23526113 38 18335978757232028849
23557571 272 17675924308906229692
23559900 14 18113616777221624442
23596394 208 18333448720978900790
26918003 58 18408040710682984186
2871803 45 18410294675323736254
312423 11 18059308577763229552
3472631 163 16008749112876254775
465052 167 17703791448481972887
474 4 16986292040722308192
4921388 177 16950295013386326803
5281201 14 18259704488799177188
573450 72 15913610562389953415
59682541 52 18056734591431360629
960060 61 18272362083637517541
9709674 26 18187086212508381283

>  <PUBCHEM_SHAPE_MULTIPOLES>
355.49
10.56
1.84
1.23
0.24
0.09
-0.06
-1.11
2.66
-1.8
-0.31
1.22
-0.04
1.36

>  <PUBCHEM_SHAPE_SELFOVERLAP>
756.545

>  <PUBCHEM_SHAPE_VOLUME>
196

>  <PUBCHEM_COORDINATE_TYPE>
2
5
10

>  <Energy>
-49.8989

$$$$
