125017
 OpenBabel07292612043D

 45 46  0  0  1  0  0  0  0  0999 V2000
   -1.5189    0.6035   -1.5576 O   0  0  0  0  0  0  0  0  0  0  0  0
    4.5030    2.2668   -0.2043 O   0  0  0  0  0  0  0  0  0  0  0  0
    0.8400   -2.9051    0.0523 N   0  3  0  0  0  0  0  0  0  0  0  0
   -1.6248    0.1975   -0.1853 C   0  0  0  0  0  0  0  0  0  0  0  0
   -0.3696   -0.6486    0.2700 C   0  0  1  0  0  0  0  0  0  0  0  0
   -1.7325    1.4767    0.6816 C   0  0  0  0  0  0  0  0  0  0  0  0
   -2.9416   -0.6061   -0.0627 C   0  0  0  0  0  0  0  0  0  0  0  0
   -2.9740    2.3115    0.3741 C   0  0  0  0  0  0  0  0  0  0  0  0
   -4.1768    0.2371   -0.3873 C   0  0  0  0  0  0  0  0  0  0  0  0
   -4.2486    1.4855    0.4804 C   0  0  0  0  0  0  0  0  0  0  0  0
   -0.2605   -2.0384   -0.4275 C   0  0  0  0  0  0  0  0  0  0  0  0
    0.9457    0.1278    0.1413 C   0  0  0  0  0  0  0  0  0  0  0  0
    1.6893    0.4476    1.2896 C   0  0  0  0  0  0  0  0  0  0  0  0
    1.4408    0.5350   -1.1083 C   0  0  0  0  0  0  0  0  0  0  0  0
    0.9336   -4.1110   -0.7714 C   0  0  0  0  0  0  0  0  0  0  0  0
    0.6887   -3.2699    1.4611 C   0  0  0  0  0  0  0  0  0  0  0  0
    2.8872    1.1615    1.1897 C   0  0  0  0  0  0  0  0  0  0  0  0
    2.6302    1.2558   -1.2084 C   0  0  0  0  0  0  0  0  0  0  0  0
    3.3443    1.5629   -0.0603 C   0  0  0  0  0  0  0  0  0  0  0  0
   -0.7031    1.1135   -1.6818 H   0  0  0  0  0  0  0  0  0  0  0  0
    5.0113    2.4918    0.5500 H   0  0  0  0  0  0  0  0  0  0  0  0
    1.7026   -2.3672   -0.0314 H   0  0  0  0  0  0  0  0  0  0  0  0
   -0.5395   -0.8392    1.3091 H   0  0  0  0  0  0  0  0  0  0  0  0
   -0.8660    2.0796    0.5067 H   0  0  0  0  0  0  0  0  0  0  0  0
   -1.8060    1.1631    1.7020 H   0  0  0  0  0  0  0  0  0  0  0  0
   -3.0289   -0.9705    0.9395 H   0  0  0  0  0  0  0  0  0  0  0  0
   -2.9002   -1.4070   -0.7711 H   0  0  0  0  0  0  0  0  0  0  0  0
   -2.8938    2.6990   -0.6200 H   0  0  0  0  0  0  0  0  0  0  0  0
   -3.0292    3.1037    1.0912 H   0  0  0  0  0  0  0  0  0  0  0  0
   -5.0535   -0.3530   -0.2196 H   0  0  0  0  0  0  0  0  0  0  0  0
   -4.1121    0.5445   -1.4101 H   0  0  0  0  0  0  0  0  0  0  0  0
   -5.0777    2.0827    0.1628 H   0  0  0  0  0  0  0  0  0  0  0  0
   -4.3677    1.1805    1.4991 H   0  0  0  0  0  0  0  0  0  0  0  0
   -1.1823   -2.5590   -0.2722 H   0  0  0  0  0  0  0  0  0  0  0  0
   -0.0491   -1.8360   -1.4567 H   0  0  0  0  0  0  0  0  0  0  0  0
    1.3474    0.1522    2.2174 H   0  0  0  0  0  0  0  0  0  0  0  0
    0.9167    0.2973   -1.9649 H   0  0  0  0  0  0  0  0  0  0  0  0
    0.0284   -4.6745   -0.6829 H   0  0  0  0  0  0  0  0  0  0  0  0
    1.7583   -4.7064   -0.4395 H   0  0  0  0  0  0  0  0  0  0  0  0
    1.0826   -3.8337   -1.7940 H   0  0  0  0  0  0  0  0  0  0  0  0
   -0.2094   -3.8376    1.5880 H   0  0  0  0  0  0  0  0  0  0  0  0
    0.6364   -2.3819    2.0558 H   0  0  0  0  0  0  0  0  0  0  0  0
    1.5284   -3.8569    1.7697 H   0  0  0  0  0  0  0  0  0  0  0  0
    3.4286    1.3889    2.0383 H   0  0  0  0  0  0  0  0  0  0  0  0
    2.9771    1.5590   -2.1319 H   0  0  0  0  0  0  0  0  0  0  0  0
  1  4  1  0  0  0  0
  1 20  1  0  0  0  0
  2 19  1  0  0  0  0
  2 21  1  0  0  0  0
  3 11  1  0  0  0  0
  3 15  1  0  0  0  0
  3 16  1  0  0  0  0
  3 22  1  0  0  0  0
  4  5  1  0  0  0  0
  4  6  1  0  0  0  0
  4  7  1  0  0  0  0
  5 11  1  0  0  0  0
  5 12  1  0  0  0  0
  5 23  1  1  0  0  0
  6  8  1  0  0  0  0
  6 24  1  0  0  0  0
  6 25  1  0  0  0  0
  7  9  1  0  0  0  0
  7 26  1  0  0  0  0
  7 27  1  0  0  0  0
  8 10  1  0  0  0  0
  8 28  1  0  0  0  0
  8 29  1  0  0  0  0
  9 10  1  0  0  0  0
  9 30  1  0  0  0  0
  9 31  1  0  0  0  0
 10 32  1  0  0  0  0
 10 33  1  0  0  0  0
 11 34  1  0  0  0  0
 11 35  1  0  0  0  0
 12 13  2  0  0  0  0
 12 14  1  0  0  0  0
 13 17  1  0  0  0  0
 13 36  1  0  0  0  0
 14 18  2  0  0  0  0
 14 37  1  0  0  0  0
 15 38  1  0  0  0  0
 15 39  1  0  0  0  0
 15 40  1  0  0  0  0
 16 41  1  0  0  0  0
 16 42  1  0  0  0  0
 16 43  1  0  0  0  0
 17 19  2  0  0  0  0
 17 44  1  0  0  0  0
 18 19  1  0  0  0  0
 18 45  1  0  0  0  0
M  CHG  1   3   1
M  END
>  <PUBCHEM_COMPOUND_CID>
125017

>  <PUBCHEM_CONFORMER_RMSD>
0.8

>  <PUBCHEM_CONFORMER_DIVERSEORDER>
1
7
10
12
5
11
3
6
8
9
2
4

>  <PUBCHEM_MMFF94_PARTIAL_CHARGES>
20
1 -0.68
11 0.27
12 -0.14
13 -0.15
14 -0.15
15 0.27
16 0.27
17 -0.15
18 -0.15
19 0.08
2 -0.53
3 -0.81
33 0.4
34 0.15
35 0.15
4 0.28
42 0.15
43 0.15
44 0.45
5 0.14

>  <PUBCHEM_EFFECTIVE_ROTOR_COUNT>
5.2

>  <PUBCHEM_PHARMACOPHORE_FEATURES>
6
1 1 acceptor
1 1 donor
1 2 donor
1 3 cation
6 12 13 14 17 18 19 rings
6 4 6 7 8 9 10 rings

>  <PUBCHEM_HEAVY_ATOM_COUNT>
19

>  <PUBCHEM_ATOM_DEF_STEREO_COUNT>
0

>  <PUBCHEM_ATOM_UDEF_STEREO_COUNT>
1

>  <PUBCHEM_BOND_DEF_STEREO_COUNT>
0

>  <PUBCHEM_BOND_UDEF_STEREO_COUNT>
0

>  <PUBCHEM_ISOTOPIC_ATOM_COUNT>
0

>  <PUBCHEM_COMPONENT_COUNT>
1

>  <PUBCHEM_CACTVS_TAUTO_COUNT>
2

>  <PUBCHEM_CONFORMER_ID>
0001E85900000001

>  <PUBCHEM_MMFF94_ENERGY>
56.9376

>  <PUBCHEM_FEATURE_SELFOVERLAP>
30.446

>  <PUBCHEM_SHAPE_FINGERPRINT>
10465860 228 18266743480720242121
10498660 4 18343301449018673185
11578080 2 13137251222714132308
11582403 64 16197010844196013106
11725454 13 16556746876707065104
12173636 292 18340482395277130500
12500047 106 18268992175668061700
12788726 201 17540547141942767470
13132413 78 17622164560044864364
13140716 1 18335421244596739458
13681431 1 17834946482426626158
13878862 14 17976529513200850349
14787075 74 17985826171469659921
14955137 171 18127406744498957714
15309172 13 18260265282478535845
15775835 57 18041557039520690772
15906896 17 17973164220917679890
16752209 62 18048308139609818930
16945 1 18129376180013262557
1813 80 17689438182900944475
18186145 218 17916884476856424604
18785283 64 18263372408086655818
20028762 73 17482281813480605167
20097449 115 17544188281713647162
201361 129 18341055094922215329
20361792 2 9439405713694702305
20510252 161 18197786706924866337
20600515 1 16969090270987933357
20645476 183 18263081192102908236
20671657 1 18195535787663768661
20711985 344 17761766669516865034
212916 134 18271791463384299528
21501502 16 18199464356048414289
21524375 3 18408600387654944104
21731228 192 18334016128770817368
2255824 54 18192716635629562947
23366157 5 18189900799061540283
23402539 116 18199742708035690684
23419403 2 17121764959555135447
23526113 38 17632032921828053206
23557571 272 17765722708280279308
23559900 14 18053095130438817891
23566358 27 18269274573888934335
23598288 3 17684663399528647270
25 1 17846227656421725080
298252 57 18262238936178779472
305870 269 18411136896460898200
3071541 12 18195815067701473775
3091708 16 9191563689507722939
312423 11 18057324977641142561
350125 39 18051419470286288225
4175511 71 17476370400428101899
43471831 8 18410290315757993995
458136 41 18340498785104018443
474 4 18334296444296417937
474229 33 18265054815765189459
6138700 20 18195535784071220638
633830 44 18272655640404912469
6442390 28 18269571574971791011
7364860 26 18197778799805859995
81228 2 17688859157011197106
81539 233 18335697222073144863
84936 182 18272373014324114944
84936 31 18127393571454251294
9981440 41 18410572902978013889

>  <PUBCHEM_SHAPE_MULTIPOLES>
374.29
6.34
3.69
1.23
2.9
4.66
0.05
-5.73
0
-2.37
0.08
-0.52
0.1
-0.45

>  <PUBCHEM_SHAPE_SELFOVERLAP>
776.392

>  <PUBCHEM_SHAPE_VOLUME>
213.6

>  <PUBCHEM_COORDINATE_TYPE>
2
5
10

>  <Energy>
62.5547

$$$$
