3100
 OpenBabel07292612043D

 41 42  0  0  0  0  0  0  0  0999 V2000
    1.0794   -0.1037   -0.1015 O   0  0  0  0  0  0  0  0  0  0  0  0
    4.0385   -0.6911    0.0360 N   0  3  0  0  0  0  0  0  0  0  0  0
   -0.2007   -0.0092    0.5449 C   0  0  0  0  0  0  0  0  0  0  0  0
   -0.9041    1.2927    0.1806 C   0  0  0  0  0  0  0  0  0  0  0  0
   -1.0454   -1.2304    0.2005 C   0  0  0  0  0  0  0  0  0  0  0  0
    2.0357    0.8383    0.3944 C   0  0  0  0  0  0  0  0  0  0  0  0
    3.3995    0.6028   -0.2764 C   0  0  0  0  0  0  0  0  0  0  0  0
   -1.7215    1.9412    1.1187 C   0  0  0  0  0  0  0  0  0  0  0  0
   -2.0124   -1.6957    1.1094 C   0  0  0  0  0  0  0  0  0  0  0  0
   -0.7247    1.8849   -1.0810 C   0  0  0  0  0  0  0  0  0  0  0  0
   -0.9159   -1.8935   -1.0302 C   0  0  0  0  0  0  0  0  0  0  0  0
    4.2609   -0.8681    1.4679 C   0  0  0  0  0  0  0  0  0  0  0  0
    5.2956   -0.8195   -0.6999 C   0  0  0  0  0  0  0  0  0  0  0  0
   -2.3079    3.1700    0.8153 C   0  0  0  0  0  0  0  0  0  0  0  0
   -2.8269   -2.7852    0.7941 C   0  0  0  0  0  0  0  0  0  0  0  0
   -1.2927    3.1248   -1.3731 C   0  0  0  0  0  0  0  0  0  0  0  0
   -1.7297   -2.9851   -1.3435 C   0  0  0  0  0  0  0  0  0  0  0  0
   -2.0792    3.7669   -0.4243 C   0  0  0  0  0  0  0  0  0  0  0  0
   -2.6863   -3.4285   -0.4334 C   0  0  0  0  0  0  0  0  0  0  0  0
    3.3983   -1.4286   -0.2581 H   0  0  0  0  0  0  0  0  0  0  0  0
   -0.0558    0.0054    1.6049 H   0  0  0  0  0  0  0  0  0  0  0  0
    2.1357    0.7183    1.4530 H   0  0  0  0  0  0  0  0  0  0  0  0
    1.7007    1.8300    0.1726 H   0  0  0  0  0  0  0  0  0  0  0  0
    3.2608    0.6562   -1.3361 H   0  0  0  0  0  0  0  0  0  0  0  0
    4.0536    1.3575    0.1075 H   0  0  0  0  0  0  0  0  0  0  0  0
   -1.8899    1.5063    2.0393 H   0  0  0  0  0  0  0  0  0  0  0  0
   -2.1216   -1.2256    2.0216 H   0  0  0  0  0  0  0  0  0  0  0  0
   -0.1666    1.3972   -1.7991 H   0  0  0  0  0  0  0  0  0  0  0  0
   -0.2112   -1.5707   -1.7115 H   0  0  0  0  0  0  0  0  0  0  0  0
    4.9304   -0.1117    1.8211 H   0  0  0  0  0  0  0  0  0  0  0  0
    4.6873   -1.8332    1.6461 H   0  0  0  0  0  0  0  0  0  0  0  0
    3.3282   -0.7890    1.9862 H   0  0  0  0  0  0  0  0  0  0  0  0
    5.9691   -0.0467   -0.3931 H   0  0  0  0  0  0  0  0  0  0  0  0
    5.1053   -0.7310   -1.7491 H   0  0  0  0  0  0  0  0  0  0  0  0
    5.7323   -1.7749   -0.4960 H   0  0  0  0  0  0  0  0  0  0  0  0
   -2.9118    3.6380    1.5090 H   0  0  0  0  0  0  0  0  0  0  0  0
   -3.5333   -3.1139    1.4708 H   0  0  0  0  0  0  0  0  0  0  0  0
   -1.1292    3.5646   -2.2923 H   0  0  0  0  0  0  0  0  0  0  0  0
   -1.6218   -3.4639   -2.2513 H   0  0  0  0  0  0  0  0  0  0  0  0
   -2.4948    4.6872   -0.6373 H   0  0  0  0  0  0  0  0  0  0  0  0
   -3.2899   -4.2321   -0.6680 H   0  0  0  0  0  0  0  0  0  0  0  0
  1  3  1  0  0  0  0
  1  6  1  0  0  0  0
  2  7  1  0  0  0  0
  2 12  1  0  0  0  0
  2 13  1  0  0  0  0
  2 20  1  0  0  0  0
  3  4  1  0  0  0  0
  3  5  1  0  0  0  0
  3 21  1  0  0  0  0
  4  8  2  0  0  0  0
  4 10  1  0  0  0  0
  5  9  2  0  0  0  0
  5 11  1  0  0  0  0
  6  7  1  0  0  0  0
  6 22  1  0  0  0  0
  6 23  1  0  0  0  0
  7 24  1  0  0  0  0
  7 25  1  0  0  0  0
  8 14  1  0  0  0  0
  8 26  1  0  0  0  0
  9 15  1  0  0  0  0
  9 27  1  0  0  0  0
 10 16  2  0  0  0  0
 10 28  1  0  0  0  0
 11 17  2  0  0  0  0
 11 29  1  0  0  0  0
 12 30  1  0  0  0  0
 12 31  1  0  0  0  0
 12 32  1  0  0  0  0
 13 33  1  0  0  0  0
 13 34  1  0  0  0  0
 13 35  1  0  0  0  0
 14 18  2  0  0  0  0
 14 36  1  0  0  0  0
 15 19  2  0  0  0  0
 15 37  1  0  0  0  0
 16 18  1  0  0  0  0
 16 38  1  0  0  0  0
 17 19  1  0  0  0  0
 17 39  1  0  0  0  0
 18 40  1  0  0  0  0
 19 41  1  0  0  0  0
M  CHG  1   2   1
M  END
>  <PUBCHEM_COMPOUND_CID>
3100

>  <PUBCHEM_CONFORMER_RMSD>
0.8

>  <PUBCHEM_CONFORMER_DIVERSEORDER>
3
13
14
12
2
10
8
9
4
5
11
1
15
7
6

>  <PUBCHEM_MMFF94_PARTIAL_CHARGES>
29
1 -0.56
10 -0.15
11 -0.15
12 0.27
13 0.27
14 -0.15
15 -0.15
16 -0.15
17 -0.15
18 -0.15
19 -0.15
2 -0.81
25 0.15
26 0.15
27 0.15
28 0.15
3 0.57
35 0.15
36 0.15
37 0.15
38 0.15
39 0.15
4 -0.14
40 0.15
5 -0.14
6 0.28
7 0.27
8 -0.15
9 -0.15

>  <PUBCHEM_EFFECTIVE_ROTOR_COUNT>
6

>  <PUBCHEM_PHARMACOPHORE_FEATURES>
4
1 1 acceptor
1 2 cation
6 4 8 10 14 16 18 rings
6 5 9 11 15 17 19 rings

>  <PUBCHEM_HEAVY_ATOM_COUNT>
19

>  <PUBCHEM_ATOM_DEF_STEREO_COUNT>
0

>  <PUBCHEM_ATOM_UDEF_STEREO_COUNT>
0

>  <PUBCHEM_BOND_DEF_STEREO_COUNT>
0

>  <PUBCHEM_BOND_UDEF_STEREO_COUNT>
0

>  <PUBCHEM_ISOTOPIC_ATOM_COUNT>
0

>  <PUBCHEM_COMPONENT_COUNT>
1

>  <PUBCHEM_CACTVS_TAUTO_COUNT>
1

>  <PUBCHEM_CONFORMER_ID>
00000C1C00000003

>  <PUBCHEM_MMFF94_ENERGY>
59.7654

>  <PUBCHEM_FEATURE_SELFOVERLAP>
20.297

>  <PUBCHEM_SHAPE_FINGERPRINT>
11265709 11 18193561287902434474
11357001 24 18409167709790289834
11578080 2 17701806907356080817
121448 382 18054200186315862061
12553582 1 18123472941023821166
12643181 29 17981333288414330998
12714826 92 18343868827177555786
12788726 201 18335130990596216626
13004483 165 18339636870798258987
13134695 92 17838327837554355951
13681431 1 17759232294876964857
13931106 250 18200292390935270334
14178342 30 18264470846537123674
15042514 8 18410582790261909995
15842332 3 17822005373034638802
17539 30 18411128156281436037
1813 80 18122628515761223846
21202864 24 18340221695162673881
21339142 126 18413392059318671098
21524375 3 18119526535671539953
21731228 192 18049442547825613704
22112679 90 18121246391011437821
2255824 54 17186438491114015439
22907989 373 18409449197947392892
23419403 2 17629457951442731913
23557571 272 18194098919451082944
23598288 3 18116455737118069844
3027735 51 18129931295878505375
3091708 16 9131314888995986121
3729539 64 17115814128180403782
6992083 37 18056779829863310051
7097593 13 17692819602358484747
7164475 11 18337110163555943916
7364860 26 17259060126295992177
7615 1 17749381560578328424
81228 2 18336253639154657329
90316 7 18341617078428932307
9862522 239 18265332802695303280

>  <PUBCHEM_SHAPE_MULTIPOLES>
380.16
6.51
4.92
1.3
12.68
1.67
-0.01
-3.73
0.51
-6.86
-1.06
-0.17
-0.08
-0.3

>  <PUBCHEM_SHAPE_SELFOVERLAP>
795.998

>  <PUBCHEM_SHAPE_VOLUME>
215.8

>  <PUBCHEM_COORDINATE_TYPE>
2
5
10

>  <Energy>
86.4669

$$$$
