9881504
 OpenBabel07292612043D

 33 35  0  0  1  0  0  0  0  0999 V2000
    0.6414    0.6698   -2.5174 O   0  0  0  0  0  0  0  0  0  0  0  0
   -1.0288   -2.9460   -0.7880 O   0  0  0  0  0  0  0  0  0  0  0  0
   -0.0314   -0.9108   -0.1433 N   0  0  0  0  0  0  0  0  0  0  0  0
    1.1818   -2.8488   -0.7002 N   0  0  0  0  0  0  0  0  0  0  0  0
    0.7918    1.5677   -1.4209 C   0  0  1  0  0  0  0  0  0  0  0  0
   -0.5376    2.0926   -0.8772 C   0  0  0  0  0  0  0  0  0  0  0  0
    1.5975    0.9314   -0.3260 C   0  0  0  0  0  0  0  0  0  0  0  0
   -1.4760    1.1583   -0.1404 C   0  0  0  0  0  0  0  0  0  0  0  0
    1.1599   -0.2523    0.2864 C   0  0  0  0  0  0  0  0  0  0  0  0
   -1.2603   -0.2097    0.1338 C   0  0  0  0  0  0  0  0  0  0  0  0
    2.8003    1.5233    0.0963 C   0  0  0  0  0  0  0  0  0  0  0  0
   -2.7045    1.7511    0.2469 C   0  0  0  0  0  0  0  0  0  0  0  0
    1.9405   -0.8236    1.3081 C   0  0  0  0  0  0  0  0  0  0  0  0
   -2.3000   -0.9244    0.7692 C   0  0  0  0  0  0  0  0  0  0  0  0
   -0.0408   -2.2586   -0.5318 C   0  0  0  0  0  0  0  0  0  0  0  0
    3.5624    0.9472    1.1119 C   0  0  0  0  0  0  0  0  0  0  0  0
   -3.7063    1.0214    0.8804 C   0  0  0  0  0  0  0  0  0  0  0  0
    3.1312   -0.2281    1.7193 C   0  0  0  0  0  0  0  0  0  0  0  0
   -3.5042   -0.3223    1.1394 C   0  0  0  0  0  0  0  0  0  0  0  0
    0.1192    1.0959   -3.2150 H   0  0  0  0  0  0  0  0  0  0  0  0
    1.2393   -3.7932   -0.9724 H   0  0  0  0  0  0  0  0  0  0  0  0
    2.0043   -2.3291   -0.5493 H   0  0  0  0  0  0  0  0  0  0  0  0
    1.3169    2.4197   -1.7992 H   0  0  0  0  0  0  0  0  0  0  0  0
   -1.0814    2.4810   -1.7128 H   0  0  0  0  0  0  0  0  0  0  0  0
   -0.2372    2.7869   -0.1205 H   0  0  0  0  0  0  0  0  0  0  0  0
    3.1235    2.3953   -0.3509 H   0  0  0  0  0  0  0  0  0  0  0  0
   -2.8604    2.7527    0.0534 H   0  0  0  0  0  0  0  0  0  0  0  0
    1.6264   -1.6968    1.7597 H   0  0  0  0  0  0  0  0  0  0  0  0
   -2.1646   -1.9282    0.9671 H   0  0  0  0  0  0  0  0  0  0  0  0
    4.4442    1.3913    1.4124 H   0  0  0  0  0  0  0  0  0  0  0  0
   -4.5904    1.4781    1.1540 H   0  0  0  0  0  0  0  0  0  0  0  0
    3.6916   -0.6574    2.4721 H   0  0  0  0  0  0  0  0  0  0  0  0
   -4.2399   -0.8771    1.6041 H   0  0  0  0  0  0  0  0  0  0  0  0
  1  5  1  0  0  0  0
  1 20  1  0  0  0  0
  2 15  2  0  0  0  0
  3  9  1  0  0  0  0
  3 10  1  0  0  0  0
  3 15  1  0  0  0  0
  4 15  1  0  0  0  0
  4 21  1  0  0  0  0
  4 22  1  0  0  0  0
  5  6  1  0  0  0  0
  5  7  1  0  0  0  0
  5 23  1  6  0  0  0
  6  8  1  0  0  0  0
  6 24  1  0  0  0  0
  6 25  1  0  0  0  0
  7  9  1  0  0  0  0
  7 11  2  0  0  0  0
  8 10  1  0  0  0  0
  8 12  2  0  0  0  0
  9 13  2  0  0  0  0
 10 14  2  0  0  0  0
 11 16  1  0  0  0  0
 11 26  1  0  0  0  0
 12 17  1  0  0  0  0
 12 27  1  0  0  0  0
 13 18  1  0  0  0  0
 13 28  1  0  0  0  0
 14 19  1  0  0  0  0
 14 29  1  0  0  0  0
 16 18  2  0  0  0  0
 16 30  1  0  0  0  0
 17 19  2  0  0  0  0
 17 31  1  0  0  0  0
 18 32  1  0  0  0  0
 19 33  1  0  0  0  0
M  END
>  <PUBCHEM_COMPOUND_CID>
9881504

>  <PUBCHEM_CONFORMER_RMSD>
0.6

>  <PUBCHEM_CONFORMER_DIVERSEORDER>
1
13
2
11
8
12
10
4
9
3
5
6
7

>  <PUBCHEM_MMFF94_PARTIAL_CHARGES>
30
1 -0.68
10 0.12
11 -0.15
12 -0.15
13 -0.15
14 -0.15
15 0.69
16 -0.15
17 -0.15
18 -0.15
19 -0.15
2 -0.57
23 0.15
24 0.15
25 0.15
26 0.15
27 0.15
28 0.4
29 0.15
3 -0.29
30 0.15
31 0.15
32 0.37
33 0.37
4 -0.8
5 0.42
6 0.14
7 -0.14
8 -0.14
9 0.12

>  <PUBCHEM_EFFECTIVE_ROTOR_COUNT>
1.6

>  <PUBCHEM_PHARMACOPHORE_FEATURES>
7
1 1 acceptor
1 1 donor
1 2 acceptor
1 4 donor
6 7 9 11 13 16 18 rings
6 8 10 12 14 17 19 rings
7 3 5 6 7 8 9 10 rings

>  <PUBCHEM_HEAVY_ATOM_COUNT>
19

>  <PUBCHEM_ATOM_DEF_STEREO_COUNT>
1

>  <PUBCHEM_ATOM_UDEF_STEREO_COUNT>
0

>  <PUBCHEM_BOND_DEF_STEREO_COUNT>
0

>  <PUBCHEM_BOND_UDEF_STEREO_COUNT>
0

>  <PUBCHEM_ISOTOPIC_ATOM_COUNT>
0

>  <PUBCHEM_COMPONENT_COUNT>
1

>  <PUBCHEM_CACTVS_TAUTO_COUNT>
2

>  <PUBCHEM_CONFORMER_ID>
0096C7A000000001

>  <PUBCHEM_MMFF94_ENERGY>
95.9002

>  <PUBCHEM_FEATURE_SELFOVERLAP>
35.542

>  <PUBCHEM_SHAPE_FINGERPRINT>
10863032 1 15123508124808801165
11086676 242 18040710364285957504
12251169 10 18187643587425480105
12382932 28 18334297535239418273
12400797 245 17748824111707834640
12423570 1 10511631839488280828
12633257 1 17828191104360050912
12696612 119 17967541168039291297
13027679 85 17261603867779218356
13140716 1 18193001422168022795
13172582 1 18334010596789610496
14178342 30 18340222808139309449
14617773 55 17906155601606790540
14817 1 14719663220670312350
15309172 13 18341039753230280424
15375462 478 18040712593099476097
15881359 60 18116126931828435389
16945 1 17968370143987942272
20559304 39 17968956286901990001
20671657 53 11674883260117141736
21731228 192 18341890800894520451
22112679 90 17764596807893115871
23184049 59 18334570239718395352
23388829 49 18046056326879050613
23419403 2 17687455772115066166
23463225 33 18040720285449524913
25 1 13830141606419289040
2748010 2 18046346331903599421
2803657 2 17689433106465430383
298252 57 17685260339626292468
394222 165 17535222082391241717
427121 178 17774741817246853443
495365 180 17841984499680213713
5845 1 10298724907673103980
6992083 37 18263067976456954870
7364860 26 18126859200434367131
7471813 234 17119712407511224207
81228 2 17838310215029597506
84936 31 17344338952299785870
90316 7 17531522062444066477
90525 40 18337391650853261686

>  <PUBCHEM_SHAPE_MULTIPOLES>
369.31
5.24
2.62
1.56
1.01
1.47
-0.38
-1.52
3.41
0.17
-1.15
-0.58
-0.03
-0.17

>  <PUBCHEM_SHAPE_SELFOVERLAP>
812.618

>  <PUBCHEM_SHAPE_VOLUME>
194.9

>  <PUBCHEM_COORDINATE_TYPE>
2
5
10

>  <Energy>
40.0152

$$$$
