60823
 OpenBabel07292612043D

 76 79  0  0  1  0  0  0  0  0999 V2000
    4.2427    4.8522   -0.2344 F   0  0  0  0  0  0  0  0  0  0  0  0
    3.3915   -2.4145    3.0668 O   0  0  0  0  0  0  0  0  0  0  0  0
    5.8499   -0.9631   -0.0868 O   0  0  0  0  0  0  0  0  0  0  0  0
   -4.0283    0.0844    1.5705 O   0  0  0  0  0  0  0  0  0  0  0  0
    5.9837   -3.8361   -3.4243 O   0  0  0  0  0  0  0  0  0  0  0  0
    5.6565   -1.6514   -3.1482 O   0  0  0  0  0  0  0  0  0  0  0  0
    0.3432    0.0446    1.5134 N   0  0  0  0  0  0  0  0  0  0  0  0
   -3.4611   -1.1069   -0.3585 N   0  0  0  0  0  0  0  0  0  0  0  0
   -0.8388   -0.6803    1.5918 C   0  0  0  0  0  0  0  0  0  0  0  0
    1.6180   -0.3323    2.1299 C   0  0  0  0  0  0  0  0  0  0  0  0
    0.1526    1.1904    0.7575 C   0  0  0  0  0  0  0  0  0  0  0  0
   -0.9616   -1.9797    2.3629 C   0  0  0  0  0  0  0  0  0  0  0  0
    2.4397   -1.2410    1.2116 C   0  0  0  0  0  0  0  0  0  0  0  0
   -1.8027    0.0365    0.8784 C   0  0  0  0  0  0  0  0  0  0  0  0
   -1.1749    1.2021    0.3578 C   0  0  0  0  0  0  0  0  0  0  0  0
    3.7379   -1.7162    1.8694 C   0  0  2  0  0  0  0  0  0  0  0  0
    4.5537   -2.6706    0.9793 C   0  0  0  0  0  0  0  0  0  0  0  0
    1.2065    2.1651    0.4872 C   0  0  0  0  0  0  0  0  0  0  0  0
   -1.3356   -3.1453    1.4483 C   0  0  0  0  0  0  0  0  0  0  0  0
   -1.9331   -1.8551    3.5369 C   0  0  0  0  0  0  0  0  0  0  0  0
   -1.7590    2.2661   -0.4391 C   0  0  0  0  0  0  0  0  0  0  0  0
    5.0044   -2.0787   -0.3625 C   0  0  2  0  0  0  0  0  0  0  0  0
   -3.2125   -0.3143    0.7450 C   0  0  0  0  0  0  0  0  0  0  0  0
    5.7958   -3.1059   -1.1786 C   0  0  0  0  0  0  0  0  0  0  0  0
    2.0124    2.0250   -0.6487 C   0  0  0  0  0  0  0  0  0  0  0  0
    1.4219    3.2329    1.3683 C   0  0  0  0  0  0  0  0  0  0  0  0
   -2.3326    3.3804    0.1825 C   0  0  0  0  0  0  0  0  0  0  0  0
   -1.7489    2.1794   -1.8355 C   0  0  0  0  0  0  0  0  0  0  0  0
    3.0421    2.9346   -0.8921 C   0  0  0  0  0  0  0  0  0  0  0  0
    2.4496    4.1436    1.1226 C   0  0  0  0  0  0  0  0  0  0  0  0
   -2.8829    4.4057   -0.5901 C   0  0  0  0  0  0  0  0  0  0  0  0
   -2.3024    3.2044   -2.6046 C   0  0  0  0  0  0  0  0  0  0  0  0
    3.2507    3.9827   -0.0030 C   0  0  0  0  0  0  0  0  0  0  0  0
   -4.6959   -1.6932   -0.7220 C   0  0  0  0  0  0  0  0  0  0  0  0
    5.7973   -2.7515   -2.6431 C   0  0  0  0  0  0  0  0  0  0  0  0
   -2.8681    4.3183   -1.9815 C   0  0  0  0  0  0  0  0  0  0  0  0
   -5.8735   -1.5350    0.0150 C   0  0  0  0  0  0  0  0  0  0  0  0
   -4.7322   -2.4858   -1.8777 C   0  0  0  0  0  0  0  0  0  0  0  0
   -7.0613   -2.1485   -0.3936 C   0  0  0  0  0  0  0  0  0  0  0  0
   -5.9210   -3.0985   -2.2870 C   0  0  0  0  0  0  0  0  0  0  0  0
   -7.0889   -2.9274   -1.5457 C   0  0  0  0  0  0  0  0  0  0  0  0
    2.8755   -1.8302    3.6441 H   0  0  0  0  0  0  0  0  0  0  0  0
    5.3590   -0.3053    0.4301 H   0  0  0  0  0  0  0  0  0  0  0  0
    6.0918   -4.6812   -3.0345 H   0  0  0  0  0  0  0  0  0  0  0  0
   -2.6979   -1.2823   -0.9552 H   0  0  0  0  0  0  0  0  0  0  0  0
    1.4216   -0.8497    3.0457 H   0  0  0  0  0  0  0  0  0  0  0  0
    2.1805    0.5601    2.3092 H   0  0  0  0  0  0  0  0  0  0  0  0
    0.0037   -2.1922    2.7727 H   0  0  0  0  0  0  0  0  0  0  0  0
    2.6837   -0.6997    0.3215 H   0  0  0  0  0  0  0  0  0  0  0  0
    1.8483   -2.1061    0.9949 H   0  0  0  0  0  0  0  0  0  0  0  0
    4.3433   -0.8533    2.0530 H   0  0  0  0  0  0  0  0  0  0  0  0
    3.9518   -3.5318    0.7769 H   0  0  0  0  0  0  0  0  0  0  0  0
    5.4477   -2.8957    1.5225 H   0  0  0  0  0  0  0  0  0  0  0  0
   -2.2992   -2.9667    1.0189 H   0  0  0  0  0  0  0  0  0  0  0  0
   -1.3609   -4.0511    2.0172 H   0  0  0  0  0  0  0  0  0  0  0  0
   -0.6084   -3.2342    0.6684 H   0  0  0  0  0  0  0  0  0  0  0  0
   -2.9141   -1.6418    3.1668 H   0  0  0  0  0  0  0  0  0  0  0  0
   -1.6145   -1.0621    4.1808 H   0  0  0  0  0  0  0  0  0  0  0  0
   -1.9504   -2.7741    4.0845 H   0  0  0  0  0  0  0  0  0  0  0  0
    4.1433   -1.7890   -0.9277 H   0  0  0  0  0  0  0  0  0  0  0  0
    5.3496   -4.0703   -1.0531 H   0  0  0  0  0  0  0  0  0  0  0  0
    6.8071   -3.1106   -0.8293 H   0  0  0  0  0  0  0  0  0  0  0  0
    1.8448    1.2481   -1.3070 H   0  0  0  0  0  0  0  0  0  0  0  0
    0.8202    3.3457    2.1991 H   0  0  0  0  0  0  0  0  0  0  0  0
   -2.3491    3.4449    1.2124 H   0  0  0  0  0  0  0  0  0  0  0  0
   -1.3315    1.3564   -2.2976 H   0  0  0  0  0  0  0  0  0  0  0  0
    3.6432    2.8302   -1.7244 H   0  0  0  0  0  0  0  0  0  0  0  0
    2.6141    4.9299    1.7704 H   0  0  0  0  0  0  0  0  0  0  0  0
   -3.3012    5.2295   -0.1302 H   0  0  0  0  0  0  0  0  0  0  0  0
   -2.2935    3.1387   -3.6345 H   0  0  0  0  0  0  0  0  0  0  0  0
   -3.2752    5.0768   -2.5507 H   0  0  0  0  0  0  0  0  0  0  0  0
   -5.8657   -0.9585    0.8709 H   0  0  0  0  0  0  0  0  0  0  0  0
   -3.8723   -2.6187   -2.4326 H   0  0  0  0  0  0  0  0  0  0  0  0
   -7.9217   -2.0229    0.1622 H   0  0  0  0  0  0  0  0  0  0  0  0
   -5.9335   -3.6788   -3.1402 H   0  0  0  0  0  0  0  0  0  0  0  0
   -7.9676   -3.3753   -1.8494 H   0  0  0  0  0  0  0  0  0  0  0  0
  1 33  1  0  0  0  0
  2 16  1  0  0  0  0
  2 42  1  0  0  0  0
  3 22  1  0  0  0  0
  3 43  1  0  0  0  0
  4 23  2  0  0  0  0
  5 35  1  0  0  0  0
  5 44  1  0  0  0  0
  6 35  2  0  0  0  0
  7  9  1  0  0  0  0
  7 10  1  0  0  0  0
  7 11  1  0  0  0  0
  8 23  1  0  0  0  0
  8 34  1  0  0  0  0
  8 45  1  0  0  0  0
  9 12  1  0  0  0  0
  9 14  2  0  0  0  0
 10 13  1  0  0  0  0
 10 46  1  0  0  0  0
 10 47  1  0  0  0  0
 11 15  2  0  0  0  0
 11 18  1  0  0  0  0
 12 19  1  0  0  0  0
 12 20  1  0  0  0  0
 12 48  1  0  0  0  0
 13 16  1  0  0  0  0
 13 49  1  0  0  0  0
 13 50  1  0  0  0  0
 14 15  1  0  0  0  0
 14 23  1  0  0  0  0
 15 21  1  0  0  0  0
 16 17  1  0  0  0  0
 16 51  1  1  0  0  0
 17 22  1  0  0  0  0
 17 52  1  0  0  0  0
 17 53  1  0  0  0  0
 18 25  2  0  0  0  0
 18 26  1  0  0  0  0
 19 54  1  0  0  0  0
 19 55  1  0  0  0  0
 19 56  1  0  0  0  0
 20 57  1  0  0  0  0
 20 58  1  0  0  0  0
 20 59  1  0  0  0  0
 21 27  2  0  0  0  0
 21 28  1  0  0  0  0
 22 24  1  0  0  0  0
 22 60  1  6  0  0  0
 24 35  1  0  0  0  0
 24 61  1  0  0  0  0
 24 62  1  0  0  0  0
 25 29  1  0  0  0  0
 25 63  1  0  0  0  0
 26 30  2  0  0  0  0
 26 64  1  0  0  0  0
 27 31  1  0  0  0  0
 27 65  1  0  0  0  0
 28 32  2  0  0  0  0
 28 66  1  0  0  0  0
 29 33  2  0  0  0  0
 29 67  1  0  0  0  0
 30 33  1  0  0  0  0
 30 68  1  0  0  0  0
 31 36  2  0  0  0  0
 31 69  1  0  0  0  0
 32 36  1  0  0  0  0
 32 70  1  0  0  0  0
 34 37  2  0  0  0  0
 34 38  1  0  0  0  0
 36 71  1  0  0  0  0
 37 39  1  0  0  0  0
 37 72  1  0  0  0  0
 38 40  2  0  0  0  0
 38 73  1  0  0  0  0
 39 41  2  0  0  0  0
 39 74  1  0  0  0  0
 40 41  1  0  0  0  0
 40 75  1  0  0  0  0
 41 76  1  0  0  0  0
M  END
>  <PUBCHEM_COMPOUND_CID>
60823

>  <PUBCHEM_CONFORMER_RMSD>
1.2

>  <PUBCHEM_CONFORMER_DIVERSEORDER>
2
20
14
10
15
23
25
5
3
18
21
24
6
19
7
9
13
4
11
16
17
8
12
22
1

>  <PUBCHEM_MMFF94_PARTIAL_CHARGES>
55
1 -0.19
10 0.26
11 -0.2
12 0.18
14 -0.09
15 -0.05
16 0.28
18 0.05
2 -0.68
21 0.05
22 0.28
23 0.72
24 0.06
25 -0.15
26 -0.15
27 -0.15
28 -0.15
29 -0.15
3 -0.68
30 -0.15
31 -0.15
32 -0.15
33 0.19
34 0.12
35 0.66
36 -0.15
37 -0.15
38 -0.15
39 -0.15
4 -0.57
40 -0.15
41 -0.15
5 -0.65
59 0.15
6 -0.57
60 0.15
61 0.4
62 0.15
63 0.15
64 0.37
65 0.15
66 0.15
67 0.4
68 0.15
69 0.15
7 0.05
70 0.15
71 0.15
72 0.15
73 0.5
74 0.15
75 0.15
76 0.15
8 -0.55
9 -0.33

>  <PUBCHEM_EFFECTIVE_ROTOR_COUNT>
13

>  <PUBCHEM_PHARMACOPHORE_FEATURES>
15
1 2 acceptor
1 2 donor
1 3 acceptor
1 3 donor
1 4 acceptor
1 5 acceptor
1 6 acceptor
1 7 cation
1 8 donor
3 12 19 20 hydrophobe
3 5 6 35 anion
5 7 9 11 14 15 rings
6 18 25 26 29 30 33 rings
6 21 27 28 31 32 36 rings
6 34 37 38 39 40 41 rings

>  <PUBCHEM_HEAVY_ATOM_COUNT>
41

>  <PUBCHEM_ATOM_DEF_STEREO_COUNT>
2

>  <PUBCHEM_ATOM_UDEF_STEREO_COUNT>
0

>  <PUBCHEM_BOND_DEF_STEREO_COUNT>
0

>  <PUBCHEM_BOND_UDEF_STEREO_COUNT>
0

>  <PUBCHEM_ISOTOPIC_ATOM_COUNT>
0

>  <PUBCHEM_COMPONENT_COUNT>
1

>  <PUBCHEM_CACTVS_TAUTO_COUNT>
2

>  <PUBCHEM_CONFORMER_ID>
0000ED9700000002

>  <PUBCHEM_MMFF94_ENERGY>
106.0945

>  <PUBCHEM_FEATURE_SELFOVERLAP>
76.181

>  <PUBCHEM_SHAPE_FINGERPRINT>
10675989 125 17823678923709516393
11513181 2 18336258037712942813
11607047 141 17988369260376404795
13690498 29 18336265639546249471
13692115 46 17840606802577324413
13911987 19 17537733092276708616
14068700 675 18262498335044700595
14556957 393 17749111037156787151
19311894 1 18048864204730262433
20028762 73 17040936823487597906
20775438 99 18049703411376278827
21703447 108 18336815494086928168
24771750 20 16594497676908946909
4066623 53 18188193399406037989
44344687 77 18263379129921938643
6700243 42 18129098918706139022
70251023 43 18262219080882664851

>  <PUBCHEM_SHAPE_MULTIPOLES>
797.18
14.84
7.09
3.19
2.29
6.64
0.69
-19.66
11.97
-2.93
3.16
-2.27
-3.09
2.5

>  <PUBCHEM_SHAPE_SELFOVERLAP>
1710.666

>  <PUBCHEM_SHAPE_VOLUME>
442.6

>  <PUBCHEM_COORDINATE_TYPE>
2
5
10

>  <Energy>
45.5889

$$$$
