10911
 OpenBabel07292612043D

 60 60  0  0  0  0  0  0  0  0999 V2000
   -1.5446   -1.8940   -1.1370 Si  0  0  0  0  0  0  0  0  0  0  0  0
    0.8245   -2.1497    0.9082 Si  0  0  0  0  0  0  0  0  0  0  0  0
   -3.2878    0.2648    0.3490 Si  0  0  0  0  0  0  0  0  0  0  0  0
    3.2876   -0.2691    0.3493 Si  0  0  0  0  0  0  0  0  0  0  0  0
   -0.8272    2.1502    0.9057 Si  0  0  0  0  0  0  0  0  0  0  0  0
    1.5474    1.8946   -1.1329 Si  0  0  0  0  0  0  0  0  0  0  0  0
   -0.0583   -1.6686   -0.4193 O   0  0  0  0  0  0  0  0  0  0  0  0
   -2.7217   -1.2089   -0.1806 O   0  0  0  0  0  0  0  0  0  0  0  0
    2.0664   -1.0661    1.1461 O   0  0  0  0  0  0  0  0  0  0  0  0
   -2.0677    1.0653    1.1441 O   0  0  0  0  0  0  0  0  0  0  0  0
    2.7249    1.2064   -0.1796 O   0  0  0  0  0  0  0  0  0  0  0  0
    0.0609    1.6657   -0.4165 O   0  0  0  0  0  0  0  0  0  0  0  0
   -1.5544   -1.1389   -2.8572 C   0  0  0  0  0  0  0  0  0  0  0  0
   -1.8970   -3.7329   -1.3440 C   0  0  0  0  0  0  0  0  0  0  0  0
    1.5195   -3.8737    0.6157 C   0  0  0  0  0  0  0  0  0  0  0  0
   -0.2372   -2.2254    2.4555 C   0  0  0  0  0  0  0  0  0  0  0  0
   -4.7186   -0.0255    1.5462 C   0  0  0  0  0  0  0  0  0  0  0  0
   -3.9745    1.2857   -1.0702 C   0  0  0  0  0  0  0  0  0  0  0  0
    4.7216    0.0172    1.5436 C   0  0  0  0  0  0  0  0  0  0  0  0
    3.9694   -1.2924   -1.0708 C   0  0  0  0  0  0  0  0  0  0  0  0
    0.2304    2.2338    2.4557 C   0  0  0  0  0  0  0  0  0  0  0  0
   -1.5242    3.8719    0.6052 C   0  0  0  0  0  0  0  0  0  0  0  0
    1.5574    1.1473   -2.8562 C   0  0  0  0  0  0  0  0  0  0  0  0
    1.8991    3.7346   -1.3332 C   0  0  0  0  0  0  0  0  0  0  0  0
   -1.3575   -0.0895   -2.7872 H   0  0  0  0  0  0  0  0  0  0  0  0
   -2.5122   -1.2927   -3.3088 H   0  0  0  0  0  0  0  0  0  0  0  0
   -0.7991   -1.6044   -3.4554 H   0  0  0  0  0  0  0  0  0  0  0  0
   -1.9009   -4.2056   -0.3841 H   0  0  0  0  0  0  0  0  0  0  0  0
   -1.1386   -4.1747   -1.9561 H   0  0  0  0  0  0  0  0  0  0  0  0
   -2.8516   -3.8630   -1.8095 H   0  0  0  0  0  0  0  0  0  0  0  0
    2.1319   -3.8672   -0.2617 H   0  0  0  0  0  0  0  0  0  0  0  0
    0.7139   -4.5653    0.4832 H   0  0  0  0  0  0  0  0  0  0  0  0
    2.1079   -4.1689    1.4592 H   0  0  0  0  0  0  0  0  0  0  0  0
   -0.6501   -1.2581    2.6524 H   0  0  0  0  0  0  0  0  0  0  0  0
    0.3638   -2.5324    3.2858 H   0  0  0  0  0  0  0  0  0  0  0  0
   -1.0303   -2.9288    2.3099 H   0  0  0  0  0  0  0  0  0  0  0  0
   -4.3761   -0.6063    2.3770 H   0  0  0  0  0  0  0  0  0  0  0  0
   -5.5035   -0.5507    1.0432 H   0  0  0  0  0  0  0  0  0  0  0  0
   -5.0869    0.9160    1.8967 H   0  0  0  0  0  0  0  0  0  0  0  0
   -3.1972    1.4779   -1.7800 H   0  0  0  0  0  0  0  0  0  0  0  0
   -4.3504    2.2137   -0.6928 H   0  0  0  0  0  0  0  0  0  0  0  0
   -4.7670    0.7470   -1.5463 H   0  0  0  0  0  0  0  0  0  0  0  0
    4.3825    0.5992    2.3750 H   0  0  0  0  0  0  0  0  0  0  0  0
    5.5071    0.5400    1.0390 H   0  0  0  0  0  0  0  0  0  0  0  0
    5.0879   -0.9252    1.8936 H   0  0  0  0  0  0  0  0  0  0  0  0
    3.1905   -1.4828   -1.7793 H   0  0  0  0  0  0  0  0  0  0  0  0
    4.3434   -2.2213   -0.6937 H   0  0  0  0  0  0  0  0  0  0  0  0
    4.7626   -0.7560   -1.5483 H   0  0  0  0  0  0  0  0  0  0  0  0
    0.6446    1.2680    2.6574 H   0  0  0  0  0  0  0  0  0  0  0  0
   -0.3734    2.5429    3.2832 H   0  0  0  0  0  0  0  0  0  0  0  0
    1.0225    2.9381    2.3094 H   0  0  0  0  0  0  0  0  0  0  0  0
   -2.1344    3.8613   -0.2738 H   0  0  0  0  0  0  0  0  0  0  0  0
   -0.7194    4.5644    0.4723 H   0  0  0  0  0  0  0  0  0  0  0  0
   -2.1153    4.1691    1.4461 H   0  0  0  0  0  0  0  0  0  0  0  0
    1.3609    0.0975   -2.7909 H   0  0  0  0  0  0  0  0  0  0  0  0
    2.5151    1.3035   -3.3071 H   0  0  0  0  0  0  0  0  0  0  0  0
    0.8019    1.6151   -3.4522 H   0  0  0  0  0  0  0  0  0  0  0  0
    1.9030    4.2037   -0.3715 H   0  0  0  0  0  0  0  0  0  0  0  0
    1.1405    4.1784   -1.9435 H   0  0  0  0  0  0  0  0  0  0  0  0
    2.8536    3.8667   -1.7984 H   0  0  0  0  0  0  0  0  0  0  0  0
  1  7  1  0  0  0  0
  1  8  1  0  0  0  0
  1 13  1  0  0  0  0
  1 14  1  0  0  0  0
  2  7  1  0  0  0  0
  2  9  1  0  0  0  0
  2 15  1  0  0  0  0
  2 16  1  0  0  0  0
  3  8  1  0  0  0  0
  3 10  1  0  0  0  0
  3 17  1  0  0  0  0
  3 18  1  0  0  0  0
  4  9  1  0  0  0  0
  4 11  1  0  0  0  0
  4 19  1  0  0  0  0
  4 20  1  0  0  0  0
  5 10  1  0  0  0  0
  5 12  1  0  0  0  0
  5 21  1  0  0  0  0
  5 22  1  0  0  0  0
  6 11  1  0  0  0  0
  6 12  1  0  0  0  0
  6 23  1  0  0  0  0
  6 24  1  0  0  0  0
 13 25  1  0  0  0  0
 13 26  1  0  0  0  0
 13 27  1  0  0  0  0
 14 28  1  0  0  0  0
 14 29  1  0  0  0  0
 14 30  1  0  0  0  0
 15 31  1  0  0  0  0
 15 32  1  0  0  0  0
 15 33  1  0  0  0  0
 16 34  1  0  0  0  0
 16 35  1  0  0  0  0
 16 36  1  0  0  0  0
 17 37  1  0  0  0  0
 17 38  1  0  0  0  0
 17 39  1  0  0  0  0
 18 40  1  0  0  0  0
 18 41  1  0  0  0  0
 18 42  1  0  0  0  0
 19 43  1  0  0  0  0
 19 44  1  0  0  0  0
 19 45  1  0  0  0  0
 20 46  1  0  0  0  0
 20 47  1  0  0  0  0
 20 48  1  0  0  0  0
 21 49  1  0  0  0  0
 21 50  1  0  0  0  0
 21 51  1  0  0  0  0
 22 52  1  0  0  0  0
 22 53  1  0  0  0  0
 22 54  1  0  0  0  0
 23 55  1  0  0  0  0
 23 56  1  0  0  0  0
 23 57  1  0  0  0  0
 24 58  1  0  0  0  0
 24 59  1  0  0  0  0
 24 60  1  0  0  0  0
M  END
>  <PUBCHEM_COMPOUND_CID>
10911

>  <PUBCHEM_CONFORMER_RMSD>
0.6

>  <PUBCHEM_CONFORMER_DIVERSEORDER>
2
1

>  <PUBCHEM_MMFF94_PARTIAL_CHARGES>
24
1 0.76
10 -0.59
11 -0.59
12 -0.59
13 -0.08
14 -0.08
15 -0.08
16 -0.08
17 -0.08
18 -0.08
19 -0.08
2 0.76
20 -0.08
21 -0.08
22 -0.08
23 -0.08
24 -0.08
3 0.76
4 0.76
5 0.76
6 0.76
7 -0.59
8 -0.59
9 -0.59

>  <PUBCHEM_EFFECTIVE_ROTOR_COUNT>
2.4

>  <PUBCHEM_PHARMACOPHORE_FEATURES>
0

>  <PUBCHEM_HEAVY_ATOM_COUNT>
24

>  <PUBCHEM_ATOM_DEF_STEREO_COUNT>
0

>  <PUBCHEM_ATOM_UDEF_STEREO_COUNT>
0

>  <PUBCHEM_BOND_DEF_STEREO_COUNT>
0

>  <PUBCHEM_BOND_UDEF_STEREO_COUNT>
0

>  <PUBCHEM_ISOTOPIC_ATOM_COUNT>
0

>  <PUBCHEM_COMPONENT_COUNT>
1

>  <PUBCHEM_CACTVS_TAUTO_COUNT>
1

>  <PUBCHEM_CONFORMER_ID>
00002A9F00000002

>  <PUBCHEM_MMFF94_ENERGY>
-4.926

>  <PUBCHEM_FEATURE_SELFOVERLAP>
0

>  <PUBCHEM_SHAPE_FINGERPRINT>
10708813 3 18194686956092292980
1100329 8 18338797930514743578
11244481 83 14491061374490668454
11513181 2 17843110403644770927
11578080 2 18049689048931716653
12156800 1 16457780818364521082
12422481 6 18051151202381700689
12596599 1 18338226180485219078
12788726 201 17623585550012176127
13140716 1 18338517563639595435
13583140 156 17894628124554879255
13965767 371 17547865048781663768
14787075 74 18187374254928158803
14955137 171 18261686904011358986
17980427 23 18196641012126010896
20600515 1 17417818378234211793
20764821 26 16320337857492523652
20905425 154 18124891070425959697
23419403 2 16822144562384249937
23557571 272 17488755612920393102
2818148 4 17981331397863225003
35225 105 16601035303383441039
392239 28 18058145346185306448
445580 8 18342184345077342939
463206 1 18337668741296091275

>  <PUBCHEM_SHAPE_MULTIPOLES>
567.97
6.68
4.83
2.57
0
0.01
-0.6
0
1
0
-0.21
0
0
-1.72

>  <PUBCHEM_SHAPE_SELFOVERLAP>
1000.023

>  <PUBCHEM_SHAPE_VOLUME>
369.8

>  <PUBCHEM_COORDINATE_TYPE>
2
5
10

>  <Energy>
-173.411

$$$$
