440266
 OpenBabel07292612043D

 23 23  0  0  1  0  0  0  0  0999 V2000
   -2.1949   -0.0284    1.5301 O   0  0  0  0  0  0  0  0  0  0  0  0
    3.8383    0.3250   -0.2089 O   0  0  0  0  0  0  0  0  0  0  0  0
   -4.0196    0.1776   -0.6937 N   0  3  0  0  0  0  0  0  0  0  0  0
   -1.7709   -0.4308    0.2246 C   0  0  2  0  0  0  0  0  0  0  0  0
   -0.2755   -0.2297    0.1178 C   0  0  0  0  0  0  0  0  0  0  0  0
   -2.5645    0.3587   -0.8427 C   0  0  0  0  0  0  0  0  0  0  0  0
    0.5687   -1.3305   -0.1051 C   0  0  0  0  0  0  0  0  0  0  0  0
    0.3018    1.0439    0.2441 C   0  0  0  0  0  0  0  0  0  0  0  0
    1.9517   -1.1608   -0.2150 C   0  0  0  0  0  0  0  0  0  0  0  0
    1.6822    1.2155    0.1253 C   0  0  0  0  0  0  0  0  0  0  0  0
    2.4958    0.1133   -0.1038 C   0  0  0  0  0  0  0  0  0  0  0  0
   -1.6969   -0.5240    2.1989 H   0  0  0  0  0  0  0  0  0  0  0  0
    4.4157   -0.3966   -0.3633 H   0  0  0  0  0  0  0  0  0  0  0  0
   -4.5044    0.7128   -1.4140 H   0  0  0  0  0  0  0  0  0  0  0  0
   -4.3106    0.5056    0.2273 H   0  0  0  0  0  0  0  0  0  0  0  0
   -4.2509   -0.8110   -0.7912 H   0  0  0  0  0  0  0  0  0  0  0  0
   -1.9718   -1.4679    0.0540 H   0  0  0  0  0  0  0  0  0  0  0  0
   -2.3339    1.3991   -0.7453 H   0  0  0  0  0  0  0  0  0  0  0  0
   -2.2819   -0.0113   -1.8060 H   0  0  0  0  0  0  0  0  0  0  0  0
    0.1629   -2.2757   -0.1888 H   0  0  0  0  0  0  0  0  0  0  0  0
   -0.3006    1.8618    0.4266 H   0  0  0  0  0  0  0  0  0  0  0  0
    2.5642   -1.9753   -0.3775 H   0  0  0  0  0  0  0  0  0  0  0  0
    2.0963    2.1572    0.2073 H   0  0  0  0  0  0  0  0  0  0  0  0
  1  4  1  0  0  0  0
  1 12  1  0  0  0  0
  2 11  1  0  0  0  0
  2 13  1  0  0  0  0
  3  6  1  0  0  0  0
  3 14  1  0  0  0  0
  3 15  1  0  0  0  0
  3 16  1  0  0  0  0
  4  5  1  0  0  0  0
  4  6  1  0  0  0  0
  4 17  1  6  0  0  0
  5  7  2  0  0  0  0
  5  8  1  0  0  0  0
  6 18  1  0  0  0  0
  6 19  1  0  0  0  0
  7  9  1  0  0  0  0
  7 20  1  0  0  0  0
  8 10  2  0  0  0  0
  8 21  1  0  0  0  0
  9 11  2  0  0  0  0
  9 22  1  0  0  0  0
 10 11  1  0  0  0  0
 10 23  1  0  0  0  0
M  CHG  1   3   1
M  END
>  <PUBCHEM_COMPOUND_CID>
440266

>  <PUBCHEM_CONFORMER_RMSD>
0.4

>  <PUBCHEM_CONFORMER_DIVERSEORDER>
1
7
8
2
3
5
4
6

>  <PUBCHEM_MMFF94_PARTIAL_CHARGES>
19
1 -0.68
10 -0.15
11 0.08
15 0.15
16 0.15
17 0.15
18 0.15
19 0.4
2 -0.53
20 0.36
21 0.36
22 0.45
3 -0.99
4 0.42
5 -0.14
6 0.27
7 -0.15
8 -0.15
9 -0.15

>  <PUBCHEM_EFFECTIVE_ROTOR_COUNT>
2

>  <PUBCHEM_PHARMACOPHORE_FEATURES>
6
1 1 acceptor
1 1 donor
1 2 donor
1 3 cation
1 3 donor
6 5 7 8 9 10 11 rings

>  <PUBCHEM_HEAVY_ATOM_COUNT>
11

>  <PUBCHEM_ATOM_DEF_STEREO_COUNT>
1

>  <PUBCHEM_ATOM_UDEF_STEREO_COUNT>
0

>  <PUBCHEM_BOND_DEF_STEREO_COUNT>
0

>  <PUBCHEM_BOND_UDEF_STEREO_COUNT>
0

>  <PUBCHEM_ISOTOPIC_ATOM_COUNT>
0

>  <PUBCHEM_COMPONENT_COUNT>
1

>  <PUBCHEM_CACTVS_TAUTO_COUNT>
2

>  <PUBCHEM_CONFORMER_ID>
0006B7CA00000001

>  <PUBCHEM_MMFF94_ENERGY>
22.0978

>  <PUBCHEM_FEATURE_SELFOVERLAP>
30.448

>  <PUBCHEM_SHAPE_FINGERPRINT>
10219947 1 18411703183994071286
11031198 65 18334013878329286695
11062470 55 18113334206458463196
11401426 45 18343010104216782260
12138202 97 17603861226195561163
124424 183 17822003199174388936
12897270 3 18412541020180640181
14325111 11 18337669814415351516
14911166 2 18413393150709388796
14993402 34 17846497041022942500
15775835 57 18412541028791771511
16945 1 18341341041144204994
20201158 50 18334293149829466655
20645477 70 18339636720917853423
21040471 1 18196092359749043394
21293036 1 18341890805210469614
23402539 116 17023171743755694327
23402655 69 18339911629110841869
2748010 2 18053388987563474352
276578 36 15575270974700191601
29004967 10 18334305257537388154
5084963 1 18266742569881012355
528886 8 18412819200885877162
63268167 104 18343021081725981490
8030462 33 17560804320549510251

>  <PUBCHEM_SHAPE_MULTIPOLES>
209.66
5.33
1.2
0.88
1.58
0.09
0.18
-0.56
-1.04
-0.57
-0.01
0.65
-0.02
0.17

>  <PUBCHEM_SHAPE_SELFOVERLAP>
429.818

>  <PUBCHEM_SHAPE_VOLUME>
121.6

>  <PUBCHEM_COORDINATE_TYPE>
2
5
10

>  <Energy>
39.93

$$$$
