21138
 OpenBabel07292612043D

 41 42  0  0  1  0  0  0  0  0999 V2000
   -0.4105    1.4353    0.6680 O   0  0  0  0  0  0  0  0  0  0  0  0
   -2.9035    2.1362    1.9714 O   0  0  0  0  0  0  0  0  0  0  0  0
   -3.0005   -0.5134   -0.6835 N   0  3  0  0  0  0  0  0  0  0  0  0
   -2.8405    1.6147    0.6366 C   0  0  2  0  0  0  0  0  0  0  0  0
   -3.0145    0.0820    0.6568 C   0  0  0  0  0  0  0  0  0  0  0  0
   -3.0939   -1.9791   -0.6679 C   0  0  0  0  0  0  0  0  0  0  0  0
   -1.5160    2.0400   -0.0163 C   0  0  0  0  0  0  0  0  0  0  0  0
   -1.9331   -2.6313    0.0876 C   0  0  0  0  0  0  0  0  0  0  0  0
   -3.1121   -2.4837   -2.1130 C   0  0  0  0  0  0  0  0  0  0  0  0
    0.7230    1.2292   -0.0827 C   0  0  0  0  0  0  0  0  0  0  0  0
    1.5806    0.1767    0.3252 C   0  0  0  0  0  0  0  0  0  0  0  0
    2.7462   -0.0878   -0.4338 C   0  0  0  0  0  0  0  0  0  0  0  0
    1.0531    2.0223   -1.1890 C   0  0  0  0  0  0  0  0  0  0  0  0
    1.3265   -0.6339    1.4542 C   0  0  0  0  0  0  0  0  0  0  0  0
    3.0334    0.7013   -1.5611 C   0  0  0  0  0  0  0  0  0  0  0  0
    2.1966    1.7492   -1.9319 C   0  0  0  0  0  0  0  0  0  0  0  0
    3.6048   -1.1341   -0.0558 C   0  0  0  0  0  0  0  0  0  0  0  0
    2.1909   -1.6688    1.8206 C   0  0  0  0  0  0  0  0  0  0  0  0
    3.3291   -1.9191    1.0644 C   0  0  0  0  0  0  0  0  0  0  0  0
   -3.7394    1.8681    2.3842 H   0  0  0  0  0  0  0  0  0  0  0  0
   -2.1308   -0.2492   -1.1463 H   0  0  0  0  0  0  0  0  0  0  0  0
   -3.8205   -0.1632   -1.1787 H   0  0  0  0  0  0  0  0  0  0  0  0
   -3.6399    2.0151    0.0486 H   0  0  0  0  0  0  0  0  0  0  0  0
   -2.2163   -0.3444    1.2278 H   0  0  0  0  0  0  0  0  0  0  0  0
   -3.9705   -0.1262    1.0898 H   0  0  0  0  0  0  0  0  0  0  0  0
   -3.9939   -2.2483   -0.1555 H   0  0  0  0  0  0  0  0  0  0  0  0
   -1.5108    1.7292   -1.0402 H   0  0  0  0  0  0  0  0  0  0  0  0
   -1.4234    3.1044    0.0426 H   0  0  0  0  0  0  0  0  0  0  0  0
   -1.0104   -2.3854   -0.3951 H   0  0  0  0  0  0  0  0  0  0  0  0
   -2.0618   -3.6935    0.0910 H   0  0  0  0  0  0  0  0  0  0  0  0
   -1.9158   -2.2708    1.0949 H   0  0  0  0  0  0  0  0  0  0  0  0
   -2.2026   -2.2013   -2.6009 H   0  0  0  0  0  0  0  0  0  0  0  0
   -3.9433   -2.0526   -2.6309 H   0  0  0  0  0  0  0  0  0  0  0  0
   -3.2031   -3.5498   -2.1175 H   0  0  0  0  0  0  0  0  0  0  0  0
    0.4450    2.8129   -1.4541 H   0  0  0  0  0  0  0  0  0  0  0  0
    0.4826   -0.4575    2.0215 H   0  0  0  0  0  0  0  0  0  0  0  0
    3.8765    0.5007   -2.1213 H   0  0  0  0  0  0  0  0  0  0  0  0
    2.4245    2.3238   -2.7582 H   0  0  0  0  0  0  0  0  0  0  0  0
    4.4512   -1.3246   -0.6146 H   0  0  0  0  0  0  0  0  0  0  0  0
    1.9843   -2.2457    2.6510 H   0  0  0  0  0  0  0  0  0  0  0  0
    3.9692   -2.6837    1.3305 H   0  0  0  0  0  0  0  0  0  0  0  0
  1  7  1  0  0  0  0
  1 10  1  0  0  0  0
  2  4  1  0  0  0  0
  2 20  1  0  0  0  0
  3  5  1  0  0  0  0
  3  6  1  0  0  0  0
  3 21  1  0  0  0  0
  3 22  1  0  0  0  0
  4  5  1  0  0  0  0
  4  7  1  0  0  0  0
  4 23  1  6  0  0  0
  5 24  1  0  0  0  0
  5 25  1  0  0  0  0
  6  8  1  0  0  0  0
  6  9  1  0  0  0  0
  6 26  1  0  0  0  0
  7 27  1  0  0  0  0
  7 28  1  0  0  0  0
  8 29  1  0  0  0  0
  8 30  1  0  0  0  0
  8 31  1  0  0  0  0
  9 32  1  0  0  0  0
  9 33  1  0  0  0  0
  9 34  1  0  0  0  0
 10 11  1  0  0  0  0
 10 13  2  0  0  0  0
 11 12  1  0  0  0  0
 11 14  2  0  0  0  0
 12 15  1  0  0  0  0
 12 17  2  0  0  0  0
 13 16  1  0  0  0  0
 13 35  1  0  0  0  0
 14 18  1  0  0  0  0
 14 36  1  0  0  0  0
 15 16  2  0  0  0  0
 15 37  1  0  0  0  0
 16 38  1  0  0  0  0
 17 19  1  0  0  0  0
 17 39  1  0  0  0  0
 18 19  2  0  0  0  0
 18 40  1  0  0  0  0
 19 41  1  0  0  0  0
M  CHG  1   3   1
M  END
>  <PUBCHEM_COMPOUND_CID>
21138

>  <PUBCHEM_CONFORMER_RMSD>
0.8

>  <PUBCHEM_CONFORMER_DIVERSEORDER>
3
70
7
88
71
58
32
92
91
43
23
76
69
17
65
55
94
39
102
80
79
33
72
60
48
64
86
82
77
84
95
8
62
41
101
2
24
53
89
44
49
13
42
5
19
75
25
81
85
9
20
35
83
27
96
38
47
73
45
26
46
74
61
36
28
87
16
22
34
21
99
63
97
6
57
18
52
12
11
50
98
30
66
54
31
51
68
37
90
1
56
67
100
14
103
40
78
10
29
59
15
93
4

>  <PUBCHEM_MMFF94_PARTIAL_CHARGES>
24
1 -0.36
10 0.08
13 -0.15
14 -0.15
15 -0.15
16 -0.15
17 -0.15
18 -0.15
19 -0.15
2 -0.68
24 0.36
3 -0.9
33 0.4
34 0.15
35 0.15
36 0.15
37 0.15
38 0.15
39 0.15
4 0.28
40 0.15
5 0.27
6 0.27
7 0.28

>  <PUBCHEM_EFFECTIVE_ROTOR_COUNT>
6

>  <PUBCHEM_PHARMACOPHORE_FEATURES>
8
1 1 acceptor
1 2 acceptor
1 2 donor
1 3 cation
1 3 donor
3 6 8 9 hydrophobe
6 10 11 12 13 15 16 rings
6 11 12 14 17 18 19 rings

>  <PUBCHEM_HEAVY_ATOM_COUNT>
19

>  <PUBCHEM_ATOM_DEF_STEREO_COUNT>
1

>  <PUBCHEM_ATOM_UDEF_STEREO_COUNT>
0

>  <PUBCHEM_BOND_DEF_STEREO_COUNT>
0

>  <PUBCHEM_BOND_UDEF_STEREO_COUNT>
0

>  <PUBCHEM_ISOTOPIC_ATOM_COUNT>
0

>  <PUBCHEM_COMPONENT_COUNT>
1

>  <PUBCHEM_CACTVS_TAUTO_COUNT>
1

>  <PUBCHEM_CONFORMER_ID>
0000529200000003

>  <PUBCHEM_MMFF94_ENERGY>
47.9883

>  <PUBCHEM_FEATURE_SELFOVERLAP>
40.625

>  <PUBCHEM_SHAPE_FINGERPRINT>
11244481 83 17488733605534232224
11578080 2 18191841518673814340
11582403 64 13019574212692682161
11725454 13 15359937355865377324
12202030 40 16702038490205043719
12363563 72 17630590418481099239
12400797 292 18187368782822798894
12403259 327 17272832230819763330
12553582 1 18407758140273393627
12788726 201 18201170939833996401
13009979 54 18411131424820678802
14787075 74 18126282193449281264
15003188 105 16973049655352511223
16752209 62 18343579625802612197
18981168 100 12974151952951458197
20291156 8 18339639057369252687
20600515 1 17702663229187808824
21315764 21 17461124821532823719
21634736 98 18261399974505095854
21639500 275 17386017199302905300
21731516 1 18409443717516056615
22112679 90 18409732824628806588
23184049 29 18129934697776900817
232386 152 18272364261191126537
23402539 116 17460314357278047690
23419403 2 17042533090705300545
23598288 3 18337969917361765233
23598291 2 18188505574571869645
23728640 28 18272653394690677051
238 59 17096072727183084927
568465 68 15625680352543613308
602551 16 17846498097664239098
6992083 37 18263641753854046553
90525 40 18118972386427841929

>  <PUBCHEM_SHAPE_MULTIPOLES>
374.29
6.67
3.08
1.89
1.52
0.47
-0.25
2.85
-0.92
1.24
-0.26
0.32
0.11
-3.29

>  <PUBCHEM_SHAPE_SELFOVERLAP>
781.676

>  <PUBCHEM_SHAPE_VOLUME>
214.2

>  <PUBCHEM_COORDINATE_TYPE>
2
5
10

>  <Energy>
83.1147

$$$$
