5991


 24 27  0  0  0  0  0  0  0  0999 V2000
   -4.6295   -3.0983   17.8115 O   0  0  0  0  0  0  0  0  0  0  0  0
    1.5292   -1.1762   26.6951 O   0  0  0  0  0  0  0  0  0  0  0  0
   -3.1778   -3.0744   19.8131 C   0  0  0  0  0  0  0  0  0  0  0  0
   -2.1175   -4.0960   20.2850 C   0  0  0  0  0  0  0  0  0  0  0  0
   -1.1374   -3.5013   21.2992 C   0  0  0  0  0  0  0  0  0  0  0  0
   -3.9219   -3.9196   18.7323 C   0  0  0  0  0  0  0  0  0  0  0  0
   -1.9324   -3.0371   22.5565 C   0  0  0  0  0  0  0  0  0  0  0  0
   -3.9885   -2.6267   21.0439 C   0  0  0  0  0  0  0  0  0  0  0  0
   -1.5664   -4.6665   18.9807 C   0  0  0  0  0  0  0  0  0  0  0  0
   -3.0869   -2.0773   22.1674 C   0  0  0  0  0  0  0  0  0  0  0  0
   -2.7619   -4.6536   18.0085 C   0  0  0  0  0  0  0  0  0  0  0  0
   -0.0637   -4.5028   21.7316 C   0  0  0  0  0  0  0  0  0  0  0  0
   -2.5688   -1.8052   19.1468 C   0  0  0  0  0  0  0  0  0  0  0  0
   -0.9939   -2.5113   23.6419 C   0  0  0  0  0  0  0  0  0  0  0  0
    0.9630   -3.8087   22.6209 C   0  0  0  0  0  0  0  0  0  0  0  0
    0.3573   -2.9213   23.6797 C   0  0  0  0  0  0  0  0  0  0  0  0
   -1.4676   -1.6869   24.6770 C   0  0  0  0  0  0  0  0  0  0  0  0
    1.2041   -2.4560   24.7038 C   0  0  0  0  0  0  0  0  0  0  0  0
   -0.6168   -1.2391   25.6965 C   0  0  0  0  0  0  0  0  0  0  0  0
    0.7148   -1.6244   25.6980 C   0  0  0  0  0  0  0  0  0  0  0  0
   -4.0233   -2.4448   17.4291 H   0  0  0  0  0  0  0  0  0  0  0  0
    2.4319   -1.4271   26.7111 H   0  0  0  0  0  0  0  0  0  0  0  0
   -4.8713   -4.8993   19.2935 C   0  0  0  0  0  0  0  0  0  0  0  0
   -5.6481   -5.6892   19.7632 C   0  0  0  0  0  0  0  0  0  0  0  0
  1  6  1  0
  1 21  1  0
  2 20  1  0
  2 22  1  0
  3  4  1  0
  3  6  1  0
  3  8  1  0
  3 13  1  0
  4  5  1  0
  4  9  1  0
  5  7  1  0
  5 12  1  0
  6 11  1  0
  6 23  1  0
  7 10  1  0
  7 14  1  0
  8 10  1  0
  9 11  1  0
 12 15  1  0
 14 16  2  0
 14 17  1  0
 15 16  1  0
 16 18  1  0
 23 24  3  0
 17 19  2  0
 18 20  2  0
 19 20  1  0
M  END
> <PUBCHEM_COMPOUND_CID>
5991

> <PUBCHEM_CONFORMER_RMSD>
0.6

> <PUBCHEM_CONFORMER_DIVERSEORDER>
1

> <PUBCHEM_MMFF94_PARTIAL_CHARGES>
19
1 -0.68
14 -0.14
15 0.14
16 -0.14
17 -0.2
18 -0.15
19 -0.15
2 -0.53
20 -0.15
21 0.08
22 -0.18
41 0.4
42 0.15
43 0.15
44 0.15
45 0.18
46 0.45
6 0.48
7 0.14

> <PUBCHEM_EFFECTIVE_ROTOR_COUNT>
1.4

> <PUBCHEM_PHARMACOPHORE_FEATURES>
8
1 1 acceptor
1 1 donor
1 2 donor
1 22 hydrophobe
5 3 4 6 9 11 rings
6 14 16 18 19 20 21 rings
6 3 4 5 7 8 10 rings
6 5 7 12 14 15 16 rings

> <PUBCHEM_HEAVY_ATOM_COUNT>
22

> <PUBCHEM_ATOM_DEF_STEREO_COUNT>
5

> <PUBCHEM_ATOM_UDEF_STEREO_COUNT>
0

> <PUBCHEM_BOND_DEF_STEREO_COUNT>
0

> <PUBCHEM_BOND_UDEF_STEREO_COUNT>
0

> <PUBCHEM_ISOTOPIC_ATOM_COUNT>
0

> <PUBCHEM_COMPONENT_COUNT>
1

> <PUBCHEM_CACTVS_TAUTO_COUNT>
9

> <PUBCHEM_CONFORMER_ID>
0000176700000001

> <PUBCHEM_MMFF94_ENERGY>
75.3654

> <PUBCHEM_FEATURE_SELFOVERLAP>
40.689

> <PUBCHEM_SHAPE_FINGERPRINT>
10498660 4 18334565854482978588
10616163 171 18412261769892000550
10906281 52 18268729332496851400
10967382 1 18409163299196382730
11132069 177 18260823830106114581
11315181 36 17846777438100329984
11552529 35 18058445585631877095
11578080 2 16952518088400902894
11796584 16 15123796154675551020
12107183 9 17697047933183828707
12236239 1 17917992754997443209
12403259 415 18260540148118003532
12403814 3 17531241756051219503
12633257 1 18411416168188185458
12644460 14 18260827060354363322
12788726 201 17059505002047033793
128620 24 17385724690407290772
13140716 1 18264499557760559337
13224815 77 18408318891198213202
13675066 3 17749393654488776519
14790565 3 18338806709892665688
15163728 17 15481289097577292713
15183329 4 18408605830407435614
15196674 1 18337388339818468438
15209289 33 18341332270467662817
15209294 21 18059584555192331817
15309172 13 18409451371427638915
15536298 74 18341610425830279326
15788980 27 17749105603943632888
16945 1 18265320738190372627
17349148 13 18114176445825312880
1813 80 17530976782159466655
18186145 218 18409161126111612646
19489759 90 15410896249631894657
19591789 44 18193273216009210722
200 152 17918273168974754922
21033648 29 17968079933063946356
21267235 1 18338240469814837151
21623110 236 18263368155990106261
23402539 116 18410566319162361766
23402655 69 18201721773563375622
23559900 14 18341325700027887232
335352 9 18410007719541319564
34934 24 18335695014618288215
350125 39 18408603674022772468
3545911 37 18408602569419241710
3680242 22 18335416829913620042
4214541 1 18412824715549947695
474 4 18408605889666299408
5104073 3 18339077194179428906
542803 24 17561084709247609168
59755656 215 18335983078396721054
633830 44 18202282537272954908
9709674 26 18410014338397756278

> <PUBCHEM_SHAPE_MULTIPOLES>
441.01
10.64
2.03
1.22
7.18
0.55
-0.05
-1.94
-1.01
0.21
-0.15
-1.94
-0.33
-0.49

> <PUBCHEM_SHAPE_SELFOVERLAP>
961.464

> <PUBCHEM_SHAPE_VOLUME>
238.8

> <PUBCHEM_COORDINATE_TYPE>
2
5
10

> <Energy>
61.5647

> <minimizedAffinity>
-9.33117

> <CNNscore>
0.8756897449

> <CNNaffinity>
8.3105382919

> <CNN_VS>
7.2774529457

> <CNNaffinity_variance>
0.6582286954

$$$$
5991


 24 27  0  0  0  0  0  0  0  0999 V2000
   -6.3767   -2.2676   20.4028 O   0  0  0  0  0  0  0  0  0  0  0  0
    2.5071   -1.5951   26.8191 O   0  0  0  0  0  0  0  0  0  0  0  0
   -4.2221   -2.4158   21.6070 C   0  0  0  0  0  0  0  0  0  0  0  0
   -2.8535   -2.9577   21.1340 C   0  0  0  0  0  0  0  0  0  0  0  0
   -1.6922   -2.4579   21.9969 C   0  0  0  0  0  0  0  0  0  0  0  0
   -5.1519   -2.9856   20.4903 C   0  0  0  0  0  0  0  0  0  0  0  0
   -1.9070   -2.9437   23.4618 C   0  0  0  0  0  0  0  0  0  0  0  0
   -4.4585   -2.9112   23.0463 C   0  0  0  0  0  0  0  0  0  0  0  0
   -2.8435   -2.6457   19.6397 C   0  0  0  0  0  0  0  0  0  0  0  0
   -3.3034   -2.5264   23.9922 C   0  0  0  0  0  0  0  0  0  0  0  0
   -4.3154   -2.7703   19.2010 C   0  0  0  0  0  0  0  0  0  0  0  0
   -0.3350   -2.9616   21.4999 C   0  0  0  0  0  0  0  0  0  0  0  0
   -4.3111   -0.8610   21.6094 C   0  0  0  0  0  0  0  0  0  0  0  0
   -0.7321   -2.5462   24.3547 C   0  0  0  0  0  0  0  0  0  0  0  0
    0.7849   -2.3113   22.3057 C   0  0  0  0  0  0  0  0  0  0  0  0
    0.5395   -2.2942   23.7940 C   0  0  0  0  0  0  0  0  0  0  0  0
   -0.8603   -2.5119   25.7539 C   0  0  0  0  0  0  0  0  0  0  0  0
    1.6224   -1.9610   24.6300 C   0  0  0  0  0  0  0  0  0  0  0  0
    0.2280   -2.1890   26.5757 C   0  0  0  0  0  0  0  0  0  0  0  0
    1.4604   -1.9113   26.0049 C   0  0  0  0  0  0  0  0  0  0  0  0
   -6.1901   -1.3220   20.2936 H   0  0  0  0  0  0  0  0  0  0  0  0
    3.3469   -1.4046   26.4498 H   0  0  0  0  0  0  0  0  0  0  0  0
   -5.4718   -4.4161   20.6554 C   0  0  0  0  0  0  0  0  0  0  0  0
   -5.7478   -5.5797   20.7889 C   0  0  0  0  0  0  0  0  0  0  0  0
  1  6  1  0
  1 21  1  0
  2 20  1  0
  2 22  1  0
  3  4  1  0
  3  6  1  0
  3  8  1  0
  3 13  1  0
  4  5  1  0
  4  9  1  0
  5  7  1  0
  5 12  1  0
  6 11  1  0
  6 23  1  0
  7 10  1  0
  7 14  1  0
  8 10  1  0
  9 11  1  0
 12 15  1  0
 14 16  2  0
 14 17  1  0
 15 16  1  0
 16 18  1  0
 23 24  3  0
 17 19  2  0
 18 20  2  0
 19 20  1  0
M  END
> <PUBCHEM_COMPOUND_CID>
5991

> <PUBCHEM_CONFORMER_RMSD>
0.6

> <PUBCHEM_CONFORMER_DIVERSEORDER>
1

> <PUBCHEM_MMFF94_PARTIAL_CHARGES>
19
1 -0.68
14 -0.14
15 0.14
16 -0.14
17 -0.2
18 -0.15
19 -0.15
2 -0.53
20 -0.15
21 0.08
22 -0.18
41 0.4
42 0.15
43 0.15
44 0.15
45 0.18
46 0.45
6 0.48
7 0.14

> <PUBCHEM_EFFECTIVE_ROTOR_COUNT>
1.4

> <PUBCHEM_PHARMACOPHORE_FEATURES>
8
1 1 acceptor
1 1 donor
1 2 donor
1 22 hydrophobe
5 3 4 6 9 11 rings
6 14 16 18 19 20 21 rings
6 3 4 5 7 8 10 rings
6 5 7 12 14 15 16 rings

> <PUBCHEM_HEAVY_ATOM_COUNT>
22

> <PUBCHEM_ATOM_DEF_STEREO_COUNT>
5

> <PUBCHEM_ATOM_UDEF_STEREO_COUNT>
0

> <PUBCHEM_BOND_DEF_STEREO_COUNT>
0

> <PUBCHEM_BOND_UDEF_STEREO_COUNT>
0

> <PUBCHEM_ISOTOPIC_ATOM_COUNT>
0

> <PUBCHEM_COMPONENT_COUNT>
1

> <PUBCHEM_CACTVS_TAUTO_COUNT>
9

> <PUBCHEM_CONFORMER_ID>
0000176700000001

> <PUBCHEM_MMFF94_ENERGY>
75.3654

> <PUBCHEM_FEATURE_SELFOVERLAP>
40.689

> <PUBCHEM_SHAPE_FINGERPRINT>
10498660 4 18334565854482978588
10616163 171 18412261769892000550
10906281 52 18268729332496851400
10967382 1 18409163299196382730
11132069 177 18260823830106114581
11315181 36 17846777438100329984
11552529 35 18058445585631877095
11578080 2 16952518088400902894
11796584 16 15123796154675551020
12107183 9 17697047933183828707
12236239 1 17917992754997443209
12403259 415 18260540148118003532
12403814 3 17531241756051219503
12633257 1 18411416168188185458
12644460 14 18260827060354363322
12788726 201 17059505002047033793
128620 24 17385724690407290772
13140716 1 18264499557760559337
13224815 77 18408318891198213202
13675066 3 17749393654488776519
14790565 3 18338806709892665688
15163728 17 15481289097577292713
15183329 4 18408605830407435614
15196674 1 18337388339818468438
15209289 33 18341332270467662817
15209294 21 18059584555192331817
15309172 13 18409451371427638915
15536298 74 18341610425830279326
15788980 27 17749105603943632888
16945 1 18265320738190372627
17349148 13 18114176445825312880
1813 80 17530976782159466655
18186145 218 18409161126111612646
19489759 90 15410896249631894657
19591789 44 18193273216009210722
200 152 17918273168974754922
21033648 29 17968079933063946356
21267235 1 18338240469814837151
21623110 236 18263368155990106261
23402539 116 18410566319162361766
23402655 69 18201721773563375622
23559900 14 18341325700027887232
335352 9 18410007719541319564
34934 24 18335695014618288215
350125 39 18408603674022772468
3545911 37 18408602569419241710
3680242 22 18335416829913620042
4214541 1 18412824715549947695
474 4 18408605889666299408
5104073 3 18339077194179428906
542803 24 17561084709247609168
59755656 215 18335983078396721054
633830 44 18202282537272954908
9709674 26 18410014338397756278

> <PUBCHEM_SHAPE_MULTIPOLES>
441.01
10.64
2.03
1.22
7.18
0.55
-0.05
-1.94
-1.01
0.21
-0.15
-1.94
-0.33
-0.49

> <PUBCHEM_SHAPE_SELFOVERLAP>
961.464

> <PUBCHEM_SHAPE_VOLUME>
238.8

> <PUBCHEM_COORDINATE_TYPE>
2
5
10

> <Energy>
61.5647

> <minimizedAffinity>
-7.43743

> <CNNscore>
0.7238243222

> <CNNaffinity>
8.0073757172

> <CNN_VS>
5.7959332466

> <CNNaffinity_variance>
0.8643288612

$$$$
5991


 24 27  0  0  0  0  0  0  0  0999 V2000
   -2.8040   -4.2335   17.8060 O   0  0  0  0  0  0  0  0  0  0  0  0
    1.1535   -2.4965   27.8987 O   0  0  0  0  0  0  0  0  0  0  0  0
   -2.2570   -3.6200   20.1380 C   0  0  0  0  0  0  0  0  0  0  0  0
   -3.1832   -3.1711   21.2918 C   0  0  0  0  0  0  0  0  0  0  0  0
   -2.5298   -3.3296   22.6669 C   0  0  0  0  0  0  0  0  0  0  0  0
   -3.2225   -3.4580   18.9224 C   0  0  0  0  0  0  0  0  0  0  0  0
   -1.2497   -2.4427   22.7222 C   0  0  0  0  0  0  0  0  0  0  0  0
   -0.9980   -2.7328   20.1656 C   0  0  0  0  0  0  0  0  0  0  0  0
   -4.4880   -3.9119   21.0105 C   0  0  0  0  0  0  0  0  0  0  0  0
   -0.2978   -2.7572   21.5389 C   0  0  0  0  0  0  0  0  0  0  0  0
   -4.5672   -4.0017   19.4742 C   0  0  0  0  0  0  0  0  0  0  0  0
   -3.4650   -2.9247   23.8090 C   0  0  0  0  0  0  0  0  0  0  0  0
   -1.8041   -5.1064   20.2431 C   0  0  0  0  0  0  0  0  0  0  0  0
   -0.6001   -2.4940   24.1046 C   0  0  0  0  0  0  0  0  0  0  0  0
   -2.8130   -3.2459   25.1501 C   0  0  0  0  0  0  0  0  0  0  0  0
   -1.3650   -2.8331   25.2425 C   0  0  0  0  0  0  0  0  0  0  0  0
    0.7409   -2.1179   24.2930 C   0  0  0  0  0  0  0  0  0  0  0  0
   -0.7632   -2.8449   26.5154 C   0  0  0  0  0  0  0  0  0  0  0  0
    1.3253   -2.1237   25.5668 C   0  0  0  0  0  0  0  0  0  0  0  0
    0.5679   -2.4925   26.6676 C   0  0  0  0  0  0  0  0  0  0  0  0
   -2.6907   -5.1576   18.0783 H   0  0  0  0  0  0  0  0  0  0  0  0
    0.6560   -2.7431   28.6534 H   0  0  0  0  0  0  0  0  0  0  0  0
   -3.3846   -2.0621   18.4738 C   0  0  0  0  0  0  0  0  0  0  0  0
   -3.5071   -0.9189   18.1187 C   0  0  0  0  0  0  0  0  0  0  0  0
  1  6  1  0
  1 21  1  0
  2 20  1  0
  2 22  1  0
  3  4  1  0
  3  6  1  0
  3  8  1  0
  3 13  1  0
  4  5  1  0
  4  9  1  0
  5  7  1  0
  5 12  1  0
  6 11  1  0
  6 23  1  0
  7 10  1  0
  7 14  1  0
  8 10  1  0
  9 11  1  0
 12 15  1  0
 14 16  2  0
 14 17  1  0
 15 16  1  0
 16 18  1  0
 23 24  3  0
 17 19  2  0
 18 20  2  0
 19 20  1  0
M  END
> <PUBCHEM_COMPOUND_CID>
5991

> <PUBCHEM_CONFORMER_RMSD>
0.6

> <PUBCHEM_CONFORMER_DIVERSEORDER>
1

> <PUBCHEM_MMFF94_PARTIAL_CHARGES>
19
1 -0.68
14 -0.14
15 0.14
16 -0.14
17 -0.2
18 -0.15
19 -0.15
2 -0.53
20 -0.15
21 0.08
22 -0.18
41 0.4
42 0.15
43 0.15
44 0.15
45 0.18
46 0.45
6 0.48
7 0.14

> <PUBCHEM_EFFECTIVE_ROTOR_COUNT>
1.4

> <PUBCHEM_PHARMACOPHORE_FEATURES>
8
1 1 acceptor
1 1 donor
1 2 donor
1 22 hydrophobe
5 3 4 6 9 11 rings
6 14 16 18 19 20 21 rings
6 3 4 5 7 8 10 rings
6 5 7 12 14 15 16 rings

> <PUBCHEM_HEAVY_ATOM_COUNT>
22

> <PUBCHEM_ATOM_DEF_STEREO_COUNT>
5

> <PUBCHEM_ATOM_UDEF_STEREO_COUNT>
0

> <PUBCHEM_BOND_DEF_STEREO_COUNT>
0

> <PUBCHEM_BOND_UDEF_STEREO_COUNT>
0

> <PUBCHEM_ISOTOPIC_ATOM_COUNT>
0

> <PUBCHEM_COMPONENT_COUNT>
1

> <PUBCHEM_CACTVS_TAUTO_COUNT>
9

> <PUBCHEM_CONFORMER_ID>
0000176700000001

> <PUBCHEM_MMFF94_ENERGY>
75.3654

> <PUBCHEM_FEATURE_SELFOVERLAP>
40.689

> <PUBCHEM_SHAPE_FINGERPRINT>
10498660 4 18334565854482978588
10616163 171 18412261769892000550
10906281 52 18268729332496851400
10967382 1 18409163299196382730
11132069 177 18260823830106114581
11315181 36 17846777438100329984
11552529 35 18058445585631877095
11578080 2 16952518088400902894
11796584 16 15123796154675551020
12107183 9 17697047933183828707
12236239 1 17917992754997443209
12403259 415 18260540148118003532
12403814 3 17531241756051219503
12633257 1 18411416168188185458
12644460 14 18260827060354363322
12788726 201 17059505002047033793
128620 24 17385724690407290772
13140716 1 18264499557760559337
13224815 77 18408318891198213202
13675066 3 17749393654488776519
14790565 3 18338806709892665688
15163728 17 15481289097577292713
15183329 4 18408605830407435614
15196674 1 18337388339818468438
15209289 33 18341332270467662817
15209294 21 18059584555192331817
15309172 13 18409451371427638915
15536298 74 18341610425830279326
15788980 27 17749105603943632888
16945 1 18265320738190372627
17349148 13 18114176445825312880
1813 80 17530976782159466655
18186145 218 18409161126111612646
19489759 90 15410896249631894657
19591789 44 18193273216009210722
200 152 17918273168974754922
21033648 29 17968079933063946356
21267235 1 18338240469814837151
21623110 236 18263368155990106261
23402539 116 18410566319162361766
23402655 69 18201721773563375622
23559900 14 18341325700027887232
335352 9 18410007719541319564
34934 24 18335695014618288215
350125 39 18408603674022772468
3545911 37 18408602569419241710
3680242 22 18335416829913620042
4214541 1 18412824715549947695
474 4 18408605889666299408
5104073 3 18339077194179428906
542803 24 17561084709247609168
59755656 215 18335983078396721054
633830 44 18202282537272954908
9709674 26 18410014338397756278

> <PUBCHEM_SHAPE_MULTIPOLES>
441.01
10.64
2.03
1.22
7.18
0.55
-0.05
-1.94
-1.01
0.21
-0.15
-1.94
-0.33
-0.49

> <PUBCHEM_SHAPE_SELFOVERLAP>
961.464

> <PUBCHEM_SHAPE_VOLUME>
238.8

> <PUBCHEM_COORDINATE_TYPE>
2
5
10

> <Energy>
61.5647

> <minimizedAffinity>
-7.52943

> <CNNscore>
0.6804831028

> <CNNaffinity>
8.1263132095

> <CNN_VS>
5.5298190117

> <CNNaffinity_variance>
1.2540049553

$$$$
5991


 24 27  0  0  0  0  0  0  0  0999 V2000
    1.8232   -0.9715   26.6629 O   0  0  0  0  0  0  0  0  0  0  0  0
   -3.4941   -6.2717   18.6519 O   0  0  0  0  0  0  0  0  0  0  0  0
    0.3443   -2.2513   25.1499 C   0  0  0  0  0  0  0  0  0  0  0  0
   -1.1635   -2.5720   25.2696 C   0  0  0  0  0  0  0  0  0  0  0  0
   -1.7865   -2.9804   23.9324 C   0  0  0  0  0  0  0  0  0  0  0  0
    0.6453   -1.7664   26.6027 C   0  0  0  0  0  0  0  0  0  0  0  0
   -1.0738   -4.2663   23.4158 C   0  0  0  0  0  0  0  0  0  0  0  0
    1.0645   -3.5234   24.6644 C   0  0  0  0  0  0  0  0  0  0  0  0
   -1.7295   -1.3579   26.0015 C   0  0  0  0  0  0  0  0  0  0  0  0
    0.4633   -4.0695   23.3541 C   0  0  0  0  0  0  0  0  0  0  0  0
   -0.5980   -0.9023   26.9432 C   0  0  0  0  0  0  0  0  0  0  0  0
   -3.2878   -3.2556   24.0463 C   0  0  0  0  0  0  0  0  0  0  0  0
    0.6606   -1.1030   24.1464 C   0  0  0  0  0  0  0  0  0  0  0  0
   -1.7125   -4.7715   22.1226 C   0  0  0  0  0  0  0  0  0  0  0  0
   -3.8739   -3.5091   22.6610 C   0  0  0  0  0  0  0  0  0  0  0  0
   -3.0482   -4.4382   21.8064 C   0  0  0  0  0  0  0  0  0  0  0  0
   -1.0260   -5.6495   21.2664 C   0  0  0  0  0  0  0  0  0  0  0  0
   -3.6365   -4.9366   20.6283 C   0  0  0  0  0  0  0  0  0  0  0  0
   -1.6265   -6.1470   20.1020 C   0  0  0  0  0  0  0  0  0  0  0  0
   -2.9269   -5.7815   19.7905 C   0  0  0  0  0  0  0  0  0  0  0  0
    1.7538   -0.2419   26.0275 H   0  0  0  0  0  0  0  0  0  0  0  0
   -4.3721   -6.0347   18.4264 H   0  0  0  0  0  0  0  0  0  0  0  0
    0.7843   -2.8635   27.5789 C   0  0  0  0  0  0  0  0  0  0  0  0
    0.8875   -3.7667   28.3673 C   0  0  0  0  0  0  0  0  0  0  0  0
  1  6  1  0
  1 21  1  0
  2 20  1  0
  2 22  1  0
  3  4  1  0
  3  6  1  0
  3  8  1  0
  3 13  1  0
  4  5  1  0
  4  9  1  0
  5  7  1  0
  5 12  1  0
  6 11  1  0
  6 23  1  0
  7 10  1  0
  7 14  1  0
  8 10  1  0
  9 11  1  0
 12 15  1  0
 14 16  2  0
 14 17  1  0
 15 16  1  0
 16 18  1  0
 23 24  3  0
 17 19  2  0
 18 20  2  0
 19 20  1  0
M  END
> <PUBCHEM_COMPOUND_CID>
5991

> <PUBCHEM_CONFORMER_RMSD>
0.6

> <PUBCHEM_CONFORMER_DIVERSEORDER>
1

> <PUBCHEM_MMFF94_PARTIAL_CHARGES>
19
1 -0.68
14 -0.14
15 0.14
16 -0.14
17 -0.2
18 -0.15
19 -0.15
2 -0.53
20 -0.15
21 0.08
22 -0.18
41 0.4
42 0.15
43 0.15
44 0.15
45 0.18
46 0.45
6 0.48
7 0.14

> <PUBCHEM_EFFECTIVE_ROTOR_COUNT>
1.4

> <PUBCHEM_PHARMACOPHORE_FEATURES>
8
1 1 acceptor
1 1 donor
1 2 donor
1 22 hydrophobe
5 3 4 6 9 11 rings
6 14 16 18 19 20 21 rings
6 3 4 5 7 8 10 rings
6 5 7 12 14 15 16 rings

> <PUBCHEM_HEAVY_ATOM_COUNT>
22

> <PUBCHEM_ATOM_DEF_STEREO_COUNT>
5

> <PUBCHEM_ATOM_UDEF_STEREO_COUNT>
0

> <PUBCHEM_BOND_DEF_STEREO_COUNT>
0

> <PUBCHEM_BOND_UDEF_STEREO_COUNT>
0

> <PUBCHEM_ISOTOPIC_ATOM_COUNT>
0

> <PUBCHEM_COMPONENT_COUNT>
1

> <PUBCHEM_CACTVS_TAUTO_COUNT>
9

> <PUBCHEM_CONFORMER_ID>
0000176700000001

> <PUBCHEM_MMFF94_ENERGY>
75.3654

> <PUBCHEM_FEATURE_SELFOVERLAP>
40.689

> <PUBCHEM_SHAPE_FINGERPRINT>
10498660 4 18334565854482978588
10616163 171 18412261769892000550
10906281 52 18268729332496851400
10967382 1 18409163299196382730
11132069 177 18260823830106114581
11315181 36 17846777438100329984
11552529 35 18058445585631877095
11578080 2 16952518088400902894
11796584 16 15123796154675551020
12107183 9 17697047933183828707
12236239 1 17917992754997443209
12403259 415 18260540148118003532
12403814 3 17531241756051219503
12633257 1 18411416168188185458
12644460 14 18260827060354363322
12788726 201 17059505002047033793
128620 24 17385724690407290772
13140716 1 18264499557760559337
13224815 77 18408318891198213202
13675066 3 17749393654488776519
14790565 3 18338806709892665688
15163728 17 15481289097577292713
15183329 4 18408605830407435614
15196674 1 18337388339818468438
15209289 33 18341332270467662817
15209294 21 18059584555192331817
15309172 13 18409451371427638915
15536298 74 18341610425830279326
15788980 27 17749105603943632888
16945 1 18265320738190372627
17349148 13 18114176445825312880
1813 80 17530976782159466655
18186145 218 18409161126111612646
19489759 90 15410896249631894657
19591789 44 18193273216009210722
200 152 17918273168974754922
21033648 29 17968079933063946356
21267235 1 18338240469814837151
21623110 236 18263368155990106261
23402539 116 18410566319162361766
23402655 69 18201721773563375622
23559900 14 18341325700027887232
335352 9 18410007719541319564
34934 24 18335695014618288215
350125 39 18408603674022772468
3545911 37 18408602569419241710
3680242 22 18335416829913620042
4214541 1 18412824715549947695
474 4 18408605889666299408
5104073 3 18339077194179428906
542803 24 17561084709247609168
59755656 215 18335983078396721054
633830 44 18202282537272954908
9709674 26 18410014338397756278

> <PUBCHEM_SHAPE_MULTIPOLES>
441.01
10.64
2.03
1.22
7.18
0.55
-0.05
-1.94
-1.01
0.21
-0.15
-1.94
-0.33
-0.49

> <PUBCHEM_SHAPE_SELFOVERLAP>
961.464

> <PUBCHEM_SHAPE_VOLUME>
238.8

> <PUBCHEM_COORDINATE_TYPE>
2
5
10

> <Energy>
61.5647

> <minimizedAffinity>
9.48241

> <CNNscore>
0.3470492065

> <CNNaffinity>
7.0357627869

> <CNN_VS>
2.4417560101

> <CNNaffinity_variance>
1.0451377630

$$$$
5991


 24 27  0  0  0  0  0  0  0  0999 V2000
    1.7803   -1.8639   25.8672 O   0  0  0  0  0  0  0  0  0  0  0  0
   -4.2503   -4.3508   17.0361 O   0  0  0  0  0  0  0  0  0  0  0  0
    0.0963   -2.3540   24.1241 C   0  0  0  0  0  0  0  0  0  0  0  0
   -1.3830   -1.9168   24.0194 C   0  0  0  0  0  0  0  0  0  0  0  0
   -1.9335   -2.0382   22.5964 C   0  0  0  0  0  0  0  0  0  0  0  0
    0.3873   -2.0077   25.6180 C   0  0  0  0  0  0  0  0  0  0  0  0
   -1.8532   -3.5291   22.1501 C   0  0  0  0  0  0  0  0  0  0  0  0
    0.1855   -3.8350   23.7101 C   0  0  0  0  0  0  0  0  0  0  0  0
   -1.3997   -0.5493   24.6976 C   0  0  0  0  0  0  0  0  0  0  0  0
   -0.4152   -4.0867   22.3127 C   0  0  0  0  0  0  0  0  0  0  0  0
   -0.3301   -0.6441   25.8028 C   0  0  0  0  0  0  0  0  0  0  0  0
   -3.3849   -1.5642   22.4882 C   0  0  0  0  0  0  0  0  0  0  0  0
    1.0552   -1.5368   23.2086 C   0  0  0  0  0  0  0  0  0  0  0  0
   -2.4694   -3.7263   20.7655 C   0  0  0  0  0  0  0  0  0  0  0  0
   -3.8231   -1.5690   21.0271 C   0  0  0  0  0  0  0  0  0  0  0  0
   -3.4284   -2.8141   20.2725 C   0  0  0  0  0  0  0  0  0  0  0  0
   -2.1712   -4.8606   19.9911 C   0  0  0  0  0  0  0  0  0  0  0  0
   -4.0135   -3.0243   19.0092 C   0  0  0  0  0  0  0  0  0  0  0  0
   -2.7684   -5.0637   18.7396 C   0  0  0  0  0  0  0  0  0  0  0  0
   -3.6821   -4.1396   18.2572 C   0  0  0  0  0  0  0  0  0  0  0  0
    2.1542   -1.2165   25.2493 H   0  0  0  0  0  0  0  0  0  0  0  0
   -4.8698   -3.7361   16.6950 H   0  0  0  0  0  0  0  0  0  0  0  0
   -0.1477   -2.9968   26.5727 C   0  0  0  0  0  0  0  0  0  0  0  0
   -0.5907   -3.7923   27.3594 C   0  0  0  0  0  0  0  0  0  0  0  0
  1  6  1  0
  1 21  1  0
  2 20  1  0
  2 22  1  0
  3  4  1  0
  3  6  1  0
  3  8  1  0
  3 13  1  0
  4  5  1  0
  4  9  1  0
  5  7  1  0
  5 12  1  0
  6 11  1  0
  6 23  1  0
  7 10  1  0
  7 14  1  0
  8 10  1  0
  9 11  1  0
 12 15  1  0
 14 16  2  0
 14 17  1  0
 15 16  1  0
 16 18  1  0
 23 24  3  0
 17 19  2  0
 18 20  2  0
 19 20  1  0
M  END
> <PUBCHEM_COMPOUND_CID>
5991

> <PUBCHEM_CONFORMER_RMSD>
0.6

> <PUBCHEM_CONFORMER_DIVERSEORDER>
1

> <PUBCHEM_MMFF94_PARTIAL_CHARGES>
19
1 -0.68
14 -0.14
15 0.14
16 -0.14
17 -0.2
18 -0.15
19 -0.15
2 -0.53
20 -0.15
21 0.08
22 -0.18
41 0.4
42 0.15
43 0.15
44 0.15
45 0.18
46 0.45
6 0.48
7 0.14

> <PUBCHEM_EFFECTIVE_ROTOR_COUNT>
1.4

> <PUBCHEM_PHARMACOPHORE_FEATURES>
8
1 1 acceptor
1 1 donor
1 2 donor
1 22 hydrophobe
5 3 4 6 9 11 rings
6 14 16 18 19 20 21 rings
6 3 4 5 7 8 10 rings
6 5 7 12 14 15 16 rings

> <PUBCHEM_HEAVY_ATOM_COUNT>
22

> <PUBCHEM_ATOM_DEF_STEREO_COUNT>
5

> <PUBCHEM_ATOM_UDEF_STEREO_COUNT>
0

> <PUBCHEM_BOND_DEF_STEREO_COUNT>
0

> <PUBCHEM_BOND_UDEF_STEREO_COUNT>
0

> <PUBCHEM_ISOTOPIC_ATOM_COUNT>
0

> <PUBCHEM_COMPONENT_COUNT>
1

> <PUBCHEM_CACTVS_TAUTO_COUNT>
9

> <PUBCHEM_CONFORMER_ID>
0000176700000001

> <PUBCHEM_MMFF94_ENERGY>
75.3654

> <PUBCHEM_FEATURE_SELFOVERLAP>
40.689

> <PUBCHEM_SHAPE_FINGERPRINT>
10498660 4 18334565854482978588
10616163 171 18412261769892000550
10906281 52 18268729332496851400
10967382 1 18409163299196382730
11132069 177 18260823830106114581
11315181 36 17846777438100329984
11552529 35 18058445585631877095
11578080 2 16952518088400902894
11796584 16 15123796154675551020
12107183 9 17697047933183828707
12236239 1 17917992754997443209
12403259 415 18260540148118003532
12403814 3 17531241756051219503
12633257 1 18411416168188185458
12644460 14 18260827060354363322
12788726 201 17059505002047033793
128620 24 17385724690407290772
13140716 1 18264499557760559337
13224815 77 18408318891198213202
13675066 3 17749393654488776519
14790565 3 18338806709892665688
15163728 17 15481289097577292713
15183329 4 18408605830407435614
15196674 1 18337388339818468438
15209289 33 18341332270467662817
15209294 21 18059584555192331817
15309172 13 18409451371427638915
15536298 74 18341610425830279326
15788980 27 17749105603943632888
16945 1 18265320738190372627
17349148 13 18114176445825312880
1813 80 17530976782159466655
18186145 218 18409161126111612646
19489759 90 15410896249631894657
19591789 44 18193273216009210722
200 152 17918273168974754922
21033648 29 17968079933063946356
21267235 1 18338240469814837151
21623110 236 18263368155990106261
23402539 116 18410566319162361766
23402655 69 18201721773563375622
23559900 14 18341325700027887232
335352 9 18410007719541319564
34934 24 18335695014618288215
350125 39 18408603674022772468
3545911 37 18408602569419241710
3680242 22 18335416829913620042
4214541 1 18412824715549947695
474 4 18408605889666299408
5104073 3 18339077194179428906
542803 24 17561084709247609168
59755656 215 18335983078396721054
633830 44 18202282537272954908
9709674 26 18410014338397756278

> <PUBCHEM_SHAPE_MULTIPOLES>
441.01
10.64
2.03
1.22
7.18
0.55
-0.05
-1.94
-1.01
0.21
-0.15
-1.94
-0.33
-0.49

> <PUBCHEM_SHAPE_SELFOVERLAP>
961.464

> <PUBCHEM_SHAPE_VOLUME>
238.8

> <PUBCHEM_COORDINATE_TYPE>
2
5
10

> <Energy>
61.5647

> <minimizedAffinity>
-2.98262

> <CNNscore>
0.2092964649

> <CNNaffinity>
7.1054592133

> <CNN_VS>
1.4871474504

> <CNNaffinity_variance>
0.3365960419

$$$$
5991


 24 27  0  0  0  0  0  0  0  0999 V2000
    0.7743   -3.2884   24.5953 O   0  0  0  0  0  0  0  0  0  0  0  0
   -7.4316   -5.1091   17.5320 O   0  0  0  0  0  0  0  0  0  0  0  0
   -0.8197   -3.5355   22.7211 C   0  0  0  0  0  0  0  0  0  0  0  0
   -0.5618   -3.5993   21.1979 C   0  0  0  0  0  0  0  0  0  0  0  0
   -1.7362   -4.2069   20.4269 C   0  0  0  0  0  0  0  0  0  0  0  0
    0.5605   -3.0026   23.2184 C   0  0  0  0  0  0  0  0  0  0  0  0
   -2.9989   -3.3218   20.6514 C   0  0  0  0  0  0  0  0  0  0  0  0
   -2.0513   -2.6413   22.9584 C   0  0  0  0  0  0  0  0  0  0  0  0
    0.8067   -4.2678   21.0955 C   0  0  0  0  0  0  0  0  0  0  0  0
   -3.2817   -3.1209   22.1630 C   0  0  0  0  0  0  0  0  0  0  0  0
    1.5712   -3.7950   22.3472 C   0  0  0  0  0  0  0  0  0  0  0  0
   -1.4602   -4.3079   18.9248 C   0  0  0  0  0  0  0  0  0  0  0  0
   -1.0992   -4.9254   23.3658 C   0  0  0  0  0  0  0  0  0  0  0  0
   -4.1854   -3.8329   19.8349 C   0  0  0  0  0  0  0  0  0  0  0  0
   -2.5997   -5.0543   18.2385 C   0  0  0  0  0  0  0  0  0  0  0  0
   -3.9739   -4.6123   18.6762 C   0  0  0  0  0  0  0  0  0  0  0  0
   -5.5032   -3.4668   20.1585 C   0  0  0  0  0  0  0  0  0  0  0  0
   -5.0737   -5.0498   17.9135 C   0  0  0  0  0  0  0  0  0  0  0  0
   -6.5886   -3.9002   19.3851 C   0  0  0  0  0  0  0  0  0  0  0  0
   -6.3639   -4.6931   18.2705 C   0  0  0  0  0  0  0  0  0  0  0  0
    0.6578   -4.2388   24.7502 H   0  0  0  0  0  0  0  0  0  0  0  0
   -7.2975   -5.6456   16.7756 H   0  0  0  0  0  0  0  0  0  0  0  0
    0.7451   -1.5528   23.0189 C   0  0  0  0  0  0  0  0  0  0  0  0
    0.8844   -0.3702   22.8456 C   0  0  0  0  0  0  0  0  0  0  0  0
  1  6  1  0
  1 21  1  0
  2 20  1  0
  2 22  1  0
  3  4  1  0
  3  6  1  0
  3  8  1  0
  3 13  1  0
  4  5  1  0
  4  9  1  0
  5  7  1  0
  5 12  1  0
  6 11  1  0
  6 23  1  0
  7 10  1  0
  7 14  1  0
  8 10  1  0
  9 11  1  0
 12 15  1  0
 14 16  2  0
 14 17  1  0
 15 16  1  0
 16 18  1  0
 23 24  3  0
 17 19  2  0
 18 20  2  0
 19 20  1  0
M  END
> <PUBCHEM_COMPOUND_CID>
5991

> <PUBCHEM_CONFORMER_RMSD>
0.6

> <PUBCHEM_CONFORMER_DIVERSEORDER>
1

> <PUBCHEM_MMFF94_PARTIAL_CHARGES>
19
1 -0.68
14 -0.14
15 0.14
16 -0.14
17 -0.2
18 -0.15
19 -0.15
2 -0.53
20 -0.15
21 0.08
22 -0.18
41 0.4
42 0.15
43 0.15
44 0.15
45 0.18
46 0.45
6 0.48
7 0.14

> <PUBCHEM_EFFECTIVE_ROTOR_COUNT>
1.4

> <PUBCHEM_PHARMACOPHORE_FEATURES>
8
1 1 acceptor
1 1 donor
1 2 donor
1 22 hydrophobe
5 3 4 6 9 11 rings
6 14 16 18 19 20 21 rings
6 3 4 5 7 8 10 rings
6 5 7 12 14 15 16 rings

> <PUBCHEM_HEAVY_ATOM_COUNT>
22

> <PUBCHEM_ATOM_DEF_STEREO_COUNT>
5

> <PUBCHEM_ATOM_UDEF_STEREO_COUNT>
0

> <PUBCHEM_BOND_DEF_STEREO_COUNT>
0

> <PUBCHEM_BOND_UDEF_STEREO_COUNT>
0

> <PUBCHEM_ISOTOPIC_ATOM_COUNT>
0

> <PUBCHEM_COMPONENT_COUNT>
1

> <PUBCHEM_CACTVS_TAUTO_COUNT>
9

> <PUBCHEM_CONFORMER_ID>
0000176700000001

> <PUBCHEM_MMFF94_ENERGY>
75.3654

> <PUBCHEM_FEATURE_SELFOVERLAP>
40.689

> <PUBCHEM_SHAPE_FINGERPRINT>
10498660 4 18334565854482978588
10616163 171 18412261769892000550
10906281 52 18268729332496851400
10967382 1 18409163299196382730
11132069 177 18260823830106114581
11315181 36 17846777438100329984
11552529 35 18058445585631877095
11578080 2 16952518088400902894
11796584 16 15123796154675551020
12107183 9 17697047933183828707
12236239 1 17917992754997443209
12403259 415 18260540148118003532
12403814 3 17531241756051219503
12633257 1 18411416168188185458
12644460 14 18260827060354363322
12788726 201 17059505002047033793
128620 24 17385724690407290772
13140716 1 18264499557760559337
13224815 77 18408318891198213202
13675066 3 17749393654488776519
14790565 3 18338806709892665688
15163728 17 15481289097577292713
15183329 4 18408605830407435614
15196674 1 18337388339818468438
15209289 33 18341332270467662817
15209294 21 18059584555192331817
15309172 13 18409451371427638915
15536298 74 18341610425830279326
15788980 27 17749105603943632888
16945 1 18265320738190372627
17349148 13 18114176445825312880
1813 80 17530976782159466655
18186145 218 18409161126111612646
19489759 90 15410896249631894657
19591789 44 18193273216009210722
200 152 17918273168974754922
21033648 29 17968079933063946356
21267235 1 18338240469814837151
21623110 236 18263368155990106261
23402539 116 18410566319162361766
23402655 69 18201721773563375622
23559900 14 18341325700027887232
335352 9 18410007719541319564
34934 24 18335695014618288215
350125 39 18408603674022772468
3545911 37 18408602569419241710
3680242 22 18335416829913620042
4214541 1 18412824715549947695
474 4 18408605889666299408
5104073 3 18339077194179428906
542803 24 17561084709247609168
59755656 215 18335983078396721054
633830 44 18202282537272954908
9709674 26 18410014338397756278

> <PUBCHEM_SHAPE_MULTIPOLES>
441.01
10.64
2.03
1.22
7.18
0.55
-0.05
-1.94
-1.01
0.21
-0.15
-1.94
-0.33
-0.49

> <PUBCHEM_SHAPE_SELFOVERLAP>
961.464

> <PUBCHEM_SHAPE_VOLUME>
238.8

> <PUBCHEM_COORDINATE_TYPE>
2
5
10

> <Energy>
61.5647

> <minimizedAffinity>
-1.70471

> <CNNscore>
0.1700802594

> <CNNaffinity>
6.5398516655

> <CNN_VS>
1.1122996807

> <CNNaffinity_variance>
0.0580497384

$$$$
5991


 24 27  0  0  0  0  0  0  0  0999 V2000
    1.0877   -2.6894   24.4791 O   0  0  0  0  0  0  0  0  0  0  0  0
   -8.6156   -4.3432   19.6157 O   0  0  0  0  0  0  0  0  0  0  0  0
   -0.8868   -3.0263   23.0293 C   0  0  0  0  0  0  0  0  0  0  0  0
   -0.9723   -3.4954   21.5585 C   0  0  0  0  0  0  0  0  0  0  0  0
   -2.3657   -4.0059   21.1834 C   0  0  0  0  0  0  0  0  0  0  0  0
    0.6348   -2.6937   23.1308 C   0  0  0  0  0  0  0  0  0  0  0  0
   -3.3929   -2.8485   21.3662 C   0  0  0  0  0  0  0  0  0  0  0  0
   -1.8798   -1.8638   23.2167 C   0  0  0  0  0  0  0  0  0  0  0  0
    0.2177   -4.4408   21.4158 C   0  0  0  0  0  0  0  0  0  0  0  0
   -3.3119   -2.2466   22.7932 C   0  0  0  0  0  0  0  0  0  0  0  0
    1.2965   -3.8607   22.3507 C   0  0  0  0  0  0  0  0  0  0  0  0
   -2.4353   -4.5092   19.7396 C   0  0  0  0  0  0  0  0  0  0  0  0
   -1.2422   -4.1377   24.0607 C   0  0  0  0  0  0  0  0  0  0  0  0
   -4.7922   -3.2753   20.9240 C   0  0  0  0  0  0  0  0  0  0  0  0
   -3.7993   -5.1391   19.4764 C   0  0  0  0  0  0  0  0  0  0  0  0
   -4.9599   -4.3296   19.9991 C   0  0  0  0  0  0  0  0  0  0  0  0
   -5.9348   -2.5762   21.3494 C   0  0  0  0  0  0  0  0  0  0  0  0
   -6.2523   -4.6921   19.5739 C   0  0  0  0  0  0  0  0  0  0  0  0
   -7.2150   -2.9404   20.9106 C   0  0  0  0  0  0  0  0  0  0  0  0
   -7.3627   -4.0000   20.0291 C   0  0  0  0  0  0  0  0  0  0  0  0
    0.8558   -3.5316   24.9009 H   0  0  0  0  0  0  0  0  0  0  0  0
   -8.7333   -5.0568   19.0201 H   0  0  0  0  0  0  0  0  0  0  0  0
    1.0031   -1.4019   22.5213 C   0  0  0  0  0  0  0  0  0  0  0  0
    1.3170   -0.3487   22.0312 C   0  0  0  0  0  0  0  0  0  0  0  0
  1  6  1  0
  1 21  1  0
  2 20  1  0
  2 22  1  0
  3  4  1  0
  3  6  1  0
  3  8  1  0
  3 13  1  0
  4  5  1  0
  4  9  1  0
  5  7  1  0
  5 12  1  0
  6 11  1  0
  6 23  1  0
  7 10  1  0
  7 14  1  0
  8 10  1  0
  9 11  1  0
 12 15  1  0
 14 16  2  0
 14 17  1  0
 15 16  1  0
 16 18  1  0
 23 24  3  0
 17 19  2  0
 18 20  2  0
 19 20  1  0
M  END
> <PUBCHEM_COMPOUND_CID>
5991

> <PUBCHEM_CONFORMER_RMSD>
0.6

> <PUBCHEM_CONFORMER_DIVERSEORDER>
1

> <PUBCHEM_MMFF94_PARTIAL_CHARGES>
19
1 -0.68
14 -0.14
15 0.14
16 -0.14
17 -0.2
18 -0.15
19 -0.15
2 -0.53
20 -0.15
21 0.08
22 -0.18
41 0.4
42 0.15
43 0.15
44 0.15
45 0.18
46 0.45
6 0.48
7 0.14

> <PUBCHEM_EFFECTIVE_ROTOR_COUNT>
1.4

> <PUBCHEM_PHARMACOPHORE_FEATURES>
8
1 1 acceptor
1 1 donor
1 2 donor
1 22 hydrophobe
5 3 4 6 9 11 rings
6 14 16 18 19 20 21 rings
6 3 4 5 7 8 10 rings
6 5 7 12 14 15 16 rings

> <PUBCHEM_HEAVY_ATOM_COUNT>
22

> <PUBCHEM_ATOM_DEF_STEREO_COUNT>
5

> <PUBCHEM_ATOM_UDEF_STEREO_COUNT>
0

> <PUBCHEM_BOND_DEF_STEREO_COUNT>
0

> <PUBCHEM_BOND_UDEF_STEREO_COUNT>
0

> <PUBCHEM_ISOTOPIC_ATOM_COUNT>
0

> <PUBCHEM_COMPONENT_COUNT>
1

> <PUBCHEM_CACTVS_TAUTO_COUNT>
9

> <PUBCHEM_CONFORMER_ID>
0000176700000001

> <PUBCHEM_MMFF94_ENERGY>
75.3654

> <PUBCHEM_FEATURE_SELFOVERLAP>
40.689

> <PUBCHEM_SHAPE_FINGERPRINT>
10498660 4 18334565854482978588
10616163 171 18412261769892000550
10906281 52 18268729332496851400
10967382 1 18409163299196382730
11132069 177 18260823830106114581
11315181 36 17846777438100329984
11552529 35 18058445585631877095
11578080 2 16952518088400902894
11796584 16 15123796154675551020
12107183 9 17697047933183828707
12236239 1 17917992754997443209
12403259 415 18260540148118003532
12403814 3 17531241756051219503
12633257 1 18411416168188185458
12644460 14 18260827060354363322
12788726 201 17059505002047033793
128620 24 17385724690407290772
13140716 1 18264499557760559337
13224815 77 18408318891198213202
13675066 3 17749393654488776519
14790565 3 18338806709892665688
15163728 17 15481289097577292713
15183329 4 18408605830407435614
15196674 1 18337388339818468438
15209289 33 18341332270467662817
15209294 21 18059584555192331817
15309172 13 18409451371427638915
15536298 74 18341610425830279326
15788980 27 17749105603943632888
16945 1 18265320738190372627
17349148 13 18114176445825312880
1813 80 17530976782159466655
18186145 218 18409161126111612646
19489759 90 15410896249631894657
19591789 44 18193273216009210722
200 152 17918273168974754922
21033648 29 17968079933063946356
21267235 1 18338240469814837151
21623110 236 18263368155990106261
23402539 116 18410566319162361766
23402655 69 18201721773563375622
23559900 14 18341325700027887232
335352 9 18410007719541319564
34934 24 18335695014618288215
350125 39 18408603674022772468
3545911 37 18408602569419241710
3680242 22 18335416829913620042
4214541 1 18412824715549947695
474 4 18408605889666299408
5104073 3 18339077194179428906
542803 24 17561084709247609168
59755656 215 18335983078396721054
633830 44 18202282537272954908
9709674 26 18410014338397756278

> <PUBCHEM_SHAPE_MULTIPOLES>
441.01
10.64
2.03
1.22
7.18
0.55
-0.05
-1.94
-1.01
0.21
-0.15
-1.94
-0.33
-0.49

> <PUBCHEM_SHAPE_SELFOVERLAP>
961.464

> <PUBCHEM_SHAPE_VOLUME>
238.8

> <PUBCHEM_COORDINATE_TYPE>
2
5
10

> <Energy>
61.5647

> <minimizedAffinity>
2.74267

> <CNNscore>
0.1397919208

> <CNNaffinity>
6.6773209572

> <CNN_VS>
0.9334354997

> <CNNaffinity_variance>
0.3319776058

$$$$
5991


 24 27  0  0  0  0  0  0  0  0999 V2000
   -0.5101   -0.7952   26.7687 O   0  0  0  0  0  0  0  0  0  0  0  0
   -4.4693   -3.9828   17.0371 O   0  0  0  0  0  0  0  0  0  0  0  0
   -1.2739   -1.8910   24.6878 C   0  0  0  0  0  0  0  0  0  0  0  0
   -1.6104   -3.3744   24.4105 C   0  0  0  0  0  0  0  0  0  0  0  0
   -2.4686   -3.5591   23.1566 C   0  0  0  0  0  0  0  0  0  0  0  0
   -0.5226   -2.0223   26.0496 C   0  0  0  0  0  0  0  0  0  0  0  0
   -1.6831   -3.0188   21.9240 C   0  0  0  0  0  0  0  0  0  0  0  0
   -0.4740   -1.3518   23.4868 C   0  0  0  0  0  0  0  0  0  0  0  0
   -2.1502   -3.8738   25.7483 C   0  0  0  0  0  0  0  0  0  0  0  0
   -1.2175   -1.5572   22.1520 C   0  0  0  0  0  0  0  0  0  0  0  0
   -1.3689   -3.0770   26.8110 C   0  0  0  0  0  0  0  0  0  0  0  0
   -2.8354   -5.0243   22.9094 C   0  0  0  0  0  0  0  0  0  0  0  0
   -2.5304   -0.9904   24.8762 C   0  0  0  0  0  0  0  0  0  0  0  0
   -2.4571   -3.2550   20.6275 C   0  0  0  0  0  0  0  0  0  0  0  0
   -3.8090   -5.1236   21.7394 C   0  0  0  0  0  0  0  0  0  0  0  0
   -3.4249   -4.2809   20.5487 C   0  0  0  0  0  0  0  0  0  0  0  0
   -2.1640   -2.5267   19.4618 C   0  0  0  0  0  0  0  0  0  0  0  0
   -4.1081   -4.5105   19.3392 C   0  0  0  0  0  0  0  0  0  0  0  0
   -2.8440   -2.7721   18.2613 C   0  0  0  0  0  0  0  0  0  0  0  0
   -3.8150   -3.7603   18.2121 C   0  0  0  0  0  0  0  0  0  0  0  0
   -1.4183   -0.4693   26.8678 H   0  0  0  0  0  0  0  0  0  0  0  0
   -5.1284   -4.6469   16.9864 H   0  0  0  0  0  0  0  0  0  0  0  0
    0.8708   -2.4883   25.9174 C   0  0  0  0  0  0  0  0  0  0  0  0
    2.0084   -2.8694   25.8250 C   0  0  0  0  0  0  0  0  0  0  0  0
  1  6  1  0
  1 21  1  0
  2 20  1  0
  2 22  1  0
  3  4  1  0
  3  6  1  0
  3  8  1  0
  3 13  1  0
  4  5  1  0
  4  9  1  0
  5  7  1  0
  5 12  1  0
  6 11  1  0
  6 23  1  0
  7 10  1  0
  7 14  1  0
  8 10  1  0
  9 11  1  0
 12 15  1  0
 14 16  2  0
 14 17  1  0
 15 16  1  0
 16 18  1  0
 23 24  3  0
 17 19  2  0
 18 20  2  0
 19 20  1  0
M  END
> <PUBCHEM_COMPOUND_CID>
5991

> <PUBCHEM_CONFORMER_RMSD>
0.6

> <PUBCHEM_CONFORMER_DIVERSEORDER>
1

> <PUBCHEM_MMFF94_PARTIAL_CHARGES>
19
1 -0.68
14 -0.14
15 0.14
16 -0.14
17 -0.2
18 -0.15
19 -0.15
2 -0.53
20 -0.15
21 0.08
22 -0.18
41 0.4
42 0.15
43 0.15
44 0.15
45 0.18
46 0.45
6 0.48
7 0.14

> <PUBCHEM_EFFECTIVE_ROTOR_COUNT>
1.4

> <PUBCHEM_PHARMACOPHORE_FEATURES>
8
1 1 acceptor
1 1 donor
1 2 donor
1 22 hydrophobe
5 3 4 6 9 11 rings
6 14 16 18 19 20 21 rings
6 3 4 5 7 8 10 rings
6 5 7 12 14 15 16 rings

> <PUBCHEM_HEAVY_ATOM_COUNT>
22

> <PUBCHEM_ATOM_DEF_STEREO_COUNT>
5

> <PUBCHEM_ATOM_UDEF_STEREO_COUNT>
0

> <PUBCHEM_BOND_DEF_STEREO_COUNT>
0

> <PUBCHEM_BOND_UDEF_STEREO_COUNT>
0

> <PUBCHEM_ISOTOPIC_ATOM_COUNT>
0

> <PUBCHEM_COMPONENT_COUNT>
1

> <PUBCHEM_CACTVS_TAUTO_COUNT>
9

> <PUBCHEM_CONFORMER_ID>
0000176700000001

> <PUBCHEM_MMFF94_ENERGY>
75.3654

> <PUBCHEM_FEATURE_SELFOVERLAP>
40.689

> <PUBCHEM_SHAPE_FINGERPRINT>
10498660 4 18334565854482978588
10616163 171 18412261769892000550
10906281 52 18268729332496851400
10967382 1 18409163299196382730
11132069 177 18260823830106114581
11315181 36 17846777438100329984
11552529 35 18058445585631877095
11578080 2 16952518088400902894
11796584 16 15123796154675551020
12107183 9 17697047933183828707
12236239 1 17917992754997443209
12403259 415 18260540148118003532
12403814 3 17531241756051219503
12633257 1 18411416168188185458
12644460 14 18260827060354363322
12788726 201 17059505002047033793
128620 24 17385724690407290772
13140716 1 18264499557760559337
13224815 77 18408318891198213202
13675066 3 17749393654488776519
14790565 3 18338806709892665688
15163728 17 15481289097577292713
15183329 4 18408605830407435614
15196674 1 18337388339818468438
15209289 33 18341332270467662817
15209294 21 18059584555192331817
15309172 13 18409451371427638915
15536298 74 18341610425830279326
15788980 27 17749105603943632888
16945 1 18265320738190372627
17349148 13 18114176445825312880
1813 80 17530976782159466655
18186145 218 18409161126111612646
19489759 90 15410896249631894657
19591789 44 18193273216009210722
200 152 17918273168974754922
21033648 29 17968079933063946356
21267235 1 18338240469814837151
21623110 236 18263368155990106261
23402539 116 18410566319162361766
23402655 69 18201721773563375622
23559900 14 18341325700027887232
335352 9 18410007719541319564
34934 24 18335695014618288215
350125 39 18408603674022772468
3545911 37 18408602569419241710
3680242 22 18335416829913620042
4214541 1 18412824715549947695
474 4 18408605889666299408
5104073 3 18339077194179428906
542803 24 17561084709247609168
59755656 215 18335983078396721054
633830 44 18202282537272954908
9709674 26 18410014338397756278

> <PUBCHEM_SHAPE_MULTIPOLES>
441.01
10.64
2.03
1.22
7.18
0.55
-0.05
-1.94
-1.01
0.21
-0.15
-1.94
-0.33
-0.49

> <PUBCHEM_SHAPE_SELFOVERLAP>
961.464

> <PUBCHEM_SHAPE_VOLUME>
238.8

> <PUBCHEM_COORDINATE_TYPE>
2
5
10

> <Energy>
61.5647

> <minimizedAffinity>
1.27008

> <CNNscore>
0.1370731443

> <CNNaffinity>
6.3836369514

> <CNN_VS>
0.8750252128

> <CNNaffinity_variance>
0.0580655597

$$$$
5991


 24 27  0  0  0  0  0  0  0  0999 V2000
    1.1467   -3.4210   25.0038 O   0  0  0  0  0  0  0  0  0  0  0  0
   -6.7482   -5.2201   17.5891 O   0  0  0  0  0  0  0  0  0  0  0  0
   -0.6500   -3.4136   23.3049 C   0  0  0  0  0  0  0  0  0  0  0  0
   -1.0483   -2.3236   22.2832 C   0  0  0  0  0  0  0  0  0  0  0  0
   -1.8908   -2.8763   21.1310 C   0  0  0  0  0  0  0  0  0  0  0  0
    0.2722   -2.5863   24.2542 C   0  0  0  0  0  0  0  0  0  0  0  0
   -3.2063   -3.4772   21.7112 C   0  0  0  0  0  0  0  0  0  0  0  0
   -1.9425   -3.9982   23.9055 C   0  0  0  0  0  0  0  0  0  0  0  0
    0.2762   -1.6373   21.9592 C   0  0  0  0  0  0  0  0  0  0  0  0
   -2.9059   -4.5188   22.8204 C   0  0  0  0  0  0  0  0  0  0  0  0
    1.0886   -1.7109   23.2666 C   0  0  0  0  0  0  0  0  0  0  0  0
   -2.2470   -1.8031   20.0995 C   0  0  0  0  0  0  0  0  0  0  0  0
    0.1671   -4.5842   22.6824 C   0  0  0  0  0  0  0  0  0  0  0  0
   -4.1290   -3.9690   20.5966 C   0  0  0  0  0  0  0  0  0  0  0  0
   -2.9537   -2.4437   18.9092 C   0  0  0  0  0  0  0  0  0  0  0  0
   -4.0219   -3.4375   19.2923 C   0  0  0  0  0  0  0  0  0  0  0  0
   -5.1611   -4.8865   20.8578 C   0  0  0  0  0  0  0  0  0  0  0  0
   -4.8993   -3.8745   18.2815 C   0  0  0  0  0  0  0  0  0  0  0  0
   -6.0346   -5.3056   19.8451 C   0  0  0  0  0  0  0  0  0  0  0  0
   -5.8924   -4.7985   18.5629 C   0  0  0  0  0  0  0  0  0  0  0  0
    1.6433   -3.9945   24.3993 H   0  0  0  0  0  0  0  0  0  0  0  0
   -6.6661   -4.8875   16.7170 H   0  0  0  0  0  0  0  0  0  0  0  0
   -0.4654   -1.7298   25.2020 C   0  0  0  0  0  0  0  0  0  0  0  0
   -1.0795   -1.0399   25.9732 C   0  0  0  0  0  0  0  0  0  0  0  0
  1  6  1  0
  1 21  1  0
  2 20  1  0
  2 22  1  0
  3  4  1  0
  3  6  1  0
  3  8  1  0
  3 13  1  0
  4  5  1  0
  4  9  1  0
  5  7  1  0
  5 12  1  0
  6 11  1  0
  6 23  1  0
  7 10  1  0
  7 14  1  0
  8 10  1  0
  9 11  1  0
 12 15  1  0
 14 16  2  0
 14 17  1  0
 15 16  1  0
 16 18  1  0
 23 24  3  0
 17 19  2  0
 18 20  2  0
 19 20  1  0
M  END
> <PUBCHEM_COMPOUND_CID>
5991

> <PUBCHEM_CONFORMER_RMSD>
0.6

> <PUBCHEM_CONFORMER_DIVERSEORDER>
1

> <PUBCHEM_MMFF94_PARTIAL_CHARGES>
19
1 -0.68
14 -0.14
15 0.14
16 -0.14
17 -0.2
18 -0.15
19 -0.15
2 -0.53
20 -0.15
21 0.08
22 -0.18
41 0.4
42 0.15
43 0.15
44 0.15
45 0.18
46 0.45
6 0.48
7 0.14

> <PUBCHEM_EFFECTIVE_ROTOR_COUNT>
1.4

> <PUBCHEM_PHARMACOPHORE_FEATURES>
8
1 1 acceptor
1 1 donor
1 2 donor
1 22 hydrophobe
5 3 4 6 9 11 rings
6 14 16 18 19 20 21 rings
6 3 4 5 7 8 10 rings
6 5 7 12 14 15 16 rings

> <PUBCHEM_HEAVY_ATOM_COUNT>
22

> <PUBCHEM_ATOM_DEF_STEREO_COUNT>
5

> <PUBCHEM_ATOM_UDEF_STEREO_COUNT>
0

> <PUBCHEM_BOND_DEF_STEREO_COUNT>
0

> <PUBCHEM_BOND_UDEF_STEREO_COUNT>
0

> <PUBCHEM_ISOTOPIC_ATOM_COUNT>
0

> <PUBCHEM_COMPONENT_COUNT>
1

> <PUBCHEM_CACTVS_TAUTO_COUNT>
9

> <PUBCHEM_CONFORMER_ID>
0000176700000001

> <PUBCHEM_MMFF94_ENERGY>
75.3654

> <PUBCHEM_FEATURE_SELFOVERLAP>
40.689

> <PUBCHEM_SHAPE_FINGERPRINT>
10498660 4 18334565854482978588
10616163 171 18412261769892000550
10906281 52 18268729332496851400
10967382 1 18409163299196382730
11132069 177 18260823830106114581
11315181 36 17846777438100329984
11552529 35 18058445585631877095
11578080 2 16952518088400902894
11796584 16 15123796154675551020
12107183 9 17697047933183828707
12236239 1 17917992754997443209
12403259 415 18260540148118003532
12403814 3 17531241756051219503
12633257 1 18411416168188185458
12644460 14 18260827060354363322
12788726 201 17059505002047033793
128620 24 17385724690407290772
13140716 1 18264499557760559337
13224815 77 18408318891198213202
13675066 3 17749393654488776519
14790565 3 18338806709892665688
15163728 17 15481289097577292713
15183329 4 18408605830407435614
15196674 1 18337388339818468438
15209289 33 18341332270467662817
15209294 21 18059584555192331817
15309172 13 18409451371427638915
15536298 74 18341610425830279326
15788980 27 17749105603943632888
16945 1 18265320738190372627
17349148 13 18114176445825312880
1813 80 17530976782159466655
18186145 218 18409161126111612646
19489759 90 15410896249631894657
19591789 44 18193273216009210722
200 152 17918273168974754922
21033648 29 17968079933063946356
21267235 1 18338240469814837151
21623110 236 18263368155990106261
23402539 116 18410566319162361766
23402655 69 18201721773563375622
23559900 14 18341325700027887232
335352 9 18410007719541319564
34934 24 18335695014618288215
350125 39 18408603674022772468
3545911 37 18408602569419241710
3680242 22 18335416829913620042
4214541 1 18412824715549947695
474 4 18408605889666299408
5104073 3 18339077194179428906
542803 24 17561084709247609168
59755656 215 18335983078396721054
633830 44 18202282537272954908
9709674 26 18410014338397756278

> <PUBCHEM_SHAPE_MULTIPOLES>
441.01
10.64
2.03
1.22
7.18
0.55
-0.05
-1.94
-1.01
0.21
-0.15
-1.94
-0.33
-0.49

> <PUBCHEM_SHAPE_SELFOVERLAP>
961.464

> <PUBCHEM_SHAPE_VOLUME>
238.8

> <PUBCHEM_COORDINATE_TYPE>
2
5
10

> <Energy>
61.5647

> <minimizedAffinity>
-6.06722

> <CNNscore>
0.1327958554

> <CNNaffinity>
6.4291076660

> <CNN_VS>
0.8537588716

> <CNNaffinity_variance>
0.0280148145

$$$$
