5284645


 26 27  0  0  0  0  0  0  0  0999 V2000
   -5.0637   -4.7281   17.8097 O   0  0  0  0  0  0  0  0  0  0  0  0
   -0.5535   -4.7201   21.7839 O   0  0  0  0  0  0  0  0  0  0  0  0
    0.2714   -2.6043   21.3972 O   0  0  0  0  0  0  0  0  0  0  0  0
    1.2682   -2.2369   24.0389 O   0  0  0  0  0  0  0  0  0  0  0  0
   -2.2118   -2.1300   27.2098 O   0  0  0  0  0  0  0  0  0  0  0  0
   -2.7189   -4.2146   17.9756 C   0  0  0  0  0  0  0  0  0  0  0  0
   -4.0483   -4.3447   18.7386 C   0  0  0  0  0  0  0  0  0  0  0  0
   -1.4882   -4.0827   18.8767 C   0  0  0  0  0  0  0  0  0  0  0  0
   -4.4759   -3.0343   19.4172 C   0  0  0  0  0  0  0  0  0  0  0  0
   -1.0924   -5.4081   19.5359 C   0  0  0  0  0  0  0  0  0  0  0  0
   -5.6948   -3.1886   20.3393 C   0  0  0  0  0  0  0  0  0  0  0  0
    0.0272   -5.2352   20.5675 C   0  0  0  0  0  0  0  0  0  0  0  0
   -5.4366   -4.0108   21.6074 C   0  0  0  0  0  0  0  0  0  0  0  0
    0.6482   -6.5823   20.9254 C   0  0  0  0  0  0  0  0  0  0  0  0
   -4.4078   -3.3898   22.5129 C   0  0  0  0  0  0  0  0  0  0  0  0
   -0.9214   -3.1026   23.3858 C   0  0  0  0  0  0  0  0  0  0  0  0
   -2.2609   -3.3619   23.7387 C   0  0  0  0  0  0  0  0  0  0  0  0
   -0.3757   -3.4109   22.0477 C   0  0  0  0  0  0  0  0  0  0  0  0
   -3.2397   -3.9735   22.8255 C   0  0  0  0  0  0  0  0  0  0  0  0
   -0.0505   -2.5067   24.3122 C   0  0  0  0  0  0  0  0  0  0  0  0
   -2.6865   -3.0371   25.0417 C   0  0  0  0  0  0  0  0  0  0  0  0
   -1.8066   -2.4504   25.9483 C   0  0  0  0  0  0  0  0  0  0  0  0
   -0.4911   -2.1788   25.5913 C   0  0  0  0  0  0  0  0  0  0  0  0
   -4.8069   -5.5552   17.3730 H   0  0  0  0  0  0  0  0  0  0  0  0
    1.6218   -2.4359   23.1943 H   0  0  0  0  0  0  0  0  0  0  0  0
   -3.0933   -2.3024   27.4766 H   0  0  0  0  0  0  0  0  0  0  0  0
  1  7  1  0
  1 24  1  0
  2 12  1  0
  2 18  1  0
  3 18  2  0
  4 20  1  0
  4 25  1  0
  5 22  1  0
  5 26  1  0
  6  7  1  0
  6  8  1  0
  7  9  1  0
  8 10  1  0
  9 11  1  0
 10 12  1  0
 11 13  1  0
 12 14  1  0
 13 15  1  0
 15 19  2  0
 16 17  2  0
 16 18  1  0
 16 20  1  0
 17 19  1  0
 17 21  1  0
 20 23  2  0
 21 22  2  0
 22 23  1  0
M  END
> <PUBCHEM_COMPOUND_CID>
5284645

> <PUBCHEM_CONFORMER_RMSD>
0.6

> <PUBCHEM_CONFORMER_DIVERSEORDER>
1

> <PUBCHEM_MMFF94_PARTIAL_CHARGES>
24
1 -0.68
12 0.28
13 0.14
15 -0.29
16 0.09
17 0.03
18 0.63
19 -0.18
2 -0.43
20 0.08
21 -0.15
22 0.08
23 -0.15
3 -0.57
4 -0.53
41 0.4
42 0.15
43 0.15
44 0.15
45 0.15
46 0.45
47 0.45
5 -0.53
7 0.28

> <PUBCHEM_EFFECTIVE_ROTOR_COUNT>
1.8

> <PUBCHEM_PHARMACOPHORE_FEATURES>
6
1 1 acceptor
1 1 donor
1 3 acceptor
1 4 donor
1 5 donor
6 16 17 20 21 22 23 rings

> <PUBCHEM_HEAVY_ATOM_COUNT>
23

> <PUBCHEM_ATOM_DEF_STEREO_COUNT>
2

> <PUBCHEM_ATOM_UDEF_STEREO_COUNT>
0

> <PUBCHEM_BOND_DEF_STEREO_COUNT>
1

> <PUBCHEM_BOND_UDEF_STEREO_COUNT>
0

> <PUBCHEM_ISOTOPIC_ATOM_COUNT>
0

> <PUBCHEM_COMPONENT_COUNT>
1

> <PUBCHEM_CACTVS_TAUTO_COUNT>
12

> <PUBCHEM_CONFORMER_ID>
0050A32500000001

> <PUBCHEM_MMFF94_ENERGY>
56.9454

> <PUBCHEM_FEATURE_SELFOVERLAP>
30.446

> <PUBCHEM_SHAPE_FINGERPRINT>
1100329 8 17836085568009856625
11112241 14 16986289841619931392
11578080 2 16734366241365874279
12166972 35 17967822613537111974
12403259 226 18337670931286267939
12506688 2 18412827975731104564
12596599 1 17914633677902020662
12788726 201 17627507133988941776
13140716 1 18267582403486064363
13402501 40 18336828697047978282
13533116 47 18056766653224983451
14251757 17 18262232209996353437
14787075 74 18336834185758012246
14790565 3 17545883724776523813
14866123 147 17767415573386001256
14931854 50 18336551491284682350
15196674 1 18334859415888043750
15322687 12 17104511174142344237
19591789 44 18337109089556020683
19930381 70 18413393137471364090
20028762 73 17044582808783771111
20691752 17 17022900138402631537
20715895 44 17609482839964013085
20832881 197 18343306989256920753
20905425 154 18409167675446349782
22182313 1 18041826412212926463
23227448 37 18189331260828617463
23352939 185 18342462530415398027
23557571 272 17910374109985112994
23559900 14 18335978778501818797
238 59 18196346307921625956
2748010 2 18117544331403189953
3323516 105 18411138077713944259
350125 39 18336268960321048513
3524813 1 18334011700965522918
3680242 22 18116995477305685354
463206 1 18269557311053435927
5265222 85 17471861776259798556
57527585 103 17390829632986241626
59755656 215 18188762977069237031
6443956 14 18340493347406701473
81228 2 17476913559209296171

> <PUBCHEM_SHAPE_MULTIPOLES>
443.98
8.21
4.09
1.18
1.54
0.84
-0.09
-3.84
1.51
-1.8
-1.33
-0.11
0.8
1.1

> <PUBCHEM_SHAPE_SELFOVERLAP>
916.908

> <PUBCHEM_SHAPE_VOLUME>
252.3

> <PUBCHEM_COORDINATE_TYPE>
2
5
10

> <Energy>
40.5071

> <minimizedAffinity>
-9.61220

> <CNNscore>
0.6515371799

> <CNNaffinity>
6.8202672005

> <CNN_VS>
4.4436578751

> <CNNaffinity_variance>
0.2094711661

$$$$
5284645


 26 27  0  0  0  0  0  0  0  0999 V2000
   -6.4643   -3.5591   19.8088 O   0  0  0  0  0  0  0  0  0  0  0  0
   -1.0625   -4.8102   22.1310 O   0  0  0  0  0  0  0  0  0  0  0  0
    0.2317   -3.4407   20.8059 O   0  0  0  0  0  0  0  0  0  0  0  0
    2.2591   -3.0394   22.7645 O   0  0  0  0  0  0  0  0  0  0  0  0
    0.6205   -0.6965   26.5064 O   0  0  0  0  0  0  0  0  0  0  0  0
   -4.2334   -4.1593   19.1361 C   0  0  0  0  0  0  0  0  0  0  0  0
   -5.0990   -3.5040   20.2260 C   0  0  0  0  0  0  0  0  0  0  0  0
   -2.7866   -4.4263   19.5597 C   0  0  0  0  0  0  0  0  0  0  0  0
   -4.7244   -2.0359   20.4810 C   0  0  0  0  0  0  0  0  0  0  0  0
   -2.6595   -5.6182   20.5142 C   0  0  0  0  0  0  0  0  0  0  0  0
   -5.4417   -1.4197   21.6915 C   0  0  0  0  0  0  0  0  0  0  0  0
   -1.2399   -5.7718   21.0699 C   0  0  0  0  0  0  0  0  0  0  0  0
   -5.0092   -1.9886   23.0481 C   0  0  0  0  0  0  0  0  0  0  0  0
   -1.0504   -7.1478   21.7018 C   0  0  0  0  0  0  0  0  0  0  0  0
   -3.5577   -1.7391   23.3558 C   0  0  0  0  0  0  0  0  0  0  0  0
   -0.1600   -2.9147   23.0853 C   0  0  0  0  0  0  0  0  0  0  0  0
   -1.2436   -2.4506   23.8575 C   0  0  0  0  0  0  0  0  0  0  0  0
   -0.3421   -3.7066   21.8511 C   0  0  0  0  0  0  0  0  0  0  0  0
   -2.6527   -2.7164   23.5259 C   0  0  0  0  0  0  0  0  0  0  0  0
    1.1575   -2.6101   23.4636 C   0  0  0  0  0  0  0  0  0  0  0  0
   -0.9681   -1.7068   25.0218 C   0  0  0  0  0  0  0  0  0  0  0  0
    0.3459   -1.4185   25.3832 C   0  0  0  0  0  0  0  0  0  0  0  0
    1.4119   -1.8619   24.6095 C   0  0  0  0  0  0  0  0  0  0  0  0
   -6.7150   -4.4814   19.6440 H   0  0  0  0  0  0  0  0  0  0  0  0
    2.1503   -3.5473   21.9846 H   0  0  0  0  0  0  0  0  0  0  0  0
   -0.0794   -0.3854   27.0461 H   0  0  0  0  0  0  0  0  0  0  0  0
  1  7  1  0
  1 24  1  0
  2 12  1  0
  2 18  1  0
  3 18  2  0
  4 20  1  0
  4 25  1  0
  5 22  1  0
  5 26  1  0
  6  7  1  0
  6  8  1  0
  7  9  1  0
  8 10  1  0
  9 11  1  0
 10 12  1  0
 11 13  1  0
 12 14  1  0
 13 15  1  0
 15 19  2  0
 16 17  2  0
 16 18  1  0
 16 20  1  0
 17 19  1  0
 17 21  1  0
 20 23  2  0
 21 22  2  0
 22 23  1  0
M  END
> <PUBCHEM_COMPOUND_CID>
5284645

> <PUBCHEM_CONFORMER_RMSD>
0.6

> <PUBCHEM_CONFORMER_DIVERSEORDER>
1

> <PUBCHEM_MMFF94_PARTIAL_CHARGES>
24
1 -0.68
12 0.28
13 0.14
15 -0.29
16 0.09
17 0.03
18 0.63
19 -0.18
2 -0.43
20 0.08
21 -0.15
22 0.08
23 -0.15
3 -0.57
4 -0.53
41 0.4
42 0.15
43 0.15
44 0.15
45 0.15
46 0.45
47 0.45
5 -0.53
7 0.28

> <PUBCHEM_EFFECTIVE_ROTOR_COUNT>
1.8

> <PUBCHEM_PHARMACOPHORE_FEATURES>
6
1 1 acceptor
1 1 donor
1 3 acceptor
1 4 donor
1 5 donor
6 16 17 20 21 22 23 rings

> <PUBCHEM_HEAVY_ATOM_COUNT>
23

> <PUBCHEM_ATOM_DEF_STEREO_COUNT>
2

> <PUBCHEM_ATOM_UDEF_STEREO_COUNT>
0

> <PUBCHEM_BOND_DEF_STEREO_COUNT>
1

> <PUBCHEM_BOND_UDEF_STEREO_COUNT>
0

> <PUBCHEM_ISOTOPIC_ATOM_COUNT>
0

> <PUBCHEM_COMPONENT_COUNT>
1

> <PUBCHEM_CACTVS_TAUTO_COUNT>
12

> <PUBCHEM_CONFORMER_ID>
0050A32500000001

> <PUBCHEM_MMFF94_ENERGY>
56.9454

> <PUBCHEM_FEATURE_SELFOVERLAP>
30.446

> <PUBCHEM_SHAPE_FINGERPRINT>
1100329 8 17836085568009856625
11112241 14 16986289841619931392
11578080 2 16734366241365874279
12166972 35 17967822613537111974
12403259 226 18337670931286267939
12506688 2 18412827975731104564
12596599 1 17914633677902020662
12788726 201 17627507133988941776
13140716 1 18267582403486064363
13402501 40 18336828697047978282
13533116 47 18056766653224983451
14251757 17 18262232209996353437
14787075 74 18336834185758012246
14790565 3 17545883724776523813
14866123 147 17767415573386001256
14931854 50 18336551491284682350
15196674 1 18334859415888043750
15322687 12 17104511174142344237
19591789 44 18337109089556020683
19930381 70 18413393137471364090
20028762 73 17044582808783771111
20691752 17 17022900138402631537
20715895 44 17609482839964013085
20832881 197 18343306989256920753
20905425 154 18409167675446349782
22182313 1 18041826412212926463
23227448 37 18189331260828617463
23352939 185 18342462530415398027
23557571 272 17910374109985112994
23559900 14 18335978778501818797
238 59 18196346307921625956
2748010 2 18117544331403189953
3323516 105 18411138077713944259
350125 39 18336268960321048513
3524813 1 18334011700965522918
3680242 22 18116995477305685354
463206 1 18269557311053435927
5265222 85 17471861776259798556
57527585 103 17390829632986241626
59755656 215 18188762977069237031
6443956 14 18340493347406701473
81228 2 17476913559209296171

> <PUBCHEM_SHAPE_MULTIPOLES>
443.98
8.21
4.09
1.18
1.54
0.84
-0.09
-3.84
1.51
-1.8
-1.33
-0.11
0.8
1.1

> <PUBCHEM_SHAPE_SELFOVERLAP>
916.908

> <PUBCHEM_SHAPE_VOLUME>
252.3

> <PUBCHEM_COORDINATE_TYPE>
2
5
10

> <Energy>
40.5071

> <minimizedAffinity>
-5.89914

> <CNNscore>
0.5318775177

> <CNNaffinity>
6.5840897560

> <CNN_VS>
3.5019292831

> <CNNaffinity_variance>
0.2472662926

$$$$
5284645


 26 27  0  0  0  0  0  0  0  0999 V2000
   -4.0503   -4.3325   17.0908 O   0  0  0  0  0  0  0  0  0  0  0  0
   -3.9340   -2.0692   22.6587 O   0  0  0  0  0  0  0  0  0  0  0  0
   -3.9886   -4.0370   23.8549 O   0  0  0  0  0  0  0  0  0  0  0  0
   -2.5727   -3.0054   26.0996 O   0  0  0  0  0  0  0  0  0  0  0  0
    1.8508   -1.8425   24.9789 O   0  0  0  0  0  0  0  0  0  0  0  0
   -5.1789   -4.5167   19.2079 C   0  0  0  0  0  0  0  0  0  0  0  0
   -3.8691   -4.1394   18.4947 C   0  0  0  0  0  0  0  0  0  0  0  0
   -5.2343   -4.1006   20.6803 C   0  0  0  0  0  0  0  0  0  0  0  0
   -2.6746   -4.9890   18.9550 C   0  0  0  0  0  0  0  0  0  0  0  0
   -5.4549   -2.5952   20.8621 C   0  0  0  0  0  0  0  0  0  0  0  0
   -1.3261   -4.5053   18.4007 C   0  0  0  0  0  0  0  0  0  0  0  0
   -5.3352   -2.1608   22.3266 C   0  0  0  0  0  0  0  0  0  0  0  0
   -0.8542   -3.1561   18.9556 C   0  0  0  0  0  0  0  0  0  0  0  0
   -5.9160   -0.7641   22.5275 C   0  0  0  0  0  0  0  0  0  0  0  0
   -0.6166   -3.1806   20.4412 C   0  0  0  0  0  0  0  0  0  0  0  0
   -2.0083   -2.7368   23.7375 C   0  0  0  0  0  0  0  0  0  0  0  0
   -1.0308   -2.4454   22.7651 C   0  0  0  0  0  0  0  0  0  0  0  0
   -3.4050   -3.0703   23.3888 C   0  0  0  0  0  0  0  0  0  0  0  0
   -1.3010   -2.4289   21.3184 C   0  0  0  0  0  0  0  0  0  0  0  0
   -1.6685   -2.7417   25.1000 C   0  0  0  0  0  0  0  0  0  0  0  0
    0.2734   -2.1338   23.1969 C   0  0  0  0  0  0  0  0  0  0  0  0
    0.5903   -2.1395   24.5534 C   0  0  0  0  0  0  0  0  0  0  0  0
   -0.3714   -2.4454   25.5090 C   0  0  0  0  0  0  0  0  0  0  0  0
   -4.8023   -3.8013   16.7858 H   0  0  0  0  0  0  0  0  0  0  0  0
   -3.4613   -3.2113   25.8852 H   0  0  0  0  0  0  0  0  0  0  0  0
    2.5183   -1.6325   24.3558 H   0  0  0  0  0  0  0  0  0  0  0  0
  1  7  1  0
  1 24  1  0
  2 12  1  0
  2 18  1  0
  3 18  2  0
  4 20  1  0
  4 25  1  0
  5 22  1  0
  5 26  1  0
  6  7  1  0
  6  8  1  0
  7  9  1  0
  8 10  1  0
  9 11  1  0
 10 12  1  0
 11 13  1  0
 12 14  1  0
 13 15  1  0
 15 19  2  0
 16 17  2  0
 16 18  1  0
 16 20  1  0
 17 19  1  0
 17 21  1  0
 20 23  2  0
 21 22  2  0
 22 23  1  0
M  END
> <PUBCHEM_COMPOUND_CID>
5284645

> <PUBCHEM_CONFORMER_RMSD>
0.6

> <PUBCHEM_CONFORMER_DIVERSEORDER>
1

> <PUBCHEM_MMFF94_PARTIAL_CHARGES>
24
1 -0.68
12 0.28
13 0.14
15 -0.29
16 0.09
17 0.03
18 0.63
19 -0.18
2 -0.43
20 0.08
21 -0.15
22 0.08
23 -0.15
3 -0.57
4 -0.53
41 0.4
42 0.15
43 0.15
44 0.15
45 0.15
46 0.45
47 0.45
5 -0.53
7 0.28

> <PUBCHEM_EFFECTIVE_ROTOR_COUNT>
1.8

> <PUBCHEM_PHARMACOPHORE_FEATURES>
6
1 1 acceptor
1 1 donor
1 3 acceptor
1 4 donor
1 5 donor
6 16 17 20 21 22 23 rings

> <PUBCHEM_HEAVY_ATOM_COUNT>
23

> <PUBCHEM_ATOM_DEF_STEREO_COUNT>
2

> <PUBCHEM_ATOM_UDEF_STEREO_COUNT>
0

> <PUBCHEM_BOND_DEF_STEREO_COUNT>
1

> <PUBCHEM_BOND_UDEF_STEREO_COUNT>
0

> <PUBCHEM_ISOTOPIC_ATOM_COUNT>
0

> <PUBCHEM_COMPONENT_COUNT>
1

> <PUBCHEM_CACTVS_TAUTO_COUNT>
12

> <PUBCHEM_CONFORMER_ID>
0050A32500000001

> <PUBCHEM_MMFF94_ENERGY>
56.9454

> <PUBCHEM_FEATURE_SELFOVERLAP>
30.446

> <PUBCHEM_SHAPE_FINGERPRINT>
1100329 8 17836085568009856625
11112241 14 16986289841619931392
11578080 2 16734366241365874279
12166972 35 17967822613537111974
12403259 226 18337670931286267939
12506688 2 18412827975731104564
12596599 1 17914633677902020662
12788726 201 17627507133988941776
13140716 1 18267582403486064363
13402501 40 18336828697047978282
13533116 47 18056766653224983451
14251757 17 18262232209996353437
14787075 74 18336834185758012246
14790565 3 17545883724776523813
14866123 147 17767415573386001256
14931854 50 18336551491284682350
15196674 1 18334859415888043750
15322687 12 17104511174142344237
19591789 44 18337109089556020683
19930381 70 18413393137471364090
20028762 73 17044582808783771111
20691752 17 17022900138402631537
20715895 44 17609482839964013085
20832881 197 18343306989256920753
20905425 154 18409167675446349782
22182313 1 18041826412212926463
23227448 37 18189331260828617463
23352939 185 18342462530415398027
23557571 272 17910374109985112994
23559900 14 18335978778501818797
238 59 18196346307921625956
2748010 2 18117544331403189953
3323516 105 18411138077713944259
350125 39 18336268960321048513
3524813 1 18334011700965522918
3680242 22 18116995477305685354
463206 1 18269557311053435927
5265222 85 17471861776259798556
57527585 103 17390829632986241626
59755656 215 18188762977069237031
6443956 14 18340493347406701473
81228 2 17476913559209296171

> <PUBCHEM_SHAPE_MULTIPOLES>
443.98
8.21
4.09
1.18
1.54
0.84
-0.09
-3.84
1.51
-1.8
-1.33
-0.11
0.8
1.1

> <PUBCHEM_SHAPE_SELFOVERLAP>
916.908

> <PUBCHEM_SHAPE_VOLUME>
252.3

> <PUBCHEM_COORDINATE_TYPE>
2
5
10

> <Energy>
40.5071

> <minimizedAffinity>
-8.39906

> <CNNscore>
0.4566808641

> <CNNaffinity>
6.4080257416

> <CNN_VS>
2.9264228344

> <CNNaffinity_variance>
0.3436759710

$$$$
5284645


 26 27  0  0  0  0  0  0  0  0999 V2000
    1.2094   -4.5126   17.6187 O   0  0  0  0  0  0  0  0  0  0  0  0
   -2.8164   -1.9793   21.2946 O   0  0  0  0  0  0  0  0  0  0  0  0
   -4.0461   -3.8504   21.8360 O   0  0  0  0  0  0  0  0  0  0  0  0
   -4.8298   -2.9012   24.4035 O   0  0  0  0  0  0  0  0  0  0  0  0
   -1.1342   -2.4282   27.2835 O   0  0  0  0  0  0  0  0  0  0  0  0
   -1.1621   -4.4195   18.0149 C   0  0  0  0  0  0  0  0  0  0  0  0
    0.2370   -4.2682   18.6364 C   0  0  0  0  0  0  0  0  0  0  0  0
   -2.3021   -3.9180   18.9054 C   0  0  0  0  0  0  0  0  0  0  0  0
    0.4834   -5.2484   19.7937 C   0  0  0  0  0  0  0  0  0  0  0  0
   -2.3838   -2.3889   18.9573 C   0  0  0  0  0  0  0  0  0  0  0  0
    1.7943   -4.9883   20.5511 C   0  0  0  0  0  0  0  0  0  0  0  0
   -3.4099   -1.8939   19.9820 C   0  0  0  0  0  0  0  0  0  0  0  0
    1.8152   -3.6888   21.3645 C   0  0  0  0  0  0  0  0  0  0  0  0
   -3.7374   -0.4211   19.7542 C   0  0  0  0  0  0  0  0  0  0  0  0
    0.7843   -3.6628   22.4600 C   0  0  0  0  0  0  0  0  0  0  0  0
   -2.5938   -2.8463   23.4198 C   0  0  0  0  0  0  0  0  0  0  0  0
   -1.2016   -2.7483   23.6145 C   0  0  0  0  0  0  0  0  0  0  0  0
   -3.2027   -3.0017   22.0824 C   0  0  0  0  0  0  0  0  0  0  0  0
   -0.2219   -2.7755   22.5165 C   0  0  0  0  0  0  0  0  0  0  0  0
   -3.4638   -2.8220   24.5218 C   0  0  0  0  0  0  0  0  0  0  0  0
   -0.7167   -2.5970   24.9286 C   0  0  0  0  0  0  0  0  0  0  0  0
   -1.5958   -2.5707   26.0088 C   0  0  0  0  0  0  0  0  0  0  0  0
   -2.9672   -2.6862   25.8151 C   0  0  0  0  0  0  0  0  0  0  0  0
    1.0658   -3.9001   16.8806 H   0  0  0  0  0  0  0  0  0  0  0  0
   -5.2222   -2.9935   23.5577 H   0  0  0  0  0  0  0  0  0  0  0  0
   -0.2142   -2.3482   27.4424 H   0  0  0  0  0  0  0  0  0  0  0  0
  1  7  1  0
  1 24  1  0
  2 12  1  0
  2 18  1  0
  3 18  2  0
  4 20  1  0
  4 25  1  0
  5 22  1  0
  5 26  1  0
  6  7  1  0
  6  8  1  0
  7  9  1  0
  8 10  1  0
  9 11  1  0
 10 12  1  0
 11 13  1  0
 12 14  1  0
 13 15  1  0
 15 19  2  0
 16 17  2  0
 16 18  1  0
 16 20  1  0
 17 19  1  0
 17 21  1  0
 20 23  2  0
 21 22  2  0
 22 23  1  0
M  END
> <PUBCHEM_COMPOUND_CID>
5284645

> <PUBCHEM_CONFORMER_RMSD>
0.6

> <PUBCHEM_CONFORMER_DIVERSEORDER>
1

> <PUBCHEM_MMFF94_PARTIAL_CHARGES>
24
1 -0.68
12 0.28
13 0.14
15 -0.29
16 0.09
17 0.03
18 0.63
19 -0.18
2 -0.43
20 0.08
21 -0.15
22 0.08
23 -0.15
3 -0.57
4 -0.53
41 0.4
42 0.15
43 0.15
44 0.15
45 0.15
46 0.45
47 0.45
5 -0.53
7 0.28

> <PUBCHEM_EFFECTIVE_ROTOR_COUNT>
1.8

> <PUBCHEM_PHARMACOPHORE_FEATURES>
6
1 1 acceptor
1 1 donor
1 3 acceptor
1 4 donor
1 5 donor
6 16 17 20 21 22 23 rings

> <PUBCHEM_HEAVY_ATOM_COUNT>
23

> <PUBCHEM_ATOM_DEF_STEREO_COUNT>
2

> <PUBCHEM_ATOM_UDEF_STEREO_COUNT>
0

> <PUBCHEM_BOND_DEF_STEREO_COUNT>
1

> <PUBCHEM_BOND_UDEF_STEREO_COUNT>
0

> <PUBCHEM_ISOTOPIC_ATOM_COUNT>
0

> <PUBCHEM_COMPONENT_COUNT>
1

> <PUBCHEM_CACTVS_TAUTO_COUNT>
12

> <PUBCHEM_CONFORMER_ID>
0050A32500000001

> <PUBCHEM_MMFF94_ENERGY>
56.9454

> <PUBCHEM_FEATURE_SELFOVERLAP>
30.446

> <PUBCHEM_SHAPE_FINGERPRINT>
1100329 8 17836085568009856625
11112241 14 16986289841619931392
11578080 2 16734366241365874279
12166972 35 17967822613537111974
12403259 226 18337670931286267939
12506688 2 18412827975731104564
12596599 1 17914633677902020662
12788726 201 17627507133988941776
13140716 1 18267582403486064363
13402501 40 18336828697047978282
13533116 47 18056766653224983451
14251757 17 18262232209996353437
14787075 74 18336834185758012246
14790565 3 17545883724776523813
14866123 147 17767415573386001256
14931854 50 18336551491284682350
15196674 1 18334859415888043750
15322687 12 17104511174142344237
19591789 44 18337109089556020683
19930381 70 18413393137471364090
20028762 73 17044582808783771111
20691752 17 17022900138402631537
20715895 44 17609482839964013085
20832881 197 18343306989256920753
20905425 154 18409167675446349782
22182313 1 18041826412212926463
23227448 37 18189331260828617463
23352939 185 18342462530415398027
23557571 272 17910374109985112994
23559900 14 18335978778501818797
238 59 18196346307921625956
2748010 2 18117544331403189953
3323516 105 18411138077713944259
350125 39 18336268960321048513
3524813 1 18334011700965522918
3680242 22 18116995477305685354
463206 1 18269557311053435927
5265222 85 17471861776259798556
57527585 103 17390829632986241626
59755656 215 18188762977069237031
6443956 14 18340493347406701473
81228 2 17476913559209296171

> <PUBCHEM_SHAPE_MULTIPOLES>
443.98
8.21
4.09
1.18
1.54
0.84
-0.09
-3.84
1.51
-1.8
-1.33
-0.11
0.8
1.1

> <PUBCHEM_SHAPE_SELFOVERLAP>
916.908

> <PUBCHEM_SHAPE_VOLUME>
252.3

> <PUBCHEM_COORDINATE_TYPE>
2
5
10

> <Energy>
40.5071

> <minimizedAffinity>
6.77090

> <CNNscore>
0.3611699939

> <CNNaffinity>
6.4915461540

> <CNN_VS>
2.3445518017

> <CNNaffinity_variance>
0.2453347594

$$$$
5284645


 26 27  0  0  0  0  0  0  0  0999 V2000
   -0.4599   -1.2999   18.3668 O   0  0  0  0  0  0  0  0  0  0  0  0
   -4.9337   -3.4601   21.7514 O   0  0  0  0  0  0  0  0  0  0  0  0
   -6.4167   -4.0241   20.0814 O   0  0  0  0  0  0  0  0  0  0  0  0
   -7.6444   -6.1391   21.5398 O   0  0  0  0  0  0  0  0  0  0  0  0
   -4.6275   -9.6590   22.3670 O   0  0  0  0  0  0  0  0  0  0  0  0
   -2.8424   -1.1217   18.6520 C   0  0  0  0  0  0  0  0  0  0  0  0
   -1.6020   -2.0101   18.8487 C   0  0  0  0  0  0  0  0  0  0  0  0
   -4.0966   -1.6270   19.3701 C   0  0  0  0  0  0  0  0  0  0  0  0
   -1.7008   -3.3457   18.0957 C   0  0  0  0  0  0  0  0  0  0  0  0
   -4.0476   -1.3916   20.8834 C   0  0  0  0  0  0  0  0  0  0  0  0
   -0.5655   -4.3252   18.4293 C   0  0  0  0  0  0  0  0  0  0  0  0
   -5.2205   -2.0525   21.6150 C   0  0  0  0  0  0  0  0  0  0  0  0
   -0.6015   -4.8825   19.8572 C   0  0  0  0  0  0  0  0  0  0  0  0
   -5.3555   -1.5028   23.0320 C   0  0  0  0  0  0  0  0  0  0  0  0
   -1.8373   -5.6920   20.1427 C   0  0  0  0  0  0  0  0  0  0  0  0
   -5.2537   -5.6977   21.2947 C   0  0  0  0  0  0  0  0  0  0  0  0
   -3.9329   -6.1850   21.3583 C   0  0  0  0  0  0  0  0  0  0  0  0
   -5.5721   -4.3048   20.9182 C   0  0  0  0  0  0  0  0  0  0  0  0
   -2.7467   -5.3617   21.0737 C   0  0  0  0  0  0  0  0  0  0  0  0
   -6.3344   -6.5504   21.5717 C   0  0  0  0  0  0  0  0  0  0  0  0
   -3.7304   -7.5280   21.7324 C   0  0  0  0  0  0  0  0  0  0  0  0
   -4.8151   -8.3575   22.0078 C   0  0  0  0  0  0  0  0  0  0  0  0
   -6.1175   -7.8790   21.9262 C   0  0  0  0  0  0  0  0  0  0  0  0
   -0.3848   -0.4533   18.8341 H   0  0  0  0  0  0  0  0  0  0  0  0
   -7.8524   -5.2553   21.3079 H   0  0  0  0  0  0  0  0  0  0  0  0
   -3.7600  -10.0073   22.4297 H   0  0  0  0  0  0  0  0  0  0  0  0
  1  7  1  0
  1 24  1  0
  2 12  1  0
  2 18  1  0
  3 18  2  0
  4 20  1  0
  4 25  1  0
  5 22  1  0
  5 26  1  0
  6  7  1  0
  6  8  1  0
  7  9  1  0
  8 10  1  0
  9 11  1  0
 10 12  1  0
 11 13  1  0
 12 14  1  0
 13 15  1  0
 15 19  2  0
 16 17  2  0
 16 18  1  0
 16 20  1  0
 17 19  1  0
 17 21  1  0
 20 23  2  0
 21 22  2  0
 22 23  1  0
M  END
> <PUBCHEM_COMPOUND_CID>
5284645

> <PUBCHEM_CONFORMER_RMSD>
0.6

> <PUBCHEM_CONFORMER_DIVERSEORDER>
1

> <PUBCHEM_MMFF94_PARTIAL_CHARGES>
24
1 -0.68
12 0.28
13 0.14
15 -0.29
16 0.09
17 0.03
18 0.63
19 -0.18
2 -0.43
20 0.08
21 -0.15
22 0.08
23 -0.15
3 -0.57
4 -0.53
41 0.4
42 0.15
43 0.15
44 0.15
45 0.15
46 0.45
47 0.45
5 -0.53
7 0.28

> <PUBCHEM_EFFECTIVE_ROTOR_COUNT>
1.8

> <PUBCHEM_PHARMACOPHORE_FEATURES>
6
1 1 acceptor
1 1 donor
1 3 acceptor
1 4 donor
1 5 donor
6 16 17 20 21 22 23 rings

> <PUBCHEM_HEAVY_ATOM_COUNT>
23

> <PUBCHEM_ATOM_DEF_STEREO_COUNT>
2

> <PUBCHEM_ATOM_UDEF_STEREO_COUNT>
0

> <PUBCHEM_BOND_DEF_STEREO_COUNT>
1

> <PUBCHEM_BOND_UDEF_STEREO_COUNT>
0

> <PUBCHEM_ISOTOPIC_ATOM_COUNT>
0

> <PUBCHEM_COMPONENT_COUNT>
1

> <PUBCHEM_CACTVS_TAUTO_COUNT>
12

> <PUBCHEM_CONFORMER_ID>
0050A32500000001

> <PUBCHEM_MMFF94_ENERGY>
56.9454

> <PUBCHEM_FEATURE_SELFOVERLAP>
30.446

> <PUBCHEM_SHAPE_FINGERPRINT>
1100329 8 17836085568009856625
11112241 14 16986289841619931392
11578080 2 16734366241365874279
12166972 35 17967822613537111974
12403259 226 18337670931286267939
12506688 2 18412827975731104564
12596599 1 17914633677902020662
12788726 201 17627507133988941776
13140716 1 18267582403486064363
13402501 40 18336828697047978282
13533116 47 18056766653224983451
14251757 17 18262232209996353437
14787075 74 18336834185758012246
14790565 3 17545883724776523813
14866123 147 17767415573386001256
14931854 50 18336551491284682350
15196674 1 18334859415888043750
15322687 12 17104511174142344237
19591789 44 18337109089556020683
19930381 70 18413393137471364090
20028762 73 17044582808783771111
20691752 17 17022900138402631537
20715895 44 17609482839964013085
20832881 197 18343306989256920753
20905425 154 18409167675446349782
22182313 1 18041826412212926463
23227448 37 18189331260828617463
23352939 185 18342462530415398027
23557571 272 17910374109985112994
23559900 14 18335978778501818797
238 59 18196346307921625956
2748010 2 18117544331403189953
3323516 105 18411138077713944259
350125 39 18336268960321048513
3524813 1 18334011700965522918
3680242 22 18116995477305685354
463206 1 18269557311053435927
5265222 85 17471861776259798556
57527585 103 17390829632986241626
59755656 215 18188762977069237031
6443956 14 18340493347406701473
81228 2 17476913559209296171

> <PUBCHEM_SHAPE_MULTIPOLES>
443.98
8.21
4.09
1.18
1.54
0.84
-0.09
-3.84
1.51
-1.8
-1.33
-0.11
0.8
1.1

> <PUBCHEM_SHAPE_SELFOVERLAP>
916.908

> <PUBCHEM_SHAPE_VOLUME>
252.3

> <PUBCHEM_COORDINATE_TYPE>
2
5
10

> <Energy>
40.5071

> <minimizedAffinity>
20.81850

> <CNNscore>
0.2007958144

> <CNNaffinity>
4.6033644676

> <CNN_VS>
0.9243363142

> <CNNaffinity_variance>
1.8255001307

$$$$
5284645


 26 27  0  0  0  0  0  0  0  0999 V2000
   -4.4372   -8.3324   21.5009 O   0  0  0  0  0  0  0  0  0  0  0  0
   -2.9704   -2.9155   23.6556 O   0  0  0  0  0  0  0  0  0  0  0  0
   -1.3598   -2.3327   22.1152 O   0  0  0  0  0  0  0  0  0  0  0  0
   -1.8076    0.4708   22.3325 O   0  0  0  0  0  0  0  0  0  0  0  0
   -6.1001    1.6678   20.8099 O   0  0  0  0  0  0  0  0  0  0  0  0
   -2.5134   -7.0136   22.0920 C   0  0  0  0  0  0  0  0  0  0  0  0
   -3.9855   -6.9849   21.6460 C   0  0  0  0  0  0  0  0  0  0  0  0
   -1.9718   -5.6591   22.5569 C   0  0  0  0  0  0  0  0  0  0  0  0
   -4.1884   -6.2545   20.3095 C   0  0  0  0  0  0  0  0  0  0  0  0
   -2.4859   -5.2606   23.9442 C   0  0  0  0  0  0  0  0  0  0  0  0
   -5.6649   -6.0466   19.9405 C   0  0  0  0  0  0  0  0  0  0  0  0
   -2.0826   -3.8330   24.3280 C   0  0  0  0  0  0  0  0  0  0  0  0
   -6.4150   -5.0570   20.8400 C   0  0  0  0  0  0  0  0  0  0  0  0
   -2.2749   -3.5981   25.8233 C   0  0  0  0  0  0  0  0  0  0  0  0
   -5.8542   -3.6622   20.7775 C   0  0  0  0  0  0  0  0  0  0  0  0
   -3.4890   -1.2877   22.1067 C   0  0  0  0  0  0  0  0  0  0  0  0
   -4.8054   -1.6485   21.7559 C   0  0  0  0  0  0  0  0  0  0  0  0
   -2.4904   -2.2716   22.5738 C   0  0  0  0  0  0  0  0  0  0  0  0
   -5.3200   -3.0252   21.8319 C   0  0  0  0  0  0  0  0  0  0  0  0
   -3.0707    0.0483   21.9972 C   0  0  0  0  0  0  0  0  0  0  0  0
   -5.6866   -0.6368   21.3262 C   0  0  0  0  0  0  0  0  0  0  0  0
   -5.2544    0.6838   21.2282 C   0  0  0  0  0  0  0  0  0  0  0  0
   -3.9501    1.0336   21.5572 C   0  0  0  0  0  0  0  0  0  0  0  0
   -4.3150   -8.8062   22.3383 H   0  0  0  0  0  0  0  0  0  0  0  0
   -1.1718   -0.1473   22.6353 H   0  0  0  0  0  0  0  0  0  0  0  0
   -6.9847    1.4596   20.5819 H   0  0  0  0  0  0  0  0  0  0  0  0
  1  7  1  0
  1 24  1  0
  2 12  1  0
  2 18  1  0
  3 18  2  0
  4 20  1  0
  4 25  1  0
  5 22  1  0
  5 26  1  0
  6  7  1  0
  6  8  1  0
  7  9  1  0
  8 10  1  0
  9 11  1  0
 10 12  1  0
 11 13  1  0
 12 14  1  0
 13 15  1  0
 15 19  2  0
 16 17  2  0
 16 18  1  0
 16 20  1  0
 17 19  1  0
 17 21  1  0
 20 23  2  0
 21 22  2  0
 22 23  1  0
M  END
> <PUBCHEM_COMPOUND_CID>
5284645

> <PUBCHEM_CONFORMER_RMSD>
0.6

> <PUBCHEM_CONFORMER_DIVERSEORDER>
1

> <PUBCHEM_MMFF94_PARTIAL_CHARGES>
24
1 -0.68
12 0.28
13 0.14
15 -0.29
16 0.09
17 0.03
18 0.63
19 -0.18
2 -0.43
20 0.08
21 -0.15
22 0.08
23 -0.15
3 -0.57
4 -0.53
41 0.4
42 0.15
43 0.15
44 0.15
45 0.15
46 0.45
47 0.45
5 -0.53
7 0.28

> <PUBCHEM_EFFECTIVE_ROTOR_COUNT>
1.8

> <PUBCHEM_PHARMACOPHORE_FEATURES>
6
1 1 acceptor
1 1 donor
1 3 acceptor
1 4 donor
1 5 donor
6 16 17 20 21 22 23 rings

> <PUBCHEM_HEAVY_ATOM_COUNT>
23

> <PUBCHEM_ATOM_DEF_STEREO_COUNT>
2

> <PUBCHEM_ATOM_UDEF_STEREO_COUNT>
0

> <PUBCHEM_BOND_DEF_STEREO_COUNT>
1

> <PUBCHEM_BOND_UDEF_STEREO_COUNT>
0

> <PUBCHEM_ISOTOPIC_ATOM_COUNT>
0

> <PUBCHEM_COMPONENT_COUNT>
1

> <PUBCHEM_CACTVS_TAUTO_COUNT>
12

> <PUBCHEM_CONFORMER_ID>
0050A32500000001

> <PUBCHEM_MMFF94_ENERGY>
56.9454

> <PUBCHEM_FEATURE_SELFOVERLAP>
30.446

> <PUBCHEM_SHAPE_FINGERPRINT>
1100329 8 17836085568009856625
11112241 14 16986289841619931392
11578080 2 16734366241365874279
12166972 35 17967822613537111974
12403259 226 18337670931286267939
12506688 2 18412827975731104564
12596599 1 17914633677902020662
12788726 201 17627507133988941776
13140716 1 18267582403486064363
13402501 40 18336828697047978282
13533116 47 18056766653224983451
14251757 17 18262232209996353437
14787075 74 18336834185758012246
14790565 3 17545883724776523813
14866123 147 17767415573386001256
14931854 50 18336551491284682350
15196674 1 18334859415888043750
15322687 12 17104511174142344237
19591789 44 18337109089556020683
19930381 70 18413393137471364090
20028762 73 17044582808783771111
20691752 17 17022900138402631537
20715895 44 17609482839964013085
20832881 197 18343306989256920753
20905425 154 18409167675446349782
22182313 1 18041826412212926463
23227448 37 18189331260828617463
23352939 185 18342462530415398027
23557571 272 17910374109985112994
23559900 14 18335978778501818797
238 59 18196346307921625956
2748010 2 18117544331403189953
3323516 105 18411138077713944259
350125 39 18336268960321048513
3524813 1 18334011700965522918
3680242 22 18116995477305685354
463206 1 18269557311053435927
5265222 85 17471861776259798556
57527585 103 17390829632986241626
59755656 215 18188762977069237031
6443956 14 18340493347406701473
81228 2 17476913559209296171

> <PUBCHEM_SHAPE_MULTIPOLES>
443.98
8.21
4.09
1.18
1.54
0.84
-0.09
-3.84
1.51
-1.8
-1.33
-0.11
0.8
1.1

> <PUBCHEM_SHAPE_SELFOVERLAP>
916.908

> <PUBCHEM_SHAPE_VOLUME>
252.3

> <PUBCHEM_COORDINATE_TYPE>
2
5
10

> <Energy>
40.5071

> <minimizedAffinity>
21.66887

> <CNNscore>
0.1714880466

> <CNNaffinity>
4.2226767540

> <CNN_VS>
0.7241386175

> <CNNaffinity_variance>
1.4629026651

$$$$
5284645


 26 27  0  0  0  0  0  0  0  0999 V2000
   -1.1438   -2.8016   26.5821 O   0  0  0  0  0  0  0  0  0  0  0  0
   -1.8709   -4.6814   20.9187 O   0  0  0  0  0  0  0  0  0  0  0  0
   -4.1336   -5.1111   20.9633 O   0  0  0  0  0  0  0  0  0  0  0  0
   -4.5427   -4.5888   18.1943 O   0  0  0  0  0  0  0  0  0  0  0  0
   -3.7098   -0.0764   17.1358 O   0  0  0  0  0  0  0  0  0  0  0  0
   -2.1349   -4.5944   25.3199 C   0  0  0  0  0  0  0  0  0  0  0  0
   -1.6774   -3.1258   25.2972 C   0  0  0  0  0  0  0  0  0  0  0  0
   -2.4709   -5.1686   23.9410 C   0  0  0  0  0  0  0  0  0  0  0  0
   -2.8223   -2.1505   24.9829 C   0  0  0  0  0  0  0  0  0  0  0  0
   -1.2227   -5.4687   23.1045 C   0  0  0  0  0  0  0  0  0  0  0  0
   -2.3551   -0.7032   24.7665 C   0  0  0  0  0  0  0  0  0  0  0  0
   -1.5671   -5.8765   21.6682 C   0  0  0  0  0  0  0  0  0  0  0  0
   -1.5309   -0.4817   23.4927 C   0  0  0  0  0  0  0  0  0  0  0  0
   -0.3643   -6.5185   20.9831 C   0  0  0  0  0  0  0  0  0  0  0  0
   -2.3005   -0.7773   22.2341 C   0  0  0  0  0  0  0  0  0  0  0  0
   -3.2713   -3.2407   19.7869 C   0  0  0  0  0  0  0  0  0  0  0  0
   -2.7108   -1.9912   20.1197 C   0  0  0  0  0  0  0  0  0  0  0  0
   -3.1692   -4.4208   20.6703 C   0  0  0  0  0  0  0  0  0  0  0  0
   -1.9616   -1.7396   21.3612 C   0  0  0  0  0  0  0  0  0  0  0  0
   -3.9815   -3.3979   18.5858 C   0  0  0  0  0  0  0  0  0  0  0  0
   -2.8569   -0.9263   19.2091 C   0  0  0  0  0  0  0  0  0  0  0  0
   -3.5612   -1.1028   18.0203 C   0  0  0  0  0  0  0  0  0  0  0  0
   -4.1287   -2.3314   17.7035 C   0  0  0  0  0  0  0  0  0  0  0  0
   -0.4189   -3.4102   26.7941 H   0  0  0  0  0  0  0  0  0  0  0  0
   -4.4759   -5.3423   18.7472 H   0  0  0  0  0  0  0  0  0  0  0  0
   -3.3372    0.7623   17.3245 H   0  0  0  0  0  0  0  0  0  0  0  0
  1  7  1  0
  1 24  1  0
  2 12  1  0
  2 18  1  0
  3 18  2  0
  4 20  1  0
  4 25  1  0
  5 22  1  0
  5 26  1  0
  6  7  1  0
  6  8  1  0
  7  9  1  0
  8 10  1  0
  9 11  1  0
 10 12  1  0
 11 13  1  0
 12 14  1  0
 13 15  1  0
 15 19  2  0
 16 17  2  0
 16 18  1  0
 16 20  1  0
 17 19  1  0
 17 21  1  0
 20 23  2  0
 21 22  2  0
 22 23  1  0
M  END
> <PUBCHEM_COMPOUND_CID>
5284645

> <PUBCHEM_CONFORMER_RMSD>
0.6

> <PUBCHEM_CONFORMER_DIVERSEORDER>
1

> <PUBCHEM_MMFF94_PARTIAL_CHARGES>
24
1 -0.68
12 0.28
13 0.14
15 -0.29
16 0.09
17 0.03
18 0.63
19 -0.18
2 -0.43
20 0.08
21 -0.15
22 0.08
23 -0.15
3 -0.57
4 -0.53
41 0.4
42 0.15
43 0.15
44 0.15
45 0.15
46 0.45
47 0.45
5 -0.53
7 0.28

> <PUBCHEM_EFFECTIVE_ROTOR_COUNT>
1.8

> <PUBCHEM_PHARMACOPHORE_FEATURES>
6
1 1 acceptor
1 1 donor
1 3 acceptor
1 4 donor
1 5 donor
6 16 17 20 21 22 23 rings

> <PUBCHEM_HEAVY_ATOM_COUNT>
23

> <PUBCHEM_ATOM_DEF_STEREO_COUNT>
2

> <PUBCHEM_ATOM_UDEF_STEREO_COUNT>
0

> <PUBCHEM_BOND_DEF_STEREO_COUNT>
1

> <PUBCHEM_BOND_UDEF_STEREO_COUNT>
0

> <PUBCHEM_ISOTOPIC_ATOM_COUNT>
0

> <PUBCHEM_COMPONENT_COUNT>
1

> <PUBCHEM_CACTVS_TAUTO_COUNT>
12

> <PUBCHEM_CONFORMER_ID>
0050A32500000001

> <PUBCHEM_MMFF94_ENERGY>
56.9454

> <PUBCHEM_FEATURE_SELFOVERLAP>
30.446

> <PUBCHEM_SHAPE_FINGERPRINT>
1100329 8 17836085568009856625
11112241 14 16986289841619931392
11578080 2 16734366241365874279
12166972 35 17967822613537111974
12403259 226 18337670931286267939
12506688 2 18412827975731104564
12596599 1 17914633677902020662
12788726 201 17627507133988941776
13140716 1 18267582403486064363
13402501 40 18336828697047978282
13533116 47 18056766653224983451
14251757 17 18262232209996353437
14787075 74 18336834185758012246
14790565 3 17545883724776523813
14866123 147 17767415573386001256
14931854 50 18336551491284682350
15196674 1 18334859415888043750
15322687 12 17104511174142344237
19591789 44 18337109089556020683
19930381 70 18413393137471364090
20028762 73 17044582808783771111
20691752 17 17022900138402631537
20715895 44 17609482839964013085
20832881 197 18343306989256920753
20905425 154 18409167675446349782
22182313 1 18041826412212926463
23227448 37 18189331260828617463
23352939 185 18342462530415398027
23557571 272 17910374109985112994
23559900 14 18335978778501818797
238 59 18196346307921625956
2748010 2 18117544331403189953
3323516 105 18411138077713944259
350125 39 18336268960321048513
3524813 1 18334011700965522918
3680242 22 18116995477305685354
463206 1 18269557311053435927
5265222 85 17471861776259798556
57527585 103 17390829632986241626
59755656 215 18188762977069237031
6443956 14 18340493347406701473
81228 2 17476913559209296171

> <PUBCHEM_SHAPE_MULTIPOLES>
443.98
8.21
4.09
1.18
1.54
0.84
-0.09
-3.84
1.51
-1.8
-1.33
-0.11
0.8
1.1

> <PUBCHEM_SHAPE_SELFOVERLAP>
916.908

> <PUBCHEM_SHAPE_VOLUME>
252.3

> <PUBCHEM_COORDINATE_TYPE>
2
5
10

> <Energy>
40.5071

> <minimizedAffinity>
8.42887

> <CNNscore>
0.1469497234

> <CNNaffinity>
5.3268122673

> <CNN_VS>
0.7827736139

> <CNNaffinity_variance>
0.0191910304

$$$$
5284645


 26 27  0  0  0  0  0  0  0  0999 V2000
    1.5966   -3.1910   24.3470 O   0  0  0  0  0  0  0  0  0  0  0  0
   -3.5017   -1.8525   21.4567 O   0  0  0  0  0  0  0  0  0  0  0  0
   -2.6520   -1.5492   19.3372 O   0  0  0  0  0  0  0  0  0  0  0  0
   -5.0388   -2.3315   17.9959 O   0  0  0  0  0  0  0  0  0  0  0  0
   -6.0581   -6.8642   18.7650 O   0  0  0  0  0  0  0  0  0  0  0  0
    0.6838   -1.5731   22.8177 C   0  0  0  0  0  0  0  0  0  0  0  0
    0.5818   -3.0100   23.3578 C   0  0  0  0  0  0  0  0  0  0  0  0
   -0.5059   -1.1403   21.9566 C   0  0  0  0  0  0  0  0  0  0  0  0
    0.7705   -4.0720   22.2636 C   0  0  0  0  0  0  0  0  0  0  0  0
   -1.7599   -0.8436   22.7856 C   0  0  0  0  0  0  0  0  0  0  0  0
    0.4840   -5.5038   22.7406 C   0  0  0  0  0  0  0  0  0  0  0  0
   -2.9897   -0.5818   21.9100 C   0  0  0  0  0  0  0  0  0  0  0  0
   -0.9882   -5.7877   23.0614 C   0  0  0  0  0  0  0  0  0  0  0  0
   -4.1070    0.0655   22.7231 C   0  0  0  0  0  0  0  0  0  0  0  0
   -1.8898   -5.6462   21.8652 C   0  0  0  0  0  0  0  0  0  0  0  0
   -3.9494   -3.4627   19.8678 C   0  0  0  0  0  0  0  0  0  0  0  0
   -3.7725   -4.6449   20.6141 C   0  0  0  0  0  0  0  0  0  0  0  0
   -3.2380   -2.2066   20.1838 C   0  0  0  0  0  0  0  0  0  0  0  0
   -2.8820   -4.7454   21.7815 C   0  0  0  0  0  0  0  0  0  0  0  0
   -4.8113   -3.4504   18.7593 C   0  0  0  0  0  0  0  0  0  0  0  0
   -4.4999   -5.7912   20.2377 C   0  0  0  0  0  0  0  0  0  0  0  0
   -5.3536   -5.7583   19.1376 C   0  0  0  0  0  0  0  0  0  0  0  0
   -5.5118   -4.5959   18.3922 C   0  0  0  0  0  0  0  0  0  0  0  0
    1.4897   -2.5263   25.0452 H   0  0  0  0  0  0  0  0  0  0  0  0
   -4.5955   -1.5304   18.1951 H   0  0  0  0  0  0  0  0  0  0  0  0
   -5.9702   -7.6610   19.2500 H   0  0  0  0  0  0  0  0  0  0  0  0
  1  7  1  0
  1 24  1  0
  2 12  1  0
  2 18  1  0
  3 18  2  0
  4 20  1  0
  4 25  1  0
  5 22  1  0
  5 26  1  0
  6  7  1  0
  6  8  1  0
  7  9  1  0
  8 10  1  0
  9 11  1  0
 10 12  1  0
 11 13  1  0
 12 14  1  0
 13 15  1  0
 15 19  2  0
 16 17  2  0
 16 18  1  0
 16 20  1  0
 17 19  1  0
 17 21  1  0
 20 23  2  0
 21 22  2  0
 22 23  1  0
M  END
> <PUBCHEM_COMPOUND_CID>
5284645

> <PUBCHEM_CONFORMER_RMSD>
0.6

> <PUBCHEM_CONFORMER_DIVERSEORDER>
1

> <PUBCHEM_MMFF94_PARTIAL_CHARGES>
24
1 -0.68
12 0.28
13 0.14
15 -0.29
16 0.09
17 0.03
18 0.63
19 -0.18
2 -0.43
20 0.08
21 -0.15
22 0.08
23 -0.15
3 -0.57
4 -0.53
41 0.4
42 0.15
43 0.15
44 0.15
45 0.15
46 0.45
47 0.45
5 -0.53
7 0.28

> <PUBCHEM_EFFECTIVE_ROTOR_COUNT>
1.8

> <PUBCHEM_PHARMACOPHORE_FEATURES>
6
1 1 acceptor
1 1 donor
1 3 acceptor
1 4 donor
1 5 donor
6 16 17 20 21 22 23 rings

> <PUBCHEM_HEAVY_ATOM_COUNT>
23

> <PUBCHEM_ATOM_DEF_STEREO_COUNT>
2

> <PUBCHEM_ATOM_UDEF_STEREO_COUNT>
0

> <PUBCHEM_BOND_DEF_STEREO_COUNT>
1

> <PUBCHEM_BOND_UDEF_STEREO_COUNT>
0

> <PUBCHEM_ISOTOPIC_ATOM_COUNT>
0

> <PUBCHEM_COMPONENT_COUNT>
1

> <PUBCHEM_CACTVS_TAUTO_COUNT>
12

> <PUBCHEM_CONFORMER_ID>
0050A32500000001

> <PUBCHEM_MMFF94_ENERGY>
56.9454

> <PUBCHEM_FEATURE_SELFOVERLAP>
30.446

> <PUBCHEM_SHAPE_FINGERPRINT>
1100329 8 17836085568009856625
11112241 14 16986289841619931392
11578080 2 16734366241365874279
12166972 35 17967822613537111974
12403259 226 18337670931286267939
12506688 2 18412827975731104564
12596599 1 17914633677902020662
12788726 201 17627507133988941776
13140716 1 18267582403486064363
13402501 40 18336828697047978282
13533116 47 18056766653224983451
14251757 17 18262232209996353437
14787075 74 18336834185758012246
14790565 3 17545883724776523813
14866123 147 17767415573386001256
14931854 50 18336551491284682350
15196674 1 18334859415888043750
15322687 12 17104511174142344237
19591789 44 18337109089556020683
19930381 70 18413393137471364090
20028762 73 17044582808783771111
20691752 17 17022900138402631537
20715895 44 17609482839964013085
20832881 197 18343306989256920753
20905425 154 18409167675446349782
22182313 1 18041826412212926463
23227448 37 18189331260828617463
23352939 185 18342462530415398027
23557571 272 17910374109985112994
23559900 14 18335978778501818797
238 59 18196346307921625956
2748010 2 18117544331403189953
3323516 105 18411138077713944259
350125 39 18336268960321048513
3524813 1 18334011700965522918
3680242 22 18116995477305685354
463206 1 18269557311053435927
5265222 85 17471861776259798556
57527585 103 17390829632986241626
59755656 215 18188762977069237031
6443956 14 18340493347406701473
81228 2 17476913559209296171

> <PUBCHEM_SHAPE_MULTIPOLES>
443.98
8.21
4.09
1.18
1.54
0.84
-0.09
-3.84
1.51
-1.8
-1.33
-0.11
0.8
1.1

> <PUBCHEM_SHAPE_SELFOVERLAP>
916.908

> <PUBCHEM_SHAPE_VOLUME>
252.3

> <PUBCHEM_COORDINATE_TYPE>
2
5
10

> <Energy>
40.5071

> <minimizedAffinity>
5.87446

> <CNNscore>
0.1468822062

> <CNNaffinity>
5.4791436195

> <CNN_VS>
0.8047887087

> <CNNaffinity_variance>
0.0460242517

$$$$
5284645


 26 27  0  0  0  0  0  0  0  0999 V2000
    0.5896   -7.2702   21.1290 O   0  0  0  0  0  0  0  0  0  0  0  0
   -4.3365   -3.8266   21.0190 O   0  0  0  0  0  0  0  0  0  0  0  0
   -3.7275   -2.2659   22.6000 O   0  0  0  0  0  0  0  0  0  0  0  0
   -5.2704   -0.1538   21.4749 O   0  0  0  0  0  0  0  0  0  0  0  0
   -3.6916    1.0702   17.2105 O   0  0  0  0  0  0  0  0  0  0  0  0
   -1.0109   -6.2486   22.6070 C   0  0  0  0  0  0  0  0  0  0  0  0
   -0.3330   -6.1838   21.2276 C   0  0  0  0  0  0  0  0  0  0  0  0
   -2.2204   -5.3218   22.7562 C   0  0  0  0  0  0  0  0  0  0  0  0
    0.4319   -4.8707   21.0013 C   0  0  0  0  0  0  0  0  0  0  0  0
   -3.4578   -5.8396   22.0155 C   0  0  0  0  0  0  0  0  0  0  0  0
    0.9539   -4.7026   19.5664 C   0  0  0  0  0  0  0  0  0  0  0  0
   -4.6080   -4.8273   22.0225 C   0  0  0  0  0  0  0  0  0  0  0  0
   -0.1377   -4.4981   18.5093 C   0  0  0  0  0  0  0  0  0  0  0  0
   -5.9201   -5.4940   21.6197 C   0  0  0  0  0  0  0  0  0  0  0  0
   -0.9380   -3.2422   18.7241 C   0  0  0  0  0  0  0  0  0  0  0  0
   -3.7951   -1.7046   20.2965 C   0  0  0  0  0  0  0  0  0  0  0  0
   -3.0268   -1.9900   19.1501 C   0  0  0  0  0  0  0  0  0  0  0  0
   -3.8873   -2.6299   21.4449 C   0  0  0  0  0  0  0  0  0  0  0  0
   -2.2573   -3.2320   18.9740 C   0  0  0  0  0  0  0  0  0  0  0  0
   -4.4945   -0.4908   20.3929 C   0  0  0  0  0  0  0  0  0  0  0  0
   -3.0058   -1.0462   18.1043 C   0  0  0  0  0  0  0  0  0  0  0  0
   -3.7098    0.1505   18.2165 C   0  0  0  0  0  0  0  0  0  0  0  0
   -4.4517    0.4373   19.3563 C   0  0  0  0  0  0  0  0  0  0  0  0
    0.1199   -8.1070   21.2700 H   0  0  0  0  0  0  0  0  0  0  0  0
   -5.3380   -0.7391   22.2035 H   0  0  0  0  0  0  0  0  0  0  0  0
   -3.1995    0.9022   16.4311 H   0  0  0  0  0  0  0  0  0  0  0  0
  1  7  1  0
  1 24  1  0
  2 12  1  0
  2 18  1  0
  3 18  2  0
  4 20  1  0
  4 25  1  0
  5 22  1  0
  5 26  1  0
  6  7  1  0
  6  8  1  0
  7  9  1  0
  8 10  1  0
  9 11  1  0
 10 12  1  0
 11 13  1  0
 12 14  1  0
 13 15  1  0
 15 19  2  0
 16 17  2  0
 16 18  1  0
 16 20  1  0
 17 19  1  0
 17 21  1  0
 20 23  2  0
 21 22  2  0
 22 23  1  0
M  END
> <PUBCHEM_COMPOUND_CID>
5284645

> <PUBCHEM_CONFORMER_RMSD>
0.6

> <PUBCHEM_CONFORMER_DIVERSEORDER>
1

> <PUBCHEM_MMFF94_PARTIAL_CHARGES>
24
1 -0.68
12 0.28
13 0.14
15 -0.29
16 0.09
17 0.03
18 0.63
19 -0.18
2 -0.43
20 0.08
21 -0.15
22 0.08
23 -0.15
3 -0.57
4 -0.53
41 0.4
42 0.15
43 0.15
44 0.15
45 0.15
46 0.45
47 0.45
5 -0.53
7 0.28

> <PUBCHEM_EFFECTIVE_ROTOR_COUNT>
1.8

> <PUBCHEM_PHARMACOPHORE_FEATURES>
6
1 1 acceptor
1 1 donor
1 3 acceptor
1 4 donor
1 5 donor
6 16 17 20 21 22 23 rings

> <PUBCHEM_HEAVY_ATOM_COUNT>
23

> <PUBCHEM_ATOM_DEF_STEREO_COUNT>
2

> <PUBCHEM_ATOM_UDEF_STEREO_COUNT>
0

> <PUBCHEM_BOND_DEF_STEREO_COUNT>
1

> <PUBCHEM_BOND_UDEF_STEREO_COUNT>
0

> <PUBCHEM_ISOTOPIC_ATOM_COUNT>
0

> <PUBCHEM_COMPONENT_COUNT>
1

> <PUBCHEM_CACTVS_TAUTO_COUNT>
12

> <PUBCHEM_CONFORMER_ID>
0050A32500000001

> <PUBCHEM_MMFF94_ENERGY>
56.9454

> <PUBCHEM_FEATURE_SELFOVERLAP>
30.446

> <PUBCHEM_SHAPE_FINGERPRINT>
1100329 8 17836085568009856625
11112241 14 16986289841619931392
11578080 2 16734366241365874279
12166972 35 17967822613537111974
12403259 226 18337670931286267939
12506688 2 18412827975731104564
12596599 1 17914633677902020662
12788726 201 17627507133988941776
13140716 1 18267582403486064363
13402501 40 18336828697047978282
13533116 47 18056766653224983451
14251757 17 18262232209996353437
14787075 74 18336834185758012246
14790565 3 17545883724776523813
14866123 147 17767415573386001256
14931854 50 18336551491284682350
15196674 1 18334859415888043750
15322687 12 17104511174142344237
19591789 44 18337109089556020683
19930381 70 18413393137471364090
20028762 73 17044582808783771111
20691752 17 17022900138402631537
20715895 44 17609482839964013085
20832881 197 18343306989256920753
20905425 154 18409167675446349782
22182313 1 18041826412212926463
23227448 37 18189331260828617463
23352939 185 18342462530415398027
23557571 272 17910374109985112994
23559900 14 18335978778501818797
238 59 18196346307921625956
2748010 2 18117544331403189953
3323516 105 18411138077713944259
350125 39 18336268960321048513
3524813 1 18334011700965522918
3680242 22 18116995477305685354
463206 1 18269557311053435927
5265222 85 17471861776259798556
57527585 103 17390829632986241626
59755656 215 18188762977069237031
6443956 14 18340493347406701473
81228 2 17476913559209296171

> <PUBCHEM_SHAPE_MULTIPOLES>
443.98
8.21
4.09
1.18
1.54
0.84
-0.09
-3.84
1.51
-1.8
-1.33
-0.11
0.8
1.1

> <PUBCHEM_SHAPE_SELFOVERLAP>
916.908

> <PUBCHEM_SHAPE_VOLUME>
252.3

> <PUBCHEM_COORDINATE_TYPE>
2
5
10

> <Energy>
40.5071

> <minimizedAffinity>
7.11050

> <CNNscore>
0.1354332715

> <CNNaffinity>
4.2218127251

> <CNN_VS>
0.5717738867

> <CNNaffinity_variance>
1.7927378416

$$$$
