6623


 19 20  0  0  0  0  0  0  0  0999 V2000
  104.2172   14.2182   22.2581 C   0  0  0  0  0  0  0  0  0  0  0  0
  103.6711   12.7728   22.4194 C   0  0  0  0  0  0  0  0  0  0  0  0
  104.1851   14.5014   20.7315 C   0  0  0  0  0  0  0  0  0  0  0  0
  109.6312   14.7967   24.0307 O   0  0  0  0  0  0  0  0  0  0  0  0
  105.6866   14.3825   22.7156 C   0  0  0  0  0  0  0  0  0  0  0  0
  106.1619   13.6358   23.8153 C   0  0  0  0  0  0  0  0  0  0  0  0
  106.5893   15.2550   22.0836 C   0  0  0  0  0  0  0  0  0  0  0  0
  107.4777   13.7632   24.2702 C   0  0  0  0  0  0  0  0  0  0  0  0
  107.9075   15.3798   22.5347 C   0  0  0  0  0  0  0  0  0  0  0  0
  108.3401   14.6372   23.6235 C   0  0  0  0  0  0  0  0  0  0  0  0
  109.9550   14.3100   24.7629 H   0  0  0  0  0  0  0  0  0  0  0  0
  100.8025   17.5746   25.3958 O   0  0  0  0  0  0  0  0  0  0  0  0
  103.2839   15.1397   23.0787 C   0  0  0  0  0  0  0  0  0  0  0  0
  103.8062   15.8733   24.1656 C   0  0  0  0  0  0  0  0  0  0  0  0
  101.9121   15.2765   22.8010 C   0  0  0  0  0  0  0  0  0  0  0  0
  102.9908   16.6920   24.9520 C   0  0  0  0  0  0  0  0  0  0  0  0
  101.0971   16.0994   23.5836 C   0  0  0  0  0  0  0  0  0  0  0  0
  101.6392   16.7946   24.6542 C   0  0  0  0  0  0  0  0  0  0  0  0
  101.1367   18.0576   26.1259 H   0  0  0  0  0  0  0  0  0  0  0  0
  4 10  1  0
  4 11  1  0
 12 18  1  0
 12 19  1  0
  1  5  1  0
  1 13  1  0
  1  2  1  0
  1  3  1  0
  5  6  2  0
  5  7  1  0
 13 14  2  0
 13 15  1  0
  6  8  1  0
 14 16  1  0
  7  9  2  0
 15 17  2  0
  8 10  2  0
 16 18  2  0
  9 10  1  0
 17 18  1  0
M  END
> <PUBCHEM_COMPOUND_CID>
6623

> <PUBCHEM_CONFORMER_RMSD>
0.6

> <PUBCHEM_CONFORMER_DIVERSEORDER>
1
3
2

> <PUBCHEM_MMFF94_PARTIAL_CHARGES>
25
1 -0.53
10 -0.15
11 -0.15
12 -0.15
13 -0.15
14 -0.15
15 -0.15
16 0.08
17 0.08
2 -0.53
24 0.15
25 0.15
26 0.15
27 0.15
28 0.15
29 0.15
3 0.29
30 0.15
31 0.15
32 0.45
33 0.45
4 -0.14
5 -0.14
8 -0.15
9 -0.15

> <PUBCHEM_EFFECTIVE_ROTOR_COUNT>
2

> <PUBCHEM_PHARMACOPHORE_FEATURES>
5
1 1 donor
1 2 donor
3 3 6 7 hydrophobe
6 4 8 10 12 14 16 rings
6 5 9 11 13 15 17 rings

> <PUBCHEM_HEAVY_ATOM_COUNT>
17

> <PUBCHEM_ATOM_DEF_STEREO_COUNT>
0

> <PUBCHEM_ATOM_UDEF_STEREO_COUNT>
0

> <PUBCHEM_BOND_DEF_STEREO_COUNT>
0

> <PUBCHEM_BOND_UDEF_STEREO_COUNT>
0

> <PUBCHEM_ISOTOPIC_ATOM_COUNT>
0

> <PUBCHEM_COMPONENT_COUNT>
1

> <PUBCHEM_CACTVS_TAUTO_COUNT>
3

> <PUBCHEM_CONFORMER_ID>
000019DF00000001

> <PUBCHEM_MMFF94_ENERGY>
64.1206

> <PUBCHEM_FEATURE_SELFOVERLAP>
25.372

> <PUBCHEM_SHAPE_FINGERPRINT>
10465860 228 18265052440146906875
10498660 4 17846494807956907777
10618630 7 8862950471944920352
11046707 91 8574440819802817220
11640471 11 18410569587104953028
12138202 97 17632297942700988494
12251169 10 15719115772587467277
12491281 212 18341893034625719138
12633257 1 15647059291015153984
12788726 201 18049710021441717058
12892183 10 15719384001885322888
13571099 52 18261397711031002503
13764800 53 18340221781019704851
14251764 38 17758668950351880149
14739800 52 17985806350554812304
15061688 2 18410575084673810317
15309172 13 17822005415182549066
15342168 16 18187090559068058613
15375462 189 9295287269996453078
15534591 1 18337673126062282338
15653759 3 15068339003624658237
15775835 57 18410853261110395364
15906896 17 18264490774389428130
16945 1 17917141818369727011
17357779 13 13899614313340361589
1741750 31 18337674225716062138
17804303 29 12829490320433961629
1813 80 17692251833473259110
18186145 218 18334012757179395950
19765921 60 18411697656461014379
19868273 293 17988923409424780430
20291156 8 9223230745321134917
20361792 2 9943803365827786299
204376 136 18186802491163379179
20645476 183 18339358668581405150
20671657 53 12751245791825749096
20871999 31 16988551447065141829
21499 59 18412825772344063143
21524375 3 18410855460138945163
21713013 43 13758065299356720749
21731228 192 17894352193594983955
23184049 59 17894627041684797236
23402539 116 17774993601125170188
23557571 272 16557885966252971863
23559900 14 17561366193283564332
298252 57 18202560691760254914
3472631 163 18202563986327517557
4028521 119 17846780714954732865
4340502 62 18114473262852369283
474 4 18336547123060049707
633830 44 18410010996606913815
7364860 26 17700693965181141591
83771 10 9223230749695054610
94968 8 10663806477749826557
9981440 41 18128808828214612290

> <PUBCHEM_SHAPE_MULTIPOLES>
338.11
7.28
2.04
1.32
0.26
0.87
0
-5.89
0
-0.06
0
0
0.27
-0.69

> <PUBCHEM_SHAPE_SELFOVERLAP>
731.212

> <PUBCHEM_SHAPE_VOLUME>
187.1

> <PUBCHEM_COORDINATE_TYPE>
2
5
10

> <Energy>
42.8498

> <minimizedAffinity>
-8.49643

> <CNNscore>
0.7723948359

> <CNNaffinity>
7.2093110085

> <CNN_VS>
5.5684347153

> <CNNaffinity_variance>
1.0022745132

$$$$
6623


 19 20  0  0  0  0  0  0  0  0999 V2000
  104.2155   14.2077   22.2807 C   0  0  0  0  0  0  0  0  0  0  0  0
  104.1758   14.5044   20.7564 C   0  0  0  0  0  0  0  0  0  0  0  0
  103.6814   12.7572   22.4310 C   0  0  0  0  0  0  0  0  0  0  0  0
  100.8201   17.5636   25.4427 O   0  0  0  0  0  0  0  0  0  0  0  0
  103.2843   15.1191   23.1162 C   0  0  0  0  0  0  0  0  0  0  0  0
  103.7671   15.7051   24.3063 C   0  0  0  0  0  0  0  0  0  0  0  0
  101.9569   15.3969   22.7469 C   0  0  0  0  0  0  0  0  0  0  0  0
  102.9562   16.5237   25.0980 C   0  0  0  0  0  0  0  0  0  0  0  0
  101.1461   16.2198   23.5356 C   0  0  0  0  0  0  0  0  0  0  0  0
  101.6492   16.7733   24.7038 C   0  0  0  0  0  0  0  0  0  0  0  0
  101.1289   17.9528   26.2371 H   0  0  0  0  0  0  0  0  0  0  0  0
  109.6237   14.8369   24.0490 O   0  0  0  0  0  0  0  0  0  0  0  0
  105.6872   14.3752   22.7277 C   0  0  0  0  0  0  0  0  0  0  0  0
  106.2014   13.5588   23.7579 C   0  0  0  0  0  0  0  0  0  0  0  0
  106.5523   15.3269   22.1590 C   0  0  0  0  0  0  0  0  0  0  0  0
  107.5154   13.6999   24.2130 C   0  0  0  0  0  0  0  0  0  0  0  0
  107.8681   15.4648   22.6098 C   0  0  0  0  0  0  0  0  0  0  0  0
  108.3374   14.6570   23.6347 C   0  0  0  0  0  0  0  0  0  0  0  0
  109.9719   14.3076   24.7393 H   0  0  0  0  0  0  0  0  0  0  0  0
  4 10  1  0
  4 11  1  0
 12 18  1  0
 12 19  1  0
  1  5  1  0
  1 13  1  0
  1  2  1  0
  1  3  1  0
  5  6  2  0
  5  7  1  0
 13 14  2  0
 13 15  1  0
  6  8  1  0
 14 16  1  0
  7  9  2  0
 15 17  2  0
  8 10  2  0
 16 18  2  0
  9 10  1  0
 17 18  1  0
M  END
> <PUBCHEM_COMPOUND_CID>
6623

> <PUBCHEM_CONFORMER_RMSD>
0.6

> <PUBCHEM_CONFORMER_DIVERSEORDER>
1
3
2

> <PUBCHEM_MMFF94_PARTIAL_CHARGES>
25
1 -0.53
10 -0.15
11 -0.15
12 -0.15
13 -0.15
14 -0.15
15 -0.15
16 0.08
17 0.08
2 -0.53
24 0.15
25 0.15
26 0.15
27 0.15
28 0.15
29 0.15
3 0.29
30 0.15
31 0.15
32 0.45
33 0.45
4 -0.14
5 -0.14
8 -0.15
9 -0.15

> <PUBCHEM_EFFECTIVE_ROTOR_COUNT>
2

> <PUBCHEM_PHARMACOPHORE_FEATURES>
5
1 1 donor
1 2 donor
3 3 6 7 hydrophobe
6 4 8 10 12 14 16 rings
6 5 9 11 13 15 17 rings

> <PUBCHEM_HEAVY_ATOM_COUNT>
17

> <PUBCHEM_ATOM_DEF_STEREO_COUNT>
0

> <PUBCHEM_ATOM_UDEF_STEREO_COUNT>
0

> <PUBCHEM_BOND_DEF_STEREO_COUNT>
0

> <PUBCHEM_BOND_UDEF_STEREO_COUNT>
0

> <PUBCHEM_ISOTOPIC_ATOM_COUNT>
0

> <PUBCHEM_COMPONENT_COUNT>
1

> <PUBCHEM_CACTVS_TAUTO_COUNT>
3

> <PUBCHEM_CONFORMER_ID>
000019DF00000001

> <PUBCHEM_MMFF94_ENERGY>
64.1206

> <PUBCHEM_FEATURE_SELFOVERLAP>
25.372

> <PUBCHEM_SHAPE_FINGERPRINT>
10465860 228 18265052440146906875
10498660 4 17846494807956907777
10618630 7 8862950471944920352
11046707 91 8574440819802817220
11640471 11 18410569587104953028
12138202 97 17632297942700988494
12251169 10 15719115772587467277
12491281 212 18341893034625719138
12633257 1 15647059291015153984
12788726 201 18049710021441717058
12892183 10 15719384001885322888
13571099 52 18261397711031002503
13764800 53 18340221781019704851
14251764 38 17758668950351880149
14739800 52 17985806350554812304
15061688 2 18410575084673810317
15309172 13 17822005415182549066
15342168 16 18187090559068058613
15375462 189 9295287269996453078
15534591 1 18337673126062282338
15653759 3 15068339003624658237
15775835 57 18410853261110395364
15906896 17 18264490774389428130
16945 1 17917141818369727011
17357779 13 13899614313340361589
1741750 31 18337674225716062138
17804303 29 12829490320433961629
1813 80 17692251833473259110
18186145 218 18334012757179395950
19765921 60 18411697656461014379
19868273 293 17988923409424780430
20291156 8 9223230745321134917
20361792 2 9943803365827786299
204376 136 18186802491163379179
20645476 183 18339358668581405150
20671657 53 12751245791825749096
20871999 31 16988551447065141829
21499 59 18412825772344063143
21524375 3 18410855460138945163
21713013 43 13758065299356720749
21731228 192 17894352193594983955
23184049 59 17894627041684797236
23402539 116 17774993601125170188
23557571 272 16557885966252971863
23559900 14 17561366193283564332
298252 57 18202560691760254914
3472631 163 18202563986327517557
4028521 119 17846780714954732865
4340502 62 18114473262852369283
474 4 18336547123060049707
633830 44 18410010996606913815
7364860 26 17700693965181141591
83771 10 9223230749695054610
94968 8 10663806477749826557
9981440 41 18128808828214612290

> <PUBCHEM_SHAPE_MULTIPOLES>
338.11
7.28
2.04
1.32
0.26
0.87
0
-5.89
0
-0.06
0
0
0.27
-0.69

> <PUBCHEM_SHAPE_SELFOVERLAP>
731.212

> <PUBCHEM_SHAPE_VOLUME>
187.1

> <PUBCHEM_COORDINATE_TYPE>
2
5
10

> <Energy>
42.8498

> <minimizedAffinity>
-8.49288

> <CNNscore>
0.7432614565

> <CNNaffinity>
7.2051424980

> <CNN_VS>
5.3553047180

> <CNNaffinity_variance>
1.0499228239

$$$$
6623


 19 20  0  0  0  0  0  0  0  0999 V2000
  104.4549   14.6809   23.2080 C   0  0  0  0  0  0  0  0  0  0  0  0
  103.9255   13.2448   22.9429 C   0  0  0  0  0  0  0  0  0  0  0  0
  104.9119   15.2126   21.8223 C   0  0  0  0  0  0  0  0  0  0  0  0
  108.9797   14.8215   26.7145 O   0  0  0  0  0  0  0  0  0  0  0  0
  105.6916   14.7262   24.1376 C   0  0  0  0  0  0  0  0  0  0  0  0
  105.7048   13.9522   25.3182 C   0  0  0  0  0  0  0  0  0  0  0  0
  106.8227   15.5147   23.8647 C   0  0  0  0  0  0  0  0  0  0  0  0
  106.7952   13.9735   26.1928 C   0  0  0  0  0  0  0  0  0  0  0  0
  107.9164   15.5329   24.7365 C   0  0  0  0  0  0  0  0  0  0  0  0
  107.8936   14.7667   25.8925 C   0  0  0  0  0  0  0  0  0  0  0  0
  108.9962   14.3160   27.5032 H   0  0  0  0  0  0  0  0  0  0  0  0
  100.1340   17.5872   25.5859 O   0  0  0  0  0  0  0  0  0  0  0  0
  103.2813   15.4807   23.8219 C   0  0  0  0  0  0  0  0  0  0  0  0
  103.4859   16.2247   25.0038 C   0  0  0  0  0  0  0  0  0  0  0  0
  101.9923   15.4939   23.2599 C   0  0  0  0  0  0  0  0  0  0  0  0
  102.4445   16.9346   25.6080 C   0  0  0  0  0  0  0  0  0  0  0  0
  100.9517   16.2080   23.8606 C   0  0  0  0  0  0  0  0  0  0  0  0
  101.1827   16.9164   25.0303 C   0  0  0  0  0  0  0  0  0  0  0  0
  100.2561   18.0756   26.3761 H   0  0  0  0  0  0  0  0  0  0  0  0
  4 10  1  0
  4 11  1  0
 12 18  1  0
 12 19  1  0
  1  5  1  0
  1 13  1  0
  1  2  1  0
  1  3  1  0
  5  6  2  0
  5  7  1  0
 13 14  2  0
 13 15  1  0
  6  8  1  0
 14 16  1  0
  7  9  2  0
 15 17  2  0
  8 10  2  0
 16 18  2  0
  9 10  1  0
 17 18  1  0
M  END
> <PUBCHEM_COMPOUND_CID>
6623

> <PUBCHEM_CONFORMER_RMSD>
0.6

> <PUBCHEM_CONFORMER_DIVERSEORDER>
1
3
2

> <PUBCHEM_MMFF94_PARTIAL_CHARGES>
25
1 -0.53
10 -0.15
11 -0.15
12 -0.15
13 -0.15
14 -0.15
15 -0.15
16 0.08
17 0.08
2 -0.53
24 0.15
25 0.15
26 0.15
27 0.15
28 0.15
29 0.15
3 0.29
30 0.15
31 0.15
32 0.45
33 0.45
4 -0.14
5 -0.14
8 -0.15
9 -0.15

> <PUBCHEM_EFFECTIVE_ROTOR_COUNT>
2

> <PUBCHEM_PHARMACOPHORE_FEATURES>
5
1 1 donor
1 2 donor
3 3 6 7 hydrophobe
6 4 8 10 12 14 16 rings
6 5 9 11 13 15 17 rings

> <PUBCHEM_HEAVY_ATOM_COUNT>
17

> <PUBCHEM_ATOM_DEF_STEREO_COUNT>
0

> <PUBCHEM_ATOM_UDEF_STEREO_COUNT>
0

> <PUBCHEM_BOND_DEF_STEREO_COUNT>
0

> <PUBCHEM_BOND_UDEF_STEREO_COUNT>
0

> <PUBCHEM_ISOTOPIC_ATOM_COUNT>
0

> <PUBCHEM_COMPONENT_COUNT>
1

> <PUBCHEM_CACTVS_TAUTO_COUNT>
3

> <PUBCHEM_CONFORMER_ID>
000019DF00000001

> <PUBCHEM_MMFF94_ENERGY>
64.1206

> <PUBCHEM_FEATURE_SELFOVERLAP>
25.372

> <PUBCHEM_SHAPE_FINGERPRINT>
10465860 228 18265052440146906875
10498660 4 17846494807956907777
10618630 7 8862950471944920352
11046707 91 8574440819802817220
11640471 11 18410569587104953028
12138202 97 17632297942700988494
12251169 10 15719115772587467277
12491281 212 18341893034625719138
12633257 1 15647059291015153984
12788726 201 18049710021441717058
12892183 10 15719384001885322888
13571099 52 18261397711031002503
13764800 53 18340221781019704851
14251764 38 17758668950351880149
14739800 52 17985806350554812304
15061688 2 18410575084673810317
15309172 13 17822005415182549066
15342168 16 18187090559068058613
15375462 189 9295287269996453078
15534591 1 18337673126062282338
15653759 3 15068339003624658237
15775835 57 18410853261110395364
15906896 17 18264490774389428130
16945 1 17917141818369727011
17357779 13 13899614313340361589
1741750 31 18337674225716062138
17804303 29 12829490320433961629
1813 80 17692251833473259110
18186145 218 18334012757179395950
19765921 60 18411697656461014379
19868273 293 17988923409424780430
20291156 8 9223230745321134917
20361792 2 9943803365827786299
204376 136 18186802491163379179
20645476 183 18339358668581405150
20671657 53 12751245791825749096
20871999 31 16988551447065141829
21499 59 18412825772344063143
21524375 3 18410855460138945163
21713013 43 13758065299356720749
21731228 192 17894352193594983955
23184049 59 17894627041684797236
23402539 116 17774993601125170188
23557571 272 16557885966252971863
23559900 14 17561366193283564332
298252 57 18202560691760254914
3472631 163 18202563986327517557
4028521 119 17846780714954732865
4340502 62 18114473262852369283
474 4 18336547123060049707
633830 44 18410010996606913815
7364860 26 17700693965181141591
83771 10 9223230749695054610
94968 8 10663806477749826557
9981440 41 18128808828214612290

> <PUBCHEM_SHAPE_MULTIPOLES>
338.11
7.28
2.04
1.32
0.26
0.87
0
-5.89
0
-0.06
0
0
0.27
-0.69

> <PUBCHEM_SHAPE_SELFOVERLAP>
731.212

> <PUBCHEM_SHAPE_VOLUME>
187.1

> <PUBCHEM_COORDINATE_TYPE>
2
5
10

> <Energy>
42.8498

> <minimizedAffinity>
-8.65277

> <CNNscore>
0.7214701176

> <CNNaffinity>
6.8245234489

> <CNN_VS>
4.9236898422

> <CNNaffinity_variance>
0.5115260482

$$$$
6623


 19 20  0  0  0  0  0  0  0  0999 V2000
  104.4430   14.6653   23.1872 C   0  0  0  0  0  0  0  0  0  0  0  0
  104.8970   15.2094   21.8049 C   0  0  0  0  0  0  0  0  0  0  0  0
  103.9195   13.2294   22.9117 C   0  0  0  0  0  0  0  0  0  0  0  0
  100.1486   17.5986   25.5836 O   0  0  0  0  0  0  0  0  0  0  0  0
  103.2712   15.4590   23.8138 C   0  0  0  0  0  0  0  0  0  0  0  0
  103.4795   16.1830   25.0077 C   0  0  0  0  0  0  0  0  0  0  0  0
  101.9854   15.4954   23.2475 C   0  0  0  0  0  0  0  0  0  0  0  0
  102.4459   16.9025   25.6148 C   0  0  0  0  0  0  0  0  0  0  0  0
  100.9517   16.2190   23.8513 C   0  0  0  0  0  0  0  0  0  0  0  0
  101.1879   16.9129   25.0288 C   0  0  0  0  0  0  0  0  0  0  0  0
  100.2747   18.0778   26.3788 H   0  0  0  0  0  0  0  0  0  0  0  0
  108.9635   14.8363   26.6953 O   0  0  0  0  0  0  0  0  0  0  0  0
  105.6842   14.7054   24.1099 C   0  0  0  0  0  0  0  0  0  0  0  0
  105.7092   13.9190   25.2817 C   0  0  0  0  0  0  0  0  0  0  0  0
  106.8055   15.5113   23.8435 C   0  0  0  0  0  0  0  0  0  0  0  0
  106.7973   13.9508   26.1584 C   0  0  0  0  0  0  0  0  0  0  0  0
  107.8964   15.5395   24.7169 C   0  0  0  0  0  0  0  0  0  0  0  0
  107.8823   14.7660   25.8679 C   0  0  0  0  0  0  0  0  0  0  0  0
  108.9859   14.3265   27.4812 H   0  0  0  0  0  0  0  0  0  0  0  0
  4 10  1  0
  4 11  1  0
 12 18  1  0
 12 19  1  0
  1  5  1  0
  1 13  1  0
  1  2  1  0
  1  3  1  0
  5  6  2  0
  5  7  1  0
 13 14  2  0
 13 15  1  0
  6  8  1  0
 14 16  1  0
  7  9  2  0
 15 17  2  0
  8 10  2  0
 16 18  2  0
  9 10  1  0
 17 18  1  0
M  END
> <PUBCHEM_COMPOUND_CID>
6623

> <PUBCHEM_CONFORMER_RMSD>
0.6

> <PUBCHEM_CONFORMER_DIVERSEORDER>
1
3
2

> <PUBCHEM_MMFF94_PARTIAL_CHARGES>
25
1 -0.53
10 -0.15
11 -0.15
12 -0.15
13 -0.15
14 -0.15
15 -0.15
16 0.08
17 0.08
2 -0.53
24 0.15
25 0.15
26 0.15
27 0.15
28 0.15
29 0.15
3 0.29
30 0.15
31 0.15
32 0.45
33 0.45
4 -0.14
5 -0.14
8 -0.15
9 -0.15

> <PUBCHEM_EFFECTIVE_ROTOR_COUNT>
2

> <PUBCHEM_PHARMACOPHORE_FEATURES>
5
1 1 donor
1 2 donor
3 3 6 7 hydrophobe
6 4 8 10 12 14 16 rings
6 5 9 11 13 15 17 rings

> <PUBCHEM_HEAVY_ATOM_COUNT>
17

> <PUBCHEM_ATOM_DEF_STEREO_COUNT>
0

> <PUBCHEM_ATOM_UDEF_STEREO_COUNT>
0

> <PUBCHEM_BOND_DEF_STEREO_COUNT>
0

> <PUBCHEM_BOND_UDEF_STEREO_COUNT>
0

> <PUBCHEM_ISOTOPIC_ATOM_COUNT>
0

> <PUBCHEM_COMPONENT_COUNT>
1

> <PUBCHEM_CACTVS_TAUTO_COUNT>
3

> <PUBCHEM_CONFORMER_ID>
000019DF00000001

> <PUBCHEM_MMFF94_ENERGY>
64.1206

> <PUBCHEM_FEATURE_SELFOVERLAP>
25.372

> <PUBCHEM_SHAPE_FINGERPRINT>
10465860 228 18265052440146906875
10498660 4 17846494807956907777
10618630 7 8862950471944920352
11046707 91 8574440819802817220
11640471 11 18410569587104953028
12138202 97 17632297942700988494
12251169 10 15719115772587467277
12491281 212 18341893034625719138
12633257 1 15647059291015153984
12788726 201 18049710021441717058
12892183 10 15719384001885322888
13571099 52 18261397711031002503
13764800 53 18340221781019704851
14251764 38 17758668950351880149
14739800 52 17985806350554812304
15061688 2 18410575084673810317
15309172 13 17822005415182549066
15342168 16 18187090559068058613
15375462 189 9295287269996453078
15534591 1 18337673126062282338
15653759 3 15068339003624658237
15775835 57 18410853261110395364
15906896 17 18264490774389428130
16945 1 17917141818369727011
17357779 13 13899614313340361589
1741750 31 18337674225716062138
17804303 29 12829490320433961629
1813 80 17692251833473259110
18186145 218 18334012757179395950
19765921 60 18411697656461014379
19868273 293 17988923409424780430
20291156 8 9223230745321134917
20361792 2 9943803365827786299
204376 136 18186802491163379179
20645476 183 18339358668581405150
20671657 53 12751245791825749096
20871999 31 16988551447065141829
21499 59 18412825772344063143
21524375 3 18410855460138945163
21713013 43 13758065299356720749
21731228 192 17894352193594983955
23184049 59 17894627041684797236
23402539 116 17774993601125170188
23557571 272 16557885966252971863
23559900 14 17561366193283564332
298252 57 18202560691760254914
3472631 163 18202563986327517557
4028521 119 17846780714954732865
4340502 62 18114473262852369283
474 4 18336547123060049707
633830 44 18410010996606913815
7364860 26 17700693965181141591
83771 10 9223230749695054610
94968 8 10663806477749826557
9981440 41 18128808828214612290

> <PUBCHEM_SHAPE_MULTIPOLES>
338.11
7.28
2.04
1.32
0.26
0.87
0
-5.89
0
-0.06
0
0
0.27
-0.69

> <PUBCHEM_SHAPE_SELFOVERLAP>
731.212

> <PUBCHEM_SHAPE_VOLUME>
187.1

> <PUBCHEM_COORDINATE_TYPE>
2
5
10

> <Energy>
42.8498

> <minimizedAffinity>
-8.64749

> <CNNscore>
0.7207203507

> <CNNaffinity>
6.8308157921

> <CNN_VS>
4.9231081009

> <CNNaffinity_variance>
0.5145502687

$$$$
6623


 19 20  0  0  0  0  0  0  0  0999 V2000
  105.0614   15.2024   24.2084 C   0  0  0  0  0  0  0  0  0  0  0  0
  105.4778   14.0432   25.1549 C   0  0  0  0  0  0  0  0  0  0  0  0
  106.1437   16.2993   24.4013 C   0  0  0  0  0  0  0  0  0  0  0  0
  100.0548   17.5863   25.6366 O   0  0  0  0  0  0  0  0  0  0  0  0
  103.7005   15.8439   24.5720 C   0  0  0  0  0  0  0  0  0  0  0  0
  103.6100   16.6986   25.6919 C   0  0  0  0  0  0  0  0  0  0  0  0
  102.5270   15.6136   23.8336 C   0  0  0  0  0  0  0  0  0  0  0  0
  102.3983   17.2884   26.0639 C   0  0  0  0  0  0  0  0  0  0  0  0
  101.3150   16.2071   24.2018 C   0  0  0  0  0  0  0  0  0  0  0  0
  101.2589   17.0355   25.3129 C   0  0  0  0  0  0  0  0  0  0  0  0
   99.9827   18.1506   26.3811 H   0  0  0  0  0  0  0  0  0  0  0  0
  104.8685   13.1326   18.8745 O   0  0  0  0  0  0  0  0  0  0  0  0
  105.0228   14.6153   22.7774 C   0  0  0  0  0  0  0  0  0  0  0  0
  105.5639   15.3552   21.7041 C   0  0  0  0  0  0  0  0  0  0  0  0
  104.4529   13.3639   22.4827 C   0  0  0  0  0  0  0  0  0  0  0  0
  105.5203   14.8752   20.3922 C   0  0  0  0  0  0  0  0  0  0  0  0
  104.4140   12.8807   21.1718 C   0  0  0  0  0  0  0  0  0  0  0  0
  104.9409   13.6400   20.1378 C   0  0  0  0  0  0  0  0  0  0  0  0
  105.2151   13.6202   18.1533 H   0  0  0  0  0  0  0  0  0  0  0  0
  4 10  1  0
  4 11  1  0
 12 18  1  0
 12 19  1  0
  1  5  1  0
  1 13  1  0
  1  2  1  0
  1  3  1  0
  5  6  2  0
  5  7  1  0
 13 14  2  0
 13 15  1  0
  6  8  1  0
 14 16  1  0
  7  9  2  0
 15 17  2  0
  8 10  2  0
 16 18  2  0
  9 10  1  0
 17 18  1  0
M  END
> <PUBCHEM_COMPOUND_CID>
6623

> <PUBCHEM_CONFORMER_RMSD>
0.6

> <PUBCHEM_CONFORMER_DIVERSEORDER>
1
3
2

> <PUBCHEM_MMFF94_PARTIAL_CHARGES>
25
1 -0.53
10 -0.15
11 -0.15
12 -0.15
13 -0.15
14 -0.15
15 -0.15
16 0.08
17 0.08
2 -0.53
24 0.15
25 0.15
26 0.15
27 0.15
28 0.15
29 0.15
3 0.29
30 0.15
31 0.15
32 0.45
33 0.45
4 -0.14
5 -0.14
8 -0.15
9 -0.15

> <PUBCHEM_EFFECTIVE_ROTOR_COUNT>
2

> <PUBCHEM_PHARMACOPHORE_FEATURES>
5
1 1 donor
1 2 donor
3 3 6 7 hydrophobe
6 4 8 10 12 14 16 rings
6 5 9 11 13 15 17 rings

> <PUBCHEM_HEAVY_ATOM_COUNT>
17

> <PUBCHEM_ATOM_DEF_STEREO_COUNT>
0

> <PUBCHEM_ATOM_UDEF_STEREO_COUNT>
0

> <PUBCHEM_BOND_DEF_STEREO_COUNT>
0

> <PUBCHEM_BOND_UDEF_STEREO_COUNT>
0

> <PUBCHEM_ISOTOPIC_ATOM_COUNT>
0

> <PUBCHEM_COMPONENT_COUNT>
1

> <PUBCHEM_CACTVS_TAUTO_COUNT>
3

> <PUBCHEM_CONFORMER_ID>
000019DF00000001

> <PUBCHEM_MMFF94_ENERGY>
64.1206

> <PUBCHEM_FEATURE_SELFOVERLAP>
25.372

> <PUBCHEM_SHAPE_FINGERPRINT>
10465860 228 18265052440146906875
10498660 4 17846494807956907777
10618630 7 8862950471944920352
11046707 91 8574440819802817220
11640471 11 18410569587104953028
12138202 97 17632297942700988494
12251169 10 15719115772587467277
12491281 212 18341893034625719138
12633257 1 15647059291015153984
12788726 201 18049710021441717058
12892183 10 15719384001885322888
13571099 52 18261397711031002503
13764800 53 18340221781019704851
14251764 38 17758668950351880149
14739800 52 17985806350554812304
15061688 2 18410575084673810317
15309172 13 17822005415182549066
15342168 16 18187090559068058613
15375462 189 9295287269996453078
15534591 1 18337673126062282338
15653759 3 15068339003624658237
15775835 57 18410853261110395364
15906896 17 18264490774389428130
16945 1 17917141818369727011
17357779 13 13899614313340361589
1741750 31 18337674225716062138
17804303 29 12829490320433961629
1813 80 17692251833473259110
18186145 218 18334012757179395950
19765921 60 18411697656461014379
19868273 293 17988923409424780430
20291156 8 9223230745321134917
20361792 2 9943803365827786299
204376 136 18186802491163379179
20645476 183 18339358668581405150
20671657 53 12751245791825749096
20871999 31 16988551447065141829
21499 59 18412825772344063143
21524375 3 18410855460138945163
21713013 43 13758065299356720749
21731228 192 17894352193594983955
23184049 59 17894627041684797236
23402539 116 17774993601125170188
23557571 272 16557885966252971863
23559900 14 17561366193283564332
298252 57 18202560691760254914
3472631 163 18202563986327517557
4028521 119 17846780714954732865
4340502 62 18114473262852369283
474 4 18336547123060049707
633830 44 18410010996606913815
7364860 26 17700693965181141591
83771 10 9223230749695054610
94968 8 10663806477749826557
9981440 41 18128808828214612290

> <PUBCHEM_SHAPE_MULTIPOLES>
338.11
7.28
2.04
1.32
0.26
0.87
0
-5.89
0
-0.06
0
0
0.27
-0.69

> <PUBCHEM_SHAPE_SELFOVERLAP>
731.212

> <PUBCHEM_SHAPE_VOLUME>
187.1

> <PUBCHEM_COORDINATE_TYPE>
2
5
10

> <Energy>
42.8498

> <minimizedAffinity>
-8.64048

> <CNNscore>
0.6691419482

> <CNNaffinity>
7.2134528160

> <CNN_VS>
4.8268237114

> <CNNaffinity_variance>
1.1167836189

$$$$
6623


 19 20  0  0  0  0  0  0  0  0999 V2000
  105.0014   15.2731   24.1728 C   0  0  0  0  0  0  0  0  0  0  0  0
  106.0790   16.3777   24.3512 C   0  0  0  0  0  0  0  0  0  0  0  0
  105.4262   14.1264   25.1300 C   0  0  0  0  0  0  0  0  0  0  0  0
  104.8416   13.1390   18.8616 O   0  0  0  0  0  0  0  0  0  0  0  0
  104.9545   14.6745   22.7462 C   0  0  0  0  0  0  0  0  0  0  0  0
  105.5732   15.3635   21.6806 C   0  0  0  0  0  0  0  0  0  0  0  0
  104.3137   13.4593   22.4495 C   0  0  0  0  0  0  0  0  0  0  0  0
  105.5434   14.8657   20.3745 C   0  0  0  0  0  0  0  0  0  0  0  0
  104.2876   12.9577   21.1440 C   0  0  0  0  0  0  0  0  0  0  0  0
  104.8983   13.6641   20.1183 C   0  0  0  0  0  0  0  0  0  0  0  0
  105.2441   13.5911   18.1464 H   0  0  0  0  0  0  0  0  0  0  0  0
   99.9826   17.6017   25.6426 O   0  0  0  0  0  0  0  0  0  0  0  0
  103.6424   15.9150   24.5400 C   0  0  0  0  0  0  0  0  0  0  0  0
  103.5369   16.7109   25.7009 C   0  0  0  0  0  0  0  0  0  0  0  0
  102.4805   15.7317   23.7694 C   0  0  0  0  0  0  0  0  0  0  0  0
  102.3207   17.2823   26.0854 C   0  0  0  0  0  0  0  0  0  0  0  0
  101.2650   16.3073   24.1502 C   0  0  0  0  0  0  0  0  0  0  0  0
  101.1923   17.0713   25.3054 C   0  0  0  0  0  0  0  0  0  0  0  0
   99.8990   18.1228   26.4168 H   0  0  0  0  0  0  0  0  0  0  0  0
  4 10  1  0
  4 11  1  0
 12 18  1  0
 12 19  1  0
  1  5  1  0
  1 13  1  0
  1  2  1  0
  1  3  1  0
  5  6  2  0
  5  7  1  0
 13 14  2  0
 13 15  1  0
  6  8  1  0
 14 16  1  0
  7  9  2  0
 15 17  2  0
  8 10  2  0
 16 18  2  0
  9 10  1  0
 17 18  1  0
M  END
> <PUBCHEM_COMPOUND_CID>
6623

> <PUBCHEM_CONFORMER_RMSD>
0.6

> <PUBCHEM_CONFORMER_DIVERSEORDER>
1
3
2

> <PUBCHEM_MMFF94_PARTIAL_CHARGES>
25
1 -0.53
10 -0.15
11 -0.15
12 -0.15
13 -0.15
14 -0.15
15 -0.15
16 0.08
17 0.08
2 -0.53
24 0.15
25 0.15
26 0.15
27 0.15
28 0.15
29 0.15
3 0.29
30 0.15
31 0.15
32 0.45
33 0.45
4 -0.14
5 -0.14
8 -0.15
9 -0.15

> <PUBCHEM_EFFECTIVE_ROTOR_COUNT>
2

> <PUBCHEM_PHARMACOPHORE_FEATURES>
5
1 1 donor
1 2 donor
3 3 6 7 hydrophobe
6 4 8 10 12 14 16 rings
6 5 9 11 13 15 17 rings

> <PUBCHEM_HEAVY_ATOM_COUNT>
17

> <PUBCHEM_ATOM_DEF_STEREO_COUNT>
0

> <PUBCHEM_ATOM_UDEF_STEREO_COUNT>
0

> <PUBCHEM_BOND_DEF_STEREO_COUNT>
0

> <PUBCHEM_BOND_UDEF_STEREO_COUNT>
0

> <PUBCHEM_ISOTOPIC_ATOM_COUNT>
0

> <PUBCHEM_COMPONENT_COUNT>
1

> <PUBCHEM_CACTVS_TAUTO_COUNT>
3

> <PUBCHEM_CONFORMER_ID>
000019DF00000001

> <PUBCHEM_MMFF94_ENERGY>
64.1206

> <PUBCHEM_FEATURE_SELFOVERLAP>
25.372

> <PUBCHEM_SHAPE_FINGERPRINT>
10465860 228 18265052440146906875
10498660 4 17846494807956907777
10618630 7 8862950471944920352
11046707 91 8574440819802817220
11640471 11 18410569587104953028
12138202 97 17632297942700988494
12251169 10 15719115772587467277
12491281 212 18341893034625719138
12633257 1 15647059291015153984
12788726 201 18049710021441717058
12892183 10 15719384001885322888
13571099 52 18261397711031002503
13764800 53 18340221781019704851
14251764 38 17758668950351880149
14739800 52 17985806350554812304
15061688 2 18410575084673810317
15309172 13 17822005415182549066
15342168 16 18187090559068058613
15375462 189 9295287269996453078
15534591 1 18337673126062282338
15653759 3 15068339003624658237
15775835 57 18410853261110395364
15906896 17 18264490774389428130
16945 1 17917141818369727011
17357779 13 13899614313340361589
1741750 31 18337674225716062138
17804303 29 12829490320433961629
1813 80 17692251833473259110
18186145 218 18334012757179395950
19765921 60 18411697656461014379
19868273 293 17988923409424780430
20291156 8 9223230745321134917
20361792 2 9943803365827786299
204376 136 18186802491163379179
20645476 183 18339358668581405150
20671657 53 12751245791825749096
20871999 31 16988551447065141829
21499 59 18412825772344063143
21524375 3 18410855460138945163
21713013 43 13758065299356720749
21731228 192 17894352193594983955
23184049 59 17894627041684797236
23402539 116 17774993601125170188
23557571 272 16557885966252971863
23559900 14 17561366193283564332
298252 57 18202560691760254914
3472631 163 18202563986327517557
4028521 119 17846780714954732865
4340502 62 18114473262852369283
474 4 18336547123060049707
633830 44 18410010996606913815
7364860 26 17700693965181141591
83771 10 9223230749695054610
94968 8 10663806477749826557
9981440 41 18128808828214612290

> <PUBCHEM_SHAPE_MULTIPOLES>
338.11
7.28
2.04
1.32
0.26
0.87
0
-5.89
0
-0.06
0
0
0.27
-0.69

> <PUBCHEM_SHAPE_SELFOVERLAP>
731.212

> <PUBCHEM_SHAPE_VOLUME>
187.1

> <PUBCHEM_COORDINATE_TYPE>
2
5
10

> <Energy>
42.8498

> <minimizedAffinity>
-8.74595

> <CNNscore>
0.6432015896

> <CNNaffinity>
7.1472487450

> <CNN_VS>
4.5971217155

> <CNNaffinity_variance>
0.9912682176

$$$$
6623


 19 20  0  0  0  0  0  0  0  0999 V2000
  105.1292   15.1778   24.2045 C   0  0  0  0  0  0  0  0  0  0  0  0
  106.2209   16.2601   24.4276 C   0  0  0  0  0  0  0  0  0  0  0  0
  105.5460   13.9823   25.1039 C   0  0  0  0  0  0  0  0  0  0  0  0
  104.8898   13.1345   18.8607 O   0  0  0  0  0  0  0  0  0  0  0  0
  105.0667   14.6477   22.7516 C   0  0  0  0  0  0  0  0  0  0  0  0
  104.4630   13.3985   22.4909 C   0  0  0  0  0  0  0  0  0  0  0  0
  105.5921   15.3566   21.6576 C   0  0  0  0  0  0  0  0  0  0  0  0
  104.3968   12.8759   21.1959 C   0  0  0  0  0  0  0  0  0  0  0  0
  105.5220   14.8371   20.3608 C   0  0  0  0  0  0  0  0  0  0  0  0
  104.9292   13.6026   20.1403 C   0  0  0  0  0  0  0  0  0  0  0  0
  104.4963   12.3041   18.6776 H   0  0  0  0  0  0  0  0  0  0  0  0
  100.1242   17.5845   25.5932 O   0  0  0  0  0  0  0  0  0  0  0  0
  103.7802   15.8174   24.6103 C   0  0  0  0  0  0  0  0  0  0  0  0
  102.6226   15.5486   23.8488 C   0  0  0  0  0  0  0  0  0  0  0  0
  103.6476   16.6807   25.7125 C   0  0  0  0  0  0  0  0  0  0  0  0
  101.3916   16.1315   24.1625 C   0  0  0  0  0  0  0  0  0  0  0  0
  102.4157   17.2597   26.0301 C   0  0  0  0  0  0  0  0  0  0  0  0
  101.3008   16.9867   25.2517 C   0  0  0  0  0  0  0  0  0  0  0  0
   99.3520   17.4214   25.0882 H   0  0  0  0  0  0  0  0  0  0  0  0
  4 10  1  0
  4 11  1  0
 12 18  1  0
 12 19  1  0
  1  5  1  0
  1 13  1  0
  1  2  1  0
  1  3  1  0
  5  6  2  0
  5  7  1  0
 13 14  2  0
 13 15  1  0
  6  8  1  0
 14 16  1  0
  7  9  2  0
 15 17  2  0
  8 10  2  0
 16 18  2  0
  9 10  1  0
 17 18  1  0
M  END
> <PUBCHEM_COMPOUND_CID>
6623

> <PUBCHEM_CONFORMER_RMSD>
0.6

> <PUBCHEM_CONFORMER_DIVERSEORDER>
1
3
2

> <PUBCHEM_MMFF94_PARTIAL_CHARGES>
25
1 -0.53
10 -0.15
11 -0.15
12 -0.15
13 -0.15
14 -0.15
15 -0.15
16 0.08
17 0.08
2 -0.53
24 0.15
25 0.15
26 0.15
27 0.15
28 0.15
29 0.15
3 0.29
30 0.15
31 0.15
32 0.45
33 0.45
4 -0.14
5 -0.14
8 -0.15
9 -0.15

> <PUBCHEM_EFFECTIVE_ROTOR_COUNT>
2

> <PUBCHEM_PHARMACOPHORE_FEATURES>
5
1 1 donor
1 2 donor
3 3 6 7 hydrophobe
6 4 8 10 12 14 16 rings
6 5 9 11 13 15 17 rings

> <PUBCHEM_HEAVY_ATOM_COUNT>
17

> <PUBCHEM_ATOM_DEF_STEREO_COUNT>
0

> <PUBCHEM_ATOM_UDEF_STEREO_COUNT>
0

> <PUBCHEM_BOND_DEF_STEREO_COUNT>
0

> <PUBCHEM_BOND_UDEF_STEREO_COUNT>
0

> <PUBCHEM_ISOTOPIC_ATOM_COUNT>
0

> <PUBCHEM_COMPONENT_COUNT>
1

> <PUBCHEM_CACTVS_TAUTO_COUNT>
3

> <PUBCHEM_CONFORMER_ID>
000019DF00000001

> <PUBCHEM_MMFF94_ENERGY>
64.1206

> <PUBCHEM_FEATURE_SELFOVERLAP>
25.372

> <PUBCHEM_SHAPE_FINGERPRINT>
10465860 228 18265052440146906875
10498660 4 17846494807956907777
10618630 7 8862950471944920352
11046707 91 8574440819802817220
11640471 11 18410569587104953028
12138202 97 17632297942700988494
12251169 10 15719115772587467277
12491281 212 18341893034625719138
12633257 1 15647059291015153984
12788726 201 18049710021441717058
12892183 10 15719384001885322888
13571099 52 18261397711031002503
13764800 53 18340221781019704851
14251764 38 17758668950351880149
14739800 52 17985806350554812304
15061688 2 18410575084673810317
15309172 13 17822005415182549066
15342168 16 18187090559068058613
15375462 189 9295287269996453078
15534591 1 18337673126062282338
15653759 3 15068339003624658237
15775835 57 18410853261110395364
15906896 17 18264490774389428130
16945 1 17917141818369727011
17357779 13 13899614313340361589
1741750 31 18337674225716062138
17804303 29 12829490320433961629
1813 80 17692251833473259110
18186145 218 18334012757179395950
19765921 60 18411697656461014379
19868273 293 17988923409424780430
20291156 8 9223230745321134917
20361792 2 9943803365827786299
204376 136 18186802491163379179
20645476 183 18339358668581405150
20671657 53 12751245791825749096
20871999 31 16988551447065141829
21499 59 18412825772344063143
21524375 3 18410855460138945163
21713013 43 13758065299356720749
21731228 192 17894352193594983955
23184049 59 17894627041684797236
23402539 116 17774993601125170188
23557571 272 16557885966252971863
23559900 14 17561366193283564332
298252 57 18202560691760254914
3472631 163 18202563986327517557
4028521 119 17846780714954732865
4340502 62 18114473262852369283
474 4 18336547123060049707
633830 44 18410010996606913815
7364860 26 17700693965181141591
83771 10 9223230749695054610
94968 8 10663806477749826557
9981440 41 18128808828214612290

> <PUBCHEM_SHAPE_MULTIPOLES>
338.11
7.28
2.04
1.32
0.26
0.87
0
-5.89
0
-0.06
0
0
0.27
-0.69

> <PUBCHEM_SHAPE_SELFOVERLAP>
731.212

> <PUBCHEM_SHAPE_VOLUME>
187.1

> <PUBCHEM_COORDINATE_TYPE>
2
5
10

> <Energy>
42.8498

> <minimizedAffinity>
-8.59835

> <CNNscore>
0.6404753923

> <CNNaffinity>
7.2065396309

> <CNN_VS>
4.6156110764

> <CNNaffinity_variance>
1.0904365778

$$$$
6623


 19 20  0  0  0  0  0  0  0  0999 V2000
  105.9786   14.7457   25.2209 C   0  0  0  0  0  0  0  0  0  0  0  0
  107.2546   15.5969   25.4666 C   0  0  0  0  0  0  0  0  0  0  0  0
  105.8350   13.8478   26.4799 C   0  0  0  0  0  0  0  0  0  0  0  0
  106.4418   11.1894   20.7570 O   0  0  0  0  0  0  0  0  0  0  0  0
  106.0882   13.7979   24.0022 C   0  0  0  0  0  0  0  0  0  0  0  0
  106.5202   12.4672   24.1908 C   0  0  0  0  0  0  0  0  0  0  0  0
  105.7774   14.2008   22.6921 C   0  0  0  0  0  0  0  0  0  0  0  0
  106.6464   11.5815   23.1166 C   0  0  0  0  0  0  0  0  0  0  0  0
  105.8984   13.3140   21.6170 C   0  0  0  0  0  0  0  0  0  0  0  0
  106.3336   12.0153   21.8360 C   0  0  0  0  0  0  0  0  0  0  0  0
  106.7329   10.3060   20.8705 H   0  0  0  0  0  0  0  0  0  0  0  0
  101.6961   18.4969   24.6207 O   0  0  0  0  0  0  0  0  0  0  0  0
  104.8095   15.7417   25.0340 C   0  0  0  0  0  0  0  0  0  0  0  0
  105.0807   17.1210   24.9062 C   0  0  0  0  0  0  0  0  0  0  0  0
  103.4630   15.3376   24.9978 C   0  0  0  0  0  0  0  0  0  0  0  0
  104.0518   18.0568   24.7680 C   0  0  0  0  0  0  0  0  0  0  0  0
  102.4338   16.2723   24.8541 C   0  0  0  0  0  0  0  0  0  0  0  0
  102.7340   17.6220   24.7466 C   0  0  0  0  0  0  0  0  0  0  0  0
  101.8643   19.4156   24.5459 H   0  0  0  0  0  0  0  0  0  0  0  0
  4 10  1  0
  4 11  1  0
 12 18  1  0
 12 19  1  0
  1  5  1  0
  1 13  1  0
  1  2  1  0
  1  3  1  0
  5  6  2  0
  5  7  1  0
 13 14  2  0
 13 15  1  0
  6  8  1  0
 14 16  1  0
  7  9  2  0
 15 17  2  0
  8 10  2  0
 16 18  2  0
  9 10  1  0
 17 18  1  0
M  END
> <PUBCHEM_COMPOUND_CID>
6623

> <PUBCHEM_CONFORMER_RMSD>
0.6

> <PUBCHEM_CONFORMER_DIVERSEORDER>
1
3
2

> <PUBCHEM_MMFF94_PARTIAL_CHARGES>
25
1 -0.53
10 -0.15
11 -0.15
12 -0.15
13 -0.15
14 -0.15
15 -0.15
16 0.08
17 0.08
2 -0.53
24 0.15
25 0.15
26 0.15
27 0.15
28 0.15
29 0.15
3 0.29
30 0.15
31 0.15
32 0.45
33 0.45
4 -0.14
5 -0.14
8 -0.15
9 -0.15

> <PUBCHEM_EFFECTIVE_ROTOR_COUNT>
2

> <PUBCHEM_PHARMACOPHORE_FEATURES>
5
1 1 donor
1 2 donor
3 3 6 7 hydrophobe
6 4 8 10 12 14 16 rings
6 5 9 11 13 15 17 rings

> <PUBCHEM_HEAVY_ATOM_COUNT>
17

> <PUBCHEM_ATOM_DEF_STEREO_COUNT>
0

> <PUBCHEM_ATOM_UDEF_STEREO_COUNT>
0

> <PUBCHEM_BOND_DEF_STEREO_COUNT>
0

> <PUBCHEM_BOND_UDEF_STEREO_COUNT>
0

> <PUBCHEM_ISOTOPIC_ATOM_COUNT>
0

> <PUBCHEM_COMPONENT_COUNT>
1

> <PUBCHEM_CACTVS_TAUTO_COUNT>
3

> <PUBCHEM_CONFORMER_ID>
000019DF00000001

> <PUBCHEM_MMFF94_ENERGY>
64.1206

> <PUBCHEM_FEATURE_SELFOVERLAP>
25.372

> <PUBCHEM_SHAPE_FINGERPRINT>
10465860 228 18265052440146906875
10498660 4 17846494807956907777
10618630 7 8862950471944920352
11046707 91 8574440819802817220
11640471 11 18410569587104953028
12138202 97 17632297942700988494
12251169 10 15719115772587467277
12491281 212 18341893034625719138
12633257 1 15647059291015153984
12788726 201 18049710021441717058
12892183 10 15719384001885322888
13571099 52 18261397711031002503
13764800 53 18340221781019704851
14251764 38 17758668950351880149
14739800 52 17985806350554812304
15061688 2 18410575084673810317
15309172 13 17822005415182549066
15342168 16 18187090559068058613
15375462 189 9295287269996453078
15534591 1 18337673126062282338
15653759 3 15068339003624658237
15775835 57 18410853261110395364
15906896 17 18264490774389428130
16945 1 17917141818369727011
17357779 13 13899614313340361589
1741750 31 18337674225716062138
17804303 29 12829490320433961629
1813 80 17692251833473259110
18186145 218 18334012757179395950
19765921 60 18411697656461014379
19868273 293 17988923409424780430
20291156 8 9223230745321134917
20361792 2 9943803365827786299
204376 136 18186802491163379179
20645476 183 18339358668581405150
20671657 53 12751245791825749096
20871999 31 16988551447065141829
21499 59 18412825772344063143
21524375 3 18410855460138945163
21713013 43 13758065299356720749
21731228 192 17894352193594983955
23184049 59 17894627041684797236
23402539 116 17774993601125170188
23557571 272 16557885966252971863
23559900 14 17561366193283564332
298252 57 18202560691760254914
3472631 163 18202563986327517557
4028521 119 17846780714954732865
4340502 62 18114473262852369283
474 4 18336547123060049707
633830 44 18410010996606913815
7364860 26 17700693965181141591
83771 10 9223230749695054610
94968 8 10663806477749826557
9981440 41 18128808828214612290

> <PUBCHEM_SHAPE_MULTIPOLES>
338.11
7.28
2.04
1.32
0.26
0.87
0
-5.89
0
-0.06
0
0
0.27
-0.69

> <PUBCHEM_SHAPE_SELFOVERLAP>
731.212

> <PUBCHEM_SHAPE_VOLUME>
187.1

> <PUBCHEM_COORDINATE_TYPE>
2
5
10

> <Energy>
42.8498

> <minimizedAffinity>
-8.37240

> <CNNscore>
0.6021601558

> <CNNaffinity>
7.3813538551

> <CNN_VS>
4.4447569847

> <CNNaffinity_variance>
1.6625313759

$$$$
6623


 19 20  0  0  0  0  0  0  0  0999 V2000
  104.9194   14.9205   22.2239 C   0  0  0  0  0  0  0  0  0  0  0  0
  104.2115   14.5415   20.8940 C   0  0  0  0  0  0  0  0  0  0  0  0
  106.0558   15.8989   21.8200 C   0  0  0  0  0  0  0  0  0  0  0  0
  107.3379   10.4285   24.8242 O   0  0  0  0  0  0  0  0  0  0  0  0
  105.5901   13.7207   22.9354 C   0  0  0  0  0  0  0  0  0  0  0  0
  105.3518   12.4105   22.4668 C   0  0  0  0  0  0  0  0  0  0  0  0
  106.4378   13.8694   24.0465 C   0  0  0  0  0  0  0  0  0  0  0  0
  105.9263   11.2974   23.0876 C   0  0  0  0  0  0  0  0  0  0  0  0
  107.0173   12.7568   24.6655 C   0  0  0  0  0  0  0  0  0  0  0  0
  106.7557   11.4823   24.1848 C   0  0  0  0  0  0  0  0  0  0  0  0
  107.1818    9.5545   24.5246 H   0  0  0  0  0  0  0  0  0  0  0  0
  100.8810   17.3314   25.4872 O   0  0  0  0  0  0  0  0  0  0  0  0
  103.8439   15.5619   23.1325 C   0  0  0  0  0  0  0  0  0  0  0  0
  102.4802   15.2722   22.9119 C   0  0  0  0  0  0  0  0  0  0  0  0
  104.1598   16.4468   24.1787 C   0  0  0  0  0  0  0  0  0  0  0  0
  101.4757   15.8555   23.6893 C   0  0  0  0  0  0  0  0  0  0  0  0
  103.1562   17.0263   24.9601 C   0  0  0  0  0  0  0  0  0  0  0  0
  101.8247   16.7323   24.7069 C   0  0  0  0  0  0  0  0  0  0  0  0
   99.9723   17.1544   25.3426 H   0  0  0  0  0  0  0  0  0  0  0  0
  4 10  1  0
  4 11  1  0
 12 18  1  0
 12 19  1  0
  1  5  1  0
  1 13  1  0
  1  2  1  0
  1  3  1  0
  5  6  2  0
  5  7  1  0
 13 14  2  0
 13 15  1  0
  6  8  1  0
 14 16  1  0
  7  9  2  0
 15 17  2  0
  8 10  2  0
 16 18  2  0
  9 10  1  0
 17 18  1  0
M  END
> <PUBCHEM_COMPOUND_CID>
6623

> <PUBCHEM_CONFORMER_RMSD>
0.6

> <PUBCHEM_CONFORMER_DIVERSEORDER>
1
3
2

> <PUBCHEM_MMFF94_PARTIAL_CHARGES>
25
1 -0.53
10 -0.15
11 -0.15
12 -0.15
13 -0.15
14 -0.15
15 -0.15
16 0.08
17 0.08
2 -0.53
24 0.15
25 0.15
26 0.15
27 0.15
28 0.15
29 0.15
3 0.29
30 0.15
31 0.15
32 0.45
33 0.45
4 -0.14
5 -0.14
8 -0.15
9 -0.15

> <PUBCHEM_EFFECTIVE_ROTOR_COUNT>
2

> <PUBCHEM_PHARMACOPHORE_FEATURES>
5
1 1 donor
1 2 donor
3 3 6 7 hydrophobe
6 4 8 10 12 14 16 rings
6 5 9 11 13 15 17 rings

> <PUBCHEM_HEAVY_ATOM_COUNT>
17

> <PUBCHEM_ATOM_DEF_STEREO_COUNT>
0

> <PUBCHEM_ATOM_UDEF_STEREO_COUNT>
0

> <PUBCHEM_BOND_DEF_STEREO_COUNT>
0

> <PUBCHEM_BOND_UDEF_STEREO_COUNT>
0

> <PUBCHEM_ISOTOPIC_ATOM_COUNT>
0

> <PUBCHEM_COMPONENT_COUNT>
1

> <PUBCHEM_CACTVS_TAUTO_COUNT>
3

> <PUBCHEM_CONFORMER_ID>
000019DF00000001

> <PUBCHEM_MMFF94_ENERGY>
64.1206

> <PUBCHEM_FEATURE_SELFOVERLAP>
25.372

> <PUBCHEM_SHAPE_FINGERPRINT>
10465860 228 18265052440146906875
10498660 4 17846494807956907777
10618630 7 8862950471944920352
11046707 91 8574440819802817220
11640471 11 18410569587104953028
12138202 97 17632297942700988494
12251169 10 15719115772587467277
12491281 212 18341893034625719138
12633257 1 15647059291015153984
12788726 201 18049710021441717058
12892183 10 15719384001885322888
13571099 52 18261397711031002503
13764800 53 18340221781019704851
14251764 38 17758668950351880149
14739800 52 17985806350554812304
15061688 2 18410575084673810317
15309172 13 17822005415182549066
15342168 16 18187090559068058613
15375462 189 9295287269996453078
15534591 1 18337673126062282338
15653759 3 15068339003624658237
15775835 57 18410853261110395364
15906896 17 18264490774389428130
16945 1 17917141818369727011
17357779 13 13899614313340361589
1741750 31 18337674225716062138
17804303 29 12829490320433961629
1813 80 17692251833473259110
18186145 218 18334012757179395950
19765921 60 18411697656461014379
19868273 293 17988923409424780430
20291156 8 9223230745321134917
20361792 2 9943803365827786299
204376 136 18186802491163379179
20645476 183 18339358668581405150
20671657 53 12751245791825749096
20871999 31 16988551447065141829
21499 59 18412825772344063143
21524375 3 18410855460138945163
21713013 43 13758065299356720749
21731228 192 17894352193594983955
23184049 59 17894627041684797236
23402539 116 17774993601125170188
23557571 272 16557885966252971863
23559900 14 17561366193283564332
298252 57 18202560691760254914
3472631 163 18202563986327517557
4028521 119 17846780714954732865
4340502 62 18114473262852369283
474 4 18336547123060049707
633830 44 18410010996606913815
7364860 26 17700693965181141591
83771 10 9223230749695054610
94968 8 10663806477749826557
9981440 41 18128808828214612290

> <PUBCHEM_SHAPE_MULTIPOLES>
338.11
7.28
2.04
1.32
0.26
0.87
0
-5.89
0
-0.06
0
0
0.27
-0.69

> <PUBCHEM_SHAPE_SELFOVERLAP>
731.212

> <PUBCHEM_SHAPE_VOLUME>
187.1

> <PUBCHEM_COORDINATE_TYPE>
2
5
10

> <Energy>
42.8498

> <minimizedAffinity>
-8.66493

> <CNNscore>
0.5087969303

> <CNNaffinity>
6.9551396370

> <CNN_VS>
3.5387537479

> <CNNaffinity_variance>
1.1267559528

$$$$
