8814


 16 16  0  0  0  0  0  0  0  0999 V2000
  105.3637   15.2510   23.7632 C   0  0  0  0  0  0  0  0  0  0  0  0
  106.5065   15.9541   24.5577 C   0  0  0  0  0  0  0  0  0  0  0  0
  105.6970   15.5182   22.2769 C   0  0  0  0  0  0  0  0  0  0  0  0
  100.4606   17.5473   25.5904 O   0  0  0  0  0  0  0  0  0  0  0  0
  104.0432   15.8816   24.2305 C   0  0  0  0  0  0  0  0  0  0  0  0
  104.0216   16.7176   25.3675 C   0  0  0  0  0  0  0  0  0  0  0  0
  102.8235   15.6550   23.5708 C   0  0  0  0  0  0  0  0  0  0  0  0
  102.8330   17.2840   25.8352 C   0  0  0  0  0  0  0  0  0  0  0  0
  101.6338   16.2185   24.0373 C   0  0  0  0  0  0  0  0  0  0  0  0
  101.6469   17.0250   25.1667 C   0  0  0  0  0  0  0  0  0  0  0  0
  100.4347   18.0959   26.3496 H   0  0  0  0  0  0  0  0  0  0  0  0
  105.4520   13.7159   24.0864 C   0  0  0  0  0  0  0  0  0  0  0  0
  106.6005   12.7893   23.5596 C   0  0  0  0  0  0  0  0  0  0  0  0
  106.0757   12.1223   22.2633 C   0  0  0  0  0  0  0  0  0  0  0  0
  106.9618   11.6663   24.5420 C   0  0  0  0  0  0  0  0  0  0  0  0
  107.8833   13.5460   23.1809 C   0  0  0  0  0  0  0  0  0  0  0  0
  4 10  1  0
  4 11  1  0
  1 12  1  0
  1  5  1  0
  1  2  1  0
  1  3  1  0
 13 12  1  0
 13 14  1  0
 13 15  1  0
 13 16  1  0
  5  6  2  0
  5  7  1  0
  6  8  1  0
  7  9  2  0
  8 10  2  0
  9 10  1  0
M  END
> <PUBCHEM_COMPOUND_CID>
8814

> <PUBCHEM_CONFORMER_RMSD>
0.6

> <PUBCHEM_CONFORMER_DIVERSEORDER>
1
5
4
3
2

> <PUBCHEM_MMFF94_PARTIAL_CHARGES>
13
1 -0.53
11 -0.15
12 -0.15
13 -0.15
14 -0.15
15 0.08
2 0.14
33 0.15
34 0.15
35 0.15
36 0.15
37 0.45
5 -0.14

> <PUBCHEM_EFFECTIVE_ROTOR_COUNT>
3

> <PUBCHEM_PHARMACOPHORE_FEATURES>
4
1 1 donor
3 2 6 7 hydrophobe
4 3 8 9 10 hydrophobe
6 5 11 12 13 14 15 rings

> <PUBCHEM_HEAVY_ATOM_COUNT>
15

> <PUBCHEM_ATOM_DEF_STEREO_COUNT>
0

> <PUBCHEM_ATOM_UDEF_STEREO_COUNT>
0

> <PUBCHEM_BOND_DEF_STEREO_COUNT>
0

> <PUBCHEM_BOND_UDEF_STEREO_COUNT>
0

> <PUBCHEM_ISOTOPIC_ATOM_COUNT>
0

> <PUBCHEM_COMPONENT_COUNT>
1

> <PUBCHEM_CACTVS_TAUTO_COUNT>
2

> <PUBCHEM_CONFORMER_ID>
0000226E00000001

> <PUBCHEM_MMFF94_ENERGY>
60.6732

> <PUBCHEM_FEATURE_SELFOVERLAP>
20.297

> <PUBCHEM_SHAPE_FINGERPRINT>
1 1 18122065299635933247
11471102 22 13984658170435925480
12138202 97 18272929444633088966
12251169 10 14923953348599690641
12423570 1 15084294979065354379
124424 183 18201999928641116818
12491281 212 18273493468196309381
12532896 13 18409735040726507851
13299463 15 16200422598337566991
13538477 17 17822291326855117498
13764800 53 18335714831507604569
13839132 238 18413110537123213324
14817 1 11689340854733718479
15375462 478 15647061443078261877
15775835 57 18339078194495494345
16945 1 17988065786023185643
18186145 218 18200036118541666588
18534176 82 18271243927656786518
19837323 101 18335708272823803859
20525323 117 18337111292773698462
20645476 183 17894351081266785547
21296965 12 18260545576729377063
21501502 16 18271800211963701222
21524375 3 18339638928324873163
21947302 44 18059017168310697110
22802520 49 18199766781279703998
23402539 116 18267296706830970519
23419403 2 17194099544908694927
23557571 272 18198918083120765556
23559900 14 18342742906418193234
25 1 17845383149850037993
2748010 2 18262817159083630983
276578 36 18189342281366350763
305870 269 18040992882718168402
430814 3 18041565736850213531
549884 4 17416683544816290937
6333449 129 18343582975122638285
6442390 28 18269297706777891659
7364860 26 17834677097914689979
81228 2 18191593162379223291

> <PUBCHEM_SHAPE_MULTIPOLES>
302.82
5.29
2.15
1.39
2.11
0.81
0.13
-3.45
0.34
-1.29
-0.24
-0.12
0.26
0.01

> <PUBCHEM_SHAPE_SELFOVERLAP>
615.427

> <PUBCHEM_SHAPE_VOLUME>
178.4

> <PUBCHEM_COORDINATE_TYPE>
2
5
10

> <Energy>
46.4329

> <minimizedAffinity>
-7.85126

> <CNNscore>
0.9352632165

> <CNNaffinity>
7.3792953491

> <CNN_VS>
6.9015836716

> <CNNaffinity_variance>
1.2819567919

$$$$
8814


 16 16  0  0  0  0  0  0  0  0999 V2000
  104.6316   14.8220   22.8459 C   0  0  0  0  0  0  0  0  0  0  0  0
  105.8258   15.8177   22.7269 C   0  0  0  0  0  0  0  0  0  0  0  0
  104.2624   14.4753   21.3847 C   0  0  0  0  0  0  0  0  0  0  0  0
  100.4790   17.5927   25.6264 O   0  0  0  0  0  0  0  0  0  0  0  0
  103.5193   15.5505   23.6152 C   0  0  0  0  0  0  0  0  0  0  0  0
  102.1970   15.5449   23.1215 C   0  0  0  0  0  0  0  0  0  0  0  0
  103.7605   16.2472   24.8114 C   0  0  0  0  0  0  0  0  0  0  0  0
  101.1680   16.2212   23.7820 C   0  0  0  0  0  0  0  0  0  0  0  0
  102.7340   16.9254   25.4723 C   0  0  0  0  0  0  0  0  0  0  0  0
  101.4477   16.9103   24.9514 C   0  0  0  0  0  0  0  0  0  0  0  0
   99.6001   17.6026   25.3016 H   0  0  0  0  0  0  0  0  0  0  0  0
  105.1622   13.5513   23.6027 C   0  0  0  0  0  0  0  0  0  0  0  0
  106.0019   12.4243   22.9101 C   0  0  0  0  0  0  0  0  0  0  0  0
  104.9895   11.3886   22.3597 C   0  0  0  0  0  0  0  0  0  0  0  0
  106.9323   11.6870   23.8836 C   0  0  0  0  0  0  0  0  0  0  0  0
  106.8297   12.9151   21.7120 C   0  0  0  0  0  0  0  0  0  0  0  0
  4 10  1  0
  4 11  1  0
  1 12  1  0
  1  5  1  0
  1  2  1  0
  1  3  1  0
 13 12  1  0
 13 14  1  0
 13 15  1  0
 13 16  1  0
  5  6  2  0
  5  7  1  0
  6  8  1  0
  7  9  2  0
  8 10  2  0
  9 10  1  0
M  END
> <PUBCHEM_COMPOUND_CID>
8814

> <PUBCHEM_CONFORMER_RMSD>
0.6

> <PUBCHEM_CONFORMER_DIVERSEORDER>
1
5
4
3
2

> <PUBCHEM_MMFF94_PARTIAL_CHARGES>
13
1 -0.53
11 -0.15
12 -0.15
13 -0.15
14 -0.15
15 0.08
2 0.14
33 0.15
34 0.15
35 0.15
36 0.15
37 0.45
5 -0.14

> <PUBCHEM_EFFECTIVE_ROTOR_COUNT>
3

> <PUBCHEM_PHARMACOPHORE_FEATURES>
4
1 1 donor
3 2 6 7 hydrophobe
4 3 8 9 10 hydrophobe
6 5 11 12 13 14 15 rings

> <PUBCHEM_HEAVY_ATOM_COUNT>
15

> <PUBCHEM_ATOM_DEF_STEREO_COUNT>
0

> <PUBCHEM_ATOM_UDEF_STEREO_COUNT>
0

> <PUBCHEM_BOND_DEF_STEREO_COUNT>
0

> <PUBCHEM_BOND_UDEF_STEREO_COUNT>
0

> <PUBCHEM_ISOTOPIC_ATOM_COUNT>
0

> <PUBCHEM_COMPONENT_COUNT>
1

> <PUBCHEM_CACTVS_TAUTO_COUNT>
2

> <PUBCHEM_CONFORMER_ID>
0000226E00000001

> <PUBCHEM_MMFF94_ENERGY>
60.6732

> <PUBCHEM_FEATURE_SELFOVERLAP>
20.297

> <PUBCHEM_SHAPE_FINGERPRINT>
1 1 18122065299635933247
11471102 22 13984658170435925480
12138202 97 18272929444633088966
12251169 10 14923953348599690641
12423570 1 15084294979065354379
124424 183 18201999928641116818
12491281 212 18273493468196309381
12532896 13 18409735040726507851
13299463 15 16200422598337566991
13538477 17 17822291326855117498
13764800 53 18335714831507604569
13839132 238 18413110537123213324
14817 1 11689340854733718479
15375462 478 15647061443078261877
15775835 57 18339078194495494345
16945 1 17988065786023185643
18186145 218 18200036118541666588
18534176 82 18271243927656786518
19837323 101 18335708272823803859
20525323 117 18337111292773698462
20645476 183 17894351081266785547
21296965 12 18260545576729377063
21501502 16 18271800211963701222
21524375 3 18339638928324873163
21947302 44 18059017168310697110
22802520 49 18199766781279703998
23402539 116 18267296706830970519
23419403 2 17194099544908694927
23557571 272 18198918083120765556
23559900 14 18342742906418193234
25 1 17845383149850037993
2748010 2 18262817159083630983
276578 36 18189342281366350763
305870 269 18040992882718168402
430814 3 18041565736850213531
549884 4 17416683544816290937
6333449 129 18343582975122638285
6442390 28 18269297706777891659
7364860 26 17834677097914689979
81228 2 18191593162379223291

> <PUBCHEM_SHAPE_MULTIPOLES>
302.82
5.29
2.15
1.39
2.11
0.81
0.13
-3.45
0.34
-1.29
-0.24
-0.12
0.26
0.01

> <PUBCHEM_SHAPE_SELFOVERLAP>
615.427

> <PUBCHEM_SHAPE_VOLUME>
178.4

> <PUBCHEM_COORDINATE_TYPE>
2
5
10

> <Energy>
46.4329

> <minimizedAffinity>
-8.11335

> <CNNscore>
0.9324402809

> <CNNaffinity>
7.3598976135

> <CNN_VS>
6.8626651764

> <CNNaffinity_variance>
1.1669088602

$$$$
8814


 16 16  0  0  0  0  0  0  0  0999 V2000
  104.7009   14.7587   22.7438 C   0  0  0  0  0  0  0  0  0  0  0  0
  105.8367   15.7906   22.4662 C   0  0  0  0  0  0  0  0  0  0  0  0
  104.3022   14.2285   21.3468 C   0  0  0  0  0  0  0  0  0  0  0  0
  100.5383   17.5180   25.5206 O   0  0  0  0  0  0  0  0  0  0  0  0
  103.5781   15.5165   23.4682 C   0  0  0  0  0  0  0  0  0  0  0  0
  103.8548   16.2232   24.6583 C   0  0  0  0  0  0  0  0  0  0  0  0
  102.2542   15.5343   22.9980 C   0  0  0  0  0  0  0  0  0  0  0  0
  102.8507   16.8991   25.3565 C   0  0  0  0  0  0  0  0  0  0  0  0
  101.2485   16.2076   23.6951 C   0  0  0  0  0  0  0  0  0  0  0  0
  101.5534   16.8812   24.8696 C   0  0  0  0  0  0  0  0  0  0  0  0
  100.7103   17.9821   26.3163 H   0  0  0  0  0  0  0  0  0  0  0  0
  105.3222   13.6108   23.6186 C   0  0  0  0  0  0  0  0  0  0  0  0
  106.1112   12.3990   23.0153 C   0  0  0  0  0  0  0  0  0  0  0  0
  105.0549   11.4174   22.4483 C   0  0  0  0  0  0  0  0  0  0  0  0
  106.9321   11.6368   24.0651 C   0  0  0  0  0  0  0  0  0  0  0  0
  107.0346   12.7797   21.8475 C   0  0  0  0  0  0  0  0  0  0  0  0
  4 10  1  0
  4 11  1  0
  1 12  1  0
  1  5  1  0
  1  2  1  0
  1  3  1  0
 13 12  1  0
 13 14  1  0
 13 15  1  0
 13 16  1  0
  5  6  2  0
  5  7  1  0
  6  8  1  0
  7  9  2  0
  8 10  2  0
  9 10  1  0
M  END
> <PUBCHEM_COMPOUND_CID>
8814

> <PUBCHEM_CONFORMER_RMSD>
0.6

> <PUBCHEM_CONFORMER_DIVERSEORDER>
1
5
4
3
2

> <PUBCHEM_MMFF94_PARTIAL_CHARGES>
13
1 -0.53
11 -0.15
12 -0.15
13 -0.15
14 -0.15
15 0.08
2 0.14
33 0.15
34 0.15
35 0.15
36 0.15
37 0.45
5 -0.14

> <PUBCHEM_EFFECTIVE_ROTOR_COUNT>
3

> <PUBCHEM_PHARMACOPHORE_FEATURES>
4
1 1 donor
3 2 6 7 hydrophobe
4 3 8 9 10 hydrophobe
6 5 11 12 13 14 15 rings

> <PUBCHEM_HEAVY_ATOM_COUNT>
15

> <PUBCHEM_ATOM_DEF_STEREO_COUNT>
0

> <PUBCHEM_ATOM_UDEF_STEREO_COUNT>
0

> <PUBCHEM_BOND_DEF_STEREO_COUNT>
0

> <PUBCHEM_BOND_UDEF_STEREO_COUNT>
0

> <PUBCHEM_ISOTOPIC_ATOM_COUNT>
0

> <PUBCHEM_COMPONENT_COUNT>
1

> <PUBCHEM_CACTVS_TAUTO_COUNT>
2

> <PUBCHEM_CONFORMER_ID>
0000226E00000001

> <PUBCHEM_MMFF94_ENERGY>
60.6732

> <PUBCHEM_FEATURE_SELFOVERLAP>
20.297

> <PUBCHEM_SHAPE_FINGERPRINT>
1 1 18122065299635933247
11471102 22 13984658170435925480
12138202 97 18272929444633088966
12251169 10 14923953348599690641
12423570 1 15084294979065354379
124424 183 18201999928641116818
12491281 212 18273493468196309381
12532896 13 18409735040726507851
13299463 15 16200422598337566991
13538477 17 17822291326855117498
13764800 53 18335714831507604569
13839132 238 18413110537123213324
14817 1 11689340854733718479
15375462 478 15647061443078261877
15775835 57 18339078194495494345
16945 1 17988065786023185643
18186145 218 18200036118541666588
18534176 82 18271243927656786518
19837323 101 18335708272823803859
20525323 117 18337111292773698462
20645476 183 17894351081266785547
21296965 12 18260545576729377063
21501502 16 18271800211963701222
21524375 3 18339638928324873163
21947302 44 18059017168310697110
22802520 49 18199766781279703998
23402539 116 18267296706830970519
23419403 2 17194099544908694927
23557571 272 18198918083120765556
23559900 14 18342742906418193234
25 1 17845383149850037993
2748010 2 18262817159083630983
276578 36 18189342281366350763
305870 269 18040992882718168402
430814 3 18041565736850213531
549884 4 17416683544816290937
6333449 129 18343582975122638285
6442390 28 18269297706777891659
7364860 26 17834677097914689979
81228 2 18191593162379223291

> <PUBCHEM_SHAPE_MULTIPOLES>
302.82
5.29
2.15
1.39
2.11
0.81
0.13
-3.45
0.34
-1.29
-0.24
-0.12
0.26
0.01

> <PUBCHEM_SHAPE_SELFOVERLAP>
615.427

> <PUBCHEM_SHAPE_VOLUME>
178.4

> <PUBCHEM_COORDINATE_TYPE>
2
5
10

> <Energy>
46.4329

> <minimizedAffinity>
-8.00036

> <CNNscore>
0.9274061918

> <CNNaffinity>
7.3392219543

> <CNN_VS>
6.8064398766

> <CNNaffinity_variance>
1.1672631502

$$$$
8814


 16 16  0  0  0  0  0  0  0  0999 V2000
  105.4644   15.2652   23.7949 C   0  0  0  0  0  0  0  0  0  0  0  0
  106.5491   15.9920   24.6475 C   0  0  0  0  0  0  0  0  0  0  0  0
  105.8337   15.5915   22.3290 C   0  0  0  0  0  0  0  0  0  0  0  0
  100.3927   17.3937   25.3440 O   0  0  0  0  0  0  0  0  0  0  0  0
  104.1032   15.8244   24.2355 C   0  0  0  0  0  0  0  0  0  0  0  0
  102.9374   15.5045   23.5069 C   0  0  0  0  0  0  0  0  0  0  0  0
  103.9585   16.6669   25.3507 C   0  0  0  0  0  0  0  0  0  0  0  0
  101.6885   16.0192   23.8644 C   0  0  0  0  0  0  0  0  0  0  0  0
  102.7116   17.1840   25.7089 C   0  0  0  0  0  0  0  0  0  0  0  0
  101.5879   16.8595   24.9619 C   0  0  0  0  0  0  0  0  0  0  0  0
   99.6148   17.1946   24.8611 H   0  0  0  0  0  0  0  0  0  0  0  0
  105.6091   13.7261   24.0763 C   0  0  0  0  0  0  0  0  0  0  0  0
  106.8038   12.8621   23.5460 C   0  0  0  0  0  0  0  0  0  0  0  0
  106.4888   12.5264   22.0665 C   0  0  0  0  0  0  0  0  0  0  0  0
  106.9606   11.5323   24.2970 C   0  0  0  0  0  0  0  0  0  0  0  0
  108.1533   13.5971   23.5561 C   0  0  0  0  0  0  0  0  0  0  0  0
  4 10  1  0
  4 11  1  0
  1 12  1  0
  1  5  1  0
  1  2  1  0
  1  3  1  0
 13 12  1  0
 13 14  1  0
 13 15  1  0
 13 16  1  0
  5  6  2  0
  5  7  1  0
  6  8  1  0
  7  9  2  0
  8 10  2  0
  9 10  1  0
M  END
> <PUBCHEM_COMPOUND_CID>
8814

> <PUBCHEM_CONFORMER_RMSD>
0.6

> <PUBCHEM_CONFORMER_DIVERSEORDER>
1
5
4
3
2

> <PUBCHEM_MMFF94_PARTIAL_CHARGES>
13
1 -0.53
11 -0.15
12 -0.15
13 -0.15
14 -0.15
15 0.08
2 0.14
33 0.15
34 0.15
35 0.15
36 0.15
37 0.45
5 -0.14

> <PUBCHEM_EFFECTIVE_ROTOR_COUNT>
3

> <PUBCHEM_PHARMACOPHORE_FEATURES>
4
1 1 donor
3 2 6 7 hydrophobe
4 3 8 9 10 hydrophobe
6 5 11 12 13 14 15 rings

> <PUBCHEM_HEAVY_ATOM_COUNT>
15

> <PUBCHEM_ATOM_DEF_STEREO_COUNT>
0

> <PUBCHEM_ATOM_UDEF_STEREO_COUNT>
0

> <PUBCHEM_BOND_DEF_STEREO_COUNT>
0

> <PUBCHEM_BOND_UDEF_STEREO_COUNT>
0

> <PUBCHEM_ISOTOPIC_ATOM_COUNT>
0

> <PUBCHEM_COMPONENT_COUNT>
1

> <PUBCHEM_CACTVS_TAUTO_COUNT>
2

> <PUBCHEM_CONFORMER_ID>
0000226E00000001

> <PUBCHEM_MMFF94_ENERGY>
60.6732

> <PUBCHEM_FEATURE_SELFOVERLAP>
20.297

> <PUBCHEM_SHAPE_FINGERPRINT>
1 1 18122065299635933247
11471102 22 13984658170435925480
12138202 97 18272929444633088966
12251169 10 14923953348599690641
12423570 1 15084294979065354379
124424 183 18201999928641116818
12491281 212 18273493468196309381
12532896 13 18409735040726507851
13299463 15 16200422598337566991
13538477 17 17822291326855117498
13764800 53 18335714831507604569
13839132 238 18413110537123213324
14817 1 11689340854733718479
15375462 478 15647061443078261877
15775835 57 18339078194495494345
16945 1 17988065786023185643
18186145 218 18200036118541666588
18534176 82 18271243927656786518
19837323 101 18335708272823803859
20525323 117 18337111292773698462
20645476 183 17894351081266785547
21296965 12 18260545576729377063
21501502 16 18271800211963701222
21524375 3 18339638928324873163
21947302 44 18059017168310697110
22802520 49 18199766781279703998
23402539 116 18267296706830970519
23419403 2 17194099544908694927
23557571 272 18198918083120765556
23559900 14 18342742906418193234
25 1 17845383149850037993
2748010 2 18262817159083630983
276578 36 18189342281366350763
305870 269 18040992882718168402
430814 3 18041565736850213531
549884 4 17416683544816290937
6333449 129 18343582975122638285
6442390 28 18269297706777891659
7364860 26 17834677097914689979
81228 2 18191593162379223291

> <PUBCHEM_SHAPE_MULTIPOLES>
302.82
5.29
2.15
1.39
2.11
0.81
0.13
-3.45
0.34
-1.29
-0.24
-0.12
0.26
0.01

> <PUBCHEM_SHAPE_SELFOVERLAP>
615.427

> <PUBCHEM_SHAPE_VOLUME>
178.4

> <PUBCHEM_COORDINATE_TYPE>
2
5
10

> <Energy>
46.4329

> <minimizedAffinity>
-7.82446

> <CNNscore>
0.9267776608

> <CNNaffinity>
7.2844367027

> <CNN_VS>
6.7510533333

> <CNNaffinity_variance>
1.1533305645

$$$$
8814


 16 16  0  0  0  0  0  0  0  0999 V2000
  104.7826   15.2546   23.4234 C   0  0  0  0  0  0  0  0  0  0  0  0
  105.2898   14.2038   24.4580 C   0  0  0  0  0  0  0  0  0  0  0  0
  105.9641   16.2375   23.2508 C   0  0  0  0  0  0  0  0  0  0  0  0
  100.0958   17.5733   25.7277 O   0  0  0  0  0  0  0  0  0  0  0  0
  103.5201   15.8942   24.0208 C   0  0  0  0  0  0  0  0  0  0  0  0
  103.5909   16.5864   25.2489 C   0  0  0  0  0  0  0  0  0  0  0  0
  102.2651   15.8150   23.3941 C   0  0  0  0  0  0  0  0  0  0  0  0
  102.4562   17.1551   25.8332 C   0  0  0  0  0  0  0  0  0  0  0  0
  101.1291   16.3810   23.9770 C   0  0  0  0  0  0  0  0  0  0  0  0
  101.2325   17.0430   25.1924 C   0  0  0  0  0  0  0  0  0  0  0  0
  100.1310   18.0266   26.5471 H   0  0  0  0  0  0  0  0  0  0  0  0
  104.4982   14.4849   22.0835 C   0  0  0  0  0  0  0  0  0  0  0  0
  105.5916   14.2218   20.9925 C   0  0  0  0  0  0  0  0  0  0  0  0
  106.2182   15.5966   20.6488 C   0  0  0  0  0  0  0  0  0  0  0  0
  105.0141   13.6410   19.6940 C   0  0  0  0  0  0  0  0  0  0  0  0
  106.7394   13.3184   21.4700 C   0  0  0  0  0  0  0  0  0  0  0  0
  4 10  1  0
  4 11  1  0
  1 12  1  0
  1  5  1  0
  1  2  1  0
  1  3  1  0
 13 12  1  0
 13 14  1  0
 13 15  1  0
 13 16  1  0
  5  6  2  0
  5  7  1  0
  6  8  1  0
  7  9  2  0
  8 10  2  0
  9 10  1  0
M  END
> <PUBCHEM_COMPOUND_CID>
8814

> <PUBCHEM_CONFORMER_RMSD>
0.6

> <PUBCHEM_CONFORMER_DIVERSEORDER>
1
5
4
3
2

> <PUBCHEM_MMFF94_PARTIAL_CHARGES>
13
1 -0.53
11 -0.15
12 -0.15
13 -0.15
14 -0.15
15 0.08
2 0.14
33 0.15
34 0.15
35 0.15
36 0.15
37 0.45
5 -0.14

> <PUBCHEM_EFFECTIVE_ROTOR_COUNT>
3

> <PUBCHEM_PHARMACOPHORE_FEATURES>
4
1 1 donor
3 2 6 7 hydrophobe
4 3 8 9 10 hydrophobe
6 5 11 12 13 14 15 rings

> <PUBCHEM_HEAVY_ATOM_COUNT>
15

> <PUBCHEM_ATOM_DEF_STEREO_COUNT>
0

> <PUBCHEM_ATOM_UDEF_STEREO_COUNT>
0

> <PUBCHEM_BOND_DEF_STEREO_COUNT>
0

> <PUBCHEM_BOND_UDEF_STEREO_COUNT>
0

> <PUBCHEM_ISOTOPIC_ATOM_COUNT>
0

> <PUBCHEM_COMPONENT_COUNT>
1

> <PUBCHEM_CACTVS_TAUTO_COUNT>
2

> <PUBCHEM_CONFORMER_ID>
0000226E00000001

> <PUBCHEM_MMFF94_ENERGY>
60.6732

> <PUBCHEM_FEATURE_SELFOVERLAP>
20.297

> <PUBCHEM_SHAPE_FINGERPRINT>
1 1 18122065299635933247
11471102 22 13984658170435925480
12138202 97 18272929444633088966
12251169 10 14923953348599690641
12423570 1 15084294979065354379
124424 183 18201999928641116818
12491281 212 18273493468196309381
12532896 13 18409735040726507851
13299463 15 16200422598337566991
13538477 17 17822291326855117498
13764800 53 18335714831507604569
13839132 238 18413110537123213324
14817 1 11689340854733718479
15375462 478 15647061443078261877
15775835 57 18339078194495494345
16945 1 17988065786023185643
18186145 218 18200036118541666588
18534176 82 18271243927656786518
19837323 101 18335708272823803859
20525323 117 18337111292773698462
20645476 183 17894351081266785547
21296965 12 18260545576729377063
21501502 16 18271800211963701222
21524375 3 18339638928324873163
21947302 44 18059017168310697110
22802520 49 18199766781279703998
23402539 116 18267296706830970519
23419403 2 17194099544908694927
23557571 272 18198918083120765556
23559900 14 18342742906418193234
25 1 17845383149850037993
2748010 2 18262817159083630983
276578 36 18189342281366350763
305870 269 18040992882718168402
430814 3 18041565736850213531
549884 4 17416683544816290937
6333449 129 18343582975122638285
6442390 28 18269297706777891659
7364860 26 17834677097914689979
81228 2 18191593162379223291

> <PUBCHEM_SHAPE_MULTIPOLES>
302.82
5.29
2.15
1.39
2.11
0.81
0.13
-3.45
0.34
-1.29
-0.24
-0.12
0.26
0.01

> <PUBCHEM_SHAPE_SELFOVERLAP>
615.427

> <PUBCHEM_SHAPE_VOLUME>
178.4

> <PUBCHEM_COORDINATE_TYPE>
2
5
10

> <Energy>
46.4329

> <minimizedAffinity>
-8.26639

> <CNNscore>
0.9173858166

> <CNNaffinity>
7.0970535278

> <CNN_VS>
6.5107364655

> <CNNaffinity_variance>
0.7292264104

$$$$
8814


 16 16  0  0  0  0  0  0  0  0999 V2000
  104.7643   15.2208   23.4500 C   0  0  0  0  0  0  0  0  0  0  0  0
  105.3086   14.1754   24.4711 C   0  0  0  0  0  0  0  0  0  0  0  0
  105.9278   16.2205   23.2537 C   0  0  0  0  0  0  0  0  0  0  0  0
  100.0759   17.5915   25.6973 O   0  0  0  0  0  0  0  0  0  0  0  0
  103.5063   15.8415   24.0760 C   0  0  0  0  0  0  0  0  0  0  0  0
  102.2660   15.7524   23.4081 C   0  0  0  0  0  0  0  0  0  0  0  0
  103.5312   16.5181   25.3071 C   0  0  0  0  0  0  0  0  0  0  0  0
  101.1088   16.3305   23.9365 C   0  0  0  0  0  0  0  0  0  0  0  0
  102.3762   17.0984   25.8364 C   0  0  0  0  0  0  0  0  0  0  0  0
  101.1759   17.0033   25.1462 C   0  0  0  0  0  0  0  0  0  0  0  0
   99.2500   17.5457   25.2569 H   0  0  0  0  0  0  0  0  0  0  0  0
  104.4616   14.4495   22.1149 C   0  0  0  0  0  0  0  0  0  0  0  0
  105.5128   14.2691   20.9670 C   0  0  0  0  0  0  0  0  0  0  0  0
  106.5578   13.2449   21.4767 C   0  0  0  0  0  0  0  0  0  0  0  0
  106.2632   15.5661   20.6332 C   0  0  0  0  0  0  0  0  0  0  0  0
  104.9225   13.6924   19.6707 C   0  0  0  0  0  0  0  0  0  0  0  0
  4 10  1  0
  4 11  1  0
  1 12  1  0
  1  5  1  0
  1  2  1  0
  1  3  1  0
 13 12  1  0
 13 14  1  0
 13 15  1  0
 13 16  1  0
  5  6  2  0
  5  7  1  0
  6  8  1  0
  7  9  2  0
  8 10  2  0
  9 10  1  0
M  END
> <PUBCHEM_COMPOUND_CID>
8814

> <PUBCHEM_CONFORMER_RMSD>
0.6

> <PUBCHEM_CONFORMER_DIVERSEORDER>
1
5
4
3
2

> <PUBCHEM_MMFF94_PARTIAL_CHARGES>
13
1 -0.53
11 -0.15
12 -0.15
13 -0.15
14 -0.15
15 0.08
2 0.14
33 0.15
34 0.15
35 0.15
36 0.15
37 0.45
5 -0.14

> <PUBCHEM_EFFECTIVE_ROTOR_COUNT>
3

> <PUBCHEM_PHARMACOPHORE_FEATURES>
4
1 1 donor
3 2 6 7 hydrophobe
4 3 8 9 10 hydrophobe
6 5 11 12 13 14 15 rings

> <PUBCHEM_HEAVY_ATOM_COUNT>
15

> <PUBCHEM_ATOM_DEF_STEREO_COUNT>
0

> <PUBCHEM_ATOM_UDEF_STEREO_COUNT>
0

> <PUBCHEM_BOND_DEF_STEREO_COUNT>
0

> <PUBCHEM_BOND_UDEF_STEREO_COUNT>
0

> <PUBCHEM_ISOTOPIC_ATOM_COUNT>
0

> <PUBCHEM_COMPONENT_COUNT>
1

> <PUBCHEM_CACTVS_TAUTO_COUNT>
2

> <PUBCHEM_CONFORMER_ID>
0000226E00000001

> <PUBCHEM_MMFF94_ENERGY>
60.6732

> <PUBCHEM_FEATURE_SELFOVERLAP>
20.297

> <PUBCHEM_SHAPE_FINGERPRINT>
1 1 18122065299635933247
11471102 22 13984658170435925480
12138202 97 18272929444633088966
12251169 10 14923953348599690641
12423570 1 15084294979065354379
124424 183 18201999928641116818
12491281 212 18273493468196309381
12532896 13 18409735040726507851
13299463 15 16200422598337566991
13538477 17 17822291326855117498
13764800 53 18335714831507604569
13839132 238 18413110537123213324
14817 1 11689340854733718479
15375462 478 15647061443078261877
15775835 57 18339078194495494345
16945 1 17988065786023185643
18186145 218 18200036118541666588
18534176 82 18271243927656786518
19837323 101 18335708272823803859
20525323 117 18337111292773698462
20645476 183 17894351081266785547
21296965 12 18260545576729377063
21501502 16 18271800211963701222
21524375 3 18339638928324873163
21947302 44 18059017168310697110
22802520 49 18199766781279703998
23402539 116 18267296706830970519
23419403 2 17194099544908694927
23557571 272 18198918083120765556
23559900 14 18342742906418193234
25 1 17845383149850037993
2748010 2 18262817159083630983
276578 36 18189342281366350763
305870 269 18040992882718168402
430814 3 18041565736850213531
549884 4 17416683544816290937
6333449 129 18343582975122638285
6442390 28 18269297706777891659
7364860 26 17834677097914689979
81228 2 18191593162379223291

> <PUBCHEM_SHAPE_MULTIPOLES>
302.82
5.29
2.15
1.39
2.11
0.81
0.13
-3.45
0.34
-1.29
-0.24
-0.12
0.26
0.01

> <PUBCHEM_SHAPE_SELFOVERLAP>
615.427

> <PUBCHEM_SHAPE_VOLUME>
178.4

> <PUBCHEM_COORDINATE_TYPE>
2
5
10

> <Energy>
46.4329

> <minimizedAffinity>
-8.29059

> <CNNscore>
0.9127492905

> <CNNaffinity>
7.0588340759

> <CNN_VS>
6.4429459572

> <CNNaffinity_variance>
0.6801983714

$$$$
8814


 16 16  0  0  0  0  0  0  0  0999 V2000
  105.0623   14.5344   24.1579 C   0  0  0  0  0  0  0  0  0  0  0  0
  104.5611   13.3835   23.2327 C   0  0  0  0  0  0  0  0  0  0  0  0
  105.6685   13.8154   25.3856 C   0  0  0  0  0  0  0  0  0  0  0  0
  100.5154   17.7376   25.4683 O   0  0  0  0  0  0  0  0  0  0  0  0
  103.8409   15.4067   24.4850 C   0  0  0  0  0  0  0  0  0  0  0  0
  103.9017   16.3423   25.5401 C   0  0  0  0  0  0  0  0  0  0  0  0
  102.6328   15.3109   23.7739 C   0  0  0  0  0  0  0  0  0  0  0  0
  102.7998   17.1308   25.8814 C   0  0  0  0  0  0  0  0  0  0  0  0
  101.5294   16.0966   24.1144 C   0  0  0  0  0  0  0  0  0  0  0  0
  101.6201   16.9971   25.1666 C   0  0  0  0  0  0  0  0  0  0  0  0
  100.5431   18.3547   26.1729 H   0  0  0  0  0  0  0  0  0  0  0  0
  106.1721   15.3151   23.3656 C   0  0  0  0  0  0  0  0  0  0  0  0
  107.6207   14.7617   23.1410 C   0  0  0  0  0  0  0  0  0  0  0  0
  107.9902   15.0654   21.6672 C   0  0  0  0  0  0  0  0  0  0  0  0
  107.7180   13.2422   23.3368 C   0  0  0  0  0  0  0  0  0  0  0  0
  108.6866   15.4416   24.0145 C   0  0  0  0  0  0  0  0  0  0  0  0
  4 10  1  0
  4 11  1  0
  1 12  1  0
  1  5  1  0
  1  2  1  0
  1  3  1  0
 13 12  1  0
 13 14  1  0
 13 15  1  0
 13 16  1  0
  5  6  2  0
  5  7  1  0
  6  8  1  0
  7  9  2  0
  8 10  2  0
  9 10  1  0
M  END
> <PUBCHEM_COMPOUND_CID>
8814

> <PUBCHEM_CONFORMER_RMSD>
0.6

> <PUBCHEM_CONFORMER_DIVERSEORDER>
1
5
4
3
2

> <PUBCHEM_MMFF94_PARTIAL_CHARGES>
13
1 -0.53
11 -0.15
12 -0.15
13 -0.15
14 -0.15
15 0.08
2 0.14
33 0.15
34 0.15
35 0.15
36 0.15
37 0.45
5 -0.14

> <PUBCHEM_EFFECTIVE_ROTOR_COUNT>
3

> <PUBCHEM_PHARMACOPHORE_FEATURES>
4
1 1 donor
3 2 6 7 hydrophobe
4 3 8 9 10 hydrophobe
6 5 11 12 13 14 15 rings

> <PUBCHEM_HEAVY_ATOM_COUNT>
15

> <PUBCHEM_ATOM_DEF_STEREO_COUNT>
0

> <PUBCHEM_ATOM_UDEF_STEREO_COUNT>
0

> <PUBCHEM_BOND_DEF_STEREO_COUNT>
0

> <PUBCHEM_BOND_UDEF_STEREO_COUNT>
0

> <PUBCHEM_ISOTOPIC_ATOM_COUNT>
0

> <PUBCHEM_COMPONENT_COUNT>
1

> <PUBCHEM_CACTVS_TAUTO_COUNT>
2

> <PUBCHEM_CONFORMER_ID>
0000226E00000001

> <PUBCHEM_MMFF94_ENERGY>
60.6732

> <PUBCHEM_FEATURE_SELFOVERLAP>
20.297

> <PUBCHEM_SHAPE_FINGERPRINT>
1 1 18122065299635933247
11471102 22 13984658170435925480
12138202 97 18272929444633088966
12251169 10 14923953348599690641
12423570 1 15084294979065354379
124424 183 18201999928641116818
12491281 212 18273493468196309381
12532896 13 18409735040726507851
13299463 15 16200422598337566991
13538477 17 17822291326855117498
13764800 53 18335714831507604569
13839132 238 18413110537123213324
14817 1 11689340854733718479
15375462 478 15647061443078261877
15775835 57 18339078194495494345
16945 1 17988065786023185643
18186145 218 18200036118541666588
18534176 82 18271243927656786518
19837323 101 18335708272823803859
20525323 117 18337111292773698462
20645476 183 17894351081266785547
21296965 12 18260545576729377063
21501502 16 18271800211963701222
21524375 3 18339638928324873163
21947302 44 18059017168310697110
22802520 49 18199766781279703998
23402539 116 18267296706830970519
23419403 2 17194099544908694927
23557571 272 18198918083120765556
23559900 14 18342742906418193234
25 1 17845383149850037993
2748010 2 18262817159083630983
276578 36 18189342281366350763
305870 269 18040992882718168402
430814 3 18041565736850213531
549884 4 17416683544816290937
6333449 129 18343582975122638285
6442390 28 18269297706777891659
7364860 26 17834677097914689979
81228 2 18191593162379223291

> <PUBCHEM_SHAPE_MULTIPOLES>
302.82
5.29
2.15
1.39
2.11
0.81
0.13
-3.45
0.34
-1.29
-0.24
-0.12
0.26
0.01

> <PUBCHEM_SHAPE_SELFOVERLAP>
615.427

> <PUBCHEM_SHAPE_VOLUME>
178.4

> <PUBCHEM_COORDINATE_TYPE>
2
5
10

> <Energy>
46.4329

> <minimizedAffinity>
-7.49646

> <CNNscore>
0.9092286825

> <CNNaffinity>
7.4466457367

> <CNN_VS>
6.7707037926

> <CNNaffinity_variance>
1.3403959274

$$$$
8814


 16 16  0  0  0  0  0  0  0  0999 V2000
  104.7411   15.1078   23.1827 C   0  0  0  0  0  0  0  0  0  0  0  0
  105.8496   16.1974   23.0578 C   0  0  0  0  0  0  0  0  0  0  0  0
  104.4539   14.6713   21.7272 C   0  0  0  0  0  0  0  0  0  0  0  0
  100.2781   17.6253   25.7118 O   0  0  0  0  0  0  0  0  0  0  0  0
  103.5447   15.7681   23.8844 C   0  0  0  0  0  0  0  0  0  0  0  0
  102.2607   15.7075   23.3013 C   0  0  0  0  0  0  0  0  0  0  0  0
  103.6696   16.4542   25.1042 C   0  0  0  0  0  0  0  0  0  0  0  0
  101.1572   16.3216   23.8994 C   0  0  0  0  0  0  0  0  0  0  0  0
  102.5685   17.0703   25.7031 C   0  0  0  0  0  0  0  0  0  0  0  0
  101.3228   17.0024   25.0951 C   0  0  0  0  0  0  0  0  0  0  0  0
   99.4238   17.5985   25.3278 H   0  0  0  0  0  0  0  0  0  0  0  0
  105.3512   13.9197   24.0103 C   0  0  0  0  0  0  0  0  0  0  0  0
  106.6085   14.0690   24.9333 C   0  0  0  0  0  0  0  0  0  0  0  0
  106.9662   15.5764   24.9586 C   0  0  0  0  0  0  0  0  0  0  0  0
  107.8345   13.3132   24.4018 C   0  0  0  0  0  0  0  0  0  0  0  0
  106.3618   13.6474   26.3903 C   0  0  0  0  0  0  0  0  0  0  0  0
  4 10  1  0
  4 11  1  0
  1 12  1  0
  1  5  1  0
  1  2  1  0
  1  3  1  0
 13 12  1  0
 13 14  1  0
 13 15  1  0
 13 16  1  0
  5  6  2  0
  5  7  1  0
  6  8  1  0
  7  9  2  0
  8 10  2  0
  9 10  1  0
M  END
> <PUBCHEM_COMPOUND_CID>
8814

> <PUBCHEM_CONFORMER_RMSD>
0.6

> <PUBCHEM_CONFORMER_DIVERSEORDER>
1
5
4
3
2

> <PUBCHEM_MMFF94_PARTIAL_CHARGES>
13
1 -0.53
11 -0.15
12 -0.15
13 -0.15
14 -0.15
15 0.08
2 0.14
33 0.15
34 0.15
35 0.15
36 0.15
37 0.45
5 -0.14

> <PUBCHEM_EFFECTIVE_ROTOR_COUNT>
3

> <PUBCHEM_PHARMACOPHORE_FEATURES>
4
1 1 donor
3 2 6 7 hydrophobe
4 3 8 9 10 hydrophobe
6 5 11 12 13 14 15 rings

> <PUBCHEM_HEAVY_ATOM_COUNT>
15

> <PUBCHEM_ATOM_DEF_STEREO_COUNT>
0

> <PUBCHEM_ATOM_UDEF_STEREO_COUNT>
0

> <PUBCHEM_BOND_DEF_STEREO_COUNT>
0

> <PUBCHEM_BOND_UDEF_STEREO_COUNT>
0

> <PUBCHEM_ISOTOPIC_ATOM_COUNT>
0

> <PUBCHEM_COMPONENT_COUNT>
1

> <PUBCHEM_CACTVS_TAUTO_COUNT>
2

> <PUBCHEM_CONFORMER_ID>
0000226E00000001

> <PUBCHEM_MMFF94_ENERGY>
60.6732

> <PUBCHEM_FEATURE_SELFOVERLAP>
20.297

> <PUBCHEM_SHAPE_FINGERPRINT>
1 1 18122065299635933247
11471102 22 13984658170435925480
12138202 97 18272929444633088966
12251169 10 14923953348599690641
12423570 1 15084294979065354379
124424 183 18201999928641116818
12491281 212 18273493468196309381
12532896 13 18409735040726507851
13299463 15 16200422598337566991
13538477 17 17822291326855117498
13764800 53 18335714831507604569
13839132 238 18413110537123213324
14817 1 11689340854733718479
15375462 478 15647061443078261877
15775835 57 18339078194495494345
16945 1 17988065786023185643
18186145 218 18200036118541666588
18534176 82 18271243927656786518
19837323 101 18335708272823803859
20525323 117 18337111292773698462
20645476 183 17894351081266785547
21296965 12 18260545576729377063
21501502 16 18271800211963701222
21524375 3 18339638928324873163
21947302 44 18059017168310697110
22802520 49 18199766781279703998
23402539 116 18267296706830970519
23419403 2 17194099544908694927
23557571 272 18198918083120765556
23559900 14 18342742906418193234
25 1 17845383149850037993
2748010 2 18262817159083630983
276578 36 18189342281366350763
305870 269 18040992882718168402
430814 3 18041565736850213531
549884 4 17416683544816290937
6333449 129 18343582975122638285
6442390 28 18269297706777891659
7364860 26 17834677097914689979
81228 2 18191593162379223291

> <PUBCHEM_SHAPE_MULTIPOLES>
302.82
5.29
2.15
1.39
2.11
0.81
0.13
-3.45
0.34
-1.29
-0.24
-0.12
0.26
0.01

> <PUBCHEM_SHAPE_SELFOVERLAP>
615.427

> <PUBCHEM_SHAPE_VOLUME>
178.4

> <PUBCHEM_COORDINATE_TYPE>
2
5
10

> <Energy>
46.4329

> <minimizedAffinity>
-8.29264

> <CNNscore>
0.9034282565

> <CNNaffinity>
7.1520748138

> <CNN_VS>
6.4613866806

> <CNNaffinity_variance>
0.9014059901

$$$$
8814


 16 16  0  0  0  0  0  0  0  0999 V2000
  104.7238   15.0761   23.2125 C   0  0  0  0  0  0  0  0  0  0  0  0
  105.8197   16.1753   23.0621 C   0  0  0  0  0  0  0  0  0  0  0  0
  104.4821   14.5632   21.7737 C   0  0  0  0  0  0  0  0  0  0  0  0
  100.1802   17.5287   25.6604 O   0  0  0  0  0  0  0  0  0  0  0  0
  103.4997   15.7518   23.8486 C   0  0  0  0  0  0  0  0  0  0  0  0
  103.6277   16.4368   25.0761 C   0  0  0  0  0  0  0  0  0  0  0  0
  102.2250   15.7136   23.2589 C   0  0  0  0  0  0  0  0  0  0  0  0
  102.5286   17.0378   25.6952 C   0  0  0  0  0  0  0  0  0  0  0  0
  101.1245   16.3120   23.8766 C   0  0  0  0  0  0  0  0  0  0  0  0
  101.2838   16.9658   25.0904 C   0  0  0  0  0  0  0  0  0  0  0  0
  100.2533   17.9775   26.4797 H   0  0  0  0  0  0  0  0  0  0  0  0
  105.3283   13.9403   24.1144 C   0  0  0  0  0  0  0  0  0  0  0  0
  106.5542   14.1566   25.0659 C   0  0  0  0  0  0  0  0  0  0  0  0
  107.7286   13.3382   24.4728 C   0  0  0  0  0  0  0  0  0  0  0  0
  106.3052   13.6399   26.4900 C   0  0  0  0  0  0  0  0  0  0  0  0
  107.0271   15.6166   25.1460 C   0  0  0  0  0  0  0  0  0  0  0  0
  4 10  1  0
  4 11  1  0
  1 12  1  0
  1  5  1  0
  1  2  1  0
  1  3  1  0
 13 12  1  0
 13 14  1  0
 13 15  1  0
 13 16  1  0
  5  6  2  0
  5  7  1  0
  6  8  1  0
  7  9  2  0
  8 10  2  0
  9 10  1  0
M  END
> <PUBCHEM_COMPOUND_CID>
8814

> <PUBCHEM_CONFORMER_RMSD>
0.6

> <PUBCHEM_CONFORMER_DIVERSEORDER>
1
5
4
3
2

> <PUBCHEM_MMFF94_PARTIAL_CHARGES>
13
1 -0.53
11 -0.15
12 -0.15
13 -0.15
14 -0.15
15 0.08
2 0.14
33 0.15
34 0.15
35 0.15
36 0.15
37 0.45
5 -0.14

> <PUBCHEM_EFFECTIVE_ROTOR_COUNT>
3

> <PUBCHEM_PHARMACOPHORE_FEATURES>
4
1 1 donor
3 2 6 7 hydrophobe
4 3 8 9 10 hydrophobe
6 5 11 12 13 14 15 rings

> <PUBCHEM_HEAVY_ATOM_COUNT>
15

> <PUBCHEM_ATOM_DEF_STEREO_COUNT>
0

> <PUBCHEM_ATOM_UDEF_STEREO_COUNT>
0

> <PUBCHEM_BOND_DEF_STEREO_COUNT>
0

> <PUBCHEM_BOND_UDEF_STEREO_COUNT>
0

> <PUBCHEM_ISOTOPIC_ATOM_COUNT>
0

> <PUBCHEM_COMPONENT_COUNT>
1

> <PUBCHEM_CACTVS_TAUTO_COUNT>
2

> <PUBCHEM_CONFORMER_ID>
0000226E00000001

> <PUBCHEM_MMFF94_ENERGY>
60.6732

> <PUBCHEM_FEATURE_SELFOVERLAP>
20.297

> <PUBCHEM_SHAPE_FINGERPRINT>
1 1 18122065299635933247
11471102 22 13984658170435925480
12138202 97 18272929444633088966
12251169 10 14923953348599690641
12423570 1 15084294979065354379
124424 183 18201999928641116818
12491281 212 18273493468196309381
12532896 13 18409735040726507851
13299463 15 16200422598337566991
13538477 17 17822291326855117498
13764800 53 18335714831507604569
13839132 238 18413110537123213324
14817 1 11689340854733718479
15375462 478 15647061443078261877
15775835 57 18339078194495494345
16945 1 17988065786023185643
18186145 218 18200036118541666588
18534176 82 18271243927656786518
19837323 101 18335708272823803859
20525323 117 18337111292773698462
20645476 183 17894351081266785547
21296965 12 18260545576729377063
21501502 16 18271800211963701222
21524375 3 18339638928324873163
21947302 44 18059017168310697110
22802520 49 18199766781279703998
23402539 116 18267296706830970519
23419403 2 17194099544908694927
23557571 272 18198918083120765556
23559900 14 18342742906418193234
25 1 17845383149850037993
2748010 2 18262817159083630983
276578 36 18189342281366350763
305870 269 18040992882718168402
430814 3 18041565736850213531
549884 4 17416683544816290937
6333449 129 18343582975122638285
6442390 28 18269297706777891659
7364860 26 17834677097914689979
81228 2 18191593162379223291

> <PUBCHEM_SHAPE_MULTIPOLES>
302.82
5.29
2.15
1.39
2.11
0.81
0.13
-3.45
0.34
-1.29
-0.24
-0.12
0.26
0.01

> <PUBCHEM_SHAPE_SELFOVERLAP>
615.427

> <PUBCHEM_SHAPE_VOLUME>
178.4

> <PUBCHEM_COORDINATE_TYPE>
2
5
10

> <Energy>
46.4329

> <minimizedAffinity>
-8.39835

> <CNNscore>
0.8987805247

> <CNNaffinity>
7.1685585976

> <CNN_VS>
6.4429607391

> <CNNaffinity_variance>
0.8840448856

$$$$
