8571


 22 23  0  0  0  0  0  0  0  0999 V2000
   -4.4469   -5.5638   22.6946 O   0  0  0  0  0  0  0  0  0  0  0  0
   -4.6668   -5.4909   21.4886 C   0  0  0  0  0  0  0  0  0  0  0  0
   -6.3369   -3.1929   21.0358 O   0  0  0  0  0  0  0  0  0  0  0  0
   -9.9549   -5.9038   19.5763 O   0  0  0  0  0  0  0  0  0  0  0  0
   -6.0554   -5.6130   20.9785 C   0  0  0  0  0  0  0  0  0  0  0  0
   -6.8187   -4.4506   20.7820 C   0  0  0  0  0  0  0  0  0  0  0  0
   -6.6274   -6.8618   20.7004 C   0  0  0  0  0  0  0  0  0  0  0  0
   -8.1246   -4.5267   20.3018 C   0  0  0  0  0  0  0  0  0  0  0  0
   -7.9424   -6.9396   20.2347 C   0  0  0  0  0  0  0  0  0  0  0  0
   -8.6772   -5.7752   20.0353 C   0  0  0  0  0  0  0  0  0  0  0  0
   -5.4648   -3.0819   21.3602 H   0  0  0  0  0  0  0  0  0  0  0  0
  -10.4793   -5.1411   19.4304 H   0  0  0  0  0  0  0  0  0  0  0  0
   -4.9708   -5.7219   18.7135 O   0  0  0  0  0  0  0  0  0  0  0  0
   -0.4129   -4.4066   18.0045 O   0  0  0  0  0  0  0  0  0  0  0  0
   -3.5519   -5.2143   20.5670 C   0  0  0  0  0  0  0  0  0  0  0  0
   -3.7516   -5.3279   19.1881 C   0  0  0  0  0  0  0  0  0  0  0  0
   -2.3136   -4.8181   21.0786 C   0  0  0  0  0  0  0  0  0  0  0  0
   -2.7092   -5.0514   18.3052 C   0  0  0  0  0  0  0  0  0  0  0  0
   -1.2640   -4.5614   20.1965 C   0  0  0  0  0  0  0  0  0  0  0  0
   -1.4704   -4.6758   18.8225 C   0  0  0  0  0  0  0  0  0  0  0  0
   -5.6687   -5.9067   19.3110 H   0  0  0  0  0  0  0  0  0  0  0  0
   -0.5111   -4.4721   17.0750 H   0  0  0  0  0  0  0  0  0  0  0  0
  3  6  1  0
  3 11  1  0
 13 16  1  0
 13 21  1  0
  1  2  2  0
  4 10  1  0
  4 12  1  0
 14 20  1  0
 14 22  1  0
  5  2  1  0
  5  6  2  0
  5  7  1  0
 15  2  1  0
 15 16  2  0
 15 17  1  0
  6  8  1  0
 16 18  1  0
  7  9  2  0
 17 19  2  0
  8 10  2  0
 18 20  2  0
  9 10  1  0
 19 20  1  0
M  END
> <PUBCHEM_COMPOUND_CID>
8571

> <PUBCHEM_CONFORMER_RMSD>
0.6

> <PUBCHEM_CONFORMER_DIVERSEORDER>
3
14
8
5
6
10
13
11
12
7
2
4
9
1

> <PUBCHEM_MMFF94_PARTIAL_CHARGES>
28
1 -0.53
10 0.08
11 -0.15
12 -0.15
13 -0.15
14 -0.15
15 -0.15
16 -0.15
17 0.08
18 0.08
19 0.15
2 -0.53
20 0.15
21 0.15
22 0.15
23 0.15
24 0.15
25 0.45
26 0.45
27 0.45
28 0.45
3 -0.57
4 -0.53
5 -0.53
6 0.09
7 0.09
8 0.4
9 0.08

> <PUBCHEM_EFFECTIVE_ROTOR_COUNT>
2

> <PUBCHEM_PHARMACOPHORE_FEATURES>
7
1 1 donor
1 2 donor
1 3 acceptor
1 4 donor
1 5 donor
6 6 9 11 13 15 17 rings
6 7 10 12 14 16 18 rings

> <PUBCHEM_HEAVY_ATOM_COUNT>
18

> <PUBCHEM_ATOM_DEF_STEREO_COUNT>
0

> <PUBCHEM_ATOM_UDEF_STEREO_COUNT>
0

> <PUBCHEM_BOND_DEF_STEREO_COUNT>
0

> <PUBCHEM_BOND_UDEF_STEREO_COUNT>
0

> <PUBCHEM_ISOTOPIC_ATOM_COUNT>
0

> <PUBCHEM_COMPONENT_COUNT>
1

> <PUBCHEM_CACTVS_TAUTO_COUNT>
72

> <PUBCHEM_CONFORMER_ID>
0000217B00000003

> <PUBCHEM_MMFF94_ENERGY>
59.7646

> <PUBCHEM_FEATURE_SELFOVERLAP>
35.523

> <PUBCHEM_SHAPE_FINGERPRINT>
11471102 20 18409169892103070408
11543360 7 16558473084182650672
11578080 2 11531614863815746903
12236239 1 18131065996288699443
12730499 353 18260275135465842107
13764800 53 16298659508524951853
14115302 16 17274813641062312855
14993402 34 17846215540487606185
15309172 13 17603583049510828995
15342168 16 17968104165179409005
15775835 57 18412826888988243309
16752209 62 16702019734536568467
16945 1 18338804403115108058
1813 80 17908702826610089778
18186145 218 18334579027342918966
19784866 34 18334295413878624880
19862831 5 17703791439638752137
19868273 293 17846494850753190559
20612939 158 18410015399459763708
20645476 183 18131345336920073351
20645477 70 18339644438557177238
20871999 31 17703499013054573895
21486144 27 18040157318289672158
22079108 93 18187935001610251691
22854114 59 17458065950124340569
231179 274 17822006519258234448
23402539 116 18409442626948148612
23402655 69 18343585139818180612
23559900 14 18270131244514800908
23598291 2 17916313731579383754
25 1 18335137605093349618
2748010 2 18049736405846724776
2838139 119 17898835865392311757
3082319 5 17846778520178562597
350125 39 17829344823007393920
4028521 119 18341894112446576825
474 4 18335984259027423912
5374978 207 12973890299285696421
633830 44 18335985259854816367
74978 22 17775280611934871745
76465 3 11743574149888780620
77492 1 18131067091542367739
81228 2 16880770831219455195
8272917 22 18265617572439684195
9981440 41 17624393673978878472

> <PUBCHEM_SHAPE_MULTIPOLES>
341.08
8.1
1.9
1.16
0.73
0.35
-0.07
-4.23
-1.78
-1.35
0.05
0.84
0.24
-0.62

> <PUBCHEM_SHAPE_SELFOVERLAP>
750.848

> <PUBCHEM_SHAPE_VOLUME>
184

> <PUBCHEM_COORDINATE_TYPE>
2
5
10

> <Energy>
46.2868

> <minimizedAffinity>
-8.10117

> <CNNscore>
0.8034424782

> <CNNaffinity>
5.6946272850

> <CNN_VS>
4.5753054619

> <CNNaffinity_variance>
0.2771718800

$$$$
8571


 22 23  0  0  0  0  0  0  0  0999 V2000
   -4.4360   -5.6437   22.7349 O   0  0  0  0  0  0  0  0  0  0  0  0
   -4.6585   -5.4487   21.5430 C   0  0  0  0  0  0  0  0  0  0  0  0
   -4.9406   -5.6708   18.6889 O   0  0  0  0  0  0  0  0  0  0  0  0
   -0.4159   -4.4102   17.9774 O   0  0  0  0  0  0  0  0  0  0  0  0
   -3.5352   -5.1661   20.6148 C   0  0  0  0  0  0  0  0  0  0  0  0
   -3.7391   -5.2964   19.2314 C   0  0  0  0  0  0  0  0  0  0  0  0
   -2.2719   -4.7845   21.0868 C   0  0  0  0  0  0  0  0  0  0  0  0
   -2.7085   -5.0364   18.3302 C   0  0  0  0  0  0  0  0  0  0  0  0
   -1.2337   -4.5400   20.1844 C   0  0  0  0  0  0  0  0  0  0  0  0
   -1.4601   -4.6629   18.8173 C   0  0  0  0  0  0  0  0  0  0  0  0
   -5.6690   -5.8579   19.2478 H   0  0  0  0  0  0  0  0  0  0  0  0
   -0.5318   -4.4831   17.0505 H   0  0  0  0  0  0  0  0  0  0  0  0
   -6.2403   -3.1859   21.0696 O   0  0  0  0  0  0  0  0  0  0  0  0
   -9.8914   -5.9242   19.5936 O   0  0  0  0  0  0  0  0  0  0  0  0
   -6.0366   -5.5657   21.0373 C   0  0  0  0  0  0  0  0  0  0  0  0
   -6.7859   -4.4095   20.8012 C   0  0  0  0  0  0  0  0  0  0  0  0
   -6.5726   -6.8293   20.7760 C   0  0  0  0  0  0  0  0  0  0  0  0
   -8.0850   -4.5068   20.3057 C   0  0  0  0  0  0  0  0  0  0  0  0
   -7.8799   -6.9283   20.2999 C   0  0  0  0  0  0  0  0  0  0  0  0
   -8.6212   -5.7711   20.0658 C   0  0  0  0  0  0  0  0  0  0  0  0
   -5.3665   -3.1255   21.4026 H   0  0  0  0  0  0  0  0  0  0  0  0
  -10.4220   -5.1709   19.4236 H   0  0  0  0  0  0  0  0  0  0  0  0
  3  6  1  0
  3 11  1  0
 13 16  1  0
 13 21  1  0
  1  2  2  0
  4 10  1  0
  4 12  1  0
 14 20  1  0
 14 22  1  0
  5  2  1  0
  5  6  2  0
  5  7  1  0
 15  2  1  0
 15 16  2  0
 15 17  1  0
  6  8  1  0
 16 18  1  0
  7  9  2  0
 17 19  2  0
  8 10  2  0
 18 20  2  0
  9 10  1  0
 19 20  1  0
M  END
> <PUBCHEM_COMPOUND_CID>
8571

> <PUBCHEM_CONFORMER_RMSD>
0.6

> <PUBCHEM_CONFORMER_DIVERSEORDER>
3
14
8
5
6
10
13
11
12
7
2
4
9
1

> <PUBCHEM_MMFF94_PARTIAL_CHARGES>
28
1 -0.53
10 0.08
11 -0.15
12 -0.15
13 -0.15
14 -0.15
15 -0.15
16 -0.15
17 0.08
18 0.08
19 0.15
2 -0.53
20 0.15
21 0.15
22 0.15
23 0.15
24 0.15
25 0.45
26 0.45
27 0.45
28 0.45
3 -0.57
4 -0.53
5 -0.53
6 0.09
7 0.09
8 0.4
9 0.08

> <PUBCHEM_EFFECTIVE_ROTOR_COUNT>
2

> <PUBCHEM_PHARMACOPHORE_FEATURES>
7
1 1 donor
1 2 donor
1 3 acceptor
1 4 donor
1 5 donor
6 6 9 11 13 15 17 rings
6 7 10 12 14 16 18 rings

> <PUBCHEM_HEAVY_ATOM_COUNT>
18

> <PUBCHEM_ATOM_DEF_STEREO_COUNT>
0

> <PUBCHEM_ATOM_UDEF_STEREO_COUNT>
0

> <PUBCHEM_BOND_DEF_STEREO_COUNT>
0

> <PUBCHEM_BOND_UDEF_STEREO_COUNT>
0

> <PUBCHEM_ISOTOPIC_ATOM_COUNT>
0

> <PUBCHEM_COMPONENT_COUNT>
1

> <PUBCHEM_CACTVS_TAUTO_COUNT>
72

> <PUBCHEM_CONFORMER_ID>
0000217B00000003

> <PUBCHEM_MMFF94_ENERGY>
59.7646

> <PUBCHEM_FEATURE_SELFOVERLAP>
35.523

> <PUBCHEM_SHAPE_FINGERPRINT>
11471102 20 18409169892103070408
11543360 7 16558473084182650672
11578080 2 11531614863815746903
12236239 1 18131065996288699443
12730499 353 18260275135465842107
13764800 53 16298659508524951853
14115302 16 17274813641062312855
14993402 34 17846215540487606185
15309172 13 17603583049510828995
15342168 16 17968104165179409005
15775835 57 18412826888988243309
16752209 62 16702019734536568467
16945 1 18338804403115108058
1813 80 17908702826610089778
18186145 218 18334579027342918966
19784866 34 18334295413878624880
19862831 5 17703791439638752137
19868273 293 17846494850753190559
20612939 158 18410015399459763708
20645476 183 18131345336920073351
20645477 70 18339644438557177238
20871999 31 17703499013054573895
21486144 27 18040157318289672158
22079108 93 18187935001610251691
22854114 59 17458065950124340569
231179 274 17822006519258234448
23402539 116 18409442626948148612
23402655 69 18343585139818180612
23559900 14 18270131244514800908
23598291 2 17916313731579383754
25 1 18335137605093349618
2748010 2 18049736405846724776
2838139 119 17898835865392311757
3082319 5 17846778520178562597
350125 39 17829344823007393920
4028521 119 18341894112446576825
474 4 18335984259027423912
5374978 207 12973890299285696421
633830 44 18335985259854816367
74978 22 17775280611934871745
76465 3 11743574149888780620
77492 1 18131067091542367739
81228 2 16880770831219455195
8272917 22 18265617572439684195
9981440 41 17624393673978878472

> <PUBCHEM_SHAPE_MULTIPOLES>
341.08
8.1
1.9
1.16
0.73
0.35
-0.07
-4.23
-1.78
-1.35
0.05
0.84
0.24
-0.62

> <PUBCHEM_SHAPE_SELFOVERLAP>
750.848

> <PUBCHEM_SHAPE_VOLUME>
184

> <PUBCHEM_COORDINATE_TYPE>
2
5
10

> <Energy>
46.2868

> <minimizedAffinity>
-8.04745

> <CNNscore>
0.7931562066

> <CNNaffinity>
5.6852893829

> <CNN_VS>
4.5093226433

> <CNNaffinity_variance>
0.2910725772

$$$$
8571


 22 23  0  0  0  0  0  0  0  0999 V2000
   -4.4812   -5.5427   22.6667 O   0  0  0  0  0  0  0  0  0  0  0  0
   -4.7023   -5.3992   21.4672 C   0  0  0  0  0  0  0  0  0  0  0  0
   -2.0324   -4.8572   22.3908 O   0  0  0  0  0  0  0  0  0  0  0  0
   -0.4063   -4.4234   17.9483 O   0  0  0  0  0  0  0  0  0  0  0  0
   -3.5785   -5.1503   20.5300 C   0  0  0  0  0  0  0  0  0  0  0  0
   -2.2992   -4.8889   21.0469 C   0  0  0  0  0  0  0  0  0  0  0  0
   -3.7665   -5.1575   19.1411 C   0  0  0  0  0  0  0  0  0  0  0  0
   -1.2201   -4.6537   20.1971 C   0  0  0  0  0  0  0  0  0  0  0  0
   -2.6884   -4.9053   18.2891 C   0  0  0  0  0  0  0  0  0  0  0  0
   -1.4266   -4.6606   18.8214 C   0  0  0  0  0  0  0  0  0  0  0  0
   -2.7204   -5.0085   23.0087 H   0  0  0  0  0  0  0  0  0  0  0  0
    0.4570   -4.2547   18.2711 H   0  0  0  0  0  0  0  0  0  0  0  0
   -6.4241   -3.1992   21.2613 O   0  0  0  0  0  0  0  0  0  0  0  0
   -9.9278   -5.9776   19.5257 O   0  0  0  0  0  0  0  0  0  0  0  0
   -6.0788   -5.5442   20.9645 C   0  0  0  0  0  0  0  0  0  0  0  0
   -6.8996   -4.4171   20.8645 C   0  0  0  0  0  0  0  0  0  0  0  0
   -6.5423   -6.8020   20.5702 C   0  0  0  0  0  0  0  0  0  0  0  0
   -8.1983   -4.5388   20.3733 C   0  0  0  0  0  0  0  0  0  0  0  0
   -7.8488   -6.9280   20.0981 C   0  0  0  0  0  0  0  0  0  0  0  0
   -8.6616   -5.7996   20.0001 C   0  0  0  0  0  0  0  0  0  0  0  0
   -5.5503   -3.1223   21.5909 H   0  0  0  0  0  0  0  0  0  0  0  0
  -10.5051   -5.2441   19.4448 H   0  0  0  0  0  0  0  0  0  0  0  0
  3  6  1  0
  3 11  1  0
 13 16  1  0
 13 21  1  0
  1  2  2  0
  4 10  1  0
  4 12  1  0
 14 20  1  0
 14 22  1  0
  5  2  1  0
  5  6  2  0
  5  7  1  0
 15  2  1  0
 15 16  2  0
 15 17  1  0
  6  8  1  0
 16 18  1  0
  7  9  2  0
 17 19  2  0
  8 10  2  0
 18 20  2  0
  9 10  1  0
 19 20  1  0
M  END
> <PUBCHEM_COMPOUND_CID>
8571

> <PUBCHEM_CONFORMER_RMSD>
0.6

> <PUBCHEM_CONFORMER_DIVERSEORDER>
3
14
8
5
6
10
13
11
12
7
2
4
9
1

> <PUBCHEM_MMFF94_PARTIAL_CHARGES>
28
1 -0.53
10 0.08
11 -0.15
12 -0.15
13 -0.15
14 -0.15
15 -0.15
16 -0.15
17 0.08
18 0.08
19 0.15
2 -0.53
20 0.15
21 0.15
22 0.15
23 0.15
24 0.15
25 0.45
26 0.45
27 0.45
28 0.45
3 -0.57
4 -0.53
5 -0.53
6 0.09
7 0.09
8 0.4
9 0.08

> <PUBCHEM_EFFECTIVE_ROTOR_COUNT>
2

> <PUBCHEM_PHARMACOPHORE_FEATURES>
7
1 1 donor
1 2 donor
1 3 acceptor
1 4 donor
1 5 donor
6 6 9 11 13 15 17 rings
6 7 10 12 14 16 18 rings

> <PUBCHEM_HEAVY_ATOM_COUNT>
18

> <PUBCHEM_ATOM_DEF_STEREO_COUNT>
0

> <PUBCHEM_ATOM_UDEF_STEREO_COUNT>
0

> <PUBCHEM_BOND_DEF_STEREO_COUNT>
0

> <PUBCHEM_BOND_UDEF_STEREO_COUNT>
0

> <PUBCHEM_ISOTOPIC_ATOM_COUNT>
0

> <PUBCHEM_COMPONENT_COUNT>
1

> <PUBCHEM_CACTVS_TAUTO_COUNT>
72

> <PUBCHEM_CONFORMER_ID>
0000217B00000003

> <PUBCHEM_MMFF94_ENERGY>
59.7646

> <PUBCHEM_FEATURE_SELFOVERLAP>
35.523

> <PUBCHEM_SHAPE_FINGERPRINT>
11471102 20 18409169892103070408
11543360 7 16558473084182650672
11578080 2 11531614863815746903
12236239 1 18131065996288699443
12730499 353 18260275135465842107
13764800 53 16298659508524951853
14115302 16 17274813641062312855
14993402 34 17846215540487606185
15309172 13 17603583049510828995
15342168 16 17968104165179409005
15775835 57 18412826888988243309
16752209 62 16702019734536568467
16945 1 18338804403115108058
1813 80 17908702826610089778
18186145 218 18334579027342918966
19784866 34 18334295413878624880
19862831 5 17703791439638752137
19868273 293 17846494850753190559
20612939 158 18410015399459763708
20645476 183 18131345336920073351
20645477 70 18339644438557177238
20871999 31 17703499013054573895
21486144 27 18040157318289672158
22079108 93 18187935001610251691
22854114 59 17458065950124340569
231179 274 17822006519258234448
23402539 116 18409442626948148612
23402655 69 18343585139818180612
23559900 14 18270131244514800908
23598291 2 17916313731579383754
25 1 18335137605093349618
2748010 2 18049736405846724776
2838139 119 17898835865392311757
3082319 5 17846778520178562597
350125 39 17829344823007393920
4028521 119 18341894112446576825
474 4 18335984259027423912
5374978 207 12973890299285696421
633830 44 18335985259854816367
74978 22 17775280611934871745
76465 3 11743574149888780620
77492 1 18131067091542367739
81228 2 16880770831219455195
8272917 22 18265617572439684195
9981440 41 17624393673978878472

> <PUBCHEM_SHAPE_MULTIPOLES>
341.08
8.1
1.9
1.16
0.73
0.35
-0.07
-4.23
-1.78
-1.35
0.05
0.84
0.24
-0.62

> <PUBCHEM_SHAPE_SELFOVERLAP>
750.848

> <PUBCHEM_SHAPE_VOLUME>
184

> <PUBCHEM_COORDINATE_TYPE>
2
5
10

> <Energy>
46.2868

> <minimizedAffinity>
-7.80370

> <CNNscore>
0.7811413407

> <CNNaffinity>
6.0842576027

> <CNN_VS>
4.7526650429

> <CNNaffinity_variance>
0.4552938640

$$$$
8571


 22 23  0  0  0  0  0  0  0  0999 V2000
   -5.0105   -8.0075   20.6954 O   0  0  0  0  0  0  0  0  0  0  0  0
   -4.9409   -6.7835   20.7662 C   0  0  0  0  0  0  0  0  0  0  0  0
   -7.2098   -8.0731   21.9763 O   0  0  0  0  0  0  0  0  0  0  0  0
   -9.1074   -3.9080   23.2489 O   0  0  0  0  0  0  0  0  0  0  0  0
   -6.0281   -6.0149   21.4225 C   0  0  0  0  0  0  0  0  0  0  0  0
   -7.1097   -6.7064   21.9919 C   0  0  0  0  0  0  0  0  0  0  0  0
   -6.0071   -4.6146   21.4763 C   0  0  0  0  0  0  0  0  0  0  0  0
   -8.1467   -6.0181   22.6188 C   0  0  0  0  0  0  0  0  0  0  0  0
   -7.0548   -3.9234   22.0900 C   0  0  0  0  0  0  0  0  0  0  0  0
   -8.1109   -4.6280   22.6588 C   0  0  0  0  0  0  0  0  0  0  0  0
   -6.5409   -8.5871   21.5683 H   0  0  0  0  0  0  0  0  0  0  0  0
   -9.8345   -4.3492   23.6421 H   0  0  0  0  0  0  0  0  0  0  0  0
   -2.7872   -6.1600   22.4453 O   0  0  0  0  0  0  0  0  0  0  0  0
   -0.3779   -4.1971   18.7916 O   0  0  0  0  0  0  0  0  0  0  0  0
   -3.7415   -6.0979   20.2563 C   0  0  0  0  0  0  0  0  0  0  0  0
   -2.6835   -5.8189   21.1263 C   0  0  0  0  0  0  0  0  0  0  0  0
   -3.6629   -5.7552   18.9040 C   0  0  0  0  0  0  0  0  0  0  0  0
   -1.5357   -5.1866   20.6517 C   0  0  0  0  0  0  0  0  0  0  0  0
   -2.5232   -5.1037   18.4327 C   0  0  0  0  0  0  0  0  0  0  0  0
   -1.4715   -4.8293   19.3057 C   0  0  0  0  0  0  0  0  0  0  0  0
   -3.5609   -6.5850   22.7598 H   0  0  0  0  0  0  0  0  0  0  0  0
    0.3500   -3.9950   19.3458 H   0  0  0  0  0  0  0  0  0  0  0  0
  3  6  1  0
  3 11  1  0
 13 16  1  0
 13 21  1  0
  1  2  2  0
  4 10  1  0
  4 12  1  0
 14 20  1  0
 14 22  1  0
  5  2  1  0
  5  6  2  0
  5  7  1  0
 15  2  1  0
 15 16  2  0
 15 17  1  0
  6  8  1  0
 16 18  1  0
  7  9  2  0
 17 19  2  0
  8 10  2  0
 18 20  2  0
  9 10  1  0
 19 20  1  0
M  END
> <PUBCHEM_COMPOUND_CID>
8571

> <PUBCHEM_CONFORMER_RMSD>
0.6

> <PUBCHEM_CONFORMER_DIVERSEORDER>
3
14
8
5
6
10
13
11
12
7
2
4
9
1

> <PUBCHEM_MMFF94_PARTIAL_CHARGES>
28
1 -0.53
10 0.08
11 -0.15
12 -0.15
13 -0.15
14 -0.15
15 -0.15
16 -0.15
17 0.08
18 0.08
19 0.15
2 -0.53
20 0.15
21 0.15
22 0.15
23 0.15
24 0.15
25 0.45
26 0.45
27 0.45
28 0.45
3 -0.57
4 -0.53
5 -0.53
6 0.09
7 0.09
8 0.4
9 0.08

> <PUBCHEM_EFFECTIVE_ROTOR_COUNT>
2

> <PUBCHEM_PHARMACOPHORE_FEATURES>
7
1 1 donor
1 2 donor
1 3 acceptor
1 4 donor
1 5 donor
6 6 9 11 13 15 17 rings
6 7 10 12 14 16 18 rings

> <PUBCHEM_HEAVY_ATOM_COUNT>
18

> <PUBCHEM_ATOM_DEF_STEREO_COUNT>
0

> <PUBCHEM_ATOM_UDEF_STEREO_COUNT>
0

> <PUBCHEM_BOND_DEF_STEREO_COUNT>
0

> <PUBCHEM_BOND_UDEF_STEREO_COUNT>
0

> <PUBCHEM_ISOTOPIC_ATOM_COUNT>
0

> <PUBCHEM_COMPONENT_COUNT>
1

> <PUBCHEM_CACTVS_TAUTO_COUNT>
72

> <PUBCHEM_CONFORMER_ID>
0000217B00000003

> <PUBCHEM_MMFF94_ENERGY>
59.7646

> <PUBCHEM_FEATURE_SELFOVERLAP>
35.523

> <PUBCHEM_SHAPE_FINGERPRINT>
11471102 20 18409169892103070408
11543360 7 16558473084182650672
11578080 2 11531614863815746903
12236239 1 18131065996288699443
12730499 353 18260275135465842107
13764800 53 16298659508524951853
14115302 16 17274813641062312855
14993402 34 17846215540487606185
15309172 13 17603583049510828995
15342168 16 17968104165179409005
15775835 57 18412826888988243309
16752209 62 16702019734536568467
16945 1 18338804403115108058
1813 80 17908702826610089778
18186145 218 18334579027342918966
19784866 34 18334295413878624880
19862831 5 17703791439638752137
19868273 293 17846494850753190559
20612939 158 18410015399459763708
20645476 183 18131345336920073351
20645477 70 18339644438557177238
20871999 31 17703499013054573895
21486144 27 18040157318289672158
22079108 93 18187935001610251691
22854114 59 17458065950124340569
231179 274 17822006519258234448
23402539 116 18409442626948148612
23402655 69 18343585139818180612
23559900 14 18270131244514800908
23598291 2 17916313731579383754
25 1 18335137605093349618
2748010 2 18049736405846724776
2838139 119 17898835865392311757
3082319 5 17846778520178562597
350125 39 17829344823007393920
4028521 119 18341894112446576825
474 4 18335984259027423912
5374978 207 12973890299285696421
633830 44 18335985259854816367
74978 22 17775280611934871745
76465 3 11743574149888780620
77492 1 18131067091542367739
81228 2 16880770831219455195
8272917 22 18265617572439684195
9981440 41 17624393673978878472

> <PUBCHEM_SHAPE_MULTIPOLES>
341.08
8.1
1.9
1.16
0.73
0.35
-0.07
-4.23
-1.78
-1.35
0.05
0.84
0.24
-0.62

> <PUBCHEM_SHAPE_SELFOVERLAP>
750.848

> <PUBCHEM_SHAPE_VOLUME>
184

> <PUBCHEM_COORDINATE_TYPE>
2
5
10

> <Energy>
46.2868

> <minimizedAffinity>
-8.18418

> <CNNscore>
0.7789101601

> <CNNaffinity>
6.1688308716

> <CNN_VS>
4.8049650192

> <CNNaffinity_variance>
0.5105777383

$$$$
8571


 22 23  0  0  0  0  0  0  0  0999 V2000
   -4.4923   -5.3932   22.7034 O   0  0  0  0  0  0  0  0  0  0  0  0
   -4.6976   -5.3828   21.4927 C   0  0  0  0  0  0  0  0  0  0  0  0
   -6.5161   -3.1702   21.2230 O   0  0  0  0  0  0  0  0  0  0  0  0
   -9.9544   -5.9864   19.5451 O   0  0  0  0  0  0  0  0  0  0  0  0
   -6.0771   -5.5543   20.9723 C   0  0  0  0  0  0  0  0  0  0  0  0
   -6.9155   -4.4323   20.8685 C   0  0  0  0  0  0  0  0  0  0  0  0
   -6.5674   -6.8116   20.5940 C   0  0  0  0  0  0  0  0  0  0  0  0
   -8.2154   -4.5551   20.3816 C   0  0  0  0  0  0  0  0  0  0  0  0
   -7.8762   -6.9377   20.1216 C   0  0  0  0  0  0  0  0  0  0  0  0
   -8.6862   -5.8117   20.0150 C   0  0  0  0  0  0  0  0  0  0  0  0
   -5.6519   -3.0287   21.5566 H   0  0  0  0  0  0  0  0  0  0  0  0
  -10.5281   -5.2505   19.4600 H   0  0  0  0  0  0  0  0  0  0  0  0
   -2.1106   -4.8809   22.4422 O   0  0  0  0  0  0  0  0  0  0  0  0
   -0.4426   -4.4550   17.9651 O   0  0  0  0  0  0  0  0  0  0  0  0
   -3.5758   -5.1314   20.5724 C   0  0  0  0  0  0  0  0  0  0  0  0
   -2.2977   -4.8996   21.0889 C   0  0  0  0  0  0  0  0  0  0  0  0
   -3.7953   -5.1509   19.1926 C   0  0  0  0  0  0  0  0  0  0  0  0
   -1.2246   -4.6782   20.2275 C   0  0  0  0  0  0  0  0  0  0  0  0
   -2.7260   -4.9088   18.3304 C   0  0  0  0  0  0  0  0  0  0  0  0
   -1.4538   -4.6792   18.8523 C   0  0  0  0  0  0  0  0  0  0  0  0
   -2.8350   -5.0303   23.0174 H   0  0  0  0  0  0  0  0  0  0  0  0
    0.4269   -4.2967   18.2762 H   0  0  0  0  0  0  0  0  0  0  0  0
  3  6  1  0
  3 11  1  0
 13 16  1  0
 13 21  1  0
  1  2  2  0
  4 10  1  0
  4 12  1  0
 14 20  1  0
 14 22  1  0
  5  2  1  0
  5  6  2  0
  5  7  1  0
 15  2  1  0
 15 16  2  0
 15 17  1  0
  6  8  1  0
 16 18  1  0
  7  9  2  0
 17 19  2  0
  8 10  2  0
 18 20  2  0
  9 10  1  0
 19 20  1  0
M  END
> <PUBCHEM_COMPOUND_CID>
8571

> <PUBCHEM_CONFORMER_RMSD>
0.6

> <PUBCHEM_CONFORMER_DIVERSEORDER>
3
14
8
5
6
10
13
11
12
7
2
4
9
1

> <PUBCHEM_MMFF94_PARTIAL_CHARGES>
28
1 -0.53
10 0.08
11 -0.15
12 -0.15
13 -0.15
14 -0.15
15 -0.15
16 -0.15
17 0.08
18 0.08
19 0.15
2 -0.53
20 0.15
21 0.15
22 0.15
23 0.15
24 0.15
25 0.45
26 0.45
27 0.45
28 0.45
3 -0.57
4 -0.53
5 -0.53
6 0.09
7 0.09
8 0.4
9 0.08

> <PUBCHEM_EFFECTIVE_ROTOR_COUNT>
2

> <PUBCHEM_PHARMACOPHORE_FEATURES>
7
1 1 donor
1 2 donor
1 3 acceptor
1 4 donor
1 5 donor
6 6 9 11 13 15 17 rings
6 7 10 12 14 16 18 rings

> <PUBCHEM_HEAVY_ATOM_COUNT>
18

> <PUBCHEM_ATOM_DEF_STEREO_COUNT>
0

> <PUBCHEM_ATOM_UDEF_STEREO_COUNT>
0

> <PUBCHEM_BOND_DEF_STEREO_COUNT>
0

> <PUBCHEM_BOND_UDEF_STEREO_COUNT>
0

> <PUBCHEM_ISOTOPIC_ATOM_COUNT>
0

> <PUBCHEM_COMPONENT_COUNT>
1

> <PUBCHEM_CACTVS_TAUTO_COUNT>
72

> <PUBCHEM_CONFORMER_ID>
0000217B00000003

> <PUBCHEM_MMFF94_ENERGY>
59.7646

> <PUBCHEM_FEATURE_SELFOVERLAP>
35.523

> <PUBCHEM_SHAPE_FINGERPRINT>
11471102 20 18409169892103070408
11543360 7 16558473084182650672
11578080 2 11531614863815746903
12236239 1 18131065996288699443
12730499 353 18260275135465842107
13764800 53 16298659508524951853
14115302 16 17274813641062312855
14993402 34 17846215540487606185
15309172 13 17603583049510828995
15342168 16 17968104165179409005
15775835 57 18412826888988243309
16752209 62 16702019734536568467
16945 1 18338804403115108058
1813 80 17908702826610089778
18186145 218 18334579027342918966
19784866 34 18334295413878624880
19862831 5 17703791439638752137
19868273 293 17846494850753190559
20612939 158 18410015399459763708
20645476 183 18131345336920073351
20645477 70 18339644438557177238
20871999 31 17703499013054573895
21486144 27 18040157318289672158
22079108 93 18187935001610251691
22854114 59 17458065950124340569
231179 274 17822006519258234448
23402539 116 18409442626948148612
23402655 69 18343585139818180612
23559900 14 18270131244514800908
23598291 2 17916313731579383754
25 1 18335137605093349618
2748010 2 18049736405846724776
2838139 119 17898835865392311757
3082319 5 17846778520178562597
350125 39 17829344823007393920
4028521 119 18341894112446576825
474 4 18335984259027423912
5374978 207 12973890299285696421
633830 44 18335985259854816367
74978 22 17775280611934871745
76465 3 11743574149888780620
77492 1 18131067091542367739
81228 2 16880770831219455195
8272917 22 18265617572439684195
9981440 41 17624393673978878472

> <PUBCHEM_SHAPE_MULTIPOLES>
341.08
8.1
1.9
1.16
0.73
0.35
-0.07
-4.23
-1.78
-1.35
0.05
0.84
0.24
-0.62

> <PUBCHEM_SHAPE_SELFOVERLAP>
750.848

> <PUBCHEM_SHAPE_VOLUME>
184

> <PUBCHEM_COORDINATE_TYPE>
2
5
10

> <Energy>
46.2868

> <minimizedAffinity>
-7.84689

> <CNNscore>
0.7788928151

> <CNNaffinity>
6.0919365883

> <CNN_VS>
4.7449655533

> <CNNaffinity_variance>
0.4676192105

$$$$
8571


 22 23  0  0  0  0  0  0  0  0999 V2000
   -5.1142   -8.0169   20.7093 O   0  0  0  0  0  0  0  0  0  0  0  0
   -4.9845   -6.8031   20.8440 C   0  0  0  0  0  0  0  0  0  0  0  0
   -2.7497   -6.1146   22.5193 O   0  0  0  0  0  0  0  0  0  0  0  0
   -0.3932   -4.1932   18.8692 O   0  0  0  0  0  0  0  0  0  0  0  0
   -3.7787   -6.1218   20.3102 C   0  0  0  0  0  0  0  0  0  0  0  0
   -2.7234   -5.8110   21.1832 C   0  0  0  0  0  0  0  0  0  0  0  0
   -3.6735   -5.7696   18.9577 C   0  0  0  0  0  0  0  0  0  0  0  0
   -1.5749   -5.1744   20.7168 C   0  0  0  0  0  0  0  0  0  0  0  0
   -2.5293   -5.1163   18.4930 C   0  0  0  0  0  0  0  0  0  0  0  0
   -1.4901   -4.8287   19.3720 C   0  0  0  0  0  0  0  0  0  0  0  0
   -3.4972   -6.5432   22.8877 H   0  0  0  0  0  0  0  0  0  0  0  0
    0.3259   -3.9835   19.4321 H   0  0  0  0  0  0  0  0  0  0  0  0
   -7.2285   -8.0577   21.9562 O   0  0  0  0  0  0  0  0  0  0  0  0
   -9.0674   -3.8264   23.2686 O   0  0  0  0  0  0  0  0  0  0  0  0
   -6.0647   -6.0275   21.4767 C   0  0  0  0  0  0  0  0  0  0  0  0
   -7.1599   -6.6952   22.0323 C   0  0  0  0  0  0  0  0  0  0  0  0
   -5.9724   -4.6346   21.5367 C   0  0  0  0  0  0  0  0  0  0  0  0
   -8.1798   -5.9731   22.6497 C   0  0  0  0  0  0  0  0  0  0  0  0
   -7.0027   -3.9100   22.1359 C   0  0  0  0  0  0  0  0  0  0  0  0
   -8.0916   -4.5824   22.6888 C   0  0  0  0  0  0  0  0  0  0  0  0
   -6.5404   -8.5389   21.5402 H   0  0  0  0  0  0  0  0  0  0  0  0
   -9.8156   -4.2407   23.6514 H   0  0  0  0  0  0  0  0  0  0  0  0
  3  6  1  0
  3 11  1  0
 13 16  1  0
 13 21  1  0
  1  2  2  0
  4 10  1  0
  4 12  1  0
 14 20  1  0
 14 22  1  0
  5  2  1  0
  5  6  2  0
  5  7  1  0
 15  2  1  0
 15 16  2  0
 15 17  1  0
  6  8  1  0
 16 18  1  0
  7  9  2  0
 17 19  2  0
  8 10  2  0
 18 20  2  0
  9 10  1  0
 19 20  1  0
M  END
> <PUBCHEM_COMPOUND_CID>
8571

> <PUBCHEM_CONFORMER_RMSD>
0.6

> <PUBCHEM_CONFORMER_DIVERSEORDER>
3
14
8
5
6
10
13
11
12
7
2
4
9
1

> <PUBCHEM_MMFF94_PARTIAL_CHARGES>
28
1 -0.53
10 0.08
11 -0.15
12 -0.15
13 -0.15
14 -0.15
15 -0.15
16 -0.15
17 0.08
18 0.08
19 0.15
2 -0.53
20 0.15
21 0.15
22 0.15
23 0.15
24 0.15
25 0.45
26 0.45
27 0.45
28 0.45
3 -0.57
4 -0.53
5 -0.53
6 0.09
7 0.09
8 0.4
9 0.08

> <PUBCHEM_EFFECTIVE_ROTOR_COUNT>
2

> <PUBCHEM_PHARMACOPHORE_FEATURES>
7
1 1 donor
1 2 donor
1 3 acceptor
1 4 donor
1 5 donor
6 6 9 11 13 15 17 rings
6 7 10 12 14 16 18 rings

> <PUBCHEM_HEAVY_ATOM_COUNT>
18

> <PUBCHEM_ATOM_DEF_STEREO_COUNT>
0

> <PUBCHEM_ATOM_UDEF_STEREO_COUNT>
0

> <PUBCHEM_BOND_DEF_STEREO_COUNT>
0

> <PUBCHEM_BOND_UDEF_STEREO_COUNT>
0

> <PUBCHEM_ISOTOPIC_ATOM_COUNT>
0

> <PUBCHEM_COMPONENT_COUNT>
1

> <PUBCHEM_CACTVS_TAUTO_COUNT>
72

> <PUBCHEM_CONFORMER_ID>
0000217B00000003

> <PUBCHEM_MMFF94_ENERGY>
59.7646

> <PUBCHEM_FEATURE_SELFOVERLAP>
35.523

> <PUBCHEM_SHAPE_FINGERPRINT>
11471102 20 18409169892103070408
11543360 7 16558473084182650672
11578080 2 11531614863815746903
12236239 1 18131065996288699443
12730499 353 18260275135465842107
13764800 53 16298659508524951853
14115302 16 17274813641062312855
14993402 34 17846215540487606185
15309172 13 17603583049510828995
15342168 16 17968104165179409005
15775835 57 18412826888988243309
16752209 62 16702019734536568467
16945 1 18338804403115108058
1813 80 17908702826610089778
18186145 218 18334579027342918966
19784866 34 18334295413878624880
19862831 5 17703791439638752137
19868273 293 17846494850753190559
20612939 158 18410015399459763708
20645476 183 18131345336920073351
20645477 70 18339644438557177238
20871999 31 17703499013054573895
21486144 27 18040157318289672158
22079108 93 18187935001610251691
22854114 59 17458065950124340569
231179 274 17822006519258234448
23402539 116 18409442626948148612
23402655 69 18343585139818180612
23559900 14 18270131244514800908
23598291 2 17916313731579383754
25 1 18335137605093349618
2748010 2 18049736405846724776
2838139 119 17898835865392311757
3082319 5 17846778520178562597
350125 39 17829344823007393920
4028521 119 18341894112446576825
474 4 18335984259027423912
5374978 207 12973890299285696421
633830 44 18335985259854816367
74978 22 17775280611934871745
76465 3 11743574149888780620
77492 1 18131067091542367739
81228 2 16880770831219455195
8272917 22 18265617572439684195
9981440 41 17624393673978878472

> <PUBCHEM_SHAPE_MULTIPOLES>
341.08
8.1
1.9
1.16
0.73
0.35
-0.07
-4.23
-1.78
-1.35
0.05
0.84
0.24
-0.62

> <PUBCHEM_SHAPE_SELFOVERLAP>
750.848

> <PUBCHEM_SHAPE_VOLUME>
184

> <PUBCHEM_COORDINATE_TYPE>
2
5
10

> <Energy>
46.2868

> <minimizedAffinity>
-8.18882

> <CNNscore>
0.7688003778

> <CNNaffinity>
6.1607360840

> <CNN_VS>
4.7363762856

> <CNNaffinity_variance>
0.5237342715

$$$$
8571


 22 23  0  0  0  0  0  0  0  0999 V2000
   -5.6638   -4.4917   22.1089 O   0  0  0  0  0  0  0  0  0  0  0  0
   -5.1667   -5.2720   21.3013 C   0  0  0  0  0  0  0  0  0  0  0  0
   -4.1897   -5.0828   18.6023 O   0  0  0  0  0  0  0  0  0  0  0  0
    0.3285   -5.0022   20.0679 O   0  0  0  0  0  0  0  0  0  0  0  0
   -3.7173   -5.1950   20.9905 C   0  0  0  0  0  0  0  0  0  0  0  0
   -3.3069   -5.1070   19.6503 C   0  0  0  0  0  0  0  0  0  0  0  0
   -2.7478   -5.2209   22.0022 C   0  0  0  0  0  0  0  0  0  0  0  0
   -1.9550   -5.0302   19.3212 C   0  0  0  0  0  0  0  0  0  0  0  0
   -1.3916   -5.1607   21.6718 C   0  0  0  0  0  0  0  0  0  0  0  0
   -1.0067   -5.0616   20.3386 C   0  0  0  0  0  0  0  0  0  0  0  0
   -5.1112   -5.1314   18.7649 H   0  0  0  0  0  0  0  0  0  0  0  0
    0.6243   -4.9351   19.1814 H   0  0  0  0  0  0  0  0  0  0  0  0
   -7.4515   -4.6418   19.8083 O   0  0  0  0  0  0  0  0  0  0  0  0
   -8.3303   -9.2884   19.0058 O   0  0  0  0  0  0  0  0  0  0  0  0
   -6.0068   -6.3218   20.7008 C   0  0  0  0  0  0  0  0  0  0  0  0
   -7.1304   -5.9622   19.9509 C   0  0  0  0  0  0  0  0  0  0  0  0
   -5.6591   -7.6649   20.8662 C   0  0  0  0  0  0  0  0  0  0  0  0
   -7.9231   -6.9461   19.3627 C   0  0  0  0  0  0  0  0  0  0  0  0
   -6.4637   -8.6510   20.2952 C   0  0  0  0  0  0  0  0  0  0  0  0
   -7.5822   -8.2852   19.5479 C   0  0  0  0  0  0  0  0  0  0  0  0
   -6.9155   -3.9838   20.2056 H   0  0  0  0  0  0  0  0  0  0  0  0
   -9.0899   -9.0838   18.4969 H   0  0  0  0  0  0  0  0  0  0  0  0
  3  6  1  0
  3 11  1  0
 13 16  1  0
 13 21  1  0
  1  2  2  0
  4 10  1  0
  4 12  1  0
 14 20  1  0
 14 22  1  0
  5  2  1  0
  5  6  2  0
  5  7  1  0
 15  2  1  0
 15 16  2  0
 15 17  1  0
  6  8  1  0
 16 18  1  0
  7  9  2  0
 17 19  2  0
  8 10  2  0
 18 20  2  0
  9 10  1  0
 19 20  1  0
M  END
> <PUBCHEM_COMPOUND_CID>
8571

> <PUBCHEM_CONFORMER_RMSD>
0.6

> <PUBCHEM_CONFORMER_DIVERSEORDER>
3
14
8
5
6
10
13
11
12
7
2
4
9
1

> <PUBCHEM_MMFF94_PARTIAL_CHARGES>
28
1 -0.53
10 0.08
11 -0.15
12 -0.15
13 -0.15
14 -0.15
15 -0.15
16 -0.15
17 0.08
18 0.08
19 0.15
2 -0.53
20 0.15
21 0.15
22 0.15
23 0.15
24 0.15
25 0.45
26 0.45
27 0.45
28 0.45
3 -0.57
4 -0.53
5 -0.53
6 0.09
7 0.09
8 0.4
9 0.08

> <PUBCHEM_EFFECTIVE_ROTOR_COUNT>
2

> <PUBCHEM_PHARMACOPHORE_FEATURES>
7
1 1 donor
1 2 donor
1 3 acceptor
1 4 donor
1 5 donor
6 6 9 11 13 15 17 rings
6 7 10 12 14 16 18 rings

> <PUBCHEM_HEAVY_ATOM_COUNT>
18

> <PUBCHEM_ATOM_DEF_STEREO_COUNT>
0

> <PUBCHEM_ATOM_UDEF_STEREO_COUNT>
0

> <PUBCHEM_BOND_DEF_STEREO_COUNT>
0

> <PUBCHEM_BOND_UDEF_STEREO_COUNT>
0

> <PUBCHEM_ISOTOPIC_ATOM_COUNT>
0

> <PUBCHEM_COMPONENT_COUNT>
1

> <PUBCHEM_CACTVS_TAUTO_COUNT>
72

> <PUBCHEM_CONFORMER_ID>
0000217B00000003

> <PUBCHEM_MMFF94_ENERGY>
59.7646

> <PUBCHEM_FEATURE_SELFOVERLAP>
35.523

> <PUBCHEM_SHAPE_FINGERPRINT>
11471102 20 18409169892103070408
11543360 7 16558473084182650672
11578080 2 11531614863815746903
12236239 1 18131065996288699443
12730499 353 18260275135465842107
13764800 53 16298659508524951853
14115302 16 17274813641062312855
14993402 34 17846215540487606185
15309172 13 17603583049510828995
15342168 16 17968104165179409005
15775835 57 18412826888988243309
16752209 62 16702019734536568467
16945 1 18338804403115108058
1813 80 17908702826610089778
18186145 218 18334579027342918966
19784866 34 18334295413878624880
19862831 5 17703791439638752137
19868273 293 17846494850753190559
20612939 158 18410015399459763708
20645476 183 18131345336920073351
20645477 70 18339644438557177238
20871999 31 17703499013054573895
21486144 27 18040157318289672158
22079108 93 18187935001610251691
22854114 59 17458065950124340569
231179 274 17822006519258234448
23402539 116 18409442626948148612
23402655 69 18343585139818180612
23559900 14 18270131244514800908
23598291 2 17916313731579383754
25 1 18335137605093349618
2748010 2 18049736405846724776
2838139 119 17898835865392311757
3082319 5 17846778520178562597
350125 39 17829344823007393920
4028521 119 18341894112446576825
474 4 18335984259027423912
5374978 207 12973890299285696421
633830 44 18335985259854816367
74978 22 17775280611934871745
76465 3 11743574149888780620
77492 1 18131067091542367739
81228 2 16880770831219455195
8272917 22 18265617572439684195
9981440 41 17624393673978878472

> <PUBCHEM_SHAPE_MULTIPOLES>
341.08
8.1
1.9
1.16
0.73
0.35
-0.07
-4.23
-1.78
-1.35
0.05
0.84
0.24
-0.62

> <PUBCHEM_SHAPE_SELFOVERLAP>
750.848

> <PUBCHEM_SHAPE_VOLUME>
184

> <PUBCHEM_COORDINATE_TYPE>
2
5
10

> <Energy>
46.2868

> <minimizedAffinity>
-7.88159

> <CNNscore>
0.7664909363

> <CNNaffinity>
5.4749546051

> <CNN_VS>
4.1965031624

> <CNNaffinity_variance>
0.5238246918

$$$$
8571


 22 23  0  0  0  0  0  0  0  0999 V2000
   -5.5961   -4.8247   22.3204 O   0  0  0  0  0  0  0  0  0  0  0  0
   -5.1263   -5.5462   21.4448 C   0  0  0  0  0  0  0  0  0  0  0  0
   -7.3159   -4.7437   19.7606 O   0  0  0  0  0  0  0  0  0  0  0  0
   -8.4586   -9.2567   18.8144 O   0  0  0  0  0  0  0  0  0  0  0  0
   -5.9922   -6.5333   20.7526 C   0  0  0  0  0  0  0  0  0  0  0  0
   -7.0468   -6.0745   19.9466 C   0  0  0  0  0  0  0  0  0  0  0  0
   -5.7902   -7.9129   20.8945 C   0  0  0  0  0  0  0  0  0  0  0  0
   -7.8780   -6.9721   19.2794 C   0  0  0  0  0  0  0  0  0  0  0  0
   -6.6337   -8.8134   20.2391 C   0  0  0  0  0  0  0  0  0  0  0  0
   -7.6650   -8.3380   19.4355 C   0  0  0  0  0  0  0  0  0  0  0  0
   -6.7890   -4.0954   20.1850 H   0  0  0  0  0  0  0  0  0  0  0  0
   -9.1629   -8.9728   18.2655 H   0  0  0  0  0  0  0  0  0  0  0  0
   -4.3951   -5.2458   18.7574 O   0  0  0  0  0  0  0  0  0  0  0  0
    0.2338   -4.8654   19.9561 O   0  0  0  0  0  0  0  0  0  0  0  0
   -3.7195   -5.3737   21.0451 C   0  0  0  0  0  0  0  0  0  0  0  0
   -3.4005   -5.2126   19.6937 C   0  0  0  0  0  0  0  0  0  0  0  0
   -2.7209   -5.3487   22.0221 C   0  0  0  0  0  0  0  0  0  0  0  0
   -2.0745   -5.0306   19.3047 C   0  0  0  0  0  0  0  0  0  0  0  0
   -1.3915   -5.1874   21.6317 C   0  0  0  0  0  0  0  0  0  0  0  0
   -1.0806   -5.0264   20.2823 C   0  0  0  0  0  0  0  0  0  0  0  0
   -5.2851   -5.3684   19.0237 H   0  0  0  0  0  0  0  0  0  0  0  0
    0.4837   -4.7542   19.0600 H   0  0  0  0  0  0  0  0  0  0  0  0
  3  6  1  0
  3 11  1  0
 13 16  1  0
 13 21  1  0
  1  2  2  0
  4 10  1  0
  4 12  1  0
 14 20  1  0
 14 22  1  0
  5  2  1  0
  5  6  2  0
  5  7  1  0
 15  2  1  0
 15 16  2  0
 15 17  1  0
  6  8  1  0
 16 18  1  0
  7  9  2  0
 17 19  2  0
  8 10  2  0
 18 20  2  0
  9 10  1  0
 19 20  1  0
M  END
> <PUBCHEM_COMPOUND_CID>
8571

> <PUBCHEM_CONFORMER_RMSD>
0.6

> <PUBCHEM_CONFORMER_DIVERSEORDER>
3
14
8
5
6
10
13
11
12
7
2
4
9
1

> <PUBCHEM_MMFF94_PARTIAL_CHARGES>
28
1 -0.53
10 0.08
11 -0.15
12 -0.15
13 -0.15
14 -0.15
15 -0.15
16 -0.15
17 0.08
18 0.08
19 0.15
2 -0.53
20 0.15
21 0.15
22 0.15
23 0.15
24 0.15
25 0.45
26 0.45
27 0.45
28 0.45
3 -0.57
4 -0.53
5 -0.53
6 0.09
7 0.09
8 0.4
9 0.08

> <PUBCHEM_EFFECTIVE_ROTOR_COUNT>
2

> <PUBCHEM_PHARMACOPHORE_FEATURES>
7
1 1 donor
1 2 donor
1 3 acceptor
1 4 donor
1 5 donor
6 6 9 11 13 15 17 rings
6 7 10 12 14 16 18 rings

> <PUBCHEM_HEAVY_ATOM_COUNT>
18

> <PUBCHEM_ATOM_DEF_STEREO_COUNT>
0

> <PUBCHEM_ATOM_UDEF_STEREO_COUNT>
0

> <PUBCHEM_BOND_DEF_STEREO_COUNT>
0

> <PUBCHEM_BOND_UDEF_STEREO_COUNT>
0

> <PUBCHEM_ISOTOPIC_ATOM_COUNT>
0

> <PUBCHEM_COMPONENT_COUNT>
1

> <PUBCHEM_CACTVS_TAUTO_COUNT>
72

> <PUBCHEM_CONFORMER_ID>
0000217B00000003

> <PUBCHEM_MMFF94_ENERGY>
59.7646

> <PUBCHEM_FEATURE_SELFOVERLAP>
35.523

> <PUBCHEM_SHAPE_FINGERPRINT>
11471102 20 18409169892103070408
11543360 7 16558473084182650672
11578080 2 11531614863815746903
12236239 1 18131065996288699443
12730499 353 18260275135465842107
13764800 53 16298659508524951853
14115302 16 17274813641062312855
14993402 34 17846215540487606185
15309172 13 17603583049510828995
15342168 16 17968104165179409005
15775835 57 18412826888988243309
16752209 62 16702019734536568467
16945 1 18338804403115108058
1813 80 17908702826610089778
18186145 218 18334579027342918966
19784866 34 18334295413878624880
19862831 5 17703791439638752137
19868273 293 17846494850753190559
20612939 158 18410015399459763708
20645476 183 18131345336920073351
20645477 70 18339644438557177238
20871999 31 17703499013054573895
21486144 27 18040157318289672158
22079108 93 18187935001610251691
22854114 59 17458065950124340569
231179 274 17822006519258234448
23402539 116 18409442626948148612
23402655 69 18343585139818180612
23559900 14 18270131244514800908
23598291 2 17916313731579383754
25 1 18335137605093349618
2748010 2 18049736405846724776
2838139 119 17898835865392311757
3082319 5 17846778520178562597
350125 39 17829344823007393920
4028521 119 18341894112446576825
474 4 18335984259027423912
5374978 207 12973890299285696421
633830 44 18335985259854816367
74978 22 17775280611934871745
76465 3 11743574149888780620
77492 1 18131067091542367739
81228 2 16880770831219455195
8272917 22 18265617572439684195
9981440 41 17624393673978878472

> <PUBCHEM_SHAPE_MULTIPOLES>
341.08
8.1
1.9
1.16
0.73
0.35
-0.07
-4.23
-1.78
-1.35
0.05
0.84
0.24
-0.62

> <PUBCHEM_SHAPE_SELFOVERLAP>
750.848

> <PUBCHEM_SHAPE_VOLUME>
184

> <PUBCHEM_COORDINATE_TYPE>
2
5
10

> <Energy>
46.2868

> <minimizedAffinity>
-7.79359

> <CNNscore>
0.7618909478

> <CNNaffinity>
5.3812370300

> <CNN_VS>
4.0999159813

> <CNNaffinity_variance>
0.5289495587

$$$$
8571


 22 23  0  0  0  0  0  0  0  0999 V2000
   -4.9510   -4.3884   22.7715 O   0  0  0  0  0  0  0  0  0  0  0  0
   -5.3897   -4.8104   21.7049 C   0  0  0  0  0  0  0  0  0  0  0  0
   -2.9055   -6.1844   22.1693 O   0  0  0  0  0  0  0  0  0  0  0  0
   -1.8037   -6.0987   17.5490 O   0  0  0  0  0  0  0  0  0  0  0  0
   -4.4574   -5.1495   20.6009 C   0  0  0  0  0  0  0  0  0  0  0  0
   -3.2588   -5.8190   20.8965 C   0  0  0  0  0  0  0  0  0  0  0  0
   -4.7388   -4.8060   19.2716 C   0  0  0  0  0  0  0  0  0  0  0  0
   -2.3611   -6.1560   19.8854 C   0  0  0  0  0  0  0  0  0  0  0  0
   -3.8313   -5.1289   18.2596 C   0  0  0  0  0  0  0  0  0  0  0  0
   -2.6553   -5.8032   18.5723 C   0  0  0  0  0  0  0  0  0  0  0  0
   -3.4715   -5.9834   22.8885 H   0  0  0  0  0  0  0  0  0  0  0  0
   -1.0023   -6.5521   17.7224 H   0  0  0  0  0  0  0  0  0  0  0  0
   -6.8602   -6.1687   23.6644 O   0  0  0  0  0  0  0  0  0  0  0  0
  -10.9028   -5.6429   21.1368 O   0  0  0  0  0  0  0  0  0  0  0  0
   -6.8373   -5.0391   21.5597 C   0  0  0  0  0  0  0  0  0  0  0  0
   -7.5350   -5.7090   22.5688 C   0  0  0  0  0  0  0  0  0  0  0  0
   -7.5025   -4.5632   20.4269 C   0  0  0  0  0  0  0  0  0  0  0  0
   -8.9084   -5.9156   22.4511 C   0  0  0  0  0  0  0  0  0  0  0  0
   -8.8731   -4.7879   20.2986 C   0  0  0  0  0  0  0  0  0  0  0  0
   -9.5630   -5.4560   21.3092 C   0  0  0  0  0  0  0  0  0  0  0  0
   -5.9369   -6.0274   23.7392 H   0  0  0  0  0  0  0  0  0  0  0  0
  -11.4021   -6.0874   21.7933 H   0  0  0  0  0  0  0  0  0  0  0  0
  3  6  1  0
  3 11  1  0
 13 16  1  0
 13 21  1  0
  1  2  2  0
  4 10  1  0
  4 12  1  0
 14 20  1  0
 14 22  1  0
  5  2  1  0
  5  6  2  0
  5  7  1  0
 15  2  1  0
 15 16  2  0
 15 17  1  0
  6  8  1  0
 16 18  1  0
  7  9  2  0
 17 19  2  0
  8 10  2  0
 18 20  2  0
  9 10  1  0
 19 20  1  0
M  END
> <PUBCHEM_COMPOUND_CID>
8571

> <PUBCHEM_CONFORMER_RMSD>
0.6

> <PUBCHEM_CONFORMER_DIVERSEORDER>
3
14
8
5
6
10
13
11
12
7
2
4
9
1

> <PUBCHEM_MMFF94_PARTIAL_CHARGES>
28
1 -0.53
10 0.08
11 -0.15
12 -0.15
13 -0.15
14 -0.15
15 -0.15
16 -0.15
17 0.08
18 0.08
19 0.15
2 -0.53
20 0.15
21 0.15
22 0.15
23 0.15
24 0.15
25 0.45
26 0.45
27 0.45
28 0.45
3 -0.57
4 -0.53
5 -0.53
6 0.09
7 0.09
8 0.4
9 0.08

> <PUBCHEM_EFFECTIVE_ROTOR_COUNT>
2

> <PUBCHEM_PHARMACOPHORE_FEATURES>
7
1 1 donor
1 2 donor
1 3 acceptor
1 4 donor
1 5 donor
6 6 9 11 13 15 17 rings
6 7 10 12 14 16 18 rings

> <PUBCHEM_HEAVY_ATOM_COUNT>
18

> <PUBCHEM_ATOM_DEF_STEREO_COUNT>
0

> <PUBCHEM_ATOM_UDEF_STEREO_COUNT>
0

> <PUBCHEM_BOND_DEF_STEREO_COUNT>
0

> <PUBCHEM_BOND_UDEF_STEREO_COUNT>
0

> <PUBCHEM_ISOTOPIC_ATOM_COUNT>
0

> <PUBCHEM_COMPONENT_COUNT>
1

> <PUBCHEM_CACTVS_TAUTO_COUNT>
72

> <PUBCHEM_CONFORMER_ID>
0000217B00000003

> <PUBCHEM_MMFF94_ENERGY>
59.7646

> <PUBCHEM_FEATURE_SELFOVERLAP>
35.523

> <PUBCHEM_SHAPE_FINGERPRINT>
11471102 20 18409169892103070408
11543360 7 16558473084182650672
11578080 2 11531614863815746903
12236239 1 18131065996288699443
12730499 353 18260275135465842107
13764800 53 16298659508524951853
14115302 16 17274813641062312855
14993402 34 17846215540487606185
15309172 13 17603583049510828995
15342168 16 17968104165179409005
15775835 57 18412826888988243309
16752209 62 16702019734536568467
16945 1 18338804403115108058
1813 80 17908702826610089778
18186145 218 18334579027342918966
19784866 34 18334295413878624880
19862831 5 17703791439638752137
19868273 293 17846494850753190559
20612939 158 18410015399459763708
20645476 183 18131345336920073351
20645477 70 18339644438557177238
20871999 31 17703499013054573895
21486144 27 18040157318289672158
22079108 93 18187935001610251691
22854114 59 17458065950124340569
231179 274 17822006519258234448
23402539 116 18409442626948148612
23402655 69 18343585139818180612
23559900 14 18270131244514800908
23598291 2 17916313731579383754
25 1 18335137605093349618
2748010 2 18049736405846724776
2838139 119 17898835865392311757
3082319 5 17846778520178562597
350125 39 17829344823007393920
4028521 119 18341894112446576825
474 4 18335984259027423912
5374978 207 12973890299285696421
633830 44 18335985259854816367
74978 22 17775280611934871745
76465 3 11743574149888780620
77492 1 18131067091542367739
81228 2 16880770831219455195
8272917 22 18265617572439684195
9981440 41 17624393673978878472

> <PUBCHEM_SHAPE_MULTIPOLES>
341.08
8.1
1.9
1.16
0.73
0.35
-0.07
-4.23
-1.78
-1.35
0.05
0.84
0.24
-0.62

> <PUBCHEM_SHAPE_SELFOVERLAP>
750.848

> <PUBCHEM_SHAPE_VOLUME>
184

> <PUBCHEM_COORDINATE_TYPE>
2
5
10

> <Energy>
46.2868

> <minimizedAffinity>
-8.57919

> <CNNscore>
0.7581279278

> <CNNaffinity>
6.1641635895

> <CNN_VS>
4.6732244492

> <CNNaffinity_variance>
0.4718832970

$$$$
