5284645


 26 27  0  0  0  0  0  0  0  0999 V2000
   -8.2782   -6.4192    8.1803 O   0  0  0  0  0  0  0  0  0  0  0  0
   -7.8476   -3.1073   13.1786 O   0  0  0  0  0  0  0  0  0  0  0  0
   -9.0393   -4.4567   14.6156 O   0  0  0  0  0  0  0  0  0  0  0  0
   -7.6336   -3.6378   16.9525 O   0  0  0  0  0  0  0  0  0  0  0  0
   -3.1076   -4.9293   16.7995 O   0  0  0  0  0  0  0  0  0  0  0  0
   -9.6371   -5.5231    9.9522 C   0  0  0  0  0  0  0  0  0  0  0  0
   -8.2265   -5.9753    9.5372 C   0  0  0  0  0  0  0  0  0  0  0  0
   -9.6875   -4.7642   11.2810 C   0  0  0  0  0  0  0  0  0  0  0  0
   -7.6893   -7.1224   10.4068 C   0  0  0  0  0  0  0  0  0  0  0  0
   -9.1565   -3.3316   11.1651 C   0  0  0  0  0  0  0  0  0  0  0  0
   -6.2154   -7.4604   10.1368 C   0  0  0  0  0  0  0  0  0  0  0  0
   -9.0466   -2.6381   12.5270 C   0  0  0  0  0  0  0  0  0  0  0  0
   -5.2212   -6.3780   10.5740 C   0  0  0  0  0  0  0  0  0  0  0  0
   -8.8807   -1.1309   12.3568 C   0  0  0  0  0  0  0  0  0  0  0  0
   -5.2408   -6.1245   12.0570 C   0  0  0  0  0  0  0  0  0  0  0  0
   -6.6814   -4.2700   14.7928 C   0  0  0  0  0  0  0  0  0  0  0  0
   -5.5613   -4.7122   14.0608 C   0  0  0  0  0  0  0  0  0  0  0  0
   -7.9940   -4.0140   14.1643 C   0  0  0  0  0  0  0  0  0  0  0  0
   -5.5793   -4.9478   12.6082 C   0  0  0  0  0  0  0  0  0  0  0  0
   -6.5862   -4.0776   16.1805 C   0  0  0  0  0  0  0  0  0  0  0  0
   -4.3506   -4.9239   14.7493 C   0  0  0  0  0  0  0  0  0  0  0  0
   -4.2745   -4.7233   16.1257 C   0  0  0  0  0  0  0  0  0  0  0  0
   -5.3859   -4.3050   16.8479 C   0  0  0  0  0  0  0  0  0  0  0  0
   -8.6160   -5.7041    7.6188 H   0  0  0  0  0  0  0  0  0  0  0  0
   -8.4667   -3.4676   16.5587 H   0  0  0  0  0  0  0  0  0  0  0  0
   -2.3431   -5.2115   16.3371 H   0  0  0  0  0  0  0  0  0  0  0  0
  1  7  1  0
  1 24  1  0
  2 12  1  0
  2 18  1  0
  3 18  2  0
  4 20  1  0
  4 25  1  0
  5 22  1  0
  5 26  1  0
  6  7  1  0
  6  8  1  0
  7  9  1  0
  8 10  1  0
  9 11  1  0
 10 12  1  0
 11 13  1  0
 12 14  1  0
 13 15  1  0
 15 19  2  0
 16 17  2  0
 16 18  1  0
 16 20  1  0
 17 19  1  0
 17 21  1  0
 20 23  2  0
 21 22  2  0
 22 23  1  0
M  END
> <PUBCHEM_COMPOUND_CID>
5284645

> <PUBCHEM_CONFORMER_RMSD>
0.6

> <PUBCHEM_CONFORMER_DIVERSEORDER>
1

> <PUBCHEM_MMFF94_PARTIAL_CHARGES>
24
1 -0.68
12 0.28
13 0.14
15 -0.29
16 0.09
17 0.03
18 0.63
19 -0.18
2 -0.43
20 0.08
21 -0.15
22 0.08
23 -0.15
3 -0.57
4 -0.53
41 0.4
42 0.15
43 0.15
44 0.15
45 0.15
46 0.45
47 0.45
5 -0.53
7 0.28

> <PUBCHEM_EFFECTIVE_ROTOR_COUNT>
1.8

> <PUBCHEM_PHARMACOPHORE_FEATURES>
6
1 1 acceptor
1 1 donor
1 3 acceptor
1 4 donor
1 5 donor
6 16 17 20 21 22 23 rings

> <PUBCHEM_HEAVY_ATOM_COUNT>
23

> <PUBCHEM_ATOM_DEF_STEREO_COUNT>
2

> <PUBCHEM_ATOM_UDEF_STEREO_COUNT>
0

> <PUBCHEM_BOND_DEF_STEREO_COUNT>
1

> <PUBCHEM_BOND_UDEF_STEREO_COUNT>
0

> <PUBCHEM_ISOTOPIC_ATOM_COUNT>
0

> <PUBCHEM_COMPONENT_COUNT>
1

> <PUBCHEM_CACTVS_TAUTO_COUNT>
12

> <PUBCHEM_CONFORMER_ID>
0050A32500000001

> <PUBCHEM_MMFF94_ENERGY>
56.9454

> <PUBCHEM_FEATURE_SELFOVERLAP>
30.446

> <PUBCHEM_SHAPE_FINGERPRINT>
1100329 8 17836085568009856625
11112241 14 16986289841619931392
11578080 2 16734366241365874279
12166972 35 17967822613537111974
12403259 226 18337670931286267939
12506688 2 18412827975731104564
12596599 1 17914633677902020662
12788726 201 17627507133988941776
13140716 1 18267582403486064363
13402501 40 18336828697047978282
13533116 47 18056766653224983451
14251757 17 18262232209996353437
14787075 74 18336834185758012246
14790565 3 17545883724776523813
14866123 147 17767415573386001256
14931854 50 18336551491284682350
15196674 1 18334859415888043750
15322687 12 17104511174142344237
19591789 44 18337109089556020683
19930381 70 18413393137471364090
20028762 73 17044582808783771111
20691752 17 17022900138402631537
20715895 44 17609482839964013085
20832881 197 18343306989256920753
20905425 154 18409167675446349782
22182313 1 18041826412212926463
23227448 37 18189331260828617463
23352939 185 18342462530415398027
23557571 272 17910374109985112994
23559900 14 18335978778501818797
238 59 18196346307921625956
2748010 2 18117544331403189953
3323516 105 18411138077713944259
350125 39 18336268960321048513
3524813 1 18334011700965522918
3680242 22 18116995477305685354
463206 1 18269557311053435927
5265222 85 17471861776259798556
57527585 103 17390829632986241626
59755656 215 18188762977069237031
6443956 14 18340493347406701473
81228 2 17476913559209296171

> <PUBCHEM_SHAPE_MULTIPOLES>
443.98
8.21
4.09
1.18
1.54
0.84
-0.09
-3.84
1.51
-1.8
-1.33
-0.11
0.8
1.1

> <PUBCHEM_SHAPE_SELFOVERLAP>
916.908

> <PUBCHEM_SHAPE_VOLUME>
252.3

> <PUBCHEM_COORDINATE_TYPE>
2
5
10

> <Energy>
40.5071

> <minimizedAffinity>
-10.53959

> <CNNscore>
0.8774145246

> <CNNaffinity>
7.1960453987

> <CNN_VS>
6.3139147758

> <CNNaffinity_variance>
0.3177359998

$$$$
5284645


 26 27  0  0  0  0  0  0  0  0999 V2000
  -11.0299   -4.2529    8.3873 O   0  0  0  0  0  0  0  0  0  0  0  0
   -6.5147   -6.3632   11.7483 O   0  0  0  0  0  0  0  0  0  0  0  0
   -4.9803   -4.6812   11.3979 O   0  0  0  0  0  0  0  0  0  0  0  0
   -3.6784   -5.0019   13.9098 O   0  0  0  0  0  0  0  0  0  0  0  0
   -6.5400   -3.9451   17.4973 O   0  0  0  0  0  0  0  0  0  0  0  0
   -8.6632   -4.6750    8.2869 C   0  0  0  0  0  0  0  0  0  0  0  0
   -9.8636   -4.3803    9.2026 C   0  0  0  0  0  0  0  0  0  0  0  0
   -7.3983   -5.1116    9.0310 C   0  0  0  0  0  0  0  0  0  0  0  0
   -9.6903   -3.0868   10.0136 C   0  0  0  0  0  0  0  0  0  0  0  0
   -7.4826   -6.5518    9.5472 C   0  0  0  0  0  0  0  0  0  0  0  0
  -10.7837   -2.8729   11.0710 C   0  0  0  0  0  0  0  0  0  0  0  0
   -6.2919   -6.9232   10.4372 C   0  0  0  0  0  0  0  0  0  0  0  0
  -10.7445   -3.8641   12.2401 C   0  0  0  0  0  0  0  0  0  0  0  0
   -6.2056   -8.4350   10.6253 C   0  0  0  0  0  0  0  0  0  0  0  0
   -9.4770   -3.7751   13.0458 C   0  0  0  0  0  0  0  0  0  0  0  0
   -6.0829   -4.9093   13.4855 C   0  0  0  0  0  0  0  0  0  0  0  0
   -7.3803   -4.6854   13.9881 C   0  0  0  0  0  0  0  0  0  0  0  0
   -5.8241   -5.2525   12.0717 C   0  0  0  0  0  0  0  0  0  0  0  0
   -8.5991   -4.7836   13.1690 C   0  0  0  0  0  0  0  0  0  0  0  0
   -4.9681   -4.7866   14.3303 C   0  0  0  0  0  0  0  0  0  0  0  0
   -7.5256   -4.3681   15.3530 C   0  0  0  0  0  0  0  0  0  0  0  0
   -6.4079   -4.2552   16.1765 C   0  0  0  0  0  0  0  0  0  0  0  0
   -5.1282   -4.4585   15.6736 C   0  0  0  0  0  0  0  0  0  0  0  0
  -11.1520   -5.0635    7.8689 H   0  0  0  0  0  0  0  0  0  0  0  0
   -3.5083   -5.2260   13.0160 H   0  0  0  0  0  0  0  0  0  0  0  0
   -7.3912   -3.8030   17.8623 H   0  0  0  0  0  0  0  0  0  0  0  0
  1  7  1  0
  1 24  1  0
  2 12  1  0
  2 18  1  0
  3 18  2  0
  4 20  1  0
  4 25  1  0
  5 22  1  0
  5 26  1  0
  6  7  1  0
  6  8  1  0
  7  9  1  0
  8 10  1  0
  9 11  1  0
 10 12  1  0
 11 13  1  0
 12 14  1  0
 13 15  1  0
 15 19  2  0
 16 17  2  0
 16 18  1  0
 16 20  1  0
 17 19  1  0
 17 21  1  0
 20 23  2  0
 21 22  2  0
 22 23  1  0
M  END
> <PUBCHEM_COMPOUND_CID>
5284645

> <PUBCHEM_CONFORMER_RMSD>
0.6

> <PUBCHEM_CONFORMER_DIVERSEORDER>
1

> <PUBCHEM_MMFF94_PARTIAL_CHARGES>
24
1 -0.68
12 0.28
13 0.14
15 -0.29
16 0.09
17 0.03
18 0.63
19 -0.18
2 -0.43
20 0.08
21 -0.15
22 0.08
23 -0.15
3 -0.57
4 -0.53
41 0.4
42 0.15
43 0.15
44 0.15
45 0.15
46 0.45
47 0.45
5 -0.53
7 0.28

> <PUBCHEM_EFFECTIVE_ROTOR_COUNT>
1.8

> <PUBCHEM_PHARMACOPHORE_FEATURES>
6
1 1 acceptor
1 1 donor
1 3 acceptor
1 4 donor
1 5 donor
6 16 17 20 21 22 23 rings

> <PUBCHEM_HEAVY_ATOM_COUNT>
23

> <PUBCHEM_ATOM_DEF_STEREO_COUNT>
2

> <PUBCHEM_ATOM_UDEF_STEREO_COUNT>
0

> <PUBCHEM_BOND_DEF_STEREO_COUNT>
1

> <PUBCHEM_BOND_UDEF_STEREO_COUNT>
0

> <PUBCHEM_ISOTOPIC_ATOM_COUNT>
0

> <PUBCHEM_COMPONENT_COUNT>
1

> <PUBCHEM_CACTVS_TAUTO_COUNT>
12

> <PUBCHEM_CONFORMER_ID>
0050A32500000001

> <PUBCHEM_MMFF94_ENERGY>
56.9454

> <PUBCHEM_FEATURE_SELFOVERLAP>
30.446

> <PUBCHEM_SHAPE_FINGERPRINT>
1100329 8 17836085568009856625
11112241 14 16986289841619931392
11578080 2 16734366241365874279
12166972 35 17967822613537111974
12403259 226 18337670931286267939
12506688 2 18412827975731104564
12596599 1 17914633677902020662
12788726 201 17627507133988941776
13140716 1 18267582403486064363
13402501 40 18336828697047978282
13533116 47 18056766653224983451
14251757 17 18262232209996353437
14787075 74 18336834185758012246
14790565 3 17545883724776523813
14866123 147 17767415573386001256
14931854 50 18336551491284682350
15196674 1 18334859415888043750
15322687 12 17104511174142344237
19591789 44 18337109089556020683
19930381 70 18413393137471364090
20028762 73 17044582808783771111
20691752 17 17022900138402631537
20715895 44 17609482839964013085
20832881 197 18343306989256920753
20905425 154 18409167675446349782
22182313 1 18041826412212926463
23227448 37 18189331260828617463
23352939 185 18342462530415398027
23557571 272 17910374109985112994
23559900 14 18335978778501818797
238 59 18196346307921625956
2748010 2 18117544331403189953
3323516 105 18411138077713944259
350125 39 18336268960321048513
3524813 1 18334011700965522918
3680242 22 18116995477305685354
463206 1 18269557311053435927
5265222 85 17471861776259798556
57527585 103 17390829632986241626
59755656 215 18188762977069237031
6443956 14 18340493347406701473
81228 2 17476913559209296171

> <PUBCHEM_SHAPE_MULTIPOLES>
443.98
8.21
4.09
1.18
1.54
0.84
-0.09
-3.84
1.51
-1.8
-1.33
-0.11
0.8
1.1

> <PUBCHEM_SHAPE_SELFOVERLAP>
916.908

> <PUBCHEM_SHAPE_VOLUME>
252.3

> <PUBCHEM_COORDINATE_TYPE>
2
5
10

> <Energy>
40.5071

> <minimizedAffinity>
-10.84194

> <CNNscore>
0.8179155588

> <CNNaffinity>
6.9157958031

> <CNN_VS>
5.6565370560

> <CNNaffinity_variance>
0.3058567643

$$$$
5284645


 26 27  0  0  0  0  0  0  0  0999 V2000
   -9.0527   -4.7554    7.3464 O   0  0  0  0  0  0  0  0  0  0  0  0
   -8.4235   -2.5976   12.9219 O   0  0  0  0  0  0  0  0  0  0  0  0
   -9.5707   -4.2275   14.0768 O   0  0  0  0  0  0  0  0  0  0  0  0
   -8.0772   -3.9286   16.4825 O   0  0  0  0  0  0  0  0  0  0  0  0
   -3.5673   -5.1476   15.8906 O   0  0  0  0  0  0  0  0  0  0  0  0
  -10.3419   -4.2649    9.3180 C   0  0  0  0  0  0  0  0  0  0  0  0
   -8.9497   -4.6143    8.7644 C   0  0  0  0  0  0  0  0  0  0  0  0
  -10.3401   -3.8104   10.7800 C   0  0  0  0  0  0  0  0  0  0  0  0
   -8.3883   -5.9207    9.3463 C   0  0  0  0  0  0  0  0  0  0  0  0
   -9.8051   -2.3854   10.9562 C   0  0  0  0  0  0  0  0  0  0  0  0
   -6.9271   -6.1896    8.9565 C   0  0  0  0  0  0  0  0  0  0  0  0
   -9.6424   -2.0015   12.4307 C   0  0  0  0  0  0  0  0  0  0  0  0
   -5.9116   -5.2249    9.5802 C   0  0  0  0  0  0  0  0  0  0  0  0
   -9.4739   -0.4926   12.5832 C   0  0  0  0  0  0  0  0  0  0  0  0
   -5.8763   -5.2970   11.0827 C   0  0  0  0  0  0  0  0  0  0  0  0
   -7.2070   -4.0786   14.2042 C   0  0  0  0  0  0  0  0  0  0  0  0
   -6.1165   -4.3504   13.3540 C   0  0  0  0  0  0  0  0  0  0  0  0
   -8.5397   -3.6957   13.6937 C   0  0  0  0  0  0  0  0  0  0  0  0
   -6.1879   -4.2674   11.8863 C   0  0  0  0  0  0  0  0  0  0  0  0
   -7.0608   -4.1895   15.5964 C   0  0  0  0  0  0  0  0  0  0  0  0
   -4.8831   -4.7030   13.9363 C   0  0  0  0  0  0  0  0  0  0  0  0
   -4.7564   -4.8036   15.3198 C   0  0  0  0  0  0  0  0  0  0  0  0
   -5.8387   -4.5530   16.1550 C   0  0  0  0  0  0  0  0  0  0  0  0
   -9.4063   -3.9368    6.9649 H   0  0  0  0  0  0  0  0  0  0  0  0
   -8.9229   -3.6792   16.1652 H   0  0  0  0  0  0  0  0  0  0  0  0
   -2.8216   -5.3219   15.3508 H   0  0  0  0  0  0  0  0  0  0  0  0
  1  7  1  0
  1 24  1  0
  2 12  1  0
  2 18  1  0
  3 18  2  0
  4 20  1  0
  4 25  1  0
  5 22  1  0
  5 26  1  0
  6  7  1  0
  6  8  1  0
  7  9  1  0
  8 10  1  0
  9 11  1  0
 10 12  1  0
 11 13  1  0
 12 14  1  0
 13 15  1  0
 15 19  2  0
 16 17  2  0
 16 18  1  0
 16 20  1  0
 17 19  1  0
 17 21  1  0
 20 23  2  0
 21 22  2  0
 22 23  1  0
M  END
> <PUBCHEM_COMPOUND_CID>
5284645

> <PUBCHEM_CONFORMER_RMSD>
0.6

> <PUBCHEM_CONFORMER_DIVERSEORDER>
1

> <PUBCHEM_MMFF94_PARTIAL_CHARGES>
24
1 -0.68
12 0.28
13 0.14
15 -0.29
16 0.09
17 0.03
18 0.63
19 -0.18
2 -0.43
20 0.08
21 -0.15
22 0.08
23 -0.15
3 -0.57
4 -0.53
41 0.4
42 0.15
43 0.15
44 0.15
45 0.15
46 0.45
47 0.45
5 -0.53
7 0.28

> <PUBCHEM_EFFECTIVE_ROTOR_COUNT>
1.8

> <PUBCHEM_PHARMACOPHORE_FEATURES>
6
1 1 acceptor
1 1 donor
1 3 acceptor
1 4 donor
1 5 donor
6 16 17 20 21 22 23 rings

> <PUBCHEM_HEAVY_ATOM_COUNT>
23

> <PUBCHEM_ATOM_DEF_STEREO_COUNT>
2

> <PUBCHEM_ATOM_UDEF_STEREO_COUNT>
0

> <PUBCHEM_BOND_DEF_STEREO_COUNT>
1

> <PUBCHEM_BOND_UDEF_STEREO_COUNT>
0

> <PUBCHEM_ISOTOPIC_ATOM_COUNT>
0

> <PUBCHEM_COMPONENT_COUNT>
1

> <PUBCHEM_CACTVS_TAUTO_COUNT>
12

> <PUBCHEM_CONFORMER_ID>
0050A32500000001

> <PUBCHEM_MMFF94_ENERGY>
56.9454

> <PUBCHEM_FEATURE_SELFOVERLAP>
30.446

> <PUBCHEM_SHAPE_FINGERPRINT>
1100329 8 17836085568009856625
11112241 14 16986289841619931392
11578080 2 16734366241365874279
12166972 35 17967822613537111974
12403259 226 18337670931286267939
12506688 2 18412827975731104564
12596599 1 17914633677902020662
12788726 201 17627507133988941776
13140716 1 18267582403486064363
13402501 40 18336828697047978282
13533116 47 18056766653224983451
14251757 17 18262232209996353437
14787075 74 18336834185758012246
14790565 3 17545883724776523813
14866123 147 17767415573386001256
14931854 50 18336551491284682350
15196674 1 18334859415888043750
15322687 12 17104511174142344237
19591789 44 18337109089556020683
19930381 70 18413393137471364090
20028762 73 17044582808783771111
20691752 17 17022900138402631537
20715895 44 17609482839964013085
20832881 197 18343306989256920753
20905425 154 18409167675446349782
22182313 1 18041826412212926463
23227448 37 18189331260828617463
23352939 185 18342462530415398027
23557571 272 17910374109985112994
23559900 14 18335978778501818797
238 59 18196346307921625956
2748010 2 18117544331403189953
3323516 105 18411138077713944259
350125 39 18336268960321048513
3524813 1 18334011700965522918
3680242 22 18116995477305685354
463206 1 18269557311053435927
5265222 85 17471861776259798556
57527585 103 17390829632986241626
59755656 215 18188762977069237031
6443956 14 18340493347406701473
81228 2 17476913559209296171

> <PUBCHEM_SHAPE_MULTIPOLES>
443.98
8.21
4.09
1.18
1.54
0.84
-0.09
-3.84
1.51
-1.8
-1.33
-0.11
0.8
1.1

> <PUBCHEM_SHAPE_SELFOVERLAP>
916.908

> <PUBCHEM_SHAPE_VOLUME>
252.3

> <PUBCHEM_COORDINATE_TYPE>
2
5
10

> <Energy>
40.5071

> <minimizedAffinity>
-9.82214

> <CNNscore>
0.6920214295

> <CNNaffinity>
6.7553668022

> <CNN_VS>
4.6748585701

> <CNNaffinity_variance>
0.2433417886

$$$$
5284645


 26 27  0  0  0  0  0  0  0  0999 V2000
  -11.1564   -1.2623   10.3378 O   0  0  0  0  0  0  0  0  0  0  0  0
   -6.9947   -5.3905   11.6702 O   0  0  0  0  0  0  0  0  0  0  0  0
   -5.1053   -4.0927   11.4413 O   0  0  0  0  0  0  0  0  0  0  0  0
   -3.5625   -5.5602   13.3317 O   0  0  0  0  0  0  0  0  0  0  0  0
   -5.3353   -5.1950   17.6791 O   0  0  0  0  0  0  0  0  0  0  0  0
   -9.0781   -2.1546    9.5169 C   0  0  0  0  0  0  0  0  0  0  0  0
   -9.9644   -1.9306   10.7542 C   0  0  0  0  0  0  0  0  0  0  0  0
   -7.8984   -3.1017    9.7529 C   0  0  0  0  0  0  0  0  0  0  0  0
   -9.2772   -1.0786   11.8324 C   0  0  0  0  0  0  0  0  0  0  0  0
   -8.3258   -4.5709    9.8334 C   0  0  0  0  0  0  0  0  0  0  0  0
  -10.0639   -1.0021   13.1495 C   0  0  0  0  0  0  0  0  0  0  0  0
   -7.1720   -5.4926   10.2418 C   0  0  0  0  0  0  0  0  0  0  0  0
  -10.1317   -2.3198   13.9306 C   0  0  0  0  0  0  0  0  0  0  0  0
   -7.5152   -6.9515    9.9552 C   0  0  0  0  0  0  0  0  0  0  0  0
   -8.7809   -2.8115   14.3749 C   0  0  0  0  0  0  0  0  0  0  0  0
   -5.8628   -4.7754   13.5828 C   0  0  0  0  0  0  0  0  0  0  0  0
   -6.9300   -4.4492   14.4435 C   0  0  0  0  0  0  0  0  0  0  0  0
   -5.9579   -4.6530   12.1133 C   0  0  0  0  0  0  0  0  0  0  0  0
   -8.2400   -3.9724   13.9717 C   0  0  0  0  0  0  0  0  0  0  0  0
   -4.6387   -5.2150   14.1121 C   0  0  0  0  0  0  0  0  0  0  0  0
   -6.7443   -4.6041   15.8313 C   0  0  0  0  0  0  0  0  0  0  0  0
   -5.5240   -5.0459   16.3373 C   0  0  0  0  0  0  0  0  0  0  0  0
   -4.4672   -5.3491   15.4870 C   0  0  0  0  0  0  0  0  0  0  0  0
  -11.6014   -1.7896    9.6562 H   0  0  0  0  0  0  0  0  0  0  0  0
   -3.6187   -5.4908   12.3990 H   0  0  0  0  0  0  0  0  0  0  0  0
   -6.0311   -4.9977   18.2748 H   0  0  0  0  0  0  0  0  0  0  0  0
  1  7  1  0
  1 24  1  0
  2 12  1  0
  2 18  1  0
  3 18  2  0
  4 20  1  0
  4 25  1  0
  5 22  1  0
  5 26  1  0
  6  7  1  0
  6  8  1  0
  7  9  1  0
  8 10  1  0
  9 11  1  0
 10 12  1  0
 11 13  1  0
 12 14  1  0
 13 15  1  0
 15 19  2  0
 16 17  2  0
 16 18  1  0
 16 20  1  0
 17 19  1  0
 17 21  1  0
 20 23  2  0
 21 22  2  0
 22 23  1  0
M  END
> <PUBCHEM_COMPOUND_CID>
5284645

> <PUBCHEM_CONFORMER_RMSD>
0.6

> <PUBCHEM_CONFORMER_DIVERSEORDER>
1

> <PUBCHEM_MMFF94_PARTIAL_CHARGES>
24
1 -0.68
12 0.28
13 0.14
15 -0.29
16 0.09
17 0.03
18 0.63
19 -0.18
2 -0.43
20 0.08
21 -0.15
22 0.08
23 -0.15
3 -0.57
4 -0.53
41 0.4
42 0.15
43 0.15
44 0.15
45 0.15
46 0.45
47 0.45
5 -0.53
7 0.28

> <PUBCHEM_EFFECTIVE_ROTOR_COUNT>
1.8

> <PUBCHEM_PHARMACOPHORE_FEATURES>
6
1 1 acceptor
1 1 donor
1 3 acceptor
1 4 donor
1 5 donor
6 16 17 20 21 22 23 rings

> <PUBCHEM_HEAVY_ATOM_COUNT>
23

> <PUBCHEM_ATOM_DEF_STEREO_COUNT>
2

> <PUBCHEM_ATOM_UDEF_STEREO_COUNT>
0

> <PUBCHEM_BOND_DEF_STEREO_COUNT>
1

> <PUBCHEM_BOND_UDEF_STEREO_COUNT>
0

> <PUBCHEM_ISOTOPIC_ATOM_COUNT>
0

> <PUBCHEM_COMPONENT_COUNT>
1

> <PUBCHEM_CACTVS_TAUTO_COUNT>
12

> <PUBCHEM_CONFORMER_ID>
0050A32500000001

> <PUBCHEM_MMFF94_ENERGY>
56.9454

> <PUBCHEM_FEATURE_SELFOVERLAP>
30.446

> <PUBCHEM_SHAPE_FINGERPRINT>
1100329 8 17836085568009856625
11112241 14 16986289841619931392
11578080 2 16734366241365874279
12166972 35 17967822613537111974
12403259 226 18337670931286267939
12506688 2 18412827975731104564
12596599 1 17914633677902020662
12788726 201 17627507133988941776
13140716 1 18267582403486064363
13402501 40 18336828697047978282
13533116 47 18056766653224983451
14251757 17 18262232209996353437
14787075 74 18336834185758012246
14790565 3 17545883724776523813
14866123 147 17767415573386001256
14931854 50 18336551491284682350
15196674 1 18334859415888043750
15322687 12 17104511174142344237
19591789 44 18337109089556020683
19930381 70 18413393137471364090
20028762 73 17044582808783771111
20691752 17 17022900138402631537
20715895 44 17609482839964013085
20832881 197 18343306989256920753
20905425 154 18409167675446349782
22182313 1 18041826412212926463
23227448 37 18189331260828617463
23352939 185 18342462530415398027
23557571 272 17910374109985112994
23559900 14 18335978778501818797
238 59 18196346307921625956
2748010 2 18117544331403189953
3323516 105 18411138077713944259
350125 39 18336268960321048513
3524813 1 18334011700965522918
3680242 22 18116995477305685354
463206 1 18269557311053435927
5265222 85 17471861776259798556
57527585 103 17390829632986241626
59755656 215 18188762977069237031
6443956 14 18340493347406701473
81228 2 17476913559209296171

> <PUBCHEM_SHAPE_MULTIPOLES>
443.98
8.21
4.09
1.18
1.54
0.84
-0.09
-3.84
1.51
-1.8
-1.33
-0.11
0.8
1.1

> <PUBCHEM_SHAPE_SELFOVERLAP>
916.908

> <PUBCHEM_SHAPE_VOLUME>
252.3

> <PUBCHEM_COORDINATE_TYPE>
2
5
10

> <Energy>
40.5071

> <minimizedAffinity>
-0.94197

> <CNNscore>
0.6151248813

> <CNNaffinity>
6.6232018471

> <CNN_VS>
4.0740962029

> <CNNaffinity_variance>
0.7294166684

$$$$
5284645


 26 27  0  0  0  0  0  0  0  0999 V2000
   -5.1467   -3.3120   15.9635 O   0  0  0  0  0  0  0  0  0  0  0  0
   -9.3830   -2.4999   11.7764 O   0  0  0  0  0  0  0  0  0  0  0  0
   -8.0390   -1.8793   10.0114 O   0  0  0  0  0  0  0  0  0  0  0  0
   -9.7848   -2.8870    8.0004 O   0  0  0  0  0  0  0  0  0  0  0  0
  -10.1883   -7.5727    8.2386 O   0  0  0  0  0  0  0  0  0  0  0  0
   -5.8576   -1.7175   14.3076 C   0  0  0  0  0  0  0  0  0  0  0  0
   -5.8595   -3.1965   14.7307 C   0  0  0  0  0  0  0  0  0  0  0  0
   -6.8145   -1.3923   13.1575 C   0  0  0  0  0  0  0  0  0  0  0  0
   -5.1935   -4.1133   13.6931 C   0  0  0  0  0  0  0  0  0  0  0  0
   -8.2818   -1.3654   13.5979 C   0  0  0  0  0  0  0  0  0  0  0  0
   -5.3529   -5.6095   14.0023 C   0  0  0  0  0  0  0  0  0  0  0  0
   -9.2434   -1.2133   12.4147 C   0  0  0  0  0  0  0  0  0  0  0  0
   -6.7850   -6.1406   13.8679 C   0  0  0  0  0  0  0  0  0  0  0  0
  -10.6370   -0.8192   12.8951 C   0  0  0  0  0  0  0  0  0  0  0  0
   -7.3262   -6.0280   12.4685 C   0  0  0  0  0  0  0  0  0  0  0  0
   -9.0861   -4.0071   10.0565 C   0  0  0  0  0  0  0  0  0  0  0  0
   -8.9258   -5.2123   10.7690 C   0  0  0  0  0  0  0  0  0  0  0  0
   -8.7172   -2.6923   10.6210 C   0  0  0  0  0  0  0  0  0  0  0  0
   -8.3941   -5.2835   12.1394 C   0  0  0  0  0  0  0  0  0  0  0  0
   -9.5923   -4.0238    8.7468 C   0  0  0  0  0  0  0  0  0  0  0  0
   -9.3117   -6.4160   10.1470 C   0  0  0  0  0  0  0  0  0  0  0  0
   -9.8160   -6.4119    8.8485 C   0  0  0  0  0  0  0  0  0  0  0  0
   -9.9556   -5.2235    8.1415 C   0  0  0  0  0  0  0  0  0  0  0  0
   -5.5567   -2.7377   16.6289 H   0  0  0  0  0  0  0  0  0  0  0  0
   -9.5587   -2.0497    8.3551 H   0  0  0  0  0  0  0  0  0  0  0  0
  -10.1048   -8.3882    8.6925 H   0  0  0  0  0  0  0  0  0  0  0  0
  1  7  1  0
  1 24  1  0
  2 12  1  0
  2 18  1  0
  3 18  2  0
  4 20  1  0
  4 25  1  0
  5 22  1  0
  5 26  1  0
  6  7  1  0
  6  8  1  0
  7  9  1  0
  8 10  1  0
  9 11  1  0
 10 12  1  0
 11 13  1  0
 12 14  1  0
 13 15  1  0
 15 19  2  0
 16 17  2  0
 16 18  1  0
 16 20  1  0
 17 19  1  0
 17 21  1  0
 20 23  2  0
 21 22  2  0
 22 23  1  0
M  END
> <PUBCHEM_COMPOUND_CID>
5284645

> <PUBCHEM_CONFORMER_RMSD>
0.6

> <PUBCHEM_CONFORMER_DIVERSEORDER>
1

> <PUBCHEM_MMFF94_PARTIAL_CHARGES>
24
1 -0.68
12 0.28
13 0.14
15 -0.29
16 0.09
17 0.03
18 0.63
19 -0.18
2 -0.43
20 0.08
21 -0.15
22 0.08
23 -0.15
3 -0.57
4 -0.53
41 0.4
42 0.15
43 0.15
44 0.15
45 0.15
46 0.45
47 0.45
5 -0.53
7 0.28

> <PUBCHEM_EFFECTIVE_ROTOR_COUNT>
1.8

> <PUBCHEM_PHARMACOPHORE_FEATURES>
6
1 1 acceptor
1 1 donor
1 3 acceptor
1 4 donor
1 5 donor
6 16 17 20 21 22 23 rings

> <PUBCHEM_HEAVY_ATOM_COUNT>
23

> <PUBCHEM_ATOM_DEF_STEREO_COUNT>
2

> <PUBCHEM_ATOM_UDEF_STEREO_COUNT>
0

> <PUBCHEM_BOND_DEF_STEREO_COUNT>
1

> <PUBCHEM_BOND_UDEF_STEREO_COUNT>
0

> <PUBCHEM_ISOTOPIC_ATOM_COUNT>
0

> <PUBCHEM_COMPONENT_COUNT>
1

> <PUBCHEM_CACTVS_TAUTO_COUNT>
12

> <PUBCHEM_CONFORMER_ID>
0050A32500000001

> <PUBCHEM_MMFF94_ENERGY>
56.9454

> <PUBCHEM_FEATURE_SELFOVERLAP>
30.446

> <PUBCHEM_SHAPE_FINGERPRINT>
1100329 8 17836085568009856625
11112241 14 16986289841619931392
11578080 2 16734366241365874279
12166972 35 17967822613537111974
12403259 226 18337670931286267939
12506688 2 18412827975731104564
12596599 1 17914633677902020662
12788726 201 17627507133988941776
13140716 1 18267582403486064363
13402501 40 18336828697047978282
13533116 47 18056766653224983451
14251757 17 18262232209996353437
14787075 74 18336834185758012246
14790565 3 17545883724776523813
14866123 147 17767415573386001256
14931854 50 18336551491284682350
15196674 1 18334859415888043750
15322687 12 17104511174142344237
19591789 44 18337109089556020683
19930381 70 18413393137471364090
20028762 73 17044582808783771111
20691752 17 17022900138402631537
20715895 44 17609482839964013085
20832881 197 18343306989256920753
20905425 154 18409167675446349782
22182313 1 18041826412212926463
23227448 37 18189331260828617463
23352939 185 18342462530415398027
23557571 272 17910374109985112994
23559900 14 18335978778501818797
238 59 18196346307921625956
2748010 2 18117544331403189953
3323516 105 18411138077713944259
350125 39 18336268960321048513
3524813 1 18334011700965522918
3680242 22 18116995477305685354
463206 1 18269557311053435927
5265222 85 17471861776259798556
57527585 103 17390829632986241626
59755656 215 18188762977069237031
6443956 14 18340493347406701473
81228 2 17476913559209296171

> <PUBCHEM_SHAPE_MULTIPOLES>
443.98
8.21
4.09
1.18
1.54
0.84
-0.09
-3.84
1.51
-1.8
-1.33
-0.11
0.8
1.1

> <PUBCHEM_SHAPE_SELFOVERLAP>
916.908

> <PUBCHEM_SHAPE_VOLUME>
252.3

> <PUBCHEM_COORDINATE_TYPE>
2
5
10

> <Energy>
40.5071

> <minimizedAffinity>
6.96310

> <CNNscore>
0.3447744250

> <CNNaffinity>
5.7180199623

> <CNN_VS>
1.9714270830

> <CNNaffinity_variance>
0.0823240876

$$$$
5284645


 26 27  0  0  0  0  0  0  0  0999 V2000
  -12.3523   -3.8898   10.3428 O   0  0  0  0  0  0  0  0  0  0  0  0
   -7.1771   -2.3217   12.9686 O   0  0  0  0  0  0  0  0  0  0  0  0
   -7.4509   -3.3959   14.9879 O   0  0  0  0  0  0  0  0  0  0  0  0
   -4.6674   -3.7839   15.4452 O   0  0  0  0  0  0  0  0  0  0  0  0
   -2.7677   -6.6735   12.2488 O   0  0  0  0  0  0  0  0  0  0  0  0
  -11.4999   -2.9860   12.4034 C   0  0  0  0  0  0  0  0  0  0  0  0
  -11.1849   -3.8424   11.1649 C   0  0  0  0  0  0  0  0  0  0  0  0
  -10.2714   -2.6122   13.2372 C   0  0  0  0  0  0  0  0  0  0  0  0
  -10.7803   -5.2807   11.5231 C   0  0  0  0  0  0  0  0  0  0  0  0
   -9.4190   -1.5219   12.5795 C   0  0  0  0  0  0  0  0  0  0  0  0
  -10.2782   -6.0955   10.3215 C   0  0  0  0  0  0  0  0  0  0  0  0
   -8.1052   -1.2771   13.3288 C   0  0  0  0  0  0  0  0  0  0  0  0
   -8.9324   -5.6312    9.7522 C   0  0  0  0  0  0  0  0  0  0  0  0
   -7.4654    0.0361   12.8879 C   0  0  0  0  0  0  0  0  0  0  0  0
   -7.8018   -5.7550   10.7372 C   0  0  0  0  0  0  0  0  0  0  0  0
   -5.9043   -4.2003   13.3795 C   0  0  0  0  0  0  0  0  0  0  0  0
   -5.9704   -4.8573   12.1346 C   0  0  0  0  0  0  0  0  0  0  0  0
   -6.9749   -3.3057   13.8664 C   0  0  0  0  0  0  0  0  0  0  0  0
   -7.0933   -4.7102   11.1948 C   0  0  0  0  0  0  0  0  0  0  0  0
   -4.8014   -4.4005   14.2253 C   0  0  0  0  0  0  0  0  0  0  0  0
   -4.8966   -5.6869   11.7558 C   0  0  0  0  0  0  0  0  0  0  0  0
   -3.8089   -5.8697   12.6066 C   0  0  0  0  0  0  0  0  0  0  0  0
   -3.7553   -5.2349   13.8419 C   0  0  0  0  0  0  0  0  0  0  0  0
  -12.6196   -2.9874   10.1086 H   0  0  0  0  0  0  0  0  0  0  0  0
   -5.3399   -3.2105   15.7567 H   0  0  0  0  0  0  0  0  0  0  0  0
   -2.7783   -7.1134   11.4216 H   0  0  0  0  0  0  0  0  0  0  0  0
  1  7  1  0
  1 24  1  0
  2 12  1  0
  2 18  1  0
  3 18  2  0
  4 20  1  0
  4 25  1  0
  5 22  1  0
  5 26  1  0
  6  7  1  0
  6  8  1  0
  7  9  1  0
  8 10  1  0
  9 11  1  0
 10 12  1  0
 11 13  1  0
 12 14  1  0
 13 15  1  0
 15 19  2  0
 16 17  2  0
 16 18  1  0
 16 20  1  0
 17 19  1  0
 17 21  1  0
 20 23  2  0
 21 22  2  0
 22 23  1  0
M  END
> <PUBCHEM_COMPOUND_CID>
5284645

> <PUBCHEM_CONFORMER_RMSD>
0.6

> <PUBCHEM_CONFORMER_DIVERSEORDER>
1

> <PUBCHEM_MMFF94_PARTIAL_CHARGES>
24
1 -0.68
12 0.28
13 0.14
15 -0.29
16 0.09
17 0.03
18 0.63
19 -0.18
2 -0.43
20 0.08
21 -0.15
22 0.08
23 -0.15
3 -0.57
4 -0.53
41 0.4
42 0.15
43 0.15
44 0.15
45 0.15
46 0.45
47 0.45
5 -0.53
7 0.28

> <PUBCHEM_EFFECTIVE_ROTOR_COUNT>
1.8

> <PUBCHEM_PHARMACOPHORE_FEATURES>
6
1 1 acceptor
1 1 donor
1 3 acceptor
1 4 donor
1 5 donor
6 16 17 20 21 22 23 rings

> <PUBCHEM_HEAVY_ATOM_COUNT>
23

> <PUBCHEM_ATOM_DEF_STEREO_COUNT>
2

> <PUBCHEM_ATOM_UDEF_STEREO_COUNT>
0

> <PUBCHEM_BOND_DEF_STEREO_COUNT>
1

> <PUBCHEM_BOND_UDEF_STEREO_COUNT>
0

> <PUBCHEM_ISOTOPIC_ATOM_COUNT>
0

> <PUBCHEM_COMPONENT_COUNT>
1

> <PUBCHEM_CACTVS_TAUTO_COUNT>
12

> <PUBCHEM_CONFORMER_ID>
0050A32500000001

> <PUBCHEM_MMFF94_ENERGY>
56.9454

> <PUBCHEM_FEATURE_SELFOVERLAP>
30.446

> <PUBCHEM_SHAPE_FINGERPRINT>
1100329 8 17836085568009856625
11112241 14 16986289841619931392
11578080 2 16734366241365874279
12166972 35 17967822613537111974
12403259 226 18337670931286267939
12506688 2 18412827975731104564
12596599 1 17914633677902020662
12788726 201 17627507133988941776
13140716 1 18267582403486064363
13402501 40 18336828697047978282
13533116 47 18056766653224983451
14251757 17 18262232209996353437
14787075 74 18336834185758012246
14790565 3 17545883724776523813
14866123 147 17767415573386001256
14931854 50 18336551491284682350
15196674 1 18334859415888043750
15322687 12 17104511174142344237
19591789 44 18337109089556020683
19930381 70 18413393137471364090
20028762 73 17044582808783771111
20691752 17 17022900138402631537
20715895 44 17609482839964013085
20832881 197 18343306989256920753
20905425 154 18409167675446349782
22182313 1 18041826412212926463
23227448 37 18189331260828617463
23352939 185 18342462530415398027
23557571 272 17910374109985112994
23559900 14 18335978778501818797
238 59 18196346307921625956
2748010 2 18117544331403189953
3323516 105 18411138077713944259
350125 39 18336268960321048513
3524813 1 18334011700965522918
3680242 22 18116995477305685354
463206 1 18269557311053435927
5265222 85 17471861776259798556
57527585 103 17390829632986241626
59755656 215 18188762977069237031
6443956 14 18340493347406701473
81228 2 17476913559209296171

> <PUBCHEM_SHAPE_MULTIPOLES>
443.98
8.21
4.09
1.18
1.54
0.84
-0.09
-3.84
1.51
-1.8
-1.33
-0.11
0.8
1.1

> <PUBCHEM_SHAPE_SELFOVERLAP>
916.908

> <PUBCHEM_SHAPE_VOLUME>
252.3

> <PUBCHEM_COORDINATE_TYPE>
2
5
10

> <Energy>
40.5071

> <minimizedAffinity>
1.45200

> <CNNscore>
0.2001418173

> <CNNaffinity>
5.5064024925

> <CNN_VS>
1.1020613909

> <CNNaffinity_variance>
0.0499995500

$$$$
5284645


 26 27  0  0  0  0  0  0  0  0999 V2000
   -9.8609   -3.0981   11.3207 O   0  0  0  0  0  0  0  0  0  0  0  0
   -7.1956   -5.3354   16.2226 O   0  0  0  0  0  0  0  0  0  0  0  0
   -5.5408   -6.5743   15.2062 O   0  0  0  0  0  0  0  0  0  0  0  0
   -3.6985   -6.3515   17.3658 O   0  0  0  0  0  0  0  0  0  0  0  0
   -2.3076   -1.8990   18.0107 O   0  0  0  0  0  0  0  0  0  0  0  0
   -9.0713   -5.1793   12.2344 C   0  0  0  0  0  0  0  0  0  0  0  0
   -8.9238   -3.6481   12.2483 C   0  0  0  0  0  0  0  0  0  0  0  0
   -8.3343   -5.8913   13.3720 C   0  0  0  0  0  0  0  0  0  0  0  0
   -7.5139   -3.1823   11.8532 C   0  0  0  0  0  0  0  0  0  0  0  0
   -9.0411   -5.7378   14.7227 C   0  0  0  0  0  0  0  0  0  0  0  0
   -7.2883   -1.6749   12.0443 C   0  0  0  0  0  0  0  0  0  0  0  0
   -8.2126   -6.3008   15.8821 C   0  0  0  0  0  0  0  0  0  0  0  0
   -7.2634   -1.2129   13.5060 C   0  0  0  0  0  0  0  0  0  0  0  0
   -9.0734   -6.4754   17.1299 C   0  0  0  0  0  0  0  0  0  0  0  0
   -6.1389   -1.8231   14.2978 C   0  0  0  0  0  0  0  0  0  0  0  0
   -5.0261   -4.5653   16.3572 C   0  0  0  0  0  0  0  0  0  0  0  0
   -5.2081   -3.1850   16.1394 C   0  0  0  0  0  0  0  0  0  0  0  0
   -5.9397   -5.5868   15.8046 C   0  0  0  0  0  0  0  0  0  0  0  0
   -6.3231   -2.6237   15.3599 C   0  0  0  0  0  0  0  0  0  0  0  0
   -3.9296   -5.0229   17.1056 C   0  0  0  0  0  0  0  0  0  0  0  0
   -4.2856   -2.2878   16.7127 C   0  0  0  0  0  0  0  0  0  0  0  0
   -3.2064   -2.7606   17.4557 C   0  0  0  0  0  0  0  0  0  0  0  0
   -3.0192   -4.1235   17.6533 C   0  0  0  0  0  0  0  0  0  0  0  0
  -10.7567   -3.3843   11.5582 H   0  0  0  0  0  0  0  0  0  0  0  0
   -4.2778   -7.0036   17.0234 H   0  0  0  0  0  0  0  0  0  0  0  0
   -2.4102   -0.9751   17.8931 H   0  0  0  0  0  0  0  0  0  0  0  0
  1  7  1  0
  1 24  1  0
  2 12  1  0
  2 18  1  0
  3 18  2  0
  4 20  1  0
  4 25  1  0
  5 22  1  0
  5 26  1  0
  6  7  1  0
  6  8  1  0
  7  9  1  0
  8 10  1  0
  9 11  1  0
 10 12  1  0
 11 13  1  0
 12 14  1  0
 13 15  1  0
 15 19  2  0
 16 17  2  0
 16 18  1  0
 16 20  1  0
 17 19  1  0
 17 21  1  0
 20 23  2  0
 21 22  2  0
 22 23  1  0
M  END
> <PUBCHEM_COMPOUND_CID>
5284645

> <PUBCHEM_CONFORMER_RMSD>
0.6

> <PUBCHEM_CONFORMER_DIVERSEORDER>
1

> <PUBCHEM_MMFF94_PARTIAL_CHARGES>
24
1 -0.68
12 0.28
13 0.14
15 -0.29
16 0.09
17 0.03
18 0.63
19 -0.18
2 -0.43
20 0.08
21 -0.15
22 0.08
23 -0.15
3 -0.57
4 -0.53
41 0.4
42 0.15
43 0.15
44 0.15
45 0.15
46 0.45
47 0.45
5 -0.53
7 0.28

> <PUBCHEM_EFFECTIVE_ROTOR_COUNT>
1.8

> <PUBCHEM_PHARMACOPHORE_FEATURES>
6
1 1 acceptor
1 1 donor
1 3 acceptor
1 4 donor
1 5 donor
6 16 17 20 21 22 23 rings

> <PUBCHEM_HEAVY_ATOM_COUNT>
23

> <PUBCHEM_ATOM_DEF_STEREO_COUNT>
2

> <PUBCHEM_ATOM_UDEF_STEREO_COUNT>
0

> <PUBCHEM_BOND_DEF_STEREO_COUNT>
1

> <PUBCHEM_BOND_UDEF_STEREO_COUNT>
0

> <PUBCHEM_ISOTOPIC_ATOM_COUNT>
0

> <PUBCHEM_COMPONENT_COUNT>
1

> <PUBCHEM_CACTVS_TAUTO_COUNT>
12

> <PUBCHEM_CONFORMER_ID>
0050A32500000001

> <PUBCHEM_MMFF94_ENERGY>
56.9454

> <PUBCHEM_FEATURE_SELFOVERLAP>
30.446

> <PUBCHEM_SHAPE_FINGERPRINT>
1100329 8 17836085568009856625
11112241 14 16986289841619931392
11578080 2 16734366241365874279
12166972 35 17967822613537111974
12403259 226 18337670931286267939
12506688 2 18412827975731104564
12596599 1 17914633677902020662
12788726 201 17627507133988941776
13140716 1 18267582403486064363
13402501 40 18336828697047978282
13533116 47 18056766653224983451
14251757 17 18262232209996353437
14787075 74 18336834185758012246
14790565 3 17545883724776523813
14866123 147 17767415573386001256
14931854 50 18336551491284682350
15196674 1 18334859415888043750
15322687 12 17104511174142344237
19591789 44 18337109089556020683
19930381 70 18413393137471364090
20028762 73 17044582808783771111
20691752 17 17022900138402631537
20715895 44 17609482839964013085
20832881 197 18343306989256920753
20905425 154 18409167675446349782
22182313 1 18041826412212926463
23227448 37 18189331260828617463
23352939 185 18342462530415398027
23557571 272 17910374109985112994
23559900 14 18335978778501818797
238 59 18196346307921625956
2748010 2 18117544331403189953
3323516 105 18411138077713944259
350125 39 18336268960321048513
3524813 1 18334011700965522918
3680242 22 18116995477305685354
463206 1 18269557311053435927
5265222 85 17471861776259798556
57527585 103 17390829632986241626
59755656 215 18188762977069237031
6443956 14 18340493347406701473
81228 2 17476913559209296171

> <PUBCHEM_SHAPE_MULTIPOLES>
443.98
8.21
4.09
1.18
1.54
0.84
-0.09
-3.84
1.51
-1.8
-1.33
-0.11
0.8
1.1

> <PUBCHEM_SHAPE_SELFOVERLAP>
916.908

> <PUBCHEM_SHAPE_VOLUME>
252.3

> <PUBCHEM_COORDINATE_TYPE>
2
5
10

> <Energy>
40.5071

> <minimizedAffinity>
23.49018

> <CNNscore>
0.1894264817

> <CNNaffinity>
5.2781071663

> <CNN_VS>
0.9998132586

> <CNNaffinity_variance>
0.3154179752

$$$$
5284645


 26 27  0  0  0  0  0  0  0  0999 V2000
   -6.0807   -2.8139   16.6385 O   0  0  0  0  0  0  0  0  0  0  0  0
   -5.2738   -5.5607   11.3526 O   0  0  0  0  0  0  0  0  0  0  0  0
   -6.6124   -7.4048   11.6903 O   0  0  0  0  0  0  0  0  0  0  0  0
   -7.2528   -7.7572    8.9383 O   0  0  0  0  0  0  0  0  0  0  0  0
   -9.7633   -4.1428    7.2621 O   0  0  0  0  0  0  0  0  0  0  0  0
   -5.5506   -4.9713   15.7143 C   0  0  0  0  0  0  0  0  0  0  0  0
   -6.2348   -3.6159   15.4664 C   0  0  0  0  0  0  0  0  0  0  0  0
   -5.3885   -5.8317   14.4583 C   0  0  0  0  0  0  0  0  0  0  0  0
   -7.7344   -3.7532   15.1614 C   0  0  0  0  0  0  0  0  0  0  0  0
   -4.2741   -5.3277   13.5352 C   0  0  0  0  0  0  0  0  0  0  0  0
   -8.3958   -2.4376   14.7239 C   0  0  0  0  0  0  0  0  0  0  0  0
   -4.2327   -6.0844   12.2035 C   0  0  0  0  0  0  0  0  0  0  0  0
   -7.9458   -1.9217   13.3519 C   0  0  0  0  0  0  0  0  0  0  0  0
   -2.9157   -5.8308   11.4758 C   0  0  0  0  0  0  0  0  0  0  0  0
   -8.2903   -2.8603   12.2275 C   0  0  0  0  0  0  0  0  0  0  0  0
   -7.2750   -5.6722   10.2122 C   0  0  0  0  0  0  0  0  0  0  0  0
   -7.7355   -4.3455   10.3305 C   0  0  0  0  0  0  0  0  0  0  0  0
   -6.3908   -6.3014   11.2150 C   0  0  0  0  0  0  0  0  0  0  0  0
   -7.3751   -3.4550   11.4454 C   0  0  0  0  0  0  0  0  0  0  0  0
   -7.6726   -6.4623    9.1215 C   0  0  0  0  0  0  0  0  0  0  0  0
   -8.5717   -3.8327    9.3193 C   0  0  0  0  0  0  0  0  0  0  0  0
   -8.9517   -4.6306    8.2426 C   0  0  0  0  0  0  0  0  0  0  0  0
   -8.5109   -5.9446    8.1383 C   0  0  0  0  0  0  0  0  0  0  0  0
   -5.1375   -2.7186   16.8433 H   0  0  0  0  0  0  0  0  0  0  0  0
   -6.6870   -8.1597    9.5674 H   0  0  0  0  0  0  0  0  0  0  0  0
  -10.0749   -3.2604    7.3077 H   0  0  0  0  0  0  0  0  0  0  0  0
  1  7  1  0
  1 24  1  0
  2 12  1  0
  2 18  1  0
  3 18  2  0
  4 20  1  0
  4 25  1  0
  5 22  1  0
  5 26  1  0
  6  7  1  0
  6  8  1  0
  7  9  1  0
  8 10  1  0
  9 11  1  0
 10 12  1  0
 11 13  1  0
 12 14  1  0
 13 15  1  0
 15 19  2  0
 16 17  2  0
 16 18  1  0
 16 20  1  0
 17 19  1  0
 17 21  1  0
 20 23  2  0
 21 22  2  0
 22 23  1  0
M  END
> <PUBCHEM_COMPOUND_CID>
5284645

> <PUBCHEM_CONFORMER_RMSD>
0.6

> <PUBCHEM_CONFORMER_DIVERSEORDER>
1

> <PUBCHEM_MMFF94_PARTIAL_CHARGES>
24
1 -0.68
12 0.28
13 0.14
15 -0.29
16 0.09
17 0.03
18 0.63
19 -0.18
2 -0.43
20 0.08
21 -0.15
22 0.08
23 -0.15
3 -0.57
4 -0.53
41 0.4
42 0.15
43 0.15
44 0.15
45 0.15
46 0.45
47 0.45
5 -0.53
7 0.28

> <PUBCHEM_EFFECTIVE_ROTOR_COUNT>
1.8

> <PUBCHEM_PHARMACOPHORE_FEATURES>
6
1 1 acceptor
1 1 donor
1 3 acceptor
1 4 donor
1 5 donor
6 16 17 20 21 22 23 rings

> <PUBCHEM_HEAVY_ATOM_COUNT>
23

> <PUBCHEM_ATOM_DEF_STEREO_COUNT>
2

> <PUBCHEM_ATOM_UDEF_STEREO_COUNT>
0

> <PUBCHEM_BOND_DEF_STEREO_COUNT>
1

> <PUBCHEM_BOND_UDEF_STEREO_COUNT>
0

> <PUBCHEM_ISOTOPIC_ATOM_COUNT>
0

> <PUBCHEM_COMPONENT_COUNT>
1

> <PUBCHEM_CACTVS_TAUTO_COUNT>
12

> <PUBCHEM_CONFORMER_ID>
0050A32500000001

> <PUBCHEM_MMFF94_ENERGY>
56.9454

> <PUBCHEM_FEATURE_SELFOVERLAP>
30.446

> <PUBCHEM_SHAPE_FINGERPRINT>
1100329 8 17836085568009856625
11112241 14 16986289841619931392
11578080 2 16734366241365874279
12166972 35 17967822613537111974
12403259 226 18337670931286267939
12506688 2 18412827975731104564
12596599 1 17914633677902020662
12788726 201 17627507133988941776
13140716 1 18267582403486064363
13402501 40 18336828697047978282
13533116 47 18056766653224983451
14251757 17 18262232209996353437
14787075 74 18336834185758012246
14790565 3 17545883724776523813
14866123 147 17767415573386001256
14931854 50 18336551491284682350
15196674 1 18334859415888043750
15322687 12 17104511174142344237
19591789 44 18337109089556020683
19930381 70 18413393137471364090
20028762 73 17044582808783771111
20691752 17 17022900138402631537
20715895 44 17609482839964013085
20832881 197 18343306989256920753
20905425 154 18409167675446349782
22182313 1 18041826412212926463
23227448 37 18189331260828617463
23352939 185 18342462530415398027
23557571 272 17910374109985112994
23559900 14 18335978778501818797
238 59 18196346307921625956
2748010 2 18117544331403189953
3323516 105 18411138077713944259
350125 39 18336268960321048513
3524813 1 18334011700965522918
3680242 22 18116995477305685354
463206 1 18269557311053435927
5265222 85 17471861776259798556
57527585 103 17390829632986241626
59755656 215 18188762977069237031
6443956 14 18340493347406701473
81228 2 17476913559209296171

> <PUBCHEM_SHAPE_MULTIPOLES>
443.98
8.21
4.09
1.18
1.54
0.84
-0.09
-3.84
1.51
-1.8
-1.33
-0.11
0.8
1.1

> <PUBCHEM_SHAPE_SELFOVERLAP>
916.908

> <PUBCHEM_SHAPE_VOLUME>
252.3

> <PUBCHEM_COORDINATE_TYPE>
2
5
10

> <Energy>
40.5071

> <minimizedAffinity>
-2.45280

> <CNNscore>
0.1777814329

> <CNNaffinity>
5.6244769096

> <CNN_VS>
0.9999275804

> <CNNaffinity_variance>
0.0889877006

$$$$
5284645


 26 27  0  0  0  0  0  0  0  0999 V2000
   -2.4549   -5.1732   14.7906 O   0  0  0  0  0  0  0  0  0  0  0  0
   -8.4659   -5.1077   14.7575 O   0  0  0  0  0  0  0  0  0  0  0  0
   -8.8049   -2.8908   14.2311 O   0  0  0  0  0  0  0  0  0  0  0  0
  -11.2975   -3.3218   12.9238 O   0  0  0  0  0  0  0  0  0  0  0  0
  -10.7896   -5.9154    9.0263 O   0  0  0  0  0  0  0  0  0  0  0  0
   -4.3158   -3.9182   15.6576 C   0  0  0  0  0  0  0  0  0  0  0  0
   -3.8268   -4.8599   14.5438 C   0  0  0  0  0  0  0  0  0  0  0  0
   -5.8333   -3.7165   15.6878 C   0  0  0  0  0  0  0  0  0  0  0  0
   -3.9418   -4.2366   13.1441 C   0  0  0  0  0  0  0  0  0  0  0  0
   -6.5806   -4.9297   16.2512 C   0  0  0  0  0  0  0  0  0  0  0  0
   -3.6411   -5.2227   12.0053 C   0  0  0  0  0  0  0  0  0  0  0  0
   -8.1008   -4.7924   16.1174 C   0  0  0  0  0  0  0  0  0  0  0  0
   -4.6834   -6.3335   11.8302 C   0  0  0  0  0  0  0  0  0  0  0  0
   -8.8175   -5.8092   17.0009 C   0  0  0  0  0  0  0  0  0  0  0  0
   -6.0471   -5.8102   11.4691 C   0  0  0  0  0  0  0  0  0  0  0  0
   -9.2339   -4.5998   12.6432 C   0  0  0  0  0  0  0  0  0  0  0  0
   -8.4670   -5.4779   11.8516 C   0  0  0  0  0  0  0  0  0  0  0  0
   -8.7598   -4.0768   13.9413 C   0  0  0  0  0  0  0  0  0  0  0  0
   -7.1355   -5.9709   12.2389 C   0  0  0  0  0  0  0  0  0  0  0  0
  -10.4935   -4.1668   12.1985 C   0  0  0  0  0  0  0  0  0  0  0  0
   -9.0077   -5.9262   10.6304 C   0  0  0  0  0  0  0  0  0  0  0  0
  -10.2611   -5.4890   10.2082 C   0  0  0  0  0  0  0  0  0  0  0  0
  -11.0072   -4.6083   10.9825 C   0  0  0  0  0  0  0  0  0  0  0  0
   -2.3671   -5.5680   15.6721 H   0  0  0  0  0  0  0  0  0  0  0  0
  -11.0051   -2.9918   13.7506 H   0  0  0  0  0  0  0  0  0  0  0  0
  -10.3079   -6.5093    8.4848 H   0  0  0  0  0  0  0  0  0  0  0  0
  1  7  1  0
  1 24  1  0
  2 12  1  0
  2 18  1  0
  3 18  2  0
  4 20  1  0
  4 25  1  0
  5 22  1  0
  5 26  1  0
  6  7  1  0
  6  8  1  0
  7  9  1  0
  8 10  1  0
  9 11  1  0
 10 12  1  0
 11 13  1  0
 12 14  1  0
 13 15  1  0
 15 19  2  0
 16 17  2  0
 16 18  1  0
 16 20  1  0
 17 19  1  0
 17 21  1  0
 20 23  2  0
 21 22  2  0
 22 23  1  0
M  END
> <PUBCHEM_COMPOUND_CID>
5284645

> <PUBCHEM_CONFORMER_RMSD>
0.6

> <PUBCHEM_CONFORMER_DIVERSEORDER>
1

> <PUBCHEM_MMFF94_PARTIAL_CHARGES>
24
1 -0.68
12 0.28
13 0.14
15 -0.29
16 0.09
17 0.03
18 0.63
19 -0.18
2 -0.43
20 0.08
21 -0.15
22 0.08
23 -0.15
3 -0.57
4 -0.53
41 0.4
42 0.15
43 0.15
44 0.15
45 0.15
46 0.45
47 0.45
5 -0.53
7 0.28

> <PUBCHEM_EFFECTIVE_ROTOR_COUNT>
1.8

> <PUBCHEM_PHARMACOPHORE_FEATURES>
6
1 1 acceptor
1 1 donor
1 3 acceptor
1 4 donor
1 5 donor
6 16 17 20 21 22 23 rings

> <PUBCHEM_HEAVY_ATOM_COUNT>
23

> <PUBCHEM_ATOM_DEF_STEREO_COUNT>
2

> <PUBCHEM_ATOM_UDEF_STEREO_COUNT>
0

> <PUBCHEM_BOND_DEF_STEREO_COUNT>
1

> <PUBCHEM_BOND_UDEF_STEREO_COUNT>
0

> <PUBCHEM_ISOTOPIC_ATOM_COUNT>
0

> <PUBCHEM_COMPONENT_COUNT>
1

> <PUBCHEM_CACTVS_TAUTO_COUNT>
12

> <PUBCHEM_CONFORMER_ID>
0050A32500000001

> <PUBCHEM_MMFF94_ENERGY>
56.9454

> <PUBCHEM_FEATURE_SELFOVERLAP>
30.446

> <PUBCHEM_SHAPE_FINGERPRINT>
1100329 8 17836085568009856625
11112241 14 16986289841619931392
11578080 2 16734366241365874279
12166972 35 17967822613537111974
12403259 226 18337670931286267939
12506688 2 18412827975731104564
12596599 1 17914633677902020662
12788726 201 17627507133988941776
13140716 1 18267582403486064363
13402501 40 18336828697047978282
13533116 47 18056766653224983451
14251757 17 18262232209996353437
14787075 74 18336834185758012246
14790565 3 17545883724776523813
14866123 147 17767415573386001256
14931854 50 18336551491284682350
15196674 1 18334859415888043750
15322687 12 17104511174142344237
19591789 44 18337109089556020683
19930381 70 18413393137471364090
20028762 73 17044582808783771111
20691752 17 17022900138402631537
20715895 44 17609482839964013085
20832881 197 18343306989256920753
20905425 154 18409167675446349782
22182313 1 18041826412212926463
23227448 37 18189331260828617463
23352939 185 18342462530415398027
23557571 272 17910374109985112994
23559900 14 18335978778501818797
238 59 18196346307921625956
2748010 2 18117544331403189953
3323516 105 18411138077713944259
350125 39 18336268960321048513
3524813 1 18334011700965522918
3680242 22 18116995477305685354
463206 1 18269557311053435927
5265222 85 17471861776259798556
57527585 103 17390829632986241626
59755656 215 18188762977069237031
6443956 14 18340493347406701473
81228 2 17476913559209296171

> <PUBCHEM_SHAPE_MULTIPOLES>
443.98
8.21
4.09
1.18
1.54
0.84
-0.09
-3.84
1.51
-1.8
-1.33
-0.11
0.8
1.1

> <PUBCHEM_SHAPE_SELFOVERLAP>
916.908

> <PUBCHEM_SHAPE_VOLUME>
252.3

> <PUBCHEM_COORDINATE_TYPE>
2
5
10

> <Energy>
40.5071

> <minimizedAffinity>
-3.94299

> <CNNscore>
0.1310582310

> <CNNaffinity>
5.1411185265

> <CNN_VS>
0.6737859249

> <CNNaffinity_variance>
0.7803527713

$$$$
