6623


 19 20  0  0  0  0  0  0  0  0999 V2000
   -4.2717   -3.5418   22.1653 C   0  0  0  0  0  0  0  0  0  0  0  0
   -4.4754   -3.2663   23.6805 C   0  0  0  0  0  0  0  0  0  0  0  0
   -5.2149   -2.5466   21.4363 C   0  0  0  0  0  0  0  0  0  0  0  0
   -5.8989   -8.7724   20.4975 O   0  0  0  0  0  0  0  0  0  0  0  0
   -4.6956   -4.9652   21.7295 C   0  0  0  0  0  0  0  0  0  0  0  0
   -5.3202   -5.1537   20.4775 C   0  0  0  0  0  0  0  0  0  0  0  0
   -4.4903   -6.1013   22.5310 C   0  0  0  0  0  0  0  0  0  0  0  0
   -5.7312   -6.4198   20.0502 C   0  0  0  0  0  0  0  0  0  0  0  0
   -4.8965   -7.3694   22.1024 C   0  0  0  0  0  0  0  0  0  0  0  0
   -5.5150   -7.5186   20.8698 C   0  0  0  0  0  0  0  0  0  0  0  0
   -6.3192   -8.9076   19.6710 H   0  0  0  0  0  0  0  0  0  0  0  0
    1.2686   -2.5534   21.1169 O   0  0  0  0  0  0  0  0  0  0  0  0
   -2.7720   -3.3043   21.8684 C   0  0  0  0  0  0  0  0  0  0  0  0
   -1.9134   -2.8802   22.9053 C   0  0  0  0  0  0  0  0  0  0  0  0
   -2.2115   -3.4792   20.5906 C   0  0  0  0  0  0  0  0  0  0  0  0
   -0.5594   -2.6236   22.6720 C   0  0  0  0  0  0  0  0  0  0  0  0
   -0.8564   -3.2280   20.3576 C   0  0  0  0  0  0  0  0  0  0  0  0
   -0.0434   -2.7974   21.3954 C   0  0  0  0  0  0  0  0  0  0  0  0
    1.8450   -2.2614   21.7955 H   0  0  0  0  0  0  0  0  0  0  0  0
  4 10  1  0
  4 11  1  0
 12 18  1  0
 12 19  1  0
  1  5  1  0
  1 13  1  0
  1  2  1  0
  1  3  1  0
  5  6  2  0
  5  7  1  0
 13 14  2  0
 13 15  1  0
  6  8  1  0
 14 16  1  0
  7  9  2  0
 15 17  2  0
  8 10  2  0
 16 18  2  0
  9 10  1  0
 17 18  1  0
M  END
> <PUBCHEM_COMPOUND_CID>
6623

> <PUBCHEM_CONFORMER_RMSD>
0.6

> <PUBCHEM_CONFORMER_DIVERSEORDER>
1
3
2

> <PUBCHEM_MMFF94_PARTIAL_CHARGES>
25
1 -0.53
10 -0.15
11 -0.15
12 -0.15
13 -0.15
14 -0.15
15 -0.15
16 0.08
17 0.08
2 -0.53
24 0.15
25 0.15
26 0.15
27 0.15
28 0.15
29 0.15
3 0.29
30 0.15
31 0.15
32 0.45
33 0.45
4 -0.14
5 -0.14
8 -0.15
9 -0.15

> <PUBCHEM_EFFECTIVE_ROTOR_COUNT>
2

> <PUBCHEM_PHARMACOPHORE_FEATURES>
5
1 1 donor
1 2 donor
3 3 6 7 hydrophobe
6 4 8 10 12 14 16 rings
6 5 9 11 13 15 17 rings

> <PUBCHEM_HEAVY_ATOM_COUNT>
17

> <PUBCHEM_ATOM_DEF_STEREO_COUNT>
0

> <PUBCHEM_ATOM_UDEF_STEREO_COUNT>
0

> <PUBCHEM_BOND_DEF_STEREO_COUNT>
0

> <PUBCHEM_BOND_UDEF_STEREO_COUNT>
0

> <PUBCHEM_ISOTOPIC_ATOM_COUNT>
0

> <PUBCHEM_COMPONENT_COUNT>
1

> <PUBCHEM_CACTVS_TAUTO_COUNT>
3

> <PUBCHEM_CONFORMER_ID>
000019DF00000001

> <PUBCHEM_MMFF94_ENERGY>
64.1206

> <PUBCHEM_FEATURE_SELFOVERLAP>
25.372

> <PUBCHEM_SHAPE_FINGERPRINT>
10465860 228 18265052440146906875
10498660 4 17846494807956907777
10618630 7 8862950471944920352
11046707 91 8574440819802817220
11640471 11 18410569587104953028
12138202 97 17632297942700988494
12251169 10 15719115772587467277
12491281 212 18341893034625719138
12633257 1 15647059291015153984
12788726 201 18049710021441717058
12892183 10 15719384001885322888
13571099 52 18261397711031002503
13764800 53 18340221781019704851
14251764 38 17758668950351880149
14739800 52 17985806350554812304
15061688 2 18410575084673810317
15309172 13 17822005415182549066
15342168 16 18187090559068058613
15375462 189 9295287269996453078
15534591 1 18337673126062282338
15653759 3 15068339003624658237
15775835 57 18410853261110395364
15906896 17 18264490774389428130
16945 1 17917141818369727011
17357779 13 13899614313340361589
1741750 31 18337674225716062138
17804303 29 12829490320433961629
1813 80 17692251833473259110
18186145 218 18334012757179395950
19765921 60 18411697656461014379
19868273 293 17988923409424780430
20291156 8 9223230745321134917
20361792 2 9943803365827786299
204376 136 18186802491163379179
20645476 183 18339358668581405150
20671657 53 12751245791825749096
20871999 31 16988551447065141829
21499 59 18412825772344063143
21524375 3 18410855460138945163
21713013 43 13758065299356720749
21731228 192 17894352193594983955
23184049 59 17894627041684797236
23402539 116 17774993601125170188
23557571 272 16557885966252971863
23559900 14 17561366193283564332
298252 57 18202560691760254914
3472631 163 18202563986327517557
4028521 119 17846780714954732865
4340502 62 18114473262852369283
474 4 18336547123060049707
633830 44 18410010996606913815
7364860 26 17700693965181141591
83771 10 9223230749695054610
94968 8 10663806477749826557
9981440 41 18128808828214612290

> <PUBCHEM_SHAPE_MULTIPOLES>
338.11
7.28
2.04
1.32
0.26
0.87
0
-5.89
0
-0.06
0
0
0.27
-0.69

> <PUBCHEM_SHAPE_SELFOVERLAP>
731.212

> <PUBCHEM_SHAPE_VOLUME>
187.1

> <PUBCHEM_COORDINATE_TYPE>
2
5
10

> <Energy>
42.8498

> <minimizedAffinity>
-8.30422

> <CNNscore>
0.7419354320

> <CNNaffinity>
6.5194983482

> <CNN_VS>
4.8370466232

> <CNNaffinity_variance>
0.2202804089

$$$$
6623


 19 20  0  0  0  0  0  0  0  0999 V2000
   -4.2546   -3.5550   22.1439 C   0  0  0  0  0  0  0  0  0  0  0  0
   -5.2193   -2.5687   21.4300 C   0  0  0  0  0  0  0  0  0  0  0  0
   -4.4602   -3.3037   23.6626 C   0  0  0  0  0  0  0  0  0  0  0  0
    1.2811   -2.5273   21.1005 O   0  0  0  0  0  0  0  0  0  0  0  0
   -2.7597   -3.2907   21.8423 C   0  0  0  0  0  0  0  0  0  0  0  0
   -1.8947   -2.9062   22.8897 C   0  0  0  0  0  0  0  0  0  0  0  0
   -2.2079   -3.4128   20.5554 C   0  0  0  0  0  0  0  0  0  0  0  0
   -0.5408   -2.6448   22.6594 C   0  0  0  0  0  0  0  0  0  0  0  0
   -0.8523   -3.1563   20.3246 C   0  0  0  0  0  0  0  0  0  0  0  0
   -0.0315   -2.7724   21.3748 C   0  0  0  0  0  0  0  0  0  0  0  0
    1.8624   -2.2662   21.7874 H   0  0  0  0  0  0  0  0  0  0  0  0
   -5.8670   -8.7845   20.4636 O   0  0  0  0  0  0  0  0  0  0  0  0
   -4.6593   -4.9780   21.6913 C   0  0  0  0  0  0  0  0  0  0  0  0
   -5.4445   -5.1448   20.5304 C   0  0  0  0  0  0  0  0  0  0  0  0
   -4.2895   -6.1361   22.3983 C   0  0  0  0  0  0  0  0  0  0  0  0
   -5.8583   -6.4104   20.1053 C   0  0  0  0  0  0  0  0  0  0  0  0
   -4.6983   -7.4025   21.9708 C   0  0  0  0  0  0  0  0  0  0  0  0
   -5.4826   -7.5301   20.8341 C   0  0  0  0  0  0  0  0  0  0  0  0
   -6.3972   -8.9057   19.7006 H   0  0  0  0  0  0  0  0  0  0  0  0
  4 10  1  0
  4 11  1  0
 12 18  1  0
 12 19  1  0
  1  5  1  0
  1 13  1  0
  1  2  1  0
  1  3  1  0
  5  6  2  0
  5  7  1  0
 13 14  2  0
 13 15  1  0
  6  8  1  0
 14 16  1  0
  7  9  2  0
 15 17  2  0
  8 10  2  0
 16 18  2  0
  9 10  1  0
 17 18  1  0
M  END
> <PUBCHEM_COMPOUND_CID>
6623

> <PUBCHEM_CONFORMER_RMSD>
0.6

> <PUBCHEM_CONFORMER_DIVERSEORDER>
1
3
2

> <PUBCHEM_MMFF94_PARTIAL_CHARGES>
25
1 -0.53
10 -0.15
11 -0.15
12 -0.15
13 -0.15
14 -0.15
15 -0.15
16 0.08
17 0.08
2 -0.53
24 0.15
25 0.15
26 0.15
27 0.15
28 0.15
29 0.15
3 0.29
30 0.15
31 0.15
32 0.45
33 0.45
4 -0.14
5 -0.14
8 -0.15
9 -0.15

> <PUBCHEM_EFFECTIVE_ROTOR_COUNT>
2

> <PUBCHEM_PHARMACOPHORE_FEATURES>
5
1 1 donor
1 2 donor
3 3 6 7 hydrophobe
6 4 8 10 12 14 16 rings
6 5 9 11 13 15 17 rings

> <PUBCHEM_HEAVY_ATOM_COUNT>
17

> <PUBCHEM_ATOM_DEF_STEREO_COUNT>
0

> <PUBCHEM_ATOM_UDEF_STEREO_COUNT>
0

> <PUBCHEM_BOND_DEF_STEREO_COUNT>
0

> <PUBCHEM_BOND_UDEF_STEREO_COUNT>
0

> <PUBCHEM_ISOTOPIC_ATOM_COUNT>
0

> <PUBCHEM_COMPONENT_COUNT>
1

> <PUBCHEM_CACTVS_TAUTO_COUNT>
3

> <PUBCHEM_CONFORMER_ID>
000019DF00000001

> <PUBCHEM_MMFF94_ENERGY>
64.1206

> <PUBCHEM_FEATURE_SELFOVERLAP>
25.372

> <PUBCHEM_SHAPE_FINGERPRINT>
10465860 228 18265052440146906875
10498660 4 17846494807956907777
10618630 7 8862950471944920352
11046707 91 8574440819802817220
11640471 11 18410569587104953028
12138202 97 17632297942700988494
12251169 10 15719115772587467277
12491281 212 18341893034625719138
12633257 1 15647059291015153984
12788726 201 18049710021441717058
12892183 10 15719384001885322888
13571099 52 18261397711031002503
13764800 53 18340221781019704851
14251764 38 17758668950351880149
14739800 52 17985806350554812304
15061688 2 18410575084673810317
15309172 13 17822005415182549066
15342168 16 18187090559068058613
15375462 189 9295287269996453078
15534591 1 18337673126062282338
15653759 3 15068339003624658237
15775835 57 18410853261110395364
15906896 17 18264490774389428130
16945 1 17917141818369727011
17357779 13 13899614313340361589
1741750 31 18337674225716062138
17804303 29 12829490320433961629
1813 80 17692251833473259110
18186145 218 18334012757179395950
19765921 60 18411697656461014379
19868273 293 17988923409424780430
20291156 8 9223230745321134917
20361792 2 9943803365827786299
204376 136 18186802491163379179
20645476 183 18339358668581405150
20671657 53 12751245791825749096
20871999 31 16988551447065141829
21499 59 18412825772344063143
21524375 3 18410855460138945163
21713013 43 13758065299356720749
21731228 192 17894352193594983955
23184049 59 17894627041684797236
23402539 116 17774993601125170188
23557571 272 16557885966252971863
23559900 14 17561366193283564332
298252 57 18202560691760254914
3472631 163 18202563986327517557
4028521 119 17846780714954732865
4340502 62 18114473262852369283
474 4 18336547123060049707
633830 44 18410010996606913815
7364860 26 17700693965181141591
83771 10 9223230749695054610
94968 8 10663806477749826557
9981440 41 18128808828214612290

> <PUBCHEM_SHAPE_MULTIPOLES>
338.11
7.28
2.04
1.32
0.26
0.87
0
-5.89
0
-0.06
0
0
0.27
-0.69

> <PUBCHEM_SHAPE_SELFOVERLAP>
731.212

> <PUBCHEM_SHAPE_VOLUME>
187.1

> <PUBCHEM_COORDINATE_TYPE>
2
5
10

> <Energy>
42.8498

> <minimizedAffinity>
-8.31111

> <CNNscore>
0.7366452813

> <CNNaffinity>
6.5169882774

> <CNN_VS>
4.8007087708

> <CNNaffinity_variance>
0.2086008340

$$$$
6623


 19 20  0  0  0  0  0  0  0  0999 V2000
   -4.2050   -2.8891   22.4489 C   0  0  0  0  0  0  0  0  0  0  0  0
   -3.4935   -2.0308   23.5308 C   0  0  0  0  0  0  0  0  0  0  0  0
   -5.3268   -1.9807   21.8761 C   0  0  0  0  0  0  0  0  0  0  0  0
   -6.7574   -7.6056   24.4561 O   0  0  0  0  0  0  0  0  0  0  0  0
   -4.8948   -4.1545   23.0134 C   0  0  0  0  0  0  0  0  0  0  0  0
   -4.7936   -5.3752   22.3115 C   0  0  0  0  0  0  0  0  0  0  0  0
   -5.6333   -4.1516   24.2092 C   0  0  0  0  0  0  0  0  0  0  0  0
   -5.4119   -6.5389   22.7783 C   0  0  0  0  0  0  0  0  0  0  0  0
   -6.2483   -5.3165   24.6798 C   0  0  0  0  0  0  0  0  0  0  0  0
   -6.1360   -6.4978   23.9614 C   0  0  0  0  0  0  0  0  0  0  0  0
   -6.7011   -8.4194   23.9952 H   0  0  0  0  0  0  0  0  0  0  0  0
   -0.1466   -4.2243   18.6387 O   0  0  0  0  0  0  0  0  0  0  0  0
   -3.1273   -3.2737   21.4076 C   0  0  0  0  0  0  0  0  0  0  0  0
   -1.8023   -3.5146   21.8301 C   0  0  0  0  0  0  0  0  0  0  0  0
   -3.4018   -3.3845   20.0328 C   0  0  0  0  0  0  0  0  0  0  0  0
   -0.7923   -3.8329   20.9178 C   0  0  0  0  0  0  0  0  0  0  0  0
   -2.3936   -3.7082   19.1205 C   0  0  0  0  0  0  0  0  0  0  0  0
   -1.0984   -3.9236   19.5672 C   0  0  0  0  0  0  0  0  0  0  0  0
    0.7383   -4.3757   18.9071 H   0  0  0  0  0  0  0  0  0  0  0  0
  4 10  1  0
  4 11  1  0
 12 18  1  0
 12 19  1  0
  1  5  1  0
  1 13  1  0
  1  2  1  0
  1  3  1  0
  5  6  2  0
  5  7  1  0
 13 14  2  0
 13 15  1  0
  6  8  1  0
 14 16  1  0
  7  9  2  0
 15 17  2  0
  8 10  2  0
 16 18  2  0
  9 10  1  0
 17 18  1  0
M  END
> <PUBCHEM_COMPOUND_CID>
6623

> <PUBCHEM_CONFORMER_RMSD>
0.6

> <PUBCHEM_CONFORMER_DIVERSEORDER>
1
3
2

> <PUBCHEM_MMFF94_PARTIAL_CHARGES>
25
1 -0.53
10 -0.15
11 -0.15
12 -0.15
13 -0.15
14 -0.15
15 -0.15
16 0.08
17 0.08
2 -0.53
24 0.15
25 0.15
26 0.15
27 0.15
28 0.15
29 0.15
3 0.29
30 0.15
31 0.15
32 0.45
33 0.45
4 -0.14
5 -0.14
8 -0.15
9 -0.15

> <PUBCHEM_EFFECTIVE_ROTOR_COUNT>
2

> <PUBCHEM_PHARMACOPHORE_FEATURES>
5
1 1 donor
1 2 donor
3 3 6 7 hydrophobe
6 4 8 10 12 14 16 rings
6 5 9 11 13 15 17 rings

> <PUBCHEM_HEAVY_ATOM_COUNT>
17

> <PUBCHEM_ATOM_DEF_STEREO_COUNT>
0

> <PUBCHEM_ATOM_UDEF_STEREO_COUNT>
0

> <PUBCHEM_BOND_DEF_STEREO_COUNT>
0

> <PUBCHEM_BOND_UDEF_STEREO_COUNT>
0

> <PUBCHEM_ISOTOPIC_ATOM_COUNT>
0

> <PUBCHEM_COMPONENT_COUNT>
1

> <PUBCHEM_CACTVS_TAUTO_COUNT>
3

> <PUBCHEM_CONFORMER_ID>
000019DF00000001

> <PUBCHEM_MMFF94_ENERGY>
64.1206

> <PUBCHEM_FEATURE_SELFOVERLAP>
25.372

> <PUBCHEM_SHAPE_FINGERPRINT>
10465860 228 18265052440146906875
10498660 4 17846494807956907777
10618630 7 8862950471944920352
11046707 91 8574440819802817220
11640471 11 18410569587104953028
12138202 97 17632297942700988494
12251169 10 15719115772587467277
12491281 212 18341893034625719138
12633257 1 15647059291015153984
12788726 201 18049710021441717058
12892183 10 15719384001885322888
13571099 52 18261397711031002503
13764800 53 18340221781019704851
14251764 38 17758668950351880149
14739800 52 17985806350554812304
15061688 2 18410575084673810317
15309172 13 17822005415182549066
15342168 16 18187090559068058613
15375462 189 9295287269996453078
15534591 1 18337673126062282338
15653759 3 15068339003624658237
15775835 57 18410853261110395364
15906896 17 18264490774389428130
16945 1 17917141818369727011
17357779 13 13899614313340361589
1741750 31 18337674225716062138
17804303 29 12829490320433961629
1813 80 17692251833473259110
18186145 218 18334012757179395950
19765921 60 18411697656461014379
19868273 293 17988923409424780430
20291156 8 9223230745321134917
20361792 2 9943803365827786299
204376 136 18186802491163379179
20645476 183 18339358668581405150
20671657 53 12751245791825749096
20871999 31 16988551447065141829
21499 59 18412825772344063143
21524375 3 18410855460138945163
21713013 43 13758065299356720749
21731228 192 17894352193594983955
23184049 59 17894627041684797236
23402539 116 17774993601125170188
23557571 272 16557885966252971863
23559900 14 17561366193283564332
298252 57 18202560691760254914
3472631 163 18202563986327517557
4028521 119 17846780714954732865
4340502 62 18114473262852369283
474 4 18336547123060049707
633830 44 18410010996606913815
7364860 26 17700693965181141591
83771 10 9223230749695054610
94968 8 10663806477749826557
9981440 41 18128808828214612290

> <PUBCHEM_SHAPE_MULTIPOLES>
338.11
7.28
2.04
1.32
0.26
0.87
0
-5.89
0
-0.06
0
0
0.27
-0.69

> <PUBCHEM_SHAPE_SELFOVERLAP>
731.212

> <PUBCHEM_SHAPE_VOLUME>
187.1

> <PUBCHEM_COORDINATE_TYPE>
2
5
10

> <Energy>
42.8498

> <minimizedAffinity>
-8.52341

> <CNNscore>
0.7361651659

> <CNNaffinity>
6.7862191200

> <CNN_VS>
4.9957780838

> <CNNaffinity_variance>
0.6061505675

$$$$
6623


 19 20  0  0  0  0  0  0  0  0999 V2000
   -4.2307   -3.4787   22.1539 C   0  0  0  0  0  0  0  0  0  0  0  0
   -5.1833   -2.4950   21.4205 C   0  0  0  0  0  0  0  0  0  0  0  0
   -4.4692   -3.2293   23.6681 C   0  0  0  0  0  0  0  0  0  0  0  0
    1.3138   -2.5302   21.0824 O   0  0  0  0  0  0  0  0  0  0  0  0
   -2.7305   -3.2093   21.8842 C   0  0  0  0  0  0  0  0  0  0  0  0
   -2.2282   -3.3186   20.5694 C   0  0  0  0  0  0  0  0  0  0  0  0
   -1.8241   -2.8577   22.8992 C   0  0  0  0  0  0  0  0  0  0  0  0
   -0.8778   -3.0971   20.2833 C   0  0  0  0  0  0  0  0  0  0  0  0
   -0.4737   -2.6309   22.6133 C   0  0  0  0  0  0  0  0  0  0  0  0
   -0.0110   -2.7548   21.3115 C   0  0  0  0  0  0  0  0  0  0  0  0
    1.6584   -2.6056   20.2143 H   0  0  0  0  0  0  0  0  0  0  0  0
   -5.7913   -8.7172   20.4531 O   0  0  0  0  0  0  0  0  0  0  0  0
   -4.6210   -4.9027   21.6918 C   0  0  0  0  0  0  0  0  0  0  0  0
   -5.5289   -5.0659   20.6235 C   0  0  0  0  0  0  0  0  0  0  0  0
   -4.1187   -6.0659   22.3019 C   0  0  0  0  0  0  0  0  0  0  0  0
   -5.9321   -6.3342   20.1964 C   0  0  0  0  0  0  0  0  0  0  0  0
   -4.5172   -7.3346   21.8717 C   0  0  0  0  0  0  0  0  0  0  0  0
   -5.4231   -7.4596   20.8291 C   0  0  0  0  0  0  0  0  0  0  0  0
   -6.4015   -8.8368   19.7522 H   0  0  0  0  0  0  0  0  0  0  0  0
  4 10  1  0
  4 11  1  0
 12 18  1  0
 12 19  1  0
  1  5  1  0
  1 13  1  0
  1  2  1  0
  1  3  1  0
  5  6  2  0
  5  7  1  0
 13 14  2  0
 13 15  1  0
  6  8  1  0
 14 16  1  0
  7  9  2  0
 15 17  2  0
  8 10  2  0
 16 18  2  0
  9 10  1  0
 17 18  1  0
M  END
> <PUBCHEM_COMPOUND_CID>
6623

> <PUBCHEM_CONFORMER_RMSD>
0.6

> <PUBCHEM_CONFORMER_DIVERSEORDER>
1
3
2

> <PUBCHEM_MMFF94_PARTIAL_CHARGES>
25
1 -0.53
10 -0.15
11 -0.15
12 -0.15
13 -0.15
14 -0.15
15 -0.15
16 0.08
17 0.08
2 -0.53
24 0.15
25 0.15
26 0.15
27 0.15
28 0.15
29 0.15
3 0.29
30 0.15
31 0.15
32 0.45
33 0.45
4 -0.14
5 -0.14
8 -0.15
9 -0.15

> <PUBCHEM_EFFECTIVE_ROTOR_COUNT>
2

> <PUBCHEM_PHARMACOPHORE_FEATURES>
5
1 1 donor
1 2 donor
3 3 6 7 hydrophobe
6 4 8 10 12 14 16 rings
6 5 9 11 13 15 17 rings

> <PUBCHEM_HEAVY_ATOM_COUNT>
17

> <PUBCHEM_ATOM_DEF_STEREO_COUNT>
0

> <PUBCHEM_ATOM_UDEF_STEREO_COUNT>
0

> <PUBCHEM_BOND_DEF_STEREO_COUNT>
0

> <PUBCHEM_BOND_UDEF_STEREO_COUNT>
0

> <PUBCHEM_ISOTOPIC_ATOM_COUNT>
0

> <PUBCHEM_COMPONENT_COUNT>
1

> <PUBCHEM_CACTVS_TAUTO_COUNT>
3

> <PUBCHEM_CONFORMER_ID>
000019DF00000001

> <PUBCHEM_MMFF94_ENERGY>
64.1206

> <PUBCHEM_FEATURE_SELFOVERLAP>
25.372

> <PUBCHEM_SHAPE_FINGERPRINT>
10465860 228 18265052440146906875
10498660 4 17846494807956907777
10618630 7 8862950471944920352
11046707 91 8574440819802817220
11640471 11 18410569587104953028
12138202 97 17632297942700988494
12251169 10 15719115772587467277
12491281 212 18341893034625719138
12633257 1 15647059291015153984
12788726 201 18049710021441717058
12892183 10 15719384001885322888
13571099 52 18261397711031002503
13764800 53 18340221781019704851
14251764 38 17758668950351880149
14739800 52 17985806350554812304
15061688 2 18410575084673810317
15309172 13 17822005415182549066
15342168 16 18187090559068058613
15375462 189 9295287269996453078
15534591 1 18337673126062282338
15653759 3 15068339003624658237
15775835 57 18410853261110395364
15906896 17 18264490774389428130
16945 1 17917141818369727011
17357779 13 13899614313340361589
1741750 31 18337674225716062138
17804303 29 12829490320433961629
1813 80 17692251833473259110
18186145 218 18334012757179395950
19765921 60 18411697656461014379
19868273 293 17988923409424780430
20291156 8 9223230745321134917
20361792 2 9943803365827786299
204376 136 18186802491163379179
20645476 183 18339358668581405150
20671657 53 12751245791825749096
20871999 31 16988551447065141829
21499 59 18412825772344063143
21524375 3 18410855460138945163
21713013 43 13758065299356720749
21731228 192 17894352193594983955
23184049 59 17894627041684797236
23402539 116 17774993601125170188
23557571 272 16557885966252971863
23559900 14 17561366193283564332
298252 57 18202560691760254914
3472631 163 18202563986327517557
4028521 119 17846780714954732865
4340502 62 18114473262852369283
474 4 18336547123060049707
633830 44 18410010996606913815
7364860 26 17700693965181141591
83771 10 9223230749695054610
94968 8 10663806477749826557
9981440 41 18128808828214612290

> <PUBCHEM_SHAPE_MULTIPOLES>
338.11
7.28
2.04
1.32
0.26
0.87
0
-5.89
0
-0.06
0
0
0.27
-0.69

> <PUBCHEM_SHAPE_SELFOVERLAP>
731.212

> <PUBCHEM_SHAPE_VOLUME>
187.1

> <PUBCHEM_COORDINATE_TYPE>
2
5
10

> <Energy>
42.8498

> <minimizedAffinity>
-8.28785

> <CNNscore>
0.7299578786

> <CNNaffinity>
6.5290775299

> <CNN_VS>
4.7659516335

> <CNNaffinity_variance>
0.2129164189

$$$$
6623


 19 20  0  0  0  0  0  0  0  0999 V2000
   -4.0990   -2.9198   22.5119 C   0  0  0  0  0  0  0  0  0  0  0  0
   -5.1846   -1.9181   22.0312 C   0  0  0  0  0  0  0  0  0  0  0  0
   -3.3136   -2.1723   23.6237 C   0  0  0  0  0  0  0  0  0  0  0  0
   -0.2444   -4.3015   18.5091 O   0  0  0  0  0  0  0  0  0  0  0  0
   -3.0748   -3.3004   21.4156 C   0  0  0  0  0  0  0  0  0  0  0  0
   -1.7367   -3.5705   21.7755 C   0  0  0  0  0  0  0  0  0  0  0  0
   -3.4125   -3.3901   20.0542 C   0  0  0  0  0  0  0  0  0  0  0  0
   -0.7761   -3.9048   20.8163 C   0  0  0  0  0  0  0  0  0  0  0  0
   -2.4534   -3.7294   19.0941 C   0  0  0  0  0  0  0  0  0  0  0  0
   -1.1451   -3.9807   19.4806 C   0  0  0  0  0  0  0  0  0  0  0  0
    0.6473   -4.4771   18.7366 H   0  0  0  0  0  0  0  0  0  0  0  0
   -6.8163   -7.5501   24.4987 O   0  0  0  0  0  0  0  0  0  0  0  0
   -4.8468   -4.1756   23.0194 C   0  0  0  0  0  0  0  0  0  0  0  0
   -5.6210   -4.0990   24.1971 C   0  0  0  0  0  0  0  0  0  0  0  0
   -4.7828   -5.4175   22.3628 C   0  0  0  0  0  0  0  0  0  0  0  0
   -6.2859   -5.2178   24.7069 C   0  0  0  0  0  0  0  0  0  0  0  0
   -5.4520   -6.5354   22.8689 C   0  0  0  0  0  0  0  0  0  0  0  0
   -6.1917   -6.4297   24.0372 C   0  0  0  0  0  0  0  0  0  0  0  0
   -7.3241   -7.5130   25.2853 H   0  0  0  0  0  0  0  0  0  0  0  0
  4 10  1  0
  4 11  1  0
 12 18  1  0
 12 19  1  0
  1  5  1  0
  1 13  1  0
  1  2  1  0
  1  3  1  0
  5  6  2  0
  5  7  1  0
 13 14  2  0
 13 15  1  0
  6  8  1  0
 14 16  1  0
  7  9  2  0
 15 17  2  0
  8 10  2  0
 16 18  2  0
  9 10  1  0
 17 18  1  0
M  END
> <PUBCHEM_COMPOUND_CID>
6623

> <PUBCHEM_CONFORMER_RMSD>
0.6

> <PUBCHEM_CONFORMER_DIVERSEORDER>
1
3
2

> <PUBCHEM_MMFF94_PARTIAL_CHARGES>
25
1 -0.53
10 -0.15
11 -0.15
12 -0.15
13 -0.15
14 -0.15
15 -0.15
16 0.08
17 0.08
2 -0.53
24 0.15
25 0.15
26 0.15
27 0.15
28 0.15
29 0.15
3 0.29
30 0.15
31 0.15
32 0.45
33 0.45
4 -0.14
5 -0.14
8 -0.15
9 -0.15

> <PUBCHEM_EFFECTIVE_ROTOR_COUNT>
2

> <PUBCHEM_PHARMACOPHORE_FEATURES>
5
1 1 donor
1 2 donor
3 3 6 7 hydrophobe
6 4 8 10 12 14 16 rings
6 5 9 11 13 15 17 rings

> <PUBCHEM_HEAVY_ATOM_COUNT>
17

> <PUBCHEM_ATOM_DEF_STEREO_COUNT>
0

> <PUBCHEM_ATOM_UDEF_STEREO_COUNT>
0

> <PUBCHEM_BOND_DEF_STEREO_COUNT>
0

> <PUBCHEM_BOND_UDEF_STEREO_COUNT>
0

> <PUBCHEM_ISOTOPIC_ATOM_COUNT>
0

> <PUBCHEM_COMPONENT_COUNT>
1

> <PUBCHEM_CACTVS_TAUTO_COUNT>
3

> <PUBCHEM_CONFORMER_ID>
000019DF00000001

> <PUBCHEM_MMFF94_ENERGY>
64.1206

> <PUBCHEM_FEATURE_SELFOVERLAP>
25.372

> <PUBCHEM_SHAPE_FINGERPRINT>
10465860 228 18265052440146906875
10498660 4 17846494807956907777
10618630 7 8862950471944920352
11046707 91 8574440819802817220
11640471 11 18410569587104953028
12138202 97 17632297942700988494
12251169 10 15719115772587467277
12491281 212 18341893034625719138
12633257 1 15647059291015153984
12788726 201 18049710021441717058
12892183 10 15719384001885322888
13571099 52 18261397711031002503
13764800 53 18340221781019704851
14251764 38 17758668950351880149
14739800 52 17985806350554812304
15061688 2 18410575084673810317
15309172 13 17822005415182549066
15342168 16 18187090559068058613
15375462 189 9295287269996453078
15534591 1 18337673126062282338
15653759 3 15068339003624658237
15775835 57 18410853261110395364
15906896 17 18264490774389428130
16945 1 17917141818369727011
17357779 13 13899614313340361589
1741750 31 18337674225716062138
17804303 29 12829490320433961629
1813 80 17692251833473259110
18186145 218 18334012757179395950
19765921 60 18411697656461014379
19868273 293 17988923409424780430
20291156 8 9223230745321134917
20361792 2 9943803365827786299
204376 136 18186802491163379179
20645476 183 18339358668581405150
20671657 53 12751245791825749096
20871999 31 16988551447065141829
21499 59 18412825772344063143
21524375 3 18410855460138945163
21713013 43 13758065299356720749
21731228 192 17894352193594983955
23184049 59 17894627041684797236
23402539 116 17774993601125170188
23557571 272 16557885966252971863
23559900 14 17561366193283564332
298252 57 18202560691760254914
3472631 163 18202563986327517557
4028521 119 17846780714954732865
4340502 62 18114473262852369283
474 4 18336547123060049707
633830 44 18410010996606913815
7364860 26 17700693965181141591
83771 10 9223230749695054610
94968 8 10663806477749826557
9981440 41 18128808828214612290

> <PUBCHEM_SHAPE_MULTIPOLES>
338.11
7.28
2.04
1.32
0.26
0.87
0
-5.89
0
-0.06
0
0
0.27
-0.69

> <PUBCHEM_SHAPE_SELFOVERLAP>
731.212

> <PUBCHEM_SHAPE_VOLUME>
187.1

> <PUBCHEM_COORDINATE_TYPE>
2
5
10

> <Energy>
42.8498

> <minimizedAffinity>
-8.58554

> <CNNscore>
0.7231592536

> <CNNaffinity>
6.8468937874

> <CNN_VS>
4.9513945580

> <CNNaffinity_variance>
0.6861788630

$$$$
6623


 19 20  0  0  0  0  0  0  0  0999 V2000
   -4.3160   -3.4232   22.2178 C   0  0  0  0  0  0  0  0  0  0  0  0
   -4.5258   -3.2149   23.7429 C   0  0  0  0  0  0  0  0  0  0  0  0
   -5.2621   -2.4018   21.5297 C   0  0  0  0  0  0  0  0  0  0  0  0
   -5.7936   -8.6576   20.4273 O   0  0  0  0  0  0  0  0  0  0  0  0
   -4.7314   -4.8283   21.7190 C   0  0  0  0  0  0  0  0  0  0  0  0
   -4.4897   -5.9563   22.5327 C   0  0  0  0  0  0  0  0  0  0  0  0
   -5.3456   -5.0449   20.4735 C   0  0  0  0  0  0  0  0  0  0  0  0
   -4.8365   -7.2449   22.1158 C   0  0  0  0  0  0  0  0  0  0  0  0
   -5.6976   -6.3332   20.0574 C   0  0  0  0  0  0  0  0  0  0  0  0
   -5.4385   -7.4211   20.8779 C   0  0  0  0  0  0  0  0  0  0  0  0
   -5.6326   -9.4134   20.9571 H   0  0  0  0  0  0  0  0  0  0  0  0
    1.2373   -2.5747   21.1170 O   0  0  0  0  0  0  0  0  0  0  0  0
   -2.8166   -3.1656   21.9365 C   0  0  0  0  0  0  0  0  0  0  0  0
   -2.3289   -3.2536   20.6149 C   0  0  0  0  0  0  0  0  0  0  0  0
   -1.8936   -2.8557   22.9511 C   0  0  0  0  0  0  0  0  0  0  0  0
   -0.9759   -3.0597   20.3225 C   0  0  0  0  0  0  0  0  0  0  0  0
   -0.5414   -2.6563   22.6587 C   0  0  0  0  0  0  0  0  0  0  0  0
   -0.0921   -2.7654   21.3512 C   0  0  0  0  0  0  0  0  0  0  0  0
    1.5735   -2.6413   20.2449 H   0  0  0  0  0  0  0  0  0  0  0  0
  4 10  1  0
  4 11  1  0
 12 18  1  0
 12 19  1  0
  1  5  1  0
  1 13  1  0
  1  2  1  0
  1  3  1  0
  5  6  2  0
  5  7  1  0
 13 14  2  0
 13 15  1  0
  6  8  1  0
 14 16  1  0
  7  9  2  0
 15 17  2  0
  8 10  2  0
 16 18  2  0
  9 10  1  0
 17 18  1  0
M  END
> <PUBCHEM_COMPOUND_CID>
6623

> <PUBCHEM_CONFORMER_RMSD>
0.6

> <PUBCHEM_CONFORMER_DIVERSEORDER>
1
3
2

> <PUBCHEM_MMFF94_PARTIAL_CHARGES>
25
1 -0.53
10 -0.15
11 -0.15
12 -0.15
13 -0.15
14 -0.15
15 -0.15
16 0.08
17 0.08
2 -0.53
24 0.15
25 0.15
26 0.15
27 0.15
28 0.15
29 0.15
3 0.29
30 0.15
31 0.15
32 0.45
33 0.45
4 -0.14
5 -0.14
8 -0.15
9 -0.15

> <PUBCHEM_EFFECTIVE_ROTOR_COUNT>
2

> <PUBCHEM_PHARMACOPHORE_FEATURES>
5
1 1 donor
1 2 donor
3 3 6 7 hydrophobe
6 4 8 10 12 14 16 rings
6 5 9 11 13 15 17 rings

> <PUBCHEM_HEAVY_ATOM_COUNT>
17

> <PUBCHEM_ATOM_DEF_STEREO_COUNT>
0

> <PUBCHEM_ATOM_UDEF_STEREO_COUNT>
0

> <PUBCHEM_BOND_DEF_STEREO_COUNT>
0

> <PUBCHEM_BOND_UDEF_STEREO_COUNT>
0

> <PUBCHEM_ISOTOPIC_ATOM_COUNT>
0

> <PUBCHEM_COMPONENT_COUNT>
1

> <PUBCHEM_CACTVS_TAUTO_COUNT>
3

> <PUBCHEM_CONFORMER_ID>
000019DF00000001

> <PUBCHEM_MMFF94_ENERGY>
64.1206

> <PUBCHEM_FEATURE_SELFOVERLAP>
25.372

> <PUBCHEM_SHAPE_FINGERPRINT>
10465860 228 18265052440146906875
10498660 4 17846494807956907777
10618630 7 8862950471944920352
11046707 91 8574440819802817220
11640471 11 18410569587104953028
12138202 97 17632297942700988494
12251169 10 15719115772587467277
12491281 212 18341893034625719138
12633257 1 15647059291015153984
12788726 201 18049710021441717058
12892183 10 15719384001885322888
13571099 52 18261397711031002503
13764800 53 18340221781019704851
14251764 38 17758668950351880149
14739800 52 17985806350554812304
15061688 2 18410575084673810317
15309172 13 17822005415182549066
15342168 16 18187090559068058613
15375462 189 9295287269996453078
15534591 1 18337673126062282338
15653759 3 15068339003624658237
15775835 57 18410853261110395364
15906896 17 18264490774389428130
16945 1 17917141818369727011
17357779 13 13899614313340361589
1741750 31 18337674225716062138
17804303 29 12829490320433961629
1813 80 17692251833473259110
18186145 218 18334012757179395950
19765921 60 18411697656461014379
19868273 293 17988923409424780430
20291156 8 9223230745321134917
20361792 2 9943803365827786299
204376 136 18186802491163379179
20645476 183 18339358668581405150
20671657 53 12751245791825749096
20871999 31 16988551447065141829
21499 59 18412825772344063143
21524375 3 18410855460138945163
21713013 43 13758065299356720749
21731228 192 17894352193594983955
23184049 59 17894627041684797236
23402539 116 17774993601125170188
23557571 272 16557885966252971863
23559900 14 17561366193283564332
298252 57 18202560691760254914
3472631 163 18202563986327517557
4028521 119 17846780714954732865
4340502 62 18114473262852369283
474 4 18336547123060049707
633830 44 18410010996606913815
7364860 26 17700693965181141591
83771 10 9223230749695054610
94968 8 10663806477749826557
9981440 41 18128808828214612290

> <PUBCHEM_SHAPE_MULTIPOLES>
338.11
7.28
2.04
1.32
0.26
0.87
0
-5.89
0
-0.06
0
0
0.27
-0.69

> <PUBCHEM_SHAPE_SELFOVERLAP>
731.212

> <PUBCHEM_SHAPE_VOLUME>
187.1

> <PUBCHEM_COORDINATE_TYPE>
2
5
10

> <Energy>
42.8498

> <minimizedAffinity>
-8.28269

> <CNNscore>
0.7175208926

> <CNNaffinity>
6.5373744965

> <CNN_VS>
4.6907029152

> <CNNaffinity_variance>
0.2321950644

$$$$
6623


 19 20  0  0  0  0  0  0  0  0999 V2000
   -4.0626   -2.9289   22.5020 C   0  0  0  0  0  0  0  0  0  0  0  0
   -3.2586   -2.1792   23.5995 C   0  0  0  0  0  0  0  0  0  0  0  0
   -5.1467   -1.9231   22.0276 C   0  0  0  0  0  0  0  0  0  0  0  0
   -6.8197   -7.5278   24.5114 O   0  0  0  0  0  0  0  0  0  0  0  0
   -4.8079   -4.1813   23.0232 C   0  0  0  0  0  0  0  0  0  0  0  0
   -5.5605   -4.0990   24.2148 C   0  0  0  0  0  0  0  0  0  0  0  0
   -4.7717   -5.4209   22.3617 C   0  0  0  0  0  0  0  0  0  0  0  0
   -6.2380   -5.2088   24.7283 C   0  0  0  0  0  0  0  0  0  0  0  0
   -5.4533   -6.5308   22.8719 C   0  0  0  0  0  0  0  0  0  0  0  0
   -6.1771   -6.4178   24.0498 C   0  0  0  0  0  0  0  0  0  0  0  0
   -7.3173   -7.4853   25.3042 H   0  0  0  0  0  0  0  0  0  0  0  0
   -0.2436   -4.2799   18.4572 O   0  0  0  0  0  0  0  0  0  0  0  0
   -3.0513   -3.3163   21.3971 C   0  0  0  0  0  0  0  0  0  0  0  0
   -1.7232   -3.6403   21.7484 C   0  0  0  0  0  0  0  0  0  0  0  0
   -3.3897   -3.3495   20.0325 C   0  0  0  0  0  0  0  0  0  0  0  0
   -0.7706   -3.9643   20.7782 C   0  0  0  0  0  0  0  0  0  0  0  0
   -2.4390   -3.6788   19.0623 C   0  0  0  0  0  0  0  0  0  0  0  0
   -1.1384   -3.9771   19.4401 C   0  0  0  0  0  0  0  0  0  0  0  0
    0.6432   -4.4862   18.6784 H   0  0  0  0  0  0  0  0  0  0  0  0
  4 10  1  0
  4 11  1  0
 12 18  1  0
 12 19  1  0
  1  5  1  0
  1 13  1  0
  1  2  1  0
  1  3  1  0
  5  6  2  0
  5  7  1  0
 13 14  2  0
 13 15  1  0
  6  8  1  0
 14 16  1  0
  7  9  2  0
 15 17  2  0
  8 10  2  0
 16 18  2  0
  9 10  1  0
 17 18  1  0
M  END
> <PUBCHEM_COMPOUND_CID>
6623

> <PUBCHEM_CONFORMER_RMSD>
0.6

> <PUBCHEM_CONFORMER_DIVERSEORDER>
1
3
2

> <PUBCHEM_MMFF94_PARTIAL_CHARGES>
25
1 -0.53
10 -0.15
11 -0.15
12 -0.15
13 -0.15
14 -0.15
15 -0.15
16 0.08
17 0.08
2 -0.53
24 0.15
25 0.15
26 0.15
27 0.15
28 0.15
29 0.15
3 0.29
30 0.15
31 0.15
32 0.45
33 0.45
4 -0.14
5 -0.14
8 -0.15
9 -0.15

> <PUBCHEM_EFFECTIVE_ROTOR_COUNT>
2

> <PUBCHEM_PHARMACOPHORE_FEATURES>
5
1 1 donor
1 2 donor
3 3 6 7 hydrophobe
6 4 8 10 12 14 16 rings
6 5 9 11 13 15 17 rings

> <PUBCHEM_HEAVY_ATOM_COUNT>
17

> <PUBCHEM_ATOM_DEF_STEREO_COUNT>
0

> <PUBCHEM_ATOM_UDEF_STEREO_COUNT>
0

> <PUBCHEM_BOND_DEF_STEREO_COUNT>
0

> <PUBCHEM_BOND_UDEF_STEREO_COUNT>
0

> <PUBCHEM_ISOTOPIC_ATOM_COUNT>
0

> <PUBCHEM_COMPONENT_COUNT>
1

> <PUBCHEM_CACTVS_TAUTO_COUNT>
3

> <PUBCHEM_CONFORMER_ID>
000019DF00000001

> <PUBCHEM_MMFF94_ENERGY>
64.1206

> <PUBCHEM_FEATURE_SELFOVERLAP>
25.372

> <PUBCHEM_SHAPE_FINGERPRINT>
10465860 228 18265052440146906875
10498660 4 17846494807956907777
10618630 7 8862950471944920352
11046707 91 8574440819802817220
11640471 11 18410569587104953028
12138202 97 17632297942700988494
12251169 10 15719115772587467277
12491281 212 18341893034625719138
12633257 1 15647059291015153984
12788726 201 18049710021441717058
12892183 10 15719384001885322888
13571099 52 18261397711031002503
13764800 53 18340221781019704851
14251764 38 17758668950351880149
14739800 52 17985806350554812304
15061688 2 18410575084673810317
15309172 13 17822005415182549066
15342168 16 18187090559068058613
15375462 189 9295287269996453078
15534591 1 18337673126062282338
15653759 3 15068339003624658237
15775835 57 18410853261110395364
15906896 17 18264490774389428130
16945 1 17917141818369727011
17357779 13 13899614313340361589
1741750 31 18337674225716062138
17804303 29 12829490320433961629
1813 80 17692251833473259110
18186145 218 18334012757179395950
19765921 60 18411697656461014379
19868273 293 17988923409424780430
20291156 8 9223230745321134917
20361792 2 9943803365827786299
204376 136 18186802491163379179
20645476 183 18339358668581405150
20671657 53 12751245791825749096
20871999 31 16988551447065141829
21499 59 18412825772344063143
21524375 3 18410855460138945163
21713013 43 13758065299356720749
21731228 192 17894352193594983955
23184049 59 17894627041684797236
23402539 116 17774993601125170188
23557571 272 16557885966252971863
23559900 14 17561366193283564332
298252 57 18202560691760254914
3472631 163 18202563986327517557
4028521 119 17846780714954732865
4340502 62 18114473262852369283
474 4 18336547123060049707
633830 44 18410010996606913815
7364860 26 17700693965181141591
83771 10 9223230749695054610
94968 8 10663806477749826557
9981440 41 18128808828214612290

> <PUBCHEM_SHAPE_MULTIPOLES>
338.11
7.28
2.04
1.32
0.26
0.87
0
-5.89
0
-0.06
0
0
0.27
-0.69

> <PUBCHEM_SHAPE_SELFOVERLAP>
731.212

> <PUBCHEM_SHAPE_VOLUME>
187.1

> <PUBCHEM_COORDINATE_TYPE>
2
5
10

> <Energy>
42.8498

> <minimizedAffinity>
-8.56808

> <CNNscore>
0.7000405788

> <CNNaffinity>
6.8411660194

> <CNN_VS>
4.7890939713

> <CNNaffinity_variance>
0.7033023238

$$$$
6623


 19 20  0  0  0  0  0  0  0  0999 V2000
   -4.1210   -2.8584   22.5097 C   0  0  0  0  0  0  0  0  0  0  0  0
   -5.2342   -1.9240   21.9612 C   0  0  0  0  0  0  0  0  0  0  0  0
   -3.3854   -2.0273   23.5960 C   0  0  0  0  0  0  0  0  0  0  0  0
   -0.2708   -4.3401   18.5387 O   0  0  0  0  0  0  0  0  0  0  0  0
   -3.0627   -3.2529   21.4513 C   0  0  0  0  0  0  0  0  0  0  0  0
   -3.4193   -3.2801   20.0857 C   0  0  0  0  0  0  0  0  0  0  0  0
   -1.7409   -3.5948   21.7849 C   0  0  0  0  0  0  0  0  0  0  0  0
   -2.4990   -3.6434   19.0981 C   0  0  0  0  0  0  0  0  0  0  0  0
   -0.8177   -3.9537   20.7972 C   0  0  0  0  0  0  0  0  0  0  0  0
   -1.2031   -3.9782   19.4649 C   0  0  0  0  0  0  0  0  0  0  0  0
   -0.4987   -4.3668   17.6302 H   0  0  0  0  0  0  0  0  0  0  0  0
   -6.7986   -7.5261   24.4625 O   0  0  0  0  0  0  0  0  0  0  0  0
   -4.8306   -4.1154   23.0666 C   0  0  0  0  0  0  0  0  0  0  0  0
   -4.7376   -5.3376   22.3666 C   0  0  0  0  0  0  0  0  0  0  0  0
   -5.5899   -4.0999   24.2501 C   0  0  0  0  0  0  0  0  0  0  0  0
   -5.3899   -6.4882   22.8184 C   0  0  0  0  0  0  0  0  0  0  0  0
   -6.2380   -5.2515   24.7055 C   0  0  0  0  0  0  0  0  0  0  0  0
   -6.1389   -6.4327   23.9855 C   0  0  0  0  0  0  0  0  0  0  0  0
   -6.7523   -8.3397   24.0001 H   0  0  0  0  0  0  0  0  0  0  0  0
  4 10  1  0
  4 11  1  0
 12 18  1  0
 12 19  1  0
  1  5  1  0
  1 13  1  0
  1  2  1  0
  1  3  1  0
  5  6  2  0
  5  7  1  0
 13 14  2  0
 13 15  1  0
  6  8  1  0
 14 16  1  0
  7  9  2  0
 15 17  2  0
  8 10  2  0
 16 18  2  0
  9 10  1  0
 17 18  1  0
M  END
> <PUBCHEM_COMPOUND_CID>
6623

> <PUBCHEM_CONFORMER_RMSD>
0.6

> <PUBCHEM_CONFORMER_DIVERSEORDER>
1
3
2

> <PUBCHEM_MMFF94_PARTIAL_CHARGES>
25
1 -0.53
10 -0.15
11 -0.15
12 -0.15
13 -0.15
14 -0.15
15 -0.15
16 0.08
17 0.08
2 -0.53
24 0.15
25 0.15
26 0.15
27 0.15
28 0.15
29 0.15
3 0.29
30 0.15
31 0.15
32 0.45
33 0.45
4 -0.14
5 -0.14
8 -0.15
9 -0.15

> <PUBCHEM_EFFECTIVE_ROTOR_COUNT>
2

> <PUBCHEM_PHARMACOPHORE_FEATURES>
5
1 1 donor
1 2 donor
3 3 6 7 hydrophobe
6 4 8 10 12 14 16 rings
6 5 9 11 13 15 17 rings

> <PUBCHEM_HEAVY_ATOM_COUNT>
17

> <PUBCHEM_ATOM_DEF_STEREO_COUNT>
0

> <PUBCHEM_ATOM_UDEF_STEREO_COUNT>
0

> <PUBCHEM_BOND_DEF_STEREO_COUNT>
0

> <PUBCHEM_BOND_UDEF_STEREO_COUNT>
0

> <PUBCHEM_ISOTOPIC_ATOM_COUNT>
0

> <PUBCHEM_COMPONENT_COUNT>
1

> <PUBCHEM_CACTVS_TAUTO_COUNT>
3

> <PUBCHEM_CONFORMER_ID>
000019DF00000001

> <PUBCHEM_MMFF94_ENERGY>
64.1206

> <PUBCHEM_FEATURE_SELFOVERLAP>
25.372

> <PUBCHEM_SHAPE_FINGERPRINT>
10465860 228 18265052440146906875
10498660 4 17846494807956907777
10618630 7 8862950471944920352
11046707 91 8574440819802817220
11640471 11 18410569587104953028
12138202 97 17632297942700988494
12251169 10 15719115772587467277
12491281 212 18341893034625719138
12633257 1 15647059291015153984
12788726 201 18049710021441717058
12892183 10 15719384001885322888
13571099 52 18261397711031002503
13764800 53 18340221781019704851
14251764 38 17758668950351880149
14739800 52 17985806350554812304
15061688 2 18410575084673810317
15309172 13 17822005415182549066
15342168 16 18187090559068058613
15375462 189 9295287269996453078
15534591 1 18337673126062282338
15653759 3 15068339003624658237
15775835 57 18410853261110395364
15906896 17 18264490774389428130
16945 1 17917141818369727011
17357779 13 13899614313340361589
1741750 31 18337674225716062138
17804303 29 12829490320433961629
1813 80 17692251833473259110
18186145 218 18334012757179395950
19765921 60 18411697656461014379
19868273 293 17988923409424780430
20291156 8 9223230745321134917
20361792 2 9943803365827786299
204376 136 18186802491163379179
20645476 183 18339358668581405150
20671657 53 12751245791825749096
20871999 31 16988551447065141829
21499 59 18412825772344063143
21524375 3 18410855460138945163
21713013 43 13758065299356720749
21731228 192 17894352193594983955
23184049 59 17894627041684797236
23402539 116 17774993601125170188
23557571 272 16557885966252971863
23559900 14 17561366193283564332
298252 57 18202560691760254914
3472631 163 18202563986327517557
4028521 119 17846780714954732865
4340502 62 18114473262852369283
474 4 18336547123060049707
633830 44 18410010996606913815
7364860 26 17700693965181141591
83771 10 9223230749695054610
94968 8 10663806477749826557
9981440 41 18128808828214612290

> <PUBCHEM_SHAPE_MULTIPOLES>
338.11
7.28
2.04
1.32
0.26
0.87
0
-5.89
0
-0.06
0
0
0.27
-0.69

> <PUBCHEM_SHAPE_SELFOVERLAP>
731.212

> <PUBCHEM_SHAPE_VOLUME>
187.1

> <PUBCHEM_COORDINATE_TYPE>
2
5
10

> <Energy>
42.8498

> <minimizedAffinity>
-8.55678

> <CNNscore>
0.6630656123

> <CNNaffinity>
6.7614989281

> <CNN_VS>
4.4833173752

> <CNNaffinity_variance>
0.5956419110

$$$$
6623


 19 20  0  0  0  0  0  0  0  0999 V2000
   -3.8614   -5.3136   21.4954 C   0  0  0  0  0  0  0  0  0  0  0  0
   -4.4950   -5.2540   20.0783 C   0  0  0  0  0  0  0  0  0  0  0  0
   -3.6620   -6.8247   21.7929 C   0  0  0  0  0  0  0  0  0  0  0  0
   -7.2844   -3.3169   25.6287 O   0  0  0  0  0  0  0  0  0  0  0  0
   -4.7769   -4.7523   22.6101 C   0  0  0  0  0  0  0  0  0  0  0  0
   -5.3353   -5.6323   23.5623 C   0  0  0  0  0  0  0  0  0  0  0  0
   -5.0898   -3.3869   22.7247 C   0  0  0  0  0  0  0  0  0  0  0  0
   -6.1779   -5.1699   24.5775 C   0  0  0  0  0  0  0  0  0  0  0  0
   -5.9288   -2.9224   23.7431 C   0  0  0  0  0  0  0  0  0  0  0  0
   -6.4676   -3.8151   24.6578 C   0  0  0  0  0  0  0  0  0  0  0  0
   -7.6647   -3.8931   26.2622 H   0  0  0  0  0  0  0  0  0  0  0  0
    1.0909   -2.4596   21.1791 O   0  0  0  0  0  0  0  0  0  0  0  0
   -2.5373   -4.5165   21.4238 C   0  0  0  0  0  0  0  0  0  0  0  0
   -1.8445   -4.4219   20.1977 C   0  0  0  0  0  0  0  0  0  0  0  0
   -1.9699   -3.8803   22.5422 C   0  0  0  0  0  0  0  0  0  0  0  0
   -0.6293   -3.7386   20.0976 C   0  0  0  0  0  0  0  0  0  0  0  0
   -0.7575   -3.1921   22.4417 C   0  0  0  0  0  0  0  0  0  0  0  0
   -0.0945   -3.1314   21.2251 C   0  0  0  0  0  0  0  0  0  0  0  0
    1.5644   -2.3997   20.3727 H   0  0  0  0  0  0  0  0  0  0  0  0
  4 10  1  0
  4 11  1  0
 12 18  1  0
 12 19  1  0
  1  5  1  0
  1 13  1  0
  1  2  1  0
  1  3  1  0
  5  6  2  0
  5  7  1  0
 13 14  2  0
 13 15  1  0
  6  8  1  0
 14 16  1  0
  7  9  2  0
 15 17  2  0
  8 10  2  0
 16 18  2  0
  9 10  1  0
 17 18  1  0
M  END
> <PUBCHEM_COMPOUND_CID>
6623

> <PUBCHEM_CONFORMER_RMSD>
0.6

> <PUBCHEM_CONFORMER_DIVERSEORDER>
1
3
2

> <PUBCHEM_MMFF94_PARTIAL_CHARGES>
25
1 -0.53
10 -0.15
11 -0.15
12 -0.15
13 -0.15
14 -0.15
15 -0.15
16 0.08
17 0.08
2 -0.53
24 0.15
25 0.15
26 0.15
27 0.15
28 0.15
29 0.15
3 0.29
30 0.15
31 0.15
32 0.45
33 0.45
4 -0.14
5 -0.14
8 -0.15
9 -0.15

> <PUBCHEM_EFFECTIVE_ROTOR_COUNT>
2

> <PUBCHEM_PHARMACOPHORE_FEATURES>
5
1 1 donor
1 2 donor
3 3 6 7 hydrophobe
6 4 8 10 12 14 16 rings
6 5 9 11 13 15 17 rings

> <PUBCHEM_HEAVY_ATOM_COUNT>
17

> <PUBCHEM_ATOM_DEF_STEREO_COUNT>
0

> <PUBCHEM_ATOM_UDEF_STEREO_COUNT>
0

> <PUBCHEM_BOND_DEF_STEREO_COUNT>
0

> <PUBCHEM_BOND_UDEF_STEREO_COUNT>
0

> <PUBCHEM_ISOTOPIC_ATOM_COUNT>
0

> <PUBCHEM_COMPONENT_COUNT>
1

> <PUBCHEM_CACTVS_TAUTO_COUNT>
3

> <PUBCHEM_CONFORMER_ID>
000019DF00000001

> <PUBCHEM_MMFF94_ENERGY>
64.1206

> <PUBCHEM_FEATURE_SELFOVERLAP>
25.372

> <PUBCHEM_SHAPE_FINGERPRINT>
10465860 228 18265052440146906875
10498660 4 17846494807956907777
10618630 7 8862950471944920352
11046707 91 8574440819802817220
11640471 11 18410569587104953028
12138202 97 17632297942700988494
12251169 10 15719115772587467277
12491281 212 18341893034625719138
12633257 1 15647059291015153984
12788726 201 18049710021441717058
12892183 10 15719384001885322888
13571099 52 18261397711031002503
13764800 53 18340221781019704851
14251764 38 17758668950351880149
14739800 52 17985806350554812304
15061688 2 18410575084673810317
15309172 13 17822005415182549066
15342168 16 18187090559068058613
15375462 189 9295287269996453078
15534591 1 18337673126062282338
15653759 3 15068339003624658237
15775835 57 18410853261110395364
15906896 17 18264490774389428130
16945 1 17917141818369727011
17357779 13 13899614313340361589
1741750 31 18337674225716062138
17804303 29 12829490320433961629
1813 80 17692251833473259110
18186145 218 18334012757179395950
19765921 60 18411697656461014379
19868273 293 17988923409424780430
20291156 8 9223230745321134917
20361792 2 9943803365827786299
204376 136 18186802491163379179
20645476 183 18339358668581405150
20671657 53 12751245791825749096
20871999 31 16988551447065141829
21499 59 18412825772344063143
21524375 3 18410855460138945163
21713013 43 13758065299356720749
21731228 192 17894352193594983955
23184049 59 17894627041684797236
23402539 116 17774993601125170188
23557571 272 16557885966252971863
23559900 14 17561366193283564332
298252 57 18202560691760254914
3472631 163 18202563986327517557
4028521 119 17846780714954732865
4340502 62 18114473262852369283
474 4 18336547123060049707
633830 44 18410010996606913815
7364860 26 17700693965181141591
83771 10 9223230749695054610
94968 8 10663806477749826557
9981440 41 18128808828214612290

> <PUBCHEM_SHAPE_MULTIPOLES>
338.11
7.28
2.04
1.32
0.26
0.87
0
-5.89
0
-0.06
0
0
0.27
-0.69

> <PUBCHEM_SHAPE_SELFOVERLAP>
731.212

> <PUBCHEM_SHAPE_VOLUME>
187.1

> <PUBCHEM_COORDINATE_TYPE>
2
5
10

> <Energy>
42.8498

> <minimizedAffinity>
-7.98210

> <CNNscore>
0.5390264392

> <CNNaffinity>
6.7712306976

> <CNN_VS>
3.6498723030

> <CNNaffinity_variance>
0.6448689699

$$$$
