896


 19 20  0  0  0  0  0  0  0  0999 V2000
   21.8740    3.6797    7.5607 N   0  0  0  0  0  0  0  0  0  0  0  0
   21.5565    4.2447    5.4258 C   0  0  0  0  0  0  0  0  0  0  0  0
   20.4287    4.6787    6.1942 C   0  0  0  0  0  0  0  0  0  0  0  0
   20.6482    4.3017    7.5169 C   0  0  0  0  0  0  0  0  0  0  0  0
   22.4277    3.6346    6.3074 C   0  0  0  0  0  0  0  0  0  0  0  0
   19.2346    5.3583    5.8702 C   0  0  0  0  0  0  0  0  0  0  0  0
   19.7285    4.5642    8.5369 C   0  0  0  0  0  0  0  0  0  0  0  0
   18.2926    5.6239    6.8691 C   0  0  0  0  0  0  0  0  0  0  0  0
   18.5465    5.2286    8.1827 C   0  0  0  0  0  0  0  0  0  0  0  0
   22.2935    3.3188    8.3749 H   0  0  0  0  0  0  0  0  0  0  0  0
   17.0944    6.2596    6.6779 O   0  0  0  0  0  0  0  0  0  0  0  0
   15.9558    5.4280    6.4828 C   0  0  0  0  0  0  0  0  0  0  0  0
   21.7431    4.4251    3.9481 C   0  0  0  0  0  0  0  0  0  0  0  0
   22.6725    5.5927    3.5979 C   0  0  0  0  0  0  0  0  0  0  0  0
   25.1587    4.9460    4.8138 O   0  0  0  0  0  0  0  0  0  0  0  0
   23.8905    5.1891    2.9141 N   0  0  0  0  0  0  0  0  0  0  0  0
   25.0575    4.9252    3.5930 C   0  0  0  0  0  0  0  0  0  0  0  0
   26.2093    4.5732    2.6909 C   0  0  0  0  0  0  0  0  0  0  0  0
   23.8797    5.1020    1.9335 H   0  0  0  0  0  0  0  0  0  0  0  0
 11  8  1  0
 11 12  1  0
 15 17  2  0
  1  4  1  0
  1  5  1  0
  1 10  1  0
 16 14  1  0
 16 17  1  0
 16 19  1  0
  2  3  1  0
  2 13  1  0
  2  5  2  0
  3  4  2  0
  3  6  1  0
 13 14  1  0
  4  7  1  0
  6  8  2  0
  7  9  2  0
  8  9  1  0
 17 18  1  0
M  END
> <PUBCHEM_COMPOUND_CID>
896

> <PUBCHEM_CONFORMER_RMSD>
0.6

> <PUBCHEM_CONFORMER_DIVERSEORDER>
1
13
50
55
28
16
42
48
27
15
62
60
65
61
36
4
20
58
41
17
59
21
2
63
47
57
40
56
22
64
54
37
51
7
31
53
26
8
49
39
32
11
5
33
38
52
23
45
43
12
14
9
34
44
35
10
25
29
46
6
30
24
3
19
18

> <PUBCHEM_MMFF94_PARTIAL_CHARGES>
22
1 -0.36
10 0.3
11 -0.15
12 -0.15
13 0.08
14 -0.15
15 0.57
16 0.06
17 0.28
2 -0.57
20 0.15
23 0.27
24 0.15
25 0.15
26 0.15
27 0.37
3 0.03
4 -0.73
5 -0.18
7 0.18
8 -0.15
9 -0.3

> <PUBCHEM_EFFECTIVE_ROTOR_COUNT>
5

> <PUBCHEM_PHARMACOPHORE_FEATURES>
7
1 1 acceptor
1 2 acceptor
1 3 cation
1 3 donor
1 4 donor
5 3 5 6 8 9 rings
6 6 8 11 12 13 14 rings

> <PUBCHEM_HEAVY_ATOM_COUNT>
17

> <PUBCHEM_ATOM_DEF_STEREO_COUNT>
0

> <PUBCHEM_ATOM_UDEF_STEREO_COUNT>
0

> <PUBCHEM_BOND_DEF_STEREO_COUNT>
0

> <PUBCHEM_BOND_UDEF_STEREO_COUNT>
0

> <PUBCHEM_ISOTOPIC_ATOM_COUNT>
0

> <PUBCHEM_COMPONENT_COUNT>
1

> <PUBCHEM_CACTVS_TAUTO_COUNT>
2

> <PUBCHEM_CONFORMER_ID>
0000038000000001

> <PUBCHEM_MMFF94_ENERGY>
32.7119

> <PUBCHEM_FEATURE_SELFOVERLAP>
35.612

> <PUBCHEM_SHAPE_FINGERPRINT>
10967382 1 18410853274190255273
11640471 11 17676780867509025316
13027679 85 18194690495324420133
13140716 1 17978229692519098697
13965767 371 16608554374032828400
1420 336 18266184924512803916
14787075 74 17896612875907719035
14790565 3 18341057316043312793
15006816 218 16754940689043299904
16945 1 18195239147136872059
19591789 44 18120376712306458779
19765921 60 17749382706469569763
20510252 161 18342458093286620745
21141583 151 18124894583888822372
21524375 3 17972887951224859043
2334 1 18410572855759727185
23419403 2 17326855944455494142
23557571 272 18201719608641642450
23559900 14 18342173410755765088
2748010 2 18337115553281152647
353137 74 18409164389875307419
44154327 71 18267028250037128041
526903 126 18410576235872810256
537710 114 18408601466050490037
7832392 63 17187566044572678455
9981440 41 18116712022929254594

> <PUBCHEM_SHAPE_MULTIPOLES>
328.15
4.94
3.77
0.97
2.92
1.2
-0.06
0.99
-1.27
-0.81
0.74
0.39
0.23
-0.66

> <PUBCHEM_SHAPE_SELFOVERLAP>
695.133

> <PUBCHEM_SHAPE_VOLUME>
185.3

> <PUBCHEM_COORDINATE_TYPE>
2
5
10

> <Energy>
0.232708

> <minimizedAffinity>
-6.22603

> <CNNscore>
0.5585473776

> <CNNaffinity>
6.2789158821

> <CNN_VS>
3.5070719719

> <CNNaffinity_variance>
0.1603129655

$$$$
896


 19 20  0  0  0  0  0  0  0  0999 V2000
   24.4639    1.3249    3.4013 N   0  0  0  0  0  0  0  0  0  0  0  0
   22.7756    1.7515    4.7961 C   0  0  0  0  0  0  0  0  0  0  0  0
   23.1688    2.9705    4.1556 C   0  0  0  0  0  0  0  0  0  0  0  0
   24.2302    2.6766    3.3030 C   0  0  0  0  0  0  0  0  0  0  0  0
   23.5983    0.7584    4.3008 C   0  0  0  0  0  0  0  0  0  0  0  0
   22.7104    4.3031    4.2361 C   0  0  0  0  0  0  0  0  0  0  0  0
   24.8650    3.6517    2.5275 C   0  0  0  0  0  0  0  0  0  0  0  0
   23.3343    5.3001    3.4795 C   0  0  0  0  0  0  0  0  0  0  0  0
   24.3965    4.9679    2.6383 C   0  0  0  0  0  0  0  0  0  0  0  0
   25.1535    0.8347    2.8981 H   0  0  0  0  0  0  0  0  0  0  0  0
   22.9925    6.6265    3.4831 O   0  0  0  0  0  0  0  0  0  0  0  0
   23.7927    7.4887    4.2847 C   0  0  0  0  0  0  0  0  0  0  0  0
   21.6787    1.5970    5.8080 C   0  0  0  0  0  0  0  0  0  0  0  0
   20.6756    2.7559    5.7885 C   0  0  0  0  0  0  0  0  0  0  0  0
   18.3512    3.9397    6.9170 O   0  0  0  0  0  0  0  0  0  0  0  0
   20.6000    3.4884    7.0421 N   0  0  0  0  0  0  0  0  0  0  0  0
   19.4282    4.0526    7.4902 C   0  0  0  0  0  0  0  0  0  0  0  0
   19.5821    4.8070    8.7832 C   0  0  0  0  0  0  0  0  0  0  0  0
   21.4138    3.5837    7.5880 H   0  0  0  0  0  0  0  0  0  0  0  0
 11  8  1  0
 11 12  1  0
 15 17  2  0
  1  4  1  0
  1  5  1  0
  1 10  1  0
 16 14  1  0
 16 17  1  0
 16 19  1  0
  2  3  1  0
  2 13  1  0
  2  5  2  0
  3  4  2  0
  3  6  1  0
 13 14  1  0
  4  7  1  0
  6  8  2  0
  7  9  2  0
  8  9  1  0
 17 18  1  0
M  END
> <PUBCHEM_COMPOUND_CID>
896

> <PUBCHEM_CONFORMER_RMSD>
0.6

> <PUBCHEM_CONFORMER_DIVERSEORDER>
1
13
50
55
28
16
42
48
27
15
62
60
65
61
36
4
20
58
41
17
59
21
2
63
47
57
40
56
22
64
54
37
51
7
31
53
26
8
49
39
32
11
5
33
38
52
23
45
43
12
14
9
34
44
35
10
25
29
46
6
30
24
3
19
18

> <PUBCHEM_MMFF94_PARTIAL_CHARGES>
22
1 -0.36
10 0.3
11 -0.15
12 -0.15
13 0.08
14 -0.15
15 0.57
16 0.06
17 0.28
2 -0.57
20 0.15
23 0.27
24 0.15
25 0.15
26 0.15
27 0.37
3 0.03
4 -0.73
5 -0.18
7 0.18
8 -0.15
9 -0.3

> <PUBCHEM_EFFECTIVE_ROTOR_COUNT>
5

> <PUBCHEM_PHARMACOPHORE_FEATURES>
7
1 1 acceptor
1 2 acceptor
1 3 cation
1 3 donor
1 4 donor
5 3 5 6 8 9 rings
6 6 8 11 12 13 14 rings

> <PUBCHEM_HEAVY_ATOM_COUNT>
17

> <PUBCHEM_ATOM_DEF_STEREO_COUNT>
0

> <PUBCHEM_ATOM_UDEF_STEREO_COUNT>
0

> <PUBCHEM_BOND_DEF_STEREO_COUNT>
0

> <PUBCHEM_BOND_UDEF_STEREO_COUNT>
0

> <PUBCHEM_ISOTOPIC_ATOM_COUNT>
0

> <PUBCHEM_COMPONENT_COUNT>
1

> <PUBCHEM_CACTVS_TAUTO_COUNT>
2

> <PUBCHEM_CONFORMER_ID>
0000038000000001

> <PUBCHEM_MMFF94_ENERGY>
32.7119

> <PUBCHEM_FEATURE_SELFOVERLAP>
35.612

> <PUBCHEM_SHAPE_FINGERPRINT>
10967382 1 18410853274190255273
11640471 11 17676780867509025316
13027679 85 18194690495324420133
13140716 1 17978229692519098697
13965767 371 16608554374032828400
1420 336 18266184924512803916
14787075 74 17896612875907719035
14790565 3 18341057316043312793
15006816 218 16754940689043299904
16945 1 18195239147136872059
19591789 44 18120376712306458779
19765921 60 17749382706469569763
20510252 161 18342458093286620745
21141583 151 18124894583888822372
21524375 3 17972887951224859043
2334 1 18410572855759727185
23419403 2 17326855944455494142
23557571 272 18201719608641642450
23559900 14 18342173410755765088
2748010 2 18337115553281152647
353137 74 18409164389875307419
44154327 71 18267028250037128041
526903 126 18410576235872810256
537710 114 18408601466050490037
7832392 63 17187566044572678455
9981440 41 18116712022929254594

> <PUBCHEM_SHAPE_MULTIPOLES>
328.15
4.94
3.77
0.97
2.92
1.2
-0.06
0.99
-1.27
-0.81
0.74
0.39
0.23
-0.66

> <PUBCHEM_SHAPE_SELFOVERLAP>
695.133

> <PUBCHEM_SHAPE_VOLUME>
185.3

> <PUBCHEM_COORDINATE_TYPE>
2
5
10

> <Energy>
0.232708

> <minimizedAffinity>
-6.55266

> <CNNscore>
0.5571491122

> <CNNaffinity>
6.8160672188

> <CNN_VS>
3.7975656986

> <CNNaffinity_variance>
0.3411560059

$$$$
896


 19 20  0  0  0  0  0  0  0  0999 V2000
   24.0712    6.2247    5.3021 N   0  0  0  0  0  0  0  0  0  0  0  0
   22.2287    5.2686    4.4843 C   0  0  0  0  0  0  0  0  0  0  0  0
   23.0264    4.2673    5.1261 C   0  0  0  0  0  0  0  0  0  0  0  0
   24.1730    4.8892    5.6141 C   0  0  0  0  0  0  0  0  0  0  0  0
   22.9079    6.4641    4.6174 C   0  0  0  0  0  0  0  0  0  0  0  0
   22.8679    2.8791    5.3272 C   0  0  0  0  0  0  0  0  0  0  0  0
   25.1781    4.1909    6.2905 C   0  0  0  0  0  0  0  0  0  0  0  0
   23.8629    2.1545    5.9909 C   0  0  0  0  0  0  0  0  0  0  0  0
   24.9992    2.8118    6.4635 C   0  0  0  0  0  0  0  0  0  0  0  0
   24.7377    6.9102    5.5367 H   0  0  0  0  0  0  0  0  0  0  0  0
   23.8322    0.8066    6.2326 O   0  0  0  0  0  0  0  0  0  0  0  0
   22.5486    0.1916    6.2514 C   0  0  0  0  0  0  0  0  0  0  0  0
   20.9104    5.0477    3.8029 C   0  0  0  0  0  0  0  0  0  0  0  0
   19.7109    5.4377    4.6739 C   0  0  0  0  0  0  0  0  0  0  0  0
   17.6282    4.9463    6.5444 O   0  0  0  0  0  0  0  0  0  0  0  0
   19.8723    5.1030    6.0795 N   0  0  0  0  0  0  0  0  0  0  0  0
   18.7957    4.9125    6.9145 C   0  0  0  0  0  0  0  0  0  0  0  0
   19.1855    4.6239    8.3390 C   0  0  0  0  0  0  0  0  0  0  0  0
   20.7814    5.0096    6.4457 H   0  0  0  0  0  0  0  0  0  0  0  0
 11  8  1  0
 11 12  1  0
 15 17  2  0
  1  4  1  0
  1  5  1  0
  1 10  1  0
 16 14  1  0
 16 17  1  0
 16 19  1  0
  2  3  1  0
  2 13  1  0
  2  5  2  0
  3  4  2  0
  3  6  1  0
 13 14  1  0
  4  7  1  0
  6  8  2  0
  7  9  2  0
  8  9  1  0
 17 18  1  0
M  END
> <PUBCHEM_COMPOUND_CID>
896

> <PUBCHEM_CONFORMER_RMSD>
0.6

> <PUBCHEM_CONFORMER_DIVERSEORDER>
1
13
50
55
28
16
42
48
27
15
62
60
65
61
36
4
20
58
41
17
59
21
2
63
47
57
40
56
22
64
54
37
51
7
31
53
26
8
49
39
32
11
5
33
38
52
23
45
43
12
14
9
34
44
35
10
25
29
46
6
30
24
3
19
18

> <PUBCHEM_MMFF94_PARTIAL_CHARGES>
22
1 -0.36
10 0.3
11 -0.15
12 -0.15
13 0.08
14 -0.15
15 0.57
16 0.06
17 0.28
2 -0.57
20 0.15
23 0.27
24 0.15
25 0.15
26 0.15
27 0.37
3 0.03
4 -0.73
5 -0.18
7 0.18
8 -0.15
9 -0.3

> <PUBCHEM_EFFECTIVE_ROTOR_COUNT>
5

> <PUBCHEM_PHARMACOPHORE_FEATURES>
7
1 1 acceptor
1 2 acceptor
1 3 cation
1 3 donor
1 4 donor
5 3 5 6 8 9 rings
6 6 8 11 12 13 14 rings

> <PUBCHEM_HEAVY_ATOM_COUNT>
17

> <PUBCHEM_ATOM_DEF_STEREO_COUNT>
0

> <PUBCHEM_ATOM_UDEF_STEREO_COUNT>
0

> <PUBCHEM_BOND_DEF_STEREO_COUNT>
0

> <PUBCHEM_BOND_UDEF_STEREO_COUNT>
0

> <PUBCHEM_ISOTOPIC_ATOM_COUNT>
0

> <PUBCHEM_COMPONENT_COUNT>
1

> <PUBCHEM_CACTVS_TAUTO_COUNT>
2

> <PUBCHEM_CONFORMER_ID>
0000038000000001

> <PUBCHEM_MMFF94_ENERGY>
32.7119

> <PUBCHEM_FEATURE_SELFOVERLAP>
35.612

> <PUBCHEM_SHAPE_FINGERPRINT>
10967382 1 18410853274190255273
11640471 11 17676780867509025316
13027679 85 18194690495324420133
13140716 1 17978229692519098697
13965767 371 16608554374032828400
1420 336 18266184924512803916
14787075 74 17896612875907719035
14790565 3 18341057316043312793
15006816 218 16754940689043299904
16945 1 18195239147136872059
19591789 44 18120376712306458779
19765921 60 17749382706469569763
20510252 161 18342458093286620745
21141583 151 18124894583888822372
21524375 3 17972887951224859043
2334 1 18410572855759727185
23419403 2 17326855944455494142
23557571 272 18201719608641642450
23559900 14 18342173410755765088
2748010 2 18337115553281152647
353137 74 18409164389875307419
44154327 71 18267028250037128041
526903 126 18410576235872810256
537710 114 18408601466050490037
7832392 63 17187566044572678455
9981440 41 18116712022929254594

> <PUBCHEM_SHAPE_MULTIPOLES>
328.15
4.94
3.77
0.97
2.92
1.2
-0.06
0.99
-1.27
-0.81
0.74
0.39
0.23
-0.66

> <PUBCHEM_SHAPE_SELFOVERLAP>
695.133

> <PUBCHEM_SHAPE_VOLUME>
185.3

> <PUBCHEM_COORDINATE_TYPE>
2
5
10

> <Energy>
0.232708

> <minimizedAffinity>
-6.33673

> <CNNscore>
0.5437373519

> <CNNaffinity>
6.7097105980

> <CNN_VS>
3.6483201981

> <CNNaffinity_variance>
0.4160515070

$$$$
896


 19 20  0  0  0  0  0  0  0  0999 V2000
   21.4807    1.4706    5.9335 N   0  0  0  0  0  0  0  0  0  0  0  0
   23.6083    2.1381    5.8599 C   0  0  0  0  0  0  0  0  0  0  0  0
   22.7622    3.2445    5.5272 C   0  0  0  0  0  0  0  0  0  0  0  0
   21.4443    2.7960    5.5682 C   0  0  0  0  0  0  0  0  0  0  0  0
   22.7778    1.0621    6.1065 C   0  0  0  0  0  0  0  0  0  0  0  0
   23.0115    4.5922    5.1890 C   0  0  0  0  0  0  0  0  0  0  0  0
   20.3571    3.6270    5.2807 C   0  0  0  0  0  0  0  0  0  0  0  0
   21.9431    5.4422    4.8863 C   0  0  0  0  0  0  0  0  0  0  0  0
   20.6363    4.9562    4.9355 C   0  0  0  0  0  0  0  0  0  0  0  0
   20.6892    0.8977    6.0534 H   0  0  0  0  0  0  0  0  0  0  0  0
   22.0569    6.7600    4.5303 O   0  0  0  0  0  0  0  0  0  0  0  0
   23.3760    7.2521    4.3209 C   0  0  0  0  0  0  0  0  0  0  0  0
   25.1071    2.1581    5.9250 C   0  0  0  0  0  0  0  0  0  0  0  0
   25.7713    1.8258    4.5841 C   0  0  0  0  0  0  0  0  0  0  0  0
   26.6231    4.4054    3.7485 O   0  0  0  0  0  0  0  0  0  0  0  0
   25.2461    2.5890    3.4636 N   0  0  0  0  0  0  0  0  0  0  0  0
   25.7062    3.8485    3.1565 C   0  0  0  0  0  0  0  0  0  0  0  0
   24.9933    4.4796    1.9912 C   0  0  0  0  0  0  0  0  0  0  0  0
   24.5383    2.1915    2.9066 H   0  0  0  0  0  0  0  0  0  0  0  0
 11  8  1  0
 11 12  1  0
 15 17  2  0
  1  4  1  0
  1  5  1  0
  1 10  1  0
 16 14  1  0
 16 17  1  0
 16 19  1  0
  2  3  1  0
  2 13  1  0
  2  5  2  0
  3  4  2  0
  3  6  1  0
 13 14  1  0
  4  7  1  0
  6  8  2  0
  7  9  2  0
  8  9  1  0
 17 18  1  0
M  END
> <PUBCHEM_COMPOUND_CID>
896

> <PUBCHEM_CONFORMER_RMSD>
0.6

> <PUBCHEM_CONFORMER_DIVERSEORDER>
1
13
50
55
28
16
42
48
27
15
62
60
65
61
36
4
20
58
41
17
59
21
2
63
47
57
40
56
22
64
54
37
51
7
31
53
26
8
49
39
32
11
5
33
38
52
23
45
43
12
14
9
34
44
35
10
25
29
46
6
30
24
3
19
18

> <PUBCHEM_MMFF94_PARTIAL_CHARGES>
22
1 -0.36
10 0.3
11 -0.15
12 -0.15
13 0.08
14 -0.15
15 0.57
16 0.06
17 0.28
2 -0.57
20 0.15
23 0.27
24 0.15
25 0.15
26 0.15
27 0.37
3 0.03
4 -0.73
5 -0.18
7 0.18
8 -0.15
9 -0.3

> <PUBCHEM_EFFECTIVE_ROTOR_COUNT>
5

> <PUBCHEM_PHARMACOPHORE_FEATURES>
7
1 1 acceptor
1 2 acceptor
1 3 cation
1 3 donor
1 4 donor
5 3 5 6 8 9 rings
6 6 8 11 12 13 14 rings

> <PUBCHEM_HEAVY_ATOM_COUNT>
17

> <PUBCHEM_ATOM_DEF_STEREO_COUNT>
0

> <PUBCHEM_ATOM_UDEF_STEREO_COUNT>
0

> <PUBCHEM_BOND_DEF_STEREO_COUNT>
0

> <PUBCHEM_BOND_UDEF_STEREO_COUNT>
0

> <PUBCHEM_ISOTOPIC_ATOM_COUNT>
0

> <PUBCHEM_COMPONENT_COUNT>
1

> <PUBCHEM_CACTVS_TAUTO_COUNT>
2

> <PUBCHEM_CONFORMER_ID>
0000038000000001

> <PUBCHEM_MMFF94_ENERGY>
32.7119

> <PUBCHEM_FEATURE_SELFOVERLAP>
35.612

> <PUBCHEM_SHAPE_FINGERPRINT>
10967382 1 18410853274190255273
11640471 11 17676780867509025316
13027679 85 18194690495324420133
13140716 1 17978229692519098697
13965767 371 16608554374032828400
1420 336 18266184924512803916
14787075 74 17896612875907719035
14790565 3 18341057316043312793
15006816 218 16754940689043299904
16945 1 18195239147136872059
19591789 44 18120376712306458779
19765921 60 17749382706469569763
20510252 161 18342458093286620745
21141583 151 18124894583888822372
21524375 3 17972887951224859043
2334 1 18410572855759727185
23419403 2 17326855944455494142
23557571 272 18201719608641642450
23559900 14 18342173410755765088
2748010 2 18337115553281152647
353137 74 18409164389875307419
44154327 71 18267028250037128041
526903 126 18410576235872810256
537710 114 18408601466050490037
7832392 63 17187566044572678455
9981440 41 18116712022929254594

> <PUBCHEM_SHAPE_MULTIPOLES>
328.15
4.94
3.77
0.97
2.92
1.2
-0.06
0.99
-1.27
-0.81
0.74
0.39
0.23
-0.66

> <PUBCHEM_SHAPE_SELFOVERLAP>
695.133

> <PUBCHEM_SHAPE_VOLUME>
185.3

> <PUBCHEM_COORDINATE_TYPE>
2
5
10

> <Energy>
0.232708

> <minimizedAffinity>
-6.08549

> <CNNscore>
0.5258295536

> <CNNaffinity>
6.4044337273

> <CNN_VS>
3.3676404953

> <CNNaffinity_variance>
0.1156871915

$$$$
896


 19 20  0  0  0  0  0  0  0  0999 V2000
   22.7351    1.9569    7.6791 N   0  0  0  0  0  0  0  0  0  0  0  0
   22.7728    1.4844    5.4989 C   0  0  0  0  0  0  0  0  0  0  0  0
   22.0758    2.7200    5.6949 C   0  0  0  0  0  0  0  0  0  0  0  0
   22.0566    2.9820    7.0626 C   0  0  0  0  0  0  0  0  0  0  0  0
   23.1661    1.0468    6.7488 C   0  0  0  0  0  0  0  0  0  0  0  0
   21.4543    3.6355    4.8184 C   0  0  0  0  0  0  0  0  0  0  0  0
   21.4395    4.1142    7.6035 C   0  0  0  0  0  0  0  0  0  0  0  0
   20.8203    4.7705    5.3336 C   0  0  0  0  0  0  0  0  0  0  0  0
   20.8195    4.9982    6.7100 C   0  0  0  0  0  0  0  0  0  0  0  0
   22.8891    1.8866    8.6489 H   0  0  0  0  0  0  0  0  0  0  0  0
   20.1717    5.7206    4.5900 O   0  0  0  0  0  0  0  0  0  0  0  0
   20.8870    6.2632    3.4855 C   0  0  0  0  0  0  0  0  0  0  0  0
   23.0214    0.8072    4.1834 C   0  0  0  0  0  0  0  0  0  0  0  0
   24.3892    1.1479    3.5812 C   0  0  0  0  0  0  0  0  0  0  0  0
   26.4628    3.0599    3.9310 O   0  0  0  0  0  0  0  0  0  0  0  0
   24.4546    2.4717    2.9835 N   0  0  0  0  0  0  0  0  0  0  0  0
   25.4906    3.3396    3.2396 C   0  0  0  0  0  0  0  0  0  0  0  0
   25.3372    4.6735    2.5601 C   0  0  0  0  0  0  0  0  0  0  0  0
   23.7340    2.7561    2.3759 H   0  0  0  0  0  0  0  0  0  0  0  0
 11  8  1  0
 11 12  1  0
 15 17  2  0
  1  4  1  0
  1  5  1  0
  1 10  1  0
 16 14  1  0
 16 17  1  0
 16 19  1  0
  2  3  1  0
  2 13  1  0
  2  5  2  0
  3  4  2  0
  3  6  1  0
 13 14  1  0
  4  7  1  0
  6  8  2  0
  7  9  2  0
  8  9  1  0
 17 18  1  0
M  END
> <PUBCHEM_COMPOUND_CID>
896

> <PUBCHEM_CONFORMER_RMSD>
0.6

> <PUBCHEM_CONFORMER_DIVERSEORDER>
1
13
50
55
28
16
42
48
27
15
62
60
65
61
36
4
20
58
41
17
59
21
2
63
47
57
40
56
22
64
54
37
51
7
31
53
26
8
49
39
32
11
5
33
38
52
23
45
43
12
14
9
34
44
35
10
25
29
46
6
30
24
3
19
18

> <PUBCHEM_MMFF94_PARTIAL_CHARGES>
22
1 -0.36
10 0.3
11 -0.15
12 -0.15
13 0.08
14 -0.15
15 0.57
16 0.06
17 0.28
2 -0.57
20 0.15
23 0.27
24 0.15
25 0.15
26 0.15
27 0.37
3 0.03
4 -0.73
5 -0.18
7 0.18
8 -0.15
9 -0.3

> <PUBCHEM_EFFECTIVE_ROTOR_COUNT>
5

> <PUBCHEM_PHARMACOPHORE_FEATURES>
7
1 1 acceptor
1 2 acceptor
1 3 cation
1 3 donor
1 4 donor
5 3 5 6 8 9 rings
6 6 8 11 12 13 14 rings

> <PUBCHEM_HEAVY_ATOM_COUNT>
17

> <PUBCHEM_ATOM_DEF_STEREO_COUNT>
0

> <PUBCHEM_ATOM_UDEF_STEREO_COUNT>
0

> <PUBCHEM_BOND_DEF_STEREO_COUNT>
0

> <PUBCHEM_BOND_UDEF_STEREO_COUNT>
0

> <PUBCHEM_ISOTOPIC_ATOM_COUNT>
0

> <PUBCHEM_COMPONENT_COUNT>
1

> <PUBCHEM_CACTVS_TAUTO_COUNT>
2

> <PUBCHEM_CONFORMER_ID>
0000038000000001

> <PUBCHEM_MMFF94_ENERGY>
32.7119

> <PUBCHEM_FEATURE_SELFOVERLAP>
35.612

> <PUBCHEM_SHAPE_FINGERPRINT>
10967382 1 18410853274190255273
11640471 11 17676780867509025316
13027679 85 18194690495324420133
13140716 1 17978229692519098697
13965767 371 16608554374032828400
1420 336 18266184924512803916
14787075 74 17896612875907719035
14790565 3 18341057316043312793
15006816 218 16754940689043299904
16945 1 18195239147136872059
19591789 44 18120376712306458779
19765921 60 17749382706469569763
20510252 161 18342458093286620745
21141583 151 18124894583888822372
21524375 3 17972887951224859043
2334 1 18410572855759727185
23419403 2 17326855944455494142
23557571 272 18201719608641642450
23559900 14 18342173410755765088
2748010 2 18337115553281152647
353137 74 18409164389875307419
44154327 71 18267028250037128041
526903 126 18410576235872810256
537710 114 18408601466050490037
7832392 63 17187566044572678455
9981440 41 18116712022929254594

> <PUBCHEM_SHAPE_MULTIPOLES>
328.15
4.94
3.77
0.97
2.92
1.2
-0.06
0.99
-1.27
-0.81
0.74
0.39
0.23
-0.66

> <PUBCHEM_SHAPE_SELFOVERLAP>
695.133

> <PUBCHEM_SHAPE_VOLUME>
185.3

> <PUBCHEM_COORDINATE_TYPE>
2
5
10

> <Energy>
0.232708

> <minimizedAffinity>
-6.74220

> <CNNscore>
0.4824966490

> <CNNaffinity>
5.9734711647

> <CNN_VS>
2.8821797371

> <CNNaffinity_variance>
0.1195295230

$$$$
896


 19 20  0  0  0  0  0  0  0  0999 V2000
   23.1324    2.6309    7.6164 N   0  0  0  0  0  0  0  0  0  0  0  0
   22.6945    1.7937    5.5952 C   0  0  0  0  0  0  0  0  0  0  0  0
   21.7360    2.8151    5.8929 C   0  0  0  0  0  0  0  0  0  0  0  0
   22.0253    3.3090    7.1626 C   0  0  0  0  0  0  0  0  0  0  0  0
   23.5409    1.7126    6.6840 C   0  0  0  0  0  0  0  0  0  0  0  0
   20.6408    3.3568    5.1861 C   0  0  0  0  0  0  0  0  0  0  0  0
   21.2690    4.3169    7.7686 C   0  0  0  0  0  0  0  0  0  0  0  0
   19.8609    4.3582    5.7731 C   0  0  0  0  0  0  0  0  0  0  0  0
   20.1800    4.8260    7.0482 C   0  0  0  0  0  0  0  0  0  0  0  0
   23.5688    2.7829    8.4856 H   0  0  0  0  0  0  0  0  0  0  0  0
   18.7681    4.9498    5.1970 O   0  0  0  0  0  0  0  0  0  0  0  0
   17.9455    5.7376    6.0508 C   0  0  0  0  0  0  0  0  0  0  0  0
   22.7563    0.9770    4.3381 C   0  0  0  0  0  0  0  0  0  0  0  0
   24.1121    1.0676    3.6287 C   0  0  0  0  0  0  0  0  0  0  0  0
   26.6508    2.3296    3.8297 O   0  0  0  0  0  0  0  0  0  0  0  0
   24.4499    2.4075    3.1765 N   0  0  0  0  0  0  0  0  0  0  0  0
   25.7058    2.9423    3.3470 C   0  0  0  0  0  0  0  0  0  0  0  0
   25.8267    4.3584    2.8526 C   0  0  0  0  0  0  0  0  0  0  0  0
   23.7575    2.9497    2.7339 H   0  0  0  0  0  0  0  0  0  0  0  0
 11  8  1  0
 11 12  1  0
 15 17  2  0
  1  4  1  0
  1  5  1  0
  1 10  1  0
 16 14  1  0
 16 17  1  0
 16 19  1  0
  2  3  1  0
  2 13  1  0
  2  5  2  0
  3  4  2  0
  3  6  1  0
 13 14  1  0
  4  7  1  0
  6  8  2  0
  7  9  2  0
  8  9  1  0
 17 18  1  0
M  END
> <PUBCHEM_COMPOUND_CID>
896

> <PUBCHEM_CONFORMER_RMSD>
0.6

> <PUBCHEM_CONFORMER_DIVERSEORDER>
1
13
50
55
28
16
42
48
27
15
62
60
65
61
36
4
20
58
41
17
59
21
2
63
47
57
40
56
22
64
54
37
51
7
31
53
26
8
49
39
32
11
5
33
38
52
23
45
43
12
14
9
34
44
35
10
25
29
46
6
30
24
3
19
18

> <PUBCHEM_MMFF94_PARTIAL_CHARGES>
22
1 -0.36
10 0.3
11 -0.15
12 -0.15
13 0.08
14 -0.15
15 0.57
16 0.06
17 0.28
2 -0.57
20 0.15
23 0.27
24 0.15
25 0.15
26 0.15
27 0.37
3 0.03
4 -0.73
5 -0.18
7 0.18
8 -0.15
9 -0.3

> <PUBCHEM_EFFECTIVE_ROTOR_COUNT>
5

> <PUBCHEM_PHARMACOPHORE_FEATURES>
7
1 1 acceptor
1 2 acceptor
1 3 cation
1 3 donor
1 4 donor
5 3 5 6 8 9 rings
6 6 8 11 12 13 14 rings

> <PUBCHEM_HEAVY_ATOM_COUNT>
17

> <PUBCHEM_ATOM_DEF_STEREO_COUNT>
0

> <PUBCHEM_ATOM_UDEF_STEREO_COUNT>
0

> <PUBCHEM_BOND_DEF_STEREO_COUNT>
0

> <PUBCHEM_BOND_UDEF_STEREO_COUNT>
0

> <PUBCHEM_ISOTOPIC_ATOM_COUNT>
0

> <PUBCHEM_COMPONENT_COUNT>
1

> <PUBCHEM_CACTVS_TAUTO_COUNT>
2

> <PUBCHEM_CONFORMER_ID>
0000038000000001

> <PUBCHEM_MMFF94_ENERGY>
32.7119

> <PUBCHEM_FEATURE_SELFOVERLAP>
35.612

> <PUBCHEM_SHAPE_FINGERPRINT>
10967382 1 18410853274190255273
11640471 11 17676780867509025316
13027679 85 18194690495324420133
13140716 1 17978229692519098697
13965767 371 16608554374032828400
1420 336 18266184924512803916
14787075 74 17896612875907719035
14790565 3 18341057316043312793
15006816 218 16754940689043299904
16945 1 18195239147136872059
19591789 44 18120376712306458779
19765921 60 17749382706469569763
20510252 161 18342458093286620745
21141583 151 18124894583888822372
21524375 3 17972887951224859043
2334 1 18410572855759727185
23419403 2 17326855944455494142
23557571 272 18201719608641642450
23559900 14 18342173410755765088
2748010 2 18337115553281152647
353137 74 18409164389875307419
44154327 71 18267028250037128041
526903 126 18410576235872810256
537710 114 18408601466050490037
7832392 63 17187566044572678455
9981440 41 18116712022929254594

> <PUBCHEM_SHAPE_MULTIPOLES>
328.15
4.94
3.77
0.97
2.92
1.2
-0.06
0.99
-1.27
-0.81
0.74
0.39
0.23
-0.66

> <PUBCHEM_SHAPE_SELFOVERLAP>
695.133

> <PUBCHEM_SHAPE_VOLUME>
185.3

> <PUBCHEM_COORDINATE_TYPE>
2
5
10

> <Energy>
0.232708

> <minimizedAffinity>
-7.14768

> <CNNscore>
0.4787305593

> <CNNaffinity>
6.0865597725

> <CNN_VS>
2.9138221741

> <CNNaffinity_variance>
0.4382044077

$$$$
896


 19 20  0  0  0  0  0  0  0  0999 V2000
   22.3480    6.8318    4.2480 N   0  0  0  0  0  0  0  0  0  0  0  0
   23.5482    5.2369    3.2511 C   0  0  0  0  0  0  0  0  0  0  0  0
   22.6069    4.6238    4.1392 C   0  0  0  0  0  0  0  0  0  0  0  0
   21.8827    5.6413    4.7556 C   0  0  0  0  0  0  0  0  0  0  0  0
   23.3541    6.6014    3.3458 C   0  0  0  0  0  0  0  0  0  0  0  0
   22.3153    3.2835    4.4729 C   0  0  0  0  0  0  0  0  0  0  0  0
   20.8814    5.3880    5.6982 C   0  0  0  0  0  0  0  0  0  0  0  0
   21.3262    3.0022    5.4206 C   0  0  0  0  0  0  0  0  0  0  0  0
   20.6233    4.0483    6.0190 C   0  0  0  0  0  0  0  0  0  0  0  0
   22.0076    7.7213    4.4968 H   0  0  0  0  0  0  0  0  0  0  0  0
   20.9641    1.7490    5.8383 O   0  0  0  0  0  0  0  0  0  0  0  0
   21.9136    0.7090    5.6309 C   0  0  0  0  0  0  0  0  0  0  0  0
   24.5470    4.5226    2.3890 C   0  0  0  0  0  0  0  0  0  0  0  0
   25.6970    3.9018    3.1900 C   0  0  0  0  0  0  0  0  0  0  0  0
   27.1385    1.9122    4.6187 O   0  0  0  0  0  0  0  0  0  0  0  0
   25.2700    3.2314    4.4074 N   0  0  0  0  0  0  0  0  0  0  0  0
   26.0292    2.2552    5.0099 C   0  0  0  0  0  0  0  0  0  0  0  0
   25.3801    1.6579    6.2290 C   0  0  0  0  0  0  0  0  0  0  0  0
   24.4096    3.4842    4.8138 H   0  0  0  0  0  0  0  0  0  0  0  0
 11  8  1  0
 11 12  1  0
 15 17  2  0
  1  4  1  0
  1  5  1  0
  1 10  1  0
 16 14  1  0
 16 17  1  0
 16 19  1  0
  2  3  1  0
  2 13  1  0
  2  5  2  0
  3  4  2  0
  3  6  1  0
 13 14  1  0
  4  7  1  0
  6  8  2  0
  7  9  2  0
  8  9  1  0
 17 18  1  0
M  END
> <PUBCHEM_COMPOUND_CID>
896

> <PUBCHEM_CONFORMER_RMSD>
0.6

> <PUBCHEM_CONFORMER_DIVERSEORDER>
1
13
50
55
28
16
42
48
27
15
62
60
65
61
36
4
20
58
41
17
59
21
2
63
47
57
40
56
22
64
54
37
51
7
31
53
26
8
49
39
32
11
5
33
38
52
23
45
43
12
14
9
34
44
35
10
25
29
46
6
30
24
3
19
18

> <PUBCHEM_MMFF94_PARTIAL_CHARGES>
22
1 -0.36
10 0.3
11 -0.15
12 -0.15
13 0.08
14 -0.15
15 0.57
16 0.06
17 0.28
2 -0.57
20 0.15
23 0.27
24 0.15
25 0.15
26 0.15
27 0.37
3 0.03
4 -0.73
5 -0.18
7 0.18
8 -0.15
9 -0.3

> <PUBCHEM_EFFECTIVE_ROTOR_COUNT>
5

> <PUBCHEM_PHARMACOPHORE_FEATURES>
7
1 1 acceptor
1 2 acceptor
1 3 cation
1 3 donor
1 4 donor
5 3 5 6 8 9 rings
6 6 8 11 12 13 14 rings

> <PUBCHEM_HEAVY_ATOM_COUNT>
17

> <PUBCHEM_ATOM_DEF_STEREO_COUNT>
0

> <PUBCHEM_ATOM_UDEF_STEREO_COUNT>
0

> <PUBCHEM_BOND_DEF_STEREO_COUNT>
0

> <PUBCHEM_BOND_UDEF_STEREO_COUNT>
0

> <PUBCHEM_ISOTOPIC_ATOM_COUNT>
0

> <PUBCHEM_COMPONENT_COUNT>
1

> <PUBCHEM_CACTVS_TAUTO_COUNT>
2

> <PUBCHEM_CONFORMER_ID>
0000038000000001

> <PUBCHEM_MMFF94_ENERGY>
32.7119

> <PUBCHEM_FEATURE_SELFOVERLAP>
35.612

> <PUBCHEM_SHAPE_FINGERPRINT>
10967382 1 18410853274190255273
11640471 11 17676780867509025316
13027679 85 18194690495324420133
13140716 1 17978229692519098697
13965767 371 16608554374032828400
1420 336 18266184924512803916
14787075 74 17896612875907719035
14790565 3 18341057316043312793
15006816 218 16754940689043299904
16945 1 18195239147136872059
19591789 44 18120376712306458779
19765921 60 17749382706469569763
20510252 161 18342458093286620745
21141583 151 18124894583888822372
21524375 3 17972887951224859043
2334 1 18410572855759727185
23419403 2 17326855944455494142
23557571 272 18201719608641642450
23559900 14 18342173410755765088
2748010 2 18337115553281152647
353137 74 18409164389875307419
44154327 71 18267028250037128041
526903 126 18410576235872810256
537710 114 18408601466050490037
7832392 63 17187566044572678455
9981440 41 18116712022929254594

> <PUBCHEM_SHAPE_MULTIPOLES>
328.15
4.94
3.77
0.97
2.92
1.2
-0.06
0.99
-1.27
-0.81
0.74
0.39
0.23
-0.66

> <PUBCHEM_SHAPE_SELFOVERLAP>
695.133

> <PUBCHEM_SHAPE_VOLUME>
185.3

> <PUBCHEM_COORDINATE_TYPE>
2
5
10

> <Energy>
0.232708

> <minimizedAffinity>
-5.81225

> <CNNscore>
0.4700410068

> <CNNaffinity>
6.2346959114

> <CNN_VS>
2.9305627346

> <CNNaffinity_variance>
0.0856356397

$$$$
896


 19 20  0  0  0  0  0  0  0  0999 V2000
   22.9088    0.8236    4.7196 N   0  0  0  0  0  0  0  0  0  0  0  0
   22.2045    2.4082    6.1236 C   0  0  0  0  0  0  0  0  0  0  0  0
   22.9791    3.0181    5.0849 C   0  0  0  0  0  0  0  0  0  0  0  0
   23.4153    2.0061    4.2332 C   0  0  0  0  0  0  0  0  0  0  0  0
   22.1830    1.0523    5.8600 C   0  0  0  0  0  0  0  0  0  0  0  0
   23.3494    4.3507    4.8027 C   0  0  0  0  0  0  0  0  0  0  0  0
   24.2120    2.2572    3.1119 C   0  0  0  0  0  0  0  0  0  0  0  0
   24.1547    4.6288    3.6938 C   0  0  0  0  0  0  0  0  0  0  0  0
   24.5744    3.5882    2.8647 C   0  0  0  0  0  0  0  0  0  0  0  0
   23.0475   -0.0599    4.3082 H   0  0  0  0  0  0  0  0  0  0  0  0
   24.5917    5.8737    3.3255 O   0  0  0  0  0  0  0  0  0  0  0  0
   23.8966    6.9838    3.8827 C   0  0  0  0  0  0  0  0  0  0  0  0
   21.5478    3.1176    7.2709 C   0  0  0  0  0  0  0  0  0  0  0  0
   21.2828    4.6006    6.9881 C   0  0  0  0  0  0  0  0  0  0  0  0
   18.9110    5.0844    8.4775 O   0  0  0  0  0  0  0  0  0  0  0  0
   19.9605    4.8679    6.4457 N   0  0  0  0  0  0  0  0  0  0  0  0
   18.8637    5.0602    7.2534 C   0  0  0  0  0  0  0  0  0  0  0  0
   17.5855    5.2723    6.4882 C   0  0  0  0  0  0  0  0  0  0  0  0
   19.8464    4.9125    5.4689 H   0  0  0  0  0  0  0  0  0  0  0  0
 11  8  1  0
 11 12  1  0
 15 17  2  0
  1  4  1  0
  1  5  1  0
  1 10  1  0
 16 14  1  0
 16 17  1  0
 16 19  1  0
  2  3  1  0
  2 13  1  0
  2  5  2  0
  3  4  2  0
  3  6  1  0
 13 14  1  0
  4  7  1  0
  6  8  2  0
  7  9  2  0
  8  9  1  0
 17 18  1  0
M  END
> <PUBCHEM_COMPOUND_CID>
896

> <PUBCHEM_CONFORMER_RMSD>
0.6

> <PUBCHEM_CONFORMER_DIVERSEORDER>
1
13
50
55
28
16
42
48
27
15
62
60
65
61
36
4
20
58
41
17
59
21
2
63
47
57
40
56
22
64
54
37
51
7
31
53
26
8
49
39
32
11
5
33
38
52
23
45
43
12
14
9
34
44
35
10
25
29
46
6
30
24
3
19
18

> <PUBCHEM_MMFF94_PARTIAL_CHARGES>
22
1 -0.36
10 0.3
11 -0.15
12 -0.15
13 0.08
14 -0.15
15 0.57
16 0.06
17 0.28
2 -0.57
20 0.15
23 0.27
24 0.15
25 0.15
26 0.15
27 0.37
3 0.03
4 -0.73
5 -0.18
7 0.18
8 -0.15
9 -0.3

> <PUBCHEM_EFFECTIVE_ROTOR_COUNT>
5

> <PUBCHEM_PHARMACOPHORE_FEATURES>
7
1 1 acceptor
1 2 acceptor
1 3 cation
1 3 donor
1 4 donor
5 3 5 6 8 9 rings
6 6 8 11 12 13 14 rings

> <PUBCHEM_HEAVY_ATOM_COUNT>
17

> <PUBCHEM_ATOM_DEF_STEREO_COUNT>
0

> <PUBCHEM_ATOM_UDEF_STEREO_COUNT>
0

> <PUBCHEM_BOND_DEF_STEREO_COUNT>
0

> <PUBCHEM_BOND_UDEF_STEREO_COUNT>
0

> <PUBCHEM_ISOTOPIC_ATOM_COUNT>
0

> <PUBCHEM_COMPONENT_COUNT>
1

> <PUBCHEM_CACTVS_TAUTO_COUNT>
2

> <PUBCHEM_CONFORMER_ID>
0000038000000001

> <PUBCHEM_MMFF94_ENERGY>
32.7119

> <PUBCHEM_FEATURE_SELFOVERLAP>
35.612

> <PUBCHEM_SHAPE_FINGERPRINT>
10967382 1 18410853274190255273
11640471 11 17676780867509025316
13027679 85 18194690495324420133
13140716 1 17978229692519098697
13965767 371 16608554374032828400
1420 336 18266184924512803916
14787075 74 17896612875907719035
14790565 3 18341057316043312793
15006816 218 16754940689043299904
16945 1 18195239147136872059
19591789 44 18120376712306458779
19765921 60 17749382706469569763
20510252 161 18342458093286620745
21141583 151 18124894583888822372
21524375 3 17972887951224859043
2334 1 18410572855759727185
23419403 2 17326855944455494142
23557571 272 18201719608641642450
23559900 14 18342173410755765088
2748010 2 18337115553281152647
353137 74 18409164389875307419
44154327 71 18267028250037128041
526903 126 18410576235872810256
537710 114 18408601466050490037
7832392 63 17187566044572678455
9981440 41 18116712022929254594

> <PUBCHEM_SHAPE_MULTIPOLES>
328.15
4.94
3.77
0.97
2.92
1.2
-0.06
0.99
-1.27
-0.81
0.74
0.39
0.23
-0.66

> <PUBCHEM_SHAPE_SELFOVERLAP>
695.133

> <PUBCHEM_SHAPE_VOLUME>
185.3

> <PUBCHEM_COORDINATE_TYPE>
2
5
10

> <Energy>
0.232708

> <minimizedAffinity>
-6.29922

> <CNNscore>
0.4588504732

> <CNNaffinity>
6.5749926567

> <CNN_VS>
3.0169384480

> <CNNaffinity_variance>
0.4447189867

$$$$
896


 19 20  0  0  0  0  0  0  0  0999 V2000
   24.0577    6.9237    3.8098 N   0  0  0  0  0  0  0  0  0  0  0  0
   22.0724    5.9368    4.0594 C   0  0  0  0  0  0  0  0  0  0  0  0
   23.0542    4.9375    3.7621 C   0  0  0  0  0  0  0  0  0  0  0  0
   24.2777    5.5826    3.5988 C   0  0  0  0  0  0  0  0  0  0  0  0
   22.7333    7.1497    4.0824 C   0  0  0  0  0  0  0  0  0  0  0  0
   23.0000    3.5349    3.6133 C   0  0  0  0  0  0  0  0  0  0  0  0
   25.4549    4.8958    3.2865 C   0  0  0  0  0  0  0  0  0  0  0  0
   24.1604    2.8244    3.2902 C   0  0  0  0  0  0  0  0  0  0  0  0
   25.3676    3.5056    3.1320 C   0  0  0  0  0  0  0  0  0  0  0  0
   24.7514    7.6211    3.7706 H   0  0  0  0  0  0  0  0  0  0  0  0
   24.2326    1.4692    3.1048 O   0  0  0  0  0  0  0  0  0  0  0  0
   23.3960    0.6674    3.9315 C   0  0  0  0  0  0  0  0  0  0  0  0
   20.6106    5.6981    4.2985 C   0  0  0  0  0  0  0  0  0  0  0  0
   20.3243    4.3539    4.9772 C   0  0  0  0  0  0  0  0  0  0  0  0
   18.0605    4.4790    6.6910 O   0  0  0  0  0  0  0  0  0  0  0  0
   20.3417    4.4139    6.4298 N   0  0  0  0  0  0  0  0  0  0  0  0
   19.1870    4.5032    7.1721 C   0  0  0  0  0  0  0  0  0  0  0  0
   19.4328    4.6041    8.6533 C   0  0  0  0  0  0  0  0  0  0  0  0
   21.2078    4.3900    6.8972 H   0  0  0  0  0  0  0  0  0  0  0  0
 11  8  1  0
 11 12  1  0
 15 17  2  0
  1  4  1  0
  1  5  1  0
  1 10  1  0
 16 14  1  0
 16 17  1  0
 16 19  1  0
  2  3  1  0
  2 13  1  0
  2  5  2  0
  3  4  2  0
  3  6  1  0
 13 14  1  0
  4  7  1  0
  6  8  2  0
  7  9  2  0
  8  9  1  0
 17 18  1  0
M  END
> <PUBCHEM_COMPOUND_CID>
896

> <PUBCHEM_CONFORMER_RMSD>
0.6

> <PUBCHEM_CONFORMER_DIVERSEORDER>
1
13
50
55
28
16
42
48
27
15
62
60
65
61
36
4
20
58
41
17
59
21
2
63
47
57
40
56
22
64
54
37
51
7
31
53
26
8
49
39
32
11
5
33
38
52
23
45
43
12
14
9
34
44
35
10
25
29
46
6
30
24
3
19
18

> <PUBCHEM_MMFF94_PARTIAL_CHARGES>
22
1 -0.36
10 0.3
11 -0.15
12 -0.15
13 0.08
14 -0.15
15 0.57
16 0.06
17 0.28
2 -0.57
20 0.15
23 0.27
24 0.15
25 0.15
26 0.15
27 0.37
3 0.03
4 -0.73
5 -0.18
7 0.18
8 -0.15
9 -0.3

> <PUBCHEM_EFFECTIVE_ROTOR_COUNT>
5

> <PUBCHEM_PHARMACOPHORE_FEATURES>
7
1 1 acceptor
1 2 acceptor
1 3 cation
1 3 donor
1 4 donor
5 3 5 6 8 9 rings
6 6 8 11 12 13 14 rings

> <PUBCHEM_HEAVY_ATOM_COUNT>
17

> <PUBCHEM_ATOM_DEF_STEREO_COUNT>
0

> <PUBCHEM_ATOM_UDEF_STEREO_COUNT>
0

> <PUBCHEM_BOND_DEF_STEREO_COUNT>
0

> <PUBCHEM_BOND_UDEF_STEREO_COUNT>
0

> <PUBCHEM_ISOTOPIC_ATOM_COUNT>
0

> <PUBCHEM_COMPONENT_COUNT>
1

> <PUBCHEM_CACTVS_TAUTO_COUNT>
2

> <PUBCHEM_CONFORMER_ID>
0000038000000001

> <PUBCHEM_MMFF94_ENERGY>
32.7119

> <PUBCHEM_FEATURE_SELFOVERLAP>
35.612

> <PUBCHEM_SHAPE_FINGERPRINT>
10967382 1 18410853274190255273
11640471 11 17676780867509025316
13027679 85 18194690495324420133
13140716 1 17978229692519098697
13965767 371 16608554374032828400
1420 336 18266184924512803916
14787075 74 17896612875907719035
14790565 3 18341057316043312793
15006816 218 16754940689043299904
16945 1 18195239147136872059
19591789 44 18120376712306458779
19765921 60 17749382706469569763
20510252 161 18342458093286620745
21141583 151 18124894583888822372
21524375 3 17972887951224859043
2334 1 18410572855759727185
23419403 2 17326855944455494142
23557571 272 18201719608641642450
23559900 14 18342173410755765088
2748010 2 18337115553281152647
353137 74 18409164389875307419
44154327 71 18267028250037128041
526903 126 18410576235872810256
537710 114 18408601466050490037
7832392 63 17187566044572678455
9981440 41 18116712022929254594

> <PUBCHEM_SHAPE_MULTIPOLES>
328.15
4.94
3.77
0.97
2.92
1.2
-0.06
0.99
-1.27
-0.81
0.74
0.39
0.23
-0.66

> <PUBCHEM_SHAPE_SELFOVERLAP>
695.133

> <PUBCHEM_SHAPE_VOLUME>
185.3

> <PUBCHEM_COORDINATE_TYPE>
2
5
10

> <Energy>
0.232708

> <minimizedAffinity>
-6.41087

> <CNNscore>
0.4452414215

> <CNNaffinity>
6.4393296242

> <CNN_VS>
2.8670563698

> <CNNaffinity_variance>
0.2644711435

$$$$
