8814


 16 16  0  0  0  0  0  0  0  0999 V2000
   -4.3279   -4.0506   21.8718 C   0  0  0  0  0  0  0  0  0  0  0  0
   -4.3604   -5.6020   21.7168 C   0  0  0  0  0  0  0  0  0  0  0  0
   -5.3116   -3.5282   20.7988 C   0  0  0  0  0  0  0  0  0  0  0  0
    1.0547   -2.3199   21.0448 O   0  0  0  0  0  0  0  0  0  0  0  0
   -2.8724   -3.6115   21.6516 C   0  0  0  0  0  0  0  0  0  0  0  0
   -2.2574   -2.7209   22.5576 C   0  0  0  0  0  0  0  0  0  0  0  0
   -2.1065   -4.0565   20.5610 C   0  0  0  0  0  0  0  0  0  0  0  0
   -0.9447   -2.2800   22.3708 C   0  0  0  0  0  0  0  0  0  0  0  0
   -0.7949   -3.6158   20.3711 C   0  0  0  0  0  0  0  0  0  0  0  0
   -0.2257   -2.7291   21.2745 C   0  0  0  0  0  0  0  0  0  0  0  0
    1.4684   -1.7217   21.6355 H   0  0  0  0  0  0  0  0  0  0  0  0
   -4.8512   -3.7187   23.3156 C   0  0  0  0  0  0  0  0  0  0  0  0
   -6.0996   -2.8132   23.5925 C   0  0  0  0  0  0  0  0  0  0  0  0
   -5.6032   -1.3459   23.5537 C   0  0  0  0  0  0  0  0  0  0  0  0
   -6.7187   -3.0539   24.9765 C   0  0  0  0  0  0  0  0  0  0  0  0
   -7.2028   -2.9361   22.5298 C   0  0  0  0  0  0  0  0  0  0  0  0
  4 10  1  0
  4 11  1  0
  1 12  1  0
  1  5  1  0
  1  2  1  0
  1  3  1  0
 13 12  1  0
 13 14  1  0
 13 15  1  0
 13 16  1  0
  5  6  2  0
  5  7  1  0
  6  8  1  0
  7  9  2  0
  8 10  2  0
  9 10  1  0
M  END
> <PUBCHEM_COMPOUND_CID>
8814

> <PUBCHEM_CONFORMER_RMSD>
0.6

> <PUBCHEM_CONFORMER_DIVERSEORDER>
1
5
4
3
2

> <PUBCHEM_MMFF94_PARTIAL_CHARGES>
13
1 -0.53
11 -0.15
12 -0.15
13 -0.15
14 -0.15
15 0.08
2 0.14
33 0.15
34 0.15
35 0.15
36 0.15
37 0.45
5 -0.14

> <PUBCHEM_EFFECTIVE_ROTOR_COUNT>
3

> <PUBCHEM_PHARMACOPHORE_FEATURES>
4
1 1 donor
3 2 6 7 hydrophobe
4 3 8 9 10 hydrophobe
6 5 11 12 13 14 15 rings

> <PUBCHEM_HEAVY_ATOM_COUNT>
15

> <PUBCHEM_ATOM_DEF_STEREO_COUNT>
0

> <PUBCHEM_ATOM_UDEF_STEREO_COUNT>
0

> <PUBCHEM_BOND_DEF_STEREO_COUNT>
0

> <PUBCHEM_BOND_UDEF_STEREO_COUNT>
0

> <PUBCHEM_ISOTOPIC_ATOM_COUNT>
0

> <PUBCHEM_COMPONENT_COUNT>
1

> <PUBCHEM_CACTVS_TAUTO_COUNT>
2

> <PUBCHEM_CONFORMER_ID>
0000226E00000001

> <PUBCHEM_MMFF94_ENERGY>
60.6732

> <PUBCHEM_FEATURE_SELFOVERLAP>
20.297

> <PUBCHEM_SHAPE_FINGERPRINT>
1 1 18122065299635933247
11471102 22 13984658170435925480
12138202 97 18272929444633088966
12251169 10 14923953348599690641
12423570 1 15084294979065354379
124424 183 18201999928641116818
12491281 212 18273493468196309381
12532896 13 18409735040726507851
13299463 15 16200422598337566991
13538477 17 17822291326855117498
13764800 53 18335714831507604569
13839132 238 18413110537123213324
14817 1 11689340854733718479
15375462 478 15647061443078261877
15775835 57 18339078194495494345
16945 1 17988065786023185643
18186145 218 18200036118541666588
18534176 82 18271243927656786518
19837323 101 18335708272823803859
20525323 117 18337111292773698462
20645476 183 17894351081266785547
21296965 12 18260545576729377063
21501502 16 18271800211963701222
21524375 3 18339638928324873163
21947302 44 18059017168310697110
22802520 49 18199766781279703998
23402539 116 18267296706830970519
23419403 2 17194099544908694927
23557571 272 18198918083120765556
23559900 14 18342742906418193234
25 1 17845383149850037993
2748010 2 18262817159083630983
276578 36 18189342281366350763
305870 269 18040992882718168402
430814 3 18041565736850213531
549884 4 17416683544816290937
6333449 129 18343582975122638285
6442390 28 18269297706777891659
7364860 26 17834677097914689979
81228 2 18191593162379223291

> <PUBCHEM_SHAPE_MULTIPOLES>
302.82
5.29
2.15
1.39
2.11
0.81
0.13
-3.45
0.34
-1.29
-0.24
-0.12
0.26
0.01

> <PUBCHEM_SHAPE_SELFOVERLAP>
615.427

> <PUBCHEM_SHAPE_VOLUME>
178.4

> <PUBCHEM_COORDINATE_TYPE>
2
5
10

> <Energy>
46.4329

> <minimizedAffinity>
-7.09496

> <CNNscore>
0.9241645932

> <CNNaffinity>
6.8704590797

> <CNN_VS>
6.3494348526

> <CNNaffinity_variance>
0.5106343031

$$$$
8814


 16 16  0  0  0  0  0  0  0  0999 V2000
   -4.5073   -3.5373   21.3582 C   0  0  0  0  0  0  0  0  0  0  0  0
   -4.6736   -4.2372   22.7417 C   0  0  0  0  0  0  0  0  0  0  0  0
   -4.9552   -4.5977   20.3254 C   0  0  0  0  0  0  0  0  0  0  0  0
    1.0071   -2.1235   20.8646 O   0  0  0  0  0  0  0  0  0  0  0  0
   -3.0301   -3.1333   21.2381 C   0  0  0  0  0  0  0  0  0  0  0  0
   -2.4339   -3.0012   19.9656 C   0  0  0  0  0  0  0  0  0  0  0  0
   -2.2203   -2.8912   22.3605 C   0  0  0  0  0  0  0  0  0  0  0  0
   -1.0857   -2.6629   19.8223 C   0  0  0  0  0  0  0  0  0  0  0  0
   -0.8720   -2.5547   22.2199 C   0  0  0  0  0  0  0  0  0  0  0  0
   -0.3148   -2.4466   20.9534 C   0  0  0  0  0  0  0  0  0  0  0  0
    1.4142   -2.0426   20.0245 H   0  0  0  0  0  0  0  0  0  0  0  0
   -5.4783   -2.3020   21.3448 C   0  0  0  0  0  0  0  0  0  0  0  0
   -6.1206   -1.6971   22.6396 C   0  0  0  0  0  0  0  0  0  0  0  0
   -7.1431   -2.7392   23.1585 C   0  0  0  0  0  0  0  0  0  0  0  0
   -6.8857   -0.3927   22.3751 C   0  0  0  0  0  0  0  0  0  0  0  0
   -5.1153   -1.4580   23.7770 C   0  0  0  0  0  0  0  0  0  0  0  0
  4 10  1  0
  4 11  1  0
  1 12  1  0
  1  5  1  0
  1  2  1  0
  1  3  1  0
 13 12  1  0
 13 14  1  0
 13 15  1  0
 13 16  1  0
  5  6  2  0
  5  7  1  0
  6  8  1  0
  7  9  2  0
  8 10  2  0
  9 10  1  0
M  END
> <PUBCHEM_COMPOUND_CID>
8814

> <PUBCHEM_CONFORMER_RMSD>
0.6

> <PUBCHEM_CONFORMER_DIVERSEORDER>
1
5
4
3
2

> <PUBCHEM_MMFF94_PARTIAL_CHARGES>
13
1 -0.53
11 -0.15
12 -0.15
13 -0.15
14 -0.15
15 0.08
2 0.14
33 0.15
34 0.15
35 0.15
36 0.15
37 0.45
5 -0.14

> <PUBCHEM_EFFECTIVE_ROTOR_COUNT>
3

> <PUBCHEM_PHARMACOPHORE_FEATURES>
4
1 1 donor
3 2 6 7 hydrophobe
4 3 8 9 10 hydrophobe
6 5 11 12 13 14 15 rings

> <PUBCHEM_HEAVY_ATOM_COUNT>
15

> <PUBCHEM_ATOM_DEF_STEREO_COUNT>
0

> <PUBCHEM_ATOM_UDEF_STEREO_COUNT>
0

> <PUBCHEM_BOND_DEF_STEREO_COUNT>
0

> <PUBCHEM_BOND_UDEF_STEREO_COUNT>
0

> <PUBCHEM_ISOTOPIC_ATOM_COUNT>
0

> <PUBCHEM_COMPONENT_COUNT>
1

> <PUBCHEM_CACTVS_TAUTO_COUNT>
2

> <PUBCHEM_CONFORMER_ID>
0000226E00000001

> <PUBCHEM_MMFF94_ENERGY>
60.6732

> <PUBCHEM_FEATURE_SELFOVERLAP>
20.297

> <PUBCHEM_SHAPE_FINGERPRINT>
1 1 18122065299635933247
11471102 22 13984658170435925480
12138202 97 18272929444633088966
12251169 10 14923953348599690641
12423570 1 15084294979065354379
124424 183 18201999928641116818
12491281 212 18273493468196309381
12532896 13 18409735040726507851
13299463 15 16200422598337566991
13538477 17 17822291326855117498
13764800 53 18335714831507604569
13839132 238 18413110537123213324
14817 1 11689340854733718479
15375462 478 15647061443078261877
15775835 57 18339078194495494345
16945 1 17988065786023185643
18186145 218 18200036118541666588
18534176 82 18271243927656786518
19837323 101 18335708272823803859
20525323 117 18337111292773698462
20645476 183 17894351081266785547
21296965 12 18260545576729377063
21501502 16 18271800211963701222
21524375 3 18339638928324873163
21947302 44 18059017168310697110
22802520 49 18199766781279703998
23402539 116 18267296706830970519
23419403 2 17194099544908694927
23557571 272 18198918083120765556
23559900 14 18342742906418193234
25 1 17845383149850037993
2748010 2 18262817159083630983
276578 36 18189342281366350763
305870 269 18040992882718168402
430814 3 18041565736850213531
549884 4 17416683544816290937
6333449 129 18343582975122638285
6442390 28 18269297706777891659
7364860 26 17834677097914689979
81228 2 18191593162379223291

> <PUBCHEM_SHAPE_MULTIPOLES>
302.82
5.29
2.15
1.39
2.11
0.81
0.13
-3.45
0.34
-1.29
-0.24
-0.12
0.26
0.01

> <PUBCHEM_SHAPE_SELFOVERLAP>
615.427

> <PUBCHEM_SHAPE_VOLUME>
178.4

> <PUBCHEM_COORDINATE_TYPE>
2
5
10

> <Energy>
46.4329

> <minimizedAffinity>
-7.55071

> <CNNscore>
0.9115576744

> <CNNaffinity>
6.8965926170

> <CNN_VS>
6.2866420746

> <CNNaffinity_variance>
0.6254882216

$$$$
8814


 16 16  0  0  0  0  0  0  0  0999 V2000
   -3.7154   -3.7991   22.0436 C   0  0  0  0  0  0  0  0  0  0  0  0
   -3.2696   -3.4753   23.5025 C   0  0  0  0  0  0  0  0  0  0  0  0
   -3.7392   -5.3438   21.9741 C   0  0  0  0  0  0  0  0  0  0  0  0
    0.1472   -1.4683   18.5365 O   0  0  0  0  0  0  0  0  0  0  0  0
   -2.6856   -3.1474   21.1084 C   0  0  0  0  0  0  0  0  0  0  0  0
   -2.7404   -3.3877   19.7186 C   0  0  0  0  0  0  0  0  0  0  0  0
   -1.6608   -2.3101   21.5804 C   0  0  0  0  0  0  0  0  0  0  0  0
   -1.8022   -2.8332   18.8440 C   0  0  0  0  0  0  0  0  0  0  0  0
   -0.7208   -1.7562   20.7085 C   0  0  0  0  0  0  0  0  0  0  0  0
   -0.7964   -2.0244   19.3489 C   0  0  0  0  0  0  0  0  0  0  0  0
    0.1247   -1.6294   17.6137 H   0  0  0  0  0  0  0  0  0  0  0  0
   -5.1609   -3.2110   21.8601 C   0  0  0  0  0  0  0  0  0  0  0  0
   -6.4660   -4.0527   22.0679 C   0  0  0  0  0  0  0  0  0  0  0  0
   -7.6355   -3.0421   22.1765 C   0  0  0  0  0  0  0  0  0  0  0  0
   -6.4471   -4.8767   23.3631 C   0  0  0  0  0  0  0  0  0  0  0  0
   -6.7951   -4.9870   20.8930 C   0  0  0  0  0  0  0  0  0  0  0  0
  4 10  1  0
  4 11  1  0
  1 12  1  0
  1  5  1  0
  1  2  1  0
  1  3  1  0
 13 12  1  0
 13 14  1  0
 13 15  1  0
 13 16  1  0
  5  6  2  0
  5  7  1  0
  6  8  1  0
  7  9  2  0
  8 10  2  0
  9 10  1  0
M  END
> <PUBCHEM_COMPOUND_CID>
8814

> <PUBCHEM_CONFORMER_RMSD>
0.6

> <PUBCHEM_CONFORMER_DIVERSEORDER>
1
5
4
3
2

> <PUBCHEM_MMFF94_PARTIAL_CHARGES>
13
1 -0.53
11 -0.15
12 -0.15
13 -0.15
14 -0.15
15 0.08
2 0.14
33 0.15
34 0.15
35 0.15
36 0.15
37 0.45
5 -0.14

> <PUBCHEM_EFFECTIVE_ROTOR_COUNT>
3

> <PUBCHEM_PHARMACOPHORE_FEATURES>
4
1 1 donor
3 2 6 7 hydrophobe
4 3 8 9 10 hydrophobe
6 5 11 12 13 14 15 rings

> <PUBCHEM_HEAVY_ATOM_COUNT>
15

> <PUBCHEM_ATOM_DEF_STEREO_COUNT>
0

> <PUBCHEM_ATOM_UDEF_STEREO_COUNT>
0

> <PUBCHEM_BOND_DEF_STEREO_COUNT>
0

> <PUBCHEM_BOND_UDEF_STEREO_COUNT>
0

> <PUBCHEM_ISOTOPIC_ATOM_COUNT>
0

> <PUBCHEM_COMPONENT_COUNT>
1

> <PUBCHEM_CACTVS_TAUTO_COUNT>
2

> <PUBCHEM_CONFORMER_ID>
0000226E00000001

> <PUBCHEM_MMFF94_ENERGY>
60.6732

> <PUBCHEM_FEATURE_SELFOVERLAP>
20.297

> <PUBCHEM_SHAPE_FINGERPRINT>
1 1 18122065299635933247
11471102 22 13984658170435925480
12138202 97 18272929444633088966
12251169 10 14923953348599690641
12423570 1 15084294979065354379
124424 183 18201999928641116818
12491281 212 18273493468196309381
12532896 13 18409735040726507851
13299463 15 16200422598337566991
13538477 17 17822291326855117498
13764800 53 18335714831507604569
13839132 238 18413110537123213324
14817 1 11689340854733718479
15375462 478 15647061443078261877
15775835 57 18339078194495494345
16945 1 17988065786023185643
18186145 218 18200036118541666588
18534176 82 18271243927656786518
19837323 101 18335708272823803859
20525323 117 18337111292773698462
20645476 183 17894351081266785547
21296965 12 18260545576729377063
21501502 16 18271800211963701222
21524375 3 18339638928324873163
21947302 44 18059017168310697110
22802520 49 18199766781279703998
23402539 116 18267296706830970519
23419403 2 17194099544908694927
23557571 272 18198918083120765556
23559900 14 18342742906418193234
25 1 17845383149850037993
2748010 2 18262817159083630983
276578 36 18189342281366350763
305870 269 18040992882718168402
430814 3 18041565736850213531
549884 4 17416683544816290937
6333449 129 18343582975122638285
6442390 28 18269297706777891659
7364860 26 17834677097914689979
81228 2 18191593162379223291

> <PUBCHEM_SHAPE_MULTIPOLES>
302.82
5.29
2.15
1.39
2.11
0.81
0.13
-3.45
0.34
-1.29
-0.24
-0.12
0.26
0.01

> <PUBCHEM_SHAPE_SELFOVERLAP>
615.427

> <PUBCHEM_SHAPE_VOLUME>
178.4

> <PUBCHEM_COORDINATE_TYPE>
2
5
10

> <Energy>
46.4329

> <minimizedAffinity>
-6.84810

> <CNNscore>
0.9086841345

> <CNNaffinity>
7.0052046776

> <CNN_VS>
6.3655185699

> <CNNaffinity_variance>
0.6590321660

$$$$
8814


 16 16  0  0  0  0  0  0  0  0999 V2000
   -4.5141   -3.5524   21.3639 C   0  0  0  0  0  0  0  0  0  0  0  0
   -4.6607   -4.3008   22.7242 C   0  0  0  0  0  0  0  0  0  0  0  0
   -5.0196   -4.5599   20.3051 C   0  0  0  0  0  0  0  0  0  0  0  0
    0.9881   -2.0925   20.8676 O   0  0  0  0  0  0  0  0  0  0  0  0
   -3.0303   -3.1832   21.2165 C   0  0  0  0  0  0  0  0  0  0  0  0
   -2.2241   -3.0211   22.3638 C   0  0  0  0  0  0  0  0  0  0  0  0
   -2.4224   -2.9853   19.9653 C   0  0  0  0  0  0  0  0  0  0  0  0
   -0.8784   -2.6581   22.2653 C   0  0  0  0  0  0  0  0  0  0  0  0
   -1.0780   -2.6206   19.8644 C   0  0  0  0  0  0  0  0  0  0  0  0
   -0.3179   -2.4565   21.0140 C   0  0  0  0  0  0  0  0  0  0  0  0
    1.5289   -1.9734   21.6235 H   0  0  0  0  0  0  0  0  0  0  0  0
   -5.4508   -2.2924   21.4256 C   0  0  0  0  0  0  0  0  0  0  0  0
   -6.0647   -1.7397   22.7570 C   0  0  0  0  0  0  0  0  0  0  0  0
   -6.8092   -0.4302   22.3946 C   0  0  0  0  0  0  0  0  0  0  0  0
   -5.0006   -1.3895   23.8068 C   0  0  0  0  0  0  0  0  0  0  0  0
   -7.1011   -2.6762   23.3977 C   0  0  0  0  0  0  0  0  0  0  0  0
  4 10  1  0
  4 11  1  0
  1 12  1  0
  1  5  1  0
  1  2  1  0
  1  3  1  0
 13 12  1  0
 13 14  1  0
 13 15  1  0
 13 16  1  0
  5  6  2  0
  5  7  1  0
  6  8  1  0
  7  9  2  0
  8 10  2  0
  9 10  1  0
M  END
> <PUBCHEM_COMPOUND_CID>
8814

> <PUBCHEM_CONFORMER_RMSD>
0.6

> <PUBCHEM_CONFORMER_DIVERSEORDER>
1
5
4
3
2

> <PUBCHEM_MMFF94_PARTIAL_CHARGES>
13
1 -0.53
11 -0.15
12 -0.15
13 -0.15
14 -0.15
15 0.08
2 0.14
33 0.15
34 0.15
35 0.15
36 0.15
37 0.45
5 -0.14

> <PUBCHEM_EFFECTIVE_ROTOR_COUNT>
3

> <PUBCHEM_PHARMACOPHORE_FEATURES>
4
1 1 donor
3 2 6 7 hydrophobe
4 3 8 9 10 hydrophobe
6 5 11 12 13 14 15 rings

> <PUBCHEM_HEAVY_ATOM_COUNT>
15

> <PUBCHEM_ATOM_DEF_STEREO_COUNT>
0

> <PUBCHEM_ATOM_UDEF_STEREO_COUNT>
0

> <PUBCHEM_BOND_DEF_STEREO_COUNT>
0

> <PUBCHEM_BOND_UDEF_STEREO_COUNT>
0

> <PUBCHEM_ISOTOPIC_ATOM_COUNT>
0

> <PUBCHEM_COMPONENT_COUNT>
1

> <PUBCHEM_CACTVS_TAUTO_COUNT>
2

> <PUBCHEM_CONFORMER_ID>
0000226E00000001

> <PUBCHEM_MMFF94_ENERGY>
60.6732

> <PUBCHEM_FEATURE_SELFOVERLAP>
20.297

> <PUBCHEM_SHAPE_FINGERPRINT>
1 1 18122065299635933247
11471102 22 13984658170435925480
12138202 97 18272929444633088966
12251169 10 14923953348599690641
12423570 1 15084294979065354379
124424 183 18201999928641116818
12491281 212 18273493468196309381
12532896 13 18409735040726507851
13299463 15 16200422598337566991
13538477 17 17822291326855117498
13764800 53 18335714831507604569
13839132 238 18413110537123213324
14817 1 11689340854733718479
15375462 478 15647061443078261877
15775835 57 18339078194495494345
16945 1 17988065786023185643
18186145 218 18200036118541666588
18534176 82 18271243927656786518
19837323 101 18335708272823803859
20525323 117 18337111292773698462
20645476 183 17894351081266785547
21296965 12 18260545576729377063
21501502 16 18271800211963701222
21524375 3 18339638928324873163
21947302 44 18059017168310697110
22802520 49 18199766781279703998
23402539 116 18267296706830970519
23419403 2 17194099544908694927
23557571 272 18198918083120765556
23559900 14 18342742906418193234
25 1 17845383149850037993
2748010 2 18262817159083630983
276578 36 18189342281366350763
305870 269 18040992882718168402
430814 3 18041565736850213531
549884 4 17416683544816290937
6333449 129 18343582975122638285
6442390 28 18269297706777891659
7364860 26 17834677097914689979
81228 2 18191593162379223291

> <PUBCHEM_SHAPE_MULTIPOLES>
302.82
5.29
2.15
1.39
2.11
0.81
0.13
-3.45
0.34
-1.29
-0.24
-0.12
0.26
0.01

> <PUBCHEM_SHAPE_SELFOVERLAP>
615.427

> <PUBCHEM_SHAPE_VOLUME>
178.4

> <PUBCHEM_COORDINATE_TYPE>
2
5
10

> <Energy>
46.4329

> <minimizedAffinity>
-7.52356

> <CNNscore>
0.9085009694

> <CNNaffinity>
6.8750634193

> <CNN_VS>
6.2460017204

> <CNNaffinity_variance>
0.6154045463

$$$$
8814


 16 16  0  0  0  0  0  0  0  0999 V2000
   -3.7429   -3.6734   22.0148 C   0  0  0  0  0  0  0  0  0  0  0  0
   -5.1330   -3.2132   21.4786 C   0  0  0  0  0  0  0  0  0  0  0  0
   -3.6710   -3.1105   23.4534 C   0  0  0  0  0  0  0  0  0  0  0  0
    0.1655   -1.4241   18.5052 O   0  0  0  0  0  0  0  0  0  0  0  0
   -2.6847   -3.0941   21.0638 C   0  0  0  0  0  0  0  0  0  0  0  0
   -1.6331   -2.3023   21.5733 C   0  0  0  0  0  0  0  0  0  0  0  0
   -2.7172   -3.3115   19.6760 C   0  0  0  0  0  0  0  0  0  0  0  0
   -0.6708   -1.7374   20.7323 C   0  0  0  0  0  0  0  0  0  0  0  0
   -1.7576   -2.7463   18.8332 C   0  0  0  0  0  0  0  0  0  0  0  0
   -0.7448   -1.9616   19.3667 C   0  0  0  0  0  0  0  0  0  0  0  0
    0.8618   -0.8895   18.8329 H   0  0  0  0  0  0  0  0  0  0  0  0
   -3.7503   -5.2446   22.0313 C   0  0  0  0  0  0  0  0  0  0  0  0
   -5.0479   -6.1019   21.8411 C   0  0  0  0  0  0  0  0  0  0  0  0
   -5.9636   -5.7995   23.0539 C   0  0  0  0  0  0  0  0  0  0  0  0
   -4.7723   -7.6122   21.8371 C   0  0  0  0  0  0  0  0  0  0  0  0
   -5.8492   -5.7428   20.5800 C   0  0  0  0  0  0  0  0  0  0  0  0
  4 10  1  0
  4 11  1  0
  1 12  1  0
  1  5  1  0
  1  2  1  0
  1  3  1  0
 13 12  1  0
 13 14  1  0
 13 15  1  0
 13 16  1  0
  5  6  2  0
  5  7  1  0
  6  8  1  0
  7  9  2  0
  8 10  2  0
  9 10  1  0
M  END
> <PUBCHEM_COMPOUND_CID>
8814

> <PUBCHEM_CONFORMER_RMSD>
0.6

> <PUBCHEM_CONFORMER_DIVERSEORDER>
1
5
4
3
2

> <PUBCHEM_MMFF94_PARTIAL_CHARGES>
13
1 -0.53
11 -0.15
12 -0.15
13 -0.15
14 -0.15
15 0.08
2 0.14
33 0.15
34 0.15
35 0.15
36 0.15
37 0.45
5 -0.14

> <PUBCHEM_EFFECTIVE_ROTOR_COUNT>
3

> <PUBCHEM_PHARMACOPHORE_FEATURES>
4
1 1 donor
3 2 6 7 hydrophobe
4 3 8 9 10 hydrophobe
6 5 11 12 13 14 15 rings

> <PUBCHEM_HEAVY_ATOM_COUNT>
15

> <PUBCHEM_ATOM_DEF_STEREO_COUNT>
0

> <PUBCHEM_ATOM_UDEF_STEREO_COUNT>
0

> <PUBCHEM_BOND_DEF_STEREO_COUNT>
0

> <PUBCHEM_BOND_UDEF_STEREO_COUNT>
0

> <PUBCHEM_ISOTOPIC_ATOM_COUNT>
0

> <PUBCHEM_COMPONENT_COUNT>
1

> <PUBCHEM_CACTVS_TAUTO_COUNT>
2

> <PUBCHEM_CONFORMER_ID>
0000226E00000001

> <PUBCHEM_MMFF94_ENERGY>
60.6732

> <PUBCHEM_FEATURE_SELFOVERLAP>
20.297

> <PUBCHEM_SHAPE_FINGERPRINT>
1 1 18122065299635933247
11471102 22 13984658170435925480
12138202 97 18272929444633088966
12251169 10 14923953348599690641
12423570 1 15084294979065354379
124424 183 18201999928641116818
12491281 212 18273493468196309381
12532896 13 18409735040726507851
13299463 15 16200422598337566991
13538477 17 17822291326855117498
13764800 53 18335714831507604569
13839132 238 18413110537123213324
14817 1 11689340854733718479
15375462 478 15647061443078261877
15775835 57 18339078194495494345
16945 1 17988065786023185643
18186145 218 18200036118541666588
18534176 82 18271243927656786518
19837323 101 18335708272823803859
20525323 117 18337111292773698462
20645476 183 17894351081266785547
21296965 12 18260545576729377063
21501502 16 18271800211963701222
21524375 3 18339638928324873163
21947302 44 18059017168310697110
22802520 49 18199766781279703998
23402539 116 18267296706830970519
23419403 2 17194099544908694927
23557571 272 18198918083120765556
23559900 14 18342742906418193234
25 1 17845383149850037993
2748010 2 18262817159083630983
276578 36 18189342281366350763
305870 269 18040992882718168402
430814 3 18041565736850213531
549884 4 17416683544816290937
6333449 129 18343582975122638285
6442390 28 18269297706777891659
7364860 26 17834677097914689979
81228 2 18191593162379223291

> <PUBCHEM_SHAPE_MULTIPOLES>
302.82
5.29
2.15
1.39
2.11
0.81
0.13
-3.45
0.34
-1.29
-0.24
-0.12
0.26
0.01

> <PUBCHEM_SHAPE_SELFOVERLAP>
615.427

> <PUBCHEM_SHAPE_VOLUME>
178.4

> <PUBCHEM_COORDINATE_TYPE>
2
5
10

> <Energy>
46.4329

> <minimizedAffinity>
-7.39417

> <CNNscore>
0.8909877539

> <CNNaffinity>
6.5195517540

> <CNN_VS>
5.8088407516

> <CNNaffinity_variance>
0.2719387114

$$$$
8814


 16 16  0  0  0  0  0  0  0  0999 V2000
   -4.5551   -3.3828   21.5680 C   0  0  0  0  0  0  0  0  0  0  0  0
   -4.9283   -4.3435   20.3977 C   0  0  0  0  0  0  0  0  0  0  0  0
   -5.5260   -2.1882   21.4200 C   0  0  0  0  0  0  0  0  0  0  0  0
    0.9648   -2.0942   20.8451 O   0  0  0  0  0  0  0  0  0  0  0  0
   -3.0757   -3.0118   21.3851 C   0  0  0  0  0  0  0  0  0  0  0  0
   -2.5136   -2.9613   20.0913 C   0  0  0  0  0  0  0  0  0  0  0  0
   -2.2308   -2.7213   22.4695 C   0  0  0  0  0  0  0  0  0  0  0  0
   -1.1649   -2.6548   19.8924 C   0  0  0  0  0  0  0  0  0  0  0  0
   -0.8819   -2.4165   22.2733 C   0  0  0  0  0  0  0  0  0  0  0  0
   -0.3590   -2.3890   20.9881 C   0  0  0  0  0  0  0  0  0  0  0  0
    1.3492   -2.0674   19.9910 H   0  0  0  0  0  0  0  0  0  0  0  0
   -4.8262   -4.1580   22.9075 C   0  0  0  0  0  0  0  0  0  0  0  0
   -6.2177   -4.1734   23.6275 C   0  0  0  0  0  0  0  0  0  0  0  0
   -7.2925   -4.2890   22.5175 C   0  0  0  0  0  0  0  0  0  0  0  0
   -6.5008   -2.8836   24.4106 C   0  0  0  0  0  0  0  0  0  0  0  0
   -6.4177   -5.3744   24.5651 C   0  0  0  0  0  0  0  0  0  0  0  0
  4 10  1  0
  4 11  1  0
  1 12  1  0
  1  5  1  0
  1  2  1  0
  1  3  1  0
 13 12  1  0
 13 14  1  0
 13 15  1  0
 13 16  1  0
  5  6  2  0
  5  7  1  0
  6  8  1  0
  7  9  2  0
  8 10  2  0
  9 10  1  0
M  END
> <PUBCHEM_COMPOUND_CID>
8814

> <PUBCHEM_CONFORMER_RMSD>
0.6

> <PUBCHEM_CONFORMER_DIVERSEORDER>
1
5
4
3
2

> <PUBCHEM_MMFF94_PARTIAL_CHARGES>
13
1 -0.53
11 -0.15
12 -0.15
13 -0.15
14 -0.15
15 0.08
2 0.14
33 0.15
34 0.15
35 0.15
36 0.15
37 0.45
5 -0.14

> <PUBCHEM_EFFECTIVE_ROTOR_COUNT>
3

> <PUBCHEM_PHARMACOPHORE_FEATURES>
4
1 1 donor
3 2 6 7 hydrophobe
4 3 8 9 10 hydrophobe
6 5 11 12 13 14 15 rings

> <PUBCHEM_HEAVY_ATOM_COUNT>
15

> <PUBCHEM_ATOM_DEF_STEREO_COUNT>
0

> <PUBCHEM_ATOM_UDEF_STEREO_COUNT>
0

> <PUBCHEM_BOND_DEF_STEREO_COUNT>
0

> <PUBCHEM_BOND_UDEF_STEREO_COUNT>
0

> <PUBCHEM_ISOTOPIC_ATOM_COUNT>
0

> <PUBCHEM_COMPONENT_COUNT>
1

> <PUBCHEM_CACTVS_TAUTO_COUNT>
2

> <PUBCHEM_CONFORMER_ID>
0000226E00000001

> <PUBCHEM_MMFF94_ENERGY>
60.6732

> <PUBCHEM_FEATURE_SELFOVERLAP>
20.297

> <PUBCHEM_SHAPE_FINGERPRINT>
1 1 18122065299635933247
11471102 22 13984658170435925480
12138202 97 18272929444633088966
12251169 10 14923953348599690641
12423570 1 15084294979065354379
124424 183 18201999928641116818
12491281 212 18273493468196309381
12532896 13 18409735040726507851
13299463 15 16200422598337566991
13538477 17 17822291326855117498
13764800 53 18335714831507604569
13839132 238 18413110537123213324
14817 1 11689340854733718479
15375462 478 15647061443078261877
15775835 57 18339078194495494345
16945 1 17988065786023185643
18186145 218 18200036118541666588
18534176 82 18271243927656786518
19837323 101 18335708272823803859
20525323 117 18337111292773698462
20645476 183 17894351081266785547
21296965 12 18260545576729377063
21501502 16 18271800211963701222
21524375 3 18339638928324873163
21947302 44 18059017168310697110
22802520 49 18199766781279703998
23402539 116 18267296706830970519
23419403 2 17194099544908694927
23557571 272 18198918083120765556
23559900 14 18342742906418193234
25 1 17845383149850037993
2748010 2 18262817159083630983
276578 36 18189342281366350763
305870 269 18040992882718168402
430814 3 18041565736850213531
549884 4 17416683544816290937
6333449 129 18343582975122638285
6442390 28 18269297706777891659
7364860 26 17834677097914689979
81228 2 18191593162379223291

> <PUBCHEM_SHAPE_MULTIPOLES>
302.82
5.29
2.15
1.39
2.11
0.81
0.13
-3.45
0.34
-1.29
-0.24
-0.12
0.26
0.01

> <PUBCHEM_SHAPE_SELFOVERLAP>
615.427

> <PUBCHEM_SHAPE_VOLUME>
178.4

> <PUBCHEM_COORDINATE_TYPE>
2
5
10

> <Energy>
46.4329

> <minimizedAffinity>
-7.39529

> <CNNscore>
0.8905670047

> <CNNaffinity>
6.7919812202

> <CNN_VS>
6.0487141609

> <CNNaffinity_variance>
0.4296592772

$$$$
8814


 16 16  0  0  0  0  0  0  0  0999 V2000
   -4.5503   -3.6068   21.4643 C   0  0  0  0  0  0  0  0  0  0  0  0
   -4.9078   -4.5492   20.2744 C   0  0  0  0  0  0  0  0  0  0  0  0
   -5.5048   -2.3999   21.3097 C   0  0  0  0  0  0  0  0  0  0  0  0
    0.9610   -2.1854   20.9576 O   0  0  0  0  0  0  0  0  0  0  0  0
   -3.0633   -3.2499   21.3185 C   0  0  0  0  0  0  0  0  0  0  0  0
   -2.3086   -2.8851   22.4541 C   0  0  0  0  0  0  0  0  0  0  0  0
   -2.4027   -3.2604   20.0785 C   0  0  0  0  0  0  0  0  0  0  0  0
   -0.9616   -2.5277   22.3518 C   0  0  0  0  0  0  0  0  0  0  0  0
   -1.0570   -2.9018   19.9734 C   0  0  0  0  0  0  0  0  0  0  0  0
   -0.3483   -2.5352   21.1090 C   0  0  0  0  0  0  0  0  0  0  0  0
    1.4678   -1.9328   21.7042 H   0  0  0  0  0  0  0  0  0  0  0  0
   -4.8593   -4.3951   22.7880 C   0  0  0  0  0  0  0  0  0  0  0  0
   -6.1418   -4.1535   23.6551 C   0  0  0  0  0  0  0  0  0  0  0  0
   -7.3545   -4.2609   22.6966 C   0  0  0  0  0  0  0  0  0  0  0  0
   -6.1797   -2.7570   24.2916 C   0  0  0  0  0  0  0  0  0  0  0  0
   -6.3527   -5.2041   24.7565 C   0  0  0  0  0  0  0  0  0  0  0  0
  4 10  1  0
  4 11  1  0
  1 12  1  0
  1  5  1  0
  1  2  1  0
  1  3  1  0
 13 12  1  0
 13 14  1  0
 13 15  1  0
 13 16  1  0
  5  6  2  0
  5  7  1  0
  6  8  1  0
  7  9  2  0
  8 10  2  0
  9 10  1  0
M  END
> <PUBCHEM_COMPOUND_CID>
8814

> <PUBCHEM_CONFORMER_RMSD>
0.6

> <PUBCHEM_CONFORMER_DIVERSEORDER>
1
5
4
3
2

> <PUBCHEM_MMFF94_PARTIAL_CHARGES>
13
1 -0.53
11 -0.15
12 -0.15
13 -0.15
14 -0.15
15 0.08
2 0.14
33 0.15
34 0.15
35 0.15
36 0.15
37 0.45
5 -0.14

> <PUBCHEM_EFFECTIVE_ROTOR_COUNT>
3

> <PUBCHEM_PHARMACOPHORE_FEATURES>
4
1 1 donor
3 2 6 7 hydrophobe
4 3 8 9 10 hydrophobe
6 5 11 12 13 14 15 rings

> <PUBCHEM_HEAVY_ATOM_COUNT>
15

> <PUBCHEM_ATOM_DEF_STEREO_COUNT>
0

> <PUBCHEM_ATOM_UDEF_STEREO_COUNT>
0

> <PUBCHEM_BOND_DEF_STEREO_COUNT>
0

> <PUBCHEM_BOND_UDEF_STEREO_COUNT>
0

> <PUBCHEM_ISOTOPIC_ATOM_COUNT>
0

> <PUBCHEM_COMPONENT_COUNT>
1

> <PUBCHEM_CACTVS_TAUTO_COUNT>
2

> <PUBCHEM_CONFORMER_ID>
0000226E00000001

> <PUBCHEM_MMFF94_ENERGY>
60.6732

> <PUBCHEM_FEATURE_SELFOVERLAP>
20.297

> <PUBCHEM_SHAPE_FINGERPRINT>
1 1 18122065299635933247
11471102 22 13984658170435925480
12138202 97 18272929444633088966
12251169 10 14923953348599690641
12423570 1 15084294979065354379
124424 183 18201999928641116818
12491281 212 18273493468196309381
12532896 13 18409735040726507851
13299463 15 16200422598337566991
13538477 17 17822291326855117498
13764800 53 18335714831507604569
13839132 238 18413110537123213324
14817 1 11689340854733718479
15375462 478 15647061443078261877
15775835 57 18339078194495494345
16945 1 17988065786023185643
18186145 218 18200036118541666588
18534176 82 18271243927656786518
19837323 101 18335708272823803859
20525323 117 18337111292773698462
20645476 183 17894351081266785547
21296965 12 18260545576729377063
21501502 16 18271800211963701222
21524375 3 18339638928324873163
21947302 44 18059017168310697110
22802520 49 18199766781279703998
23402539 116 18267296706830970519
23419403 2 17194099544908694927
23557571 272 18198918083120765556
23559900 14 18342742906418193234
25 1 17845383149850037993
2748010 2 18262817159083630983
276578 36 18189342281366350763
305870 269 18040992882718168402
430814 3 18041565736850213531
549884 4 17416683544816290937
6333449 129 18343582975122638285
6442390 28 18269297706777891659
7364860 26 17834677097914689979
81228 2 18191593162379223291

> <PUBCHEM_SHAPE_MULTIPOLES>
302.82
5.29
2.15
1.39
2.11
0.81
0.13
-3.45
0.34
-1.29
-0.24
-0.12
0.26
0.01

> <PUBCHEM_SHAPE_SELFOVERLAP>
615.427

> <PUBCHEM_SHAPE_VOLUME>
178.4

> <PUBCHEM_COORDINATE_TYPE>
2
5
10

> <Energy>
46.4329

> <minimizedAffinity>
-7.40283

> <CNNscore>
0.8893625140

> <CNNaffinity>
6.7416348457

> <CNN_VS>
5.9957571030

> <CNNaffinity_variance>
0.3924289048

$$$$
8814


 16 16  0  0  0  0  0  0  0  0999 V2000
   -4.9793   -3.4883   21.4424 C   0  0  0  0  0  0  0  0  0  0  0  0
   -5.4624   -4.4961   20.3550 C   0  0  0  0  0  0  0  0  0  0  0  0
   -5.9777   -2.3103   21.3572 C   0  0  0  0  0  0  0  0  0  0  0  0
    0.3784   -1.9804   20.1489 O   0  0  0  0  0  0  0  0  0  0  0  0
   -3.5337   -3.1089   21.0872 C   0  0  0  0  0  0  0  0  0  0  0  0
   -2.6701   -2.6027   22.0823 C   0  0  0  0  0  0  0  0  0  0  0  0
   -3.0181   -3.2356   19.7863 C   0  0  0  0  0  0  0  0  0  0  0  0
   -1.3587   -2.2219   21.7864 C   0  0  0  0  0  0  0  0  0  0  0  0
   -1.7082   -2.8539   19.4877 C   0  0  0  0  0  0  0  0  0  0  0  0
   -0.8904   -2.3473   20.4881 C   0  0  0  0  0  0  0  0  0  0  0  0
    0.9562   -1.6347   20.8005 H   0  0  0  0  0  0  0  0  0  0  0  0
   -5.0932   -4.2154   22.8306 C   0  0  0  0  0  0  0  0  0  0  0  0
   -6.4212   -4.2870   23.6592 C   0  0  0  0  0  0  0  0  0  0  0  0
   -6.3397   -5.5717   24.5216 C   0  0  0  0  0  0  0  0  0  0  0  0
   -7.6720   -4.4029   22.7766 C   0  0  0  0  0  0  0  0  0  0  0  0
   -6.6098   -3.1117   24.6311 C   0  0  0  0  0  0  0  0  0  0  0  0
  4 10  1  0
  4 11  1  0
  1 12  1  0
  1  5  1  0
  1  2  1  0
  1  3  1  0
 13 12  1  0
 13 14  1  0
 13 15  1  0
 13 16  1  0
  5  6  2  0
  5  7  1  0
  6  8  1  0
  7  9  2  0
  8 10  2  0
  9 10  1  0
M  END
> <PUBCHEM_COMPOUND_CID>
8814

> <PUBCHEM_CONFORMER_RMSD>
0.6

> <PUBCHEM_CONFORMER_DIVERSEORDER>
1
5
4
3
2

> <PUBCHEM_MMFF94_PARTIAL_CHARGES>
13
1 -0.53
11 -0.15
12 -0.15
13 -0.15
14 -0.15
15 0.08
2 0.14
33 0.15
34 0.15
35 0.15
36 0.15
37 0.45
5 -0.14

> <PUBCHEM_EFFECTIVE_ROTOR_COUNT>
3

> <PUBCHEM_PHARMACOPHORE_FEATURES>
4
1 1 donor
3 2 6 7 hydrophobe
4 3 8 9 10 hydrophobe
6 5 11 12 13 14 15 rings

> <PUBCHEM_HEAVY_ATOM_COUNT>
15

> <PUBCHEM_ATOM_DEF_STEREO_COUNT>
0

> <PUBCHEM_ATOM_UDEF_STEREO_COUNT>
0

> <PUBCHEM_BOND_DEF_STEREO_COUNT>
0

> <PUBCHEM_BOND_UDEF_STEREO_COUNT>
0

> <PUBCHEM_ISOTOPIC_ATOM_COUNT>
0

> <PUBCHEM_COMPONENT_COUNT>
1

> <PUBCHEM_CACTVS_TAUTO_COUNT>
2

> <PUBCHEM_CONFORMER_ID>
0000226E00000001

> <PUBCHEM_MMFF94_ENERGY>
60.6732

> <PUBCHEM_FEATURE_SELFOVERLAP>
20.297

> <PUBCHEM_SHAPE_FINGERPRINT>
1 1 18122065299635933247
11471102 22 13984658170435925480
12138202 97 18272929444633088966
12251169 10 14923953348599690641
12423570 1 15084294979065354379
124424 183 18201999928641116818
12491281 212 18273493468196309381
12532896 13 18409735040726507851
13299463 15 16200422598337566991
13538477 17 17822291326855117498
13764800 53 18335714831507604569
13839132 238 18413110537123213324
14817 1 11689340854733718479
15375462 478 15647061443078261877
15775835 57 18339078194495494345
16945 1 17988065786023185643
18186145 218 18200036118541666588
18534176 82 18271243927656786518
19837323 101 18335708272823803859
20525323 117 18337111292773698462
20645476 183 17894351081266785547
21296965 12 18260545576729377063
21501502 16 18271800211963701222
21524375 3 18339638928324873163
21947302 44 18059017168310697110
22802520 49 18199766781279703998
23402539 116 18267296706830970519
23419403 2 17194099544908694927
23557571 272 18198918083120765556
23559900 14 18342742906418193234
25 1 17845383149850037993
2748010 2 18262817159083630983
276578 36 18189342281366350763
305870 269 18040992882718168402
430814 3 18041565736850213531
549884 4 17416683544816290937
6333449 129 18343582975122638285
6442390 28 18269297706777891659
7364860 26 17834677097914689979
81228 2 18191593162379223291

> <PUBCHEM_SHAPE_MULTIPOLES>
302.82
5.29
2.15
1.39
2.11
0.81
0.13
-3.45
0.34
-1.29
-0.24
-0.12
0.26
0.01

> <PUBCHEM_SHAPE_SELFOVERLAP>
615.427

> <PUBCHEM_SHAPE_VOLUME>
178.4

> <PUBCHEM_COORDINATE_TYPE>
2
5
10

> <Energy>
46.4329

> <minimizedAffinity>
-7.27496

> <CNNscore>
0.8650350571

> <CNNaffinity>
6.7619667053

> <CNN_VS>
5.8493380547

> <CNNaffinity_variance>
0.5014494061

$$$$
8814


 16 16  0  0  0  0  0  0  0  0999 V2000
   -4.7202   -2.5527   22.4698 C   0  0  0  0  0  0  0  0  0  0  0  0
   -5.5547   -2.7837   21.1729 C   0  0  0  0  0  0  0  0  0  0  0  0
   -5.2171   -1.1954   23.0198 C   0  0  0  0  0  0  0  0  0  0  0  0
    0.7881   -2.4614   20.9522 O   0  0  0  0  0  0  0  0  0  0  0  0
   -3.2414   -2.5544   22.0540 C   0  0  0  0  0  0  0  0  0  0  0  0
   -2.2363   -2.3065   23.0134 C   0  0  0  0  0  0  0  0  0  0  0  0
   -2.8296   -2.7878   20.7310 C   0  0  0  0  0  0  0  0  0  0  0  0
   -0.8841   -2.2732   22.6627 C   0  0  0  0  0  0  0  0  0  0  0  0
   -1.4788   -2.7532   20.3777 C   0  0  0  0  0  0  0  0  0  0  0  0
   -0.5177   -2.4930   21.3444 C   0  0  0  0  0  0  0  0  0  0  0  0
    1.4618   -2.2884   21.5800 H   0  0  0  0  0  0  0  0  0  0  0  0
   -5.0740   -3.7187   23.4617 C   0  0  0  0  0  0  0  0  0  0  0  0
   -5.9708   -4.9419   23.0685 C   0  0  0  0  0  0  0  0  0  0  0  0
   -6.3359   -5.6690   24.3871 C   0  0  0  0  0  0  0  0  0  0  0  0
   -5.2439   -5.9530   22.1706 C   0  0  0  0  0  0  0  0  0  0  0  0
   -7.2961   -4.5489   22.3973 C   0  0  0  0  0  0  0  0  0  0  0  0
  4 10  1  0
  4 11  1  0
  1 12  1  0
  1  5  1  0
  1  2  1  0
  1  3  1  0
 13 12  1  0
 13 14  1  0
 13 15  1  0
 13 16  1  0
  5  6  2  0
  5  7  1  0
  6  8  1  0
  7  9  2  0
  8 10  2  0
  9 10  1  0
M  END
> <PUBCHEM_COMPOUND_CID>
8814

> <PUBCHEM_CONFORMER_RMSD>
0.6

> <PUBCHEM_CONFORMER_DIVERSEORDER>
1
5
4
3
2

> <PUBCHEM_MMFF94_PARTIAL_CHARGES>
13
1 -0.53
11 -0.15
12 -0.15
13 -0.15
14 -0.15
15 0.08
2 0.14
33 0.15
34 0.15
35 0.15
36 0.15
37 0.45
5 -0.14

> <PUBCHEM_EFFECTIVE_ROTOR_COUNT>
3

> <PUBCHEM_PHARMACOPHORE_FEATURES>
4
1 1 donor
3 2 6 7 hydrophobe
4 3 8 9 10 hydrophobe
6 5 11 12 13 14 15 rings

> <PUBCHEM_HEAVY_ATOM_COUNT>
15

> <PUBCHEM_ATOM_DEF_STEREO_COUNT>
0

> <PUBCHEM_ATOM_UDEF_STEREO_COUNT>
0

> <PUBCHEM_BOND_DEF_STEREO_COUNT>
0

> <PUBCHEM_BOND_UDEF_STEREO_COUNT>
0

> <PUBCHEM_ISOTOPIC_ATOM_COUNT>
0

> <PUBCHEM_COMPONENT_COUNT>
1

> <PUBCHEM_CACTVS_TAUTO_COUNT>
2

> <PUBCHEM_CONFORMER_ID>
0000226E00000001

> <PUBCHEM_MMFF94_ENERGY>
60.6732

> <PUBCHEM_FEATURE_SELFOVERLAP>
20.297

> <PUBCHEM_SHAPE_FINGERPRINT>
1 1 18122065299635933247
11471102 22 13984658170435925480
12138202 97 18272929444633088966
12251169 10 14923953348599690641
12423570 1 15084294979065354379
124424 183 18201999928641116818
12491281 212 18273493468196309381
12532896 13 18409735040726507851
13299463 15 16200422598337566991
13538477 17 17822291326855117498
13764800 53 18335714831507604569
13839132 238 18413110537123213324
14817 1 11689340854733718479
15375462 478 15647061443078261877
15775835 57 18339078194495494345
16945 1 17988065786023185643
18186145 218 18200036118541666588
18534176 82 18271243927656786518
19837323 101 18335708272823803859
20525323 117 18337111292773698462
20645476 183 17894351081266785547
21296965 12 18260545576729377063
21501502 16 18271800211963701222
21524375 3 18339638928324873163
21947302 44 18059017168310697110
22802520 49 18199766781279703998
23402539 116 18267296706830970519
23419403 2 17194099544908694927
23557571 272 18198918083120765556
23559900 14 18342742906418193234
25 1 17845383149850037993
2748010 2 18262817159083630983
276578 36 18189342281366350763
305870 269 18040992882718168402
430814 3 18041565736850213531
549884 4 17416683544816290937
6333449 129 18343582975122638285
6442390 28 18269297706777891659
7364860 26 17834677097914689979
81228 2 18191593162379223291

> <PUBCHEM_SHAPE_MULTIPOLES>
302.82
5.29
2.15
1.39
2.11
0.81
0.13
-3.45
0.34
-1.29
-0.24
-0.12
0.26
0.01

> <PUBCHEM_SHAPE_SELFOVERLAP>
615.427

> <PUBCHEM_SHAPE_VOLUME>
178.4

> <PUBCHEM_COORDINATE_TYPE>
2
5
10

> <Energy>
46.4329

> <minimizedAffinity>
-7.35641

> <CNNscore>
0.8489246368

> <CNNaffinity>
6.6605358124

> <CNN_VS>
5.6542930603

> <CNNaffinity_variance>
0.3746002614

$$$$
