8571


 22 23  0  0  0  0  0  0  0  0999 V2000
    9.6383   46.5435  132.4132 O   0  0  0  0  0  0  0  0  0  0  0  0
    9.2353   46.6335  131.2566 C   0  0  0  0  0  0  0  0  0  0  0  0
    6.7962   46.6287  129.7317 O   0  0  0  0  0  0  0  0  0  0  0  0
    6.7758   51.3702  129.4384 O   0  0  0  0  0  0  0  0  0  0  0  0
    8.5944   47.8882  130.7895 C   0  0  0  0  0  0  0  0  0  0  0  0
    7.4051   47.8155  130.0462 C   0  0  0  0  0  0  0  0  0  0  0  0
    9.1550   49.1436  131.0616 C   0  0  0  0  0  0  0  0  0  0  0  0
    6.7740   48.9726  129.5938 C   0  0  0  0  0  0  0  0  0  0  0  0
    8.5315   50.3032  130.5939 C   0  0  0  0  0  0  0  0  0  0  0  0
    7.3473   50.2096  129.8699 C   0  0  0  0  0  0  0  0  0  0  0  0
    7.1764   45.8188  130.0103 H   0  0  0  0  0  0  0  0  0  0  0  0
    5.9778   51.3455  128.9479 H   0  0  0  0  0  0  0  0  0  0  0  0
    8.1931   44.0833  131.7632 O   0  0  0  0  0  0  0  0  0  0  0  0
   10.0697   42.3971  127.6836 O   0  0  0  0  0  0  0  0  0  0  0  0
    9.4559   45.5137  130.3261 C   0  0  0  0  0  0  0  0  0  0  0  0
    8.9053   44.2608  130.6107 C   0  0  0  0  0  0  0  0  0  0  0  0
   10.1926   45.7207  129.1570 C   0  0  0  0  0  0  0  0  0  0  0  0
    9.0922   43.1978  129.7288 C   0  0  0  0  0  0  0  0  0  0  0  0
   10.3976   44.6521  128.2842 C   0  0  0  0  0  0  0  0  0  0  0  0
    9.8448   43.4055  128.5739 C   0  0  0  0  0  0  0  0  0  0  0  0
    8.0701   44.8009  132.3531 H   0  0  0  0  0  0  0  0  0  0  0  0
    9.7152   41.5444  127.8423 H   0  0  0  0  0  0  0  0  0  0  0  0
  3  6  1  0
  3 11  1  0
 13 16  1  0
 13 21  1  0
  1  2  2  0
  4 10  1  0
  4 12  1  0
 14 20  1  0
 14 22  1  0
  5  2  1  0
  5  6  2  0
  5  7  1  0
 15  2  1  0
 15 16  2  0
 15 17  1  0
  6  8  1  0
 16 18  1  0
  7  9  2  0
 17 19  2  0
  8 10  2  0
 18 20  2  0
  9 10  1  0
 19 20  1  0
M  END
> <PUBCHEM_COMPOUND_CID>
8571

> <PUBCHEM_CONFORMER_RMSD>
0.6

> <PUBCHEM_CONFORMER_DIVERSEORDER>
3
14
8
5
6
10
13
11
12
7
2
4
9
1

> <PUBCHEM_MMFF94_PARTIAL_CHARGES>
28
1 -0.53
10 0.08
11 -0.15
12 -0.15
13 -0.15
14 -0.15
15 -0.15
16 -0.15
17 0.08
18 0.08
19 0.15
2 -0.53
20 0.15
21 0.15
22 0.15
23 0.15
24 0.15
25 0.45
26 0.45
27 0.45
28 0.45
3 -0.57
4 -0.53
5 -0.53
6 0.09
7 0.09
8 0.4
9 0.08

> <PUBCHEM_EFFECTIVE_ROTOR_COUNT>
2

> <PUBCHEM_PHARMACOPHORE_FEATURES>
7
1 1 donor
1 2 donor
1 3 acceptor
1 4 donor
1 5 donor
6 6 9 11 13 15 17 rings
6 7 10 12 14 16 18 rings

> <PUBCHEM_HEAVY_ATOM_COUNT>
18

> <PUBCHEM_ATOM_DEF_STEREO_COUNT>
0

> <PUBCHEM_ATOM_UDEF_STEREO_COUNT>
0

> <PUBCHEM_BOND_DEF_STEREO_COUNT>
0

> <PUBCHEM_BOND_UDEF_STEREO_COUNT>
0

> <PUBCHEM_ISOTOPIC_ATOM_COUNT>
0

> <PUBCHEM_COMPONENT_COUNT>
1

> <PUBCHEM_CACTVS_TAUTO_COUNT>
72

> <PUBCHEM_CONFORMER_ID>
0000217B00000003

> <PUBCHEM_MMFF94_ENERGY>
59.7646

> <PUBCHEM_FEATURE_SELFOVERLAP>
35.523

> <PUBCHEM_SHAPE_FINGERPRINT>
11471102 20 18409169892103070408
11543360 7 16558473084182650672
11578080 2 11531614863815746903
12236239 1 18131065996288699443
12730499 353 18260275135465842107
13764800 53 16298659508524951853
14115302 16 17274813641062312855
14993402 34 17846215540487606185
15309172 13 17603583049510828995
15342168 16 17968104165179409005
15775835 57 18412826888988243309
16752209 62 16702019734536568467
16945 1 18338804403115108058
1813 80 17908702826610089778
18186145 218 18334579027342918966
19784866 34 18334295413878624880
19862831 5 17703791439638752137
19868273 293 17846494850753190559
20612939 158 18410015399459763708
20645476 183 18131345336920073351
20645477 70 18339644438557177238
20871999 31 17703499013054573895
21486144 27 18040157318289672158
22079108 93 18187935001610251691
22854114 59 17458065950124340569
231179 274 17822006519258234448
23402539 116 18409442626948148612
23402655 69 18343585139818180612
23559900 14 18270131244514800908
23598291 2 17916313731579383754
25 1 18335137605093349618
2748010 2 18049736405846724776
2838139 119 17898835865392311757
3082319 5 17846778520178562597
350125 39 17829344823007393920
4028521 119 18341894112446576825
474 4 18335984259027423912
5374978 207 12973890299285696421
633830 44 18335985259854816367
74978 22 17775280611934871745
76465 3 11743574149888780620
77492 1 18131067091542367739
81228 2 16880770831219455195
8272917 22 18265617572439684195
9981440 41 17624393673978878472

> <PUBCHEM_SHAPE_MULTIPOLES>
341.08
8.1
1.9
1.16
0.73
0.35
-0.07
-4.23
-1.78
-1.35
0.05
0.84
0.24
-0.62

> <PUBCHEM_SHAPE_SELFOVERLAP>
750.848

> <PUBCHEM_SHAPE_VOLUME>
184

> <PUBCHEM_COORDINATE_TYPE>
2
5
10

> <Energy>
46.2868

> <minimizedAffinity>
-8.13333

> <CNNscore>
0.7607016563

> <CNNaffinity>
5.7657732964

> <CNN_VS>
4.3860335350

> <CNNaffinity_variance>
0.3180212080

$$$$
8571


 22 23  0  0  0  0  0  0  0  0999 V2000
    9.1067   46.3917  132.4830 O   0  0  0  0  0  0  0  0  0  0  0  0
    8.9606   46.5586  131.2751 C   0  0  0  0  0  0  0  0  0  0  0  0
    8.1290   43.8465  131.7525 O   0  0  0  0  0  0  0  0  0  0  0  0
   10.1582   42.3414  127.7295 O   0  0  0  0  0  0  0  0  0  0  0  0
    9.2768   45.4585  130.3302 C   0  0  0  0  0  0  0  0  0  0  0  0
    8.8433   44.1555  130.6246 C   0  0  0  0  0  0  0  0  0  0  0  0
   10.0090   45.6869  129.1572 C   0  0  0  0  0  0  0  0  0  0  0  0
    9.1194   43.0986  129.7593 C   0  0  0  0  0  0  0  0  0  0  0  0
   10.3003   44.6246  128.2976 C   0  0  0  0  0  0  0  0  0  0  0  0
    9.8510   43.3436  128.6017 C   0  0  0  0  0  0  0  0  0  0  0  0
    7.9146   44.5181  132.3699 H   0  0  0  0  0  0  0  0  0  0  0  0
    9.8721   41.4660  127.9020 H   0  0  0  0  0  0  0  0  0  0  0  0
    6.6344   46.6375  129.7165 O   0  0  0  0  0  0  0  0  0  0  0  0
    6.8609   51.4210  129.4424 O   0  0  0  0  0  0  0  0  0  0  0  0
    8.4065   47.8316  130.7841 C   0  0  0  0  0  0  0  0  0  0  0  0
    7.2352   47.8263  130.0213 C   0  0  0  0  0  0  0  0  0  0  0  0
    9.0434   49.0330  131.1057 C   0  0  0  0  0  0  0  0  0  0  0  0
    6.6913   49.0261  129.5660 C   0  0  0  0  0  0  0  0  0  0  0  0
    8.5112   50.2325  130.6330 C   0  0  0  0  0  0  0  0  0  0  0  0
    7.3422   50.2199  129.8735 C   0  0  0  0  0  0  0  0  0  0  0  0
    7.0037   45.8334  130.0248 H   0  0  0  0  0  0  0  0  0  0  0  0
    6.0777   51.4549  128.9294 H   0  0  0  0  0  0  0  0  0  0  0  0
  3  6  1  0
  3 11  1  0
 13 16  1  0
 13 21  1  0
  1  2  2  0
  4 10  1  0
  4 12  1  0
 14 20  1  0
 14 22  1  0
  5  2  1  0
  5  6  2  0
  5  7  1  0
 15  2  1  0
 15 16  2  0
 15 17  1  0
  6  8  1  0
 16 18  1  0
  7  9  2  0
 17 19  2  0
  8 10  2  0
 18 20  2  0
  9 10  1  0
 19 20  1  0
M  END
> <PUBCHEM_COMPOUND_CID>
8571

> <PUBCHEM_CONFORMER_RMSD>
0.6

> <PUBCHEM_CONFORMER_DIVERSEORDER>
3
14
8
5
6
10
13
11
12
7
2
4
9
1

> <PUBCHEM_MMFF94_PARTIAL_CHARGES>
28
1 -0.53
10 0.08
11 -0.15
12 -0.15
13 -0.15
14 -0.15
15 -0.15
16 -0.15
17 0.08
18 0.08
19 0.15
2 -0.53
20 0.15
21 0.15
22 0.15
23 0.15
24 0.15
25 0.45
26 0.45
27 0.45
28 0.45
3 -0.57
4 -0.53
5 -0.53
6 0.09
7 0.09
8 0.4
9 0.08

> <PUBCHEM_EFFECTIVE_ROTOR_COUNT>
2

> <PUBCHEM_PHARMACOPHORE_FEATURES>
7
1 1 donor
1 2 donor
1 3 acceptor
1 4 donor
1 5 donor
6 6 9 11 13 15 17 rings
6 7 10 12 14 16 18 rings

> <PUBCHEM_HEAVY_ATOM_COUNT>
18

> <PUBCHEM_ATOM_DEF_STEREO_COUNT>
0

> <PUBCHEM_ATOM_UDEF_STEREO_COUNT>
0

> <PUBCHEM_BOND_DEF_STEREO_COUNT>
0

> <PUBCHEM_BOND_UDEF_STEREO_COUNT>
0

> <PUBCHEM_ISOTOPIC_ATOM_COUNT>
0

> <PUBCHEM_COMPONENT_COUNT>
1

> <PUBCHEM_CACTVS_TAUTO_COUNT>
72

> <PUBCHEM_CONFORMER_ID>
0000217B00000003

> <PUBCHEM_MMFF94_ENERGY>
59.7646

> <PUBCHEM_FEATURE_SELFOVERLAP>
35.523

> <PUBCHEM_SHAPE_FINGERPRINT>
11471102 20 18409169892103070408
11543360 7 16558473084182650672
11578080 2 11531614863815746903
12236239 1 18131065996288699443
12730499 353 18260275135465842107
13764800 53 16298659508524951853
14115302 16 17274813641062312855
14993402 34 17846215540487606185
15309172 13 17603583049510828995
15342168 16 17968104165179409005
15775835 57 18412826888988243309
16752209 62 16702019734536568467
16945 1 18338804403115108058
1813 80 17908702826610089778
18186145 218 18334579027342918966
19784866 34 18334295413878624880
19862831 5 17703791439638752137
19868273 293 17846494850753190559
20612939 158 18410015399459763708
20645476 183 18131345336920073351
20645477 70 18339644438557177238
20871999 31 17703499013054573895
21486144 27 18040157318289672158
22079108 93 18187935001610251691
22854114 59 17458065950124340569
231179 274 17822006519258234448
23402539 116 18409442626948148612
23402655 69 18343585139818180612
23559900 14 18270131244514800908
23598291 2 17916313731579383754
25 1 18335137605093349618
2748010 2 18049736405846724776
2838139 119 17898835865392311757
3082319 5 17846778520178562597
350125 39 17829344823007393920
4028521 119 18341894112446576825
474 4 18335984259027423912
5374978 207 12973890299285696421
633830 44 18335985259854816367
74978 22 17775280611934871745
76465 3 11743574149888780620
77492 1 18131067091542367739
81228 2 16880770831219455195
8272917 22 18265617572439684195
9981440 41 17624393673978878472

> <PUBCHEM_SHAPE_MULTIPOLES>
341.08
8.1
1.9
1.16
0.73
0.35
-0.07
-4.23
-1.78
-1.35
0.05
0.84
0.24
-0.62

> <PUBCHEM_SHAPE_SELFOVERLAP>
750.848

> <PUBCHEM_SHAPE_VOLUME>
184

> <PUBCHEM_COORDINATE_TYPE>
2
5
10

> <Energy>
46.2868

> <minimizedAffinity>
-7.99436

> <CNNscore>
0.7358416915

> <CNNaffinity>
5.8420166969

> <CNN_VS>
4.2987995148

> <CNNaffinity_variance>
0.2755439281

$$$$
8571


 22 23  0  0  0  0  0  0  0  0999 V2000
   10.6927   48.1802  130.9660 O   0  0  0  0  0  0  0  0  0  0  0  0
    9.6401   47.5520  131.0401 C   0  0  0  0  0  0  0  0  0  0  0  0
   11.0129   45.2809  129.9299 O   0  0  0  0  0  0  0  0  0  0  0  0
    9.5571   42.4632  133.4668 O   0  0  0  0  0  0  0  0  0  0  0  0
    9.6157   46.2189  131.6925 C   0  0  0  0  0  0  0  0  0  0  0  0
   10.3051   45.1506  131.0962 C   0  0  0  0  0  0  0  0  0  0  0  0
    8.9102   45.9979  132.8832 C   0  0  0  0  0  0  0  0  0  0  0  0
   10.3067   43.8861  131.6819 C   0  0  0  0  0  0  0  0  0  0  0  0
    8.8976   44.7263  133.4619 C   0  0  0  0  0  0  0  0  0  0  0  0
    9.5973   43.6845  132.8615 C   0  0  0  0  0  0  0  0  0  0  0  0
   11.0466   46.1088  129.4924 H   0  0  0  0  0  0  0  0  0  0  0  0
   10.0165   41.7384  133.0906 H   0  0  0  0  0  0  0  0  0  0  0  0
    7.9284   46.1724  129.3041 O   0  0  0  0  0  0  0  0  0  0  0  0
    4.9056   49.8942  129.1669 O   0  0  0  0  0  0  0  0  0  0  0  0
    8.3978   48.1631  130.5382 C   0  0  0  0  0  0  0  0  0  0  0  0
    7.5651   47.4333  129.6849 C   0  0  0  0  0  0  0  0  0  0  0  0
    8.0521   49.4563  130.9389 C   0  0  0  0  0  0  0  0  0  0  0  0
    6.3779   47.9944  129.2176 C   0  0  0  0  0  0  0  0  0  0  0  0
    6.8745   50.0261  130.4550 C   0  0  0  0  0  0  0  0  0  0  0  0
    6.0483   49.2923  129.6051 C   0  0  0  0  0  0  0  0  0  0  0  0
    8.7275   45.7994  129.6209 H   0  0  0  0  0  0  0  0  0  0  0  0
    4.3239   49.4342  128.5943 H   0  0  0  0  0  0  0  0  0  0  0  0
  3  6  1  0
  3 11  1  0
 13 16  1  0
 13 21  1  0
  1  2  2  0
  4 10  1  0
  4 12  1  0
 14 20  1  0
 14 22  1  0
  5  2  1  0
  5  6  2  0
  5  7  1  0
 15  2  1  0
 15 16  2  0
 15 17  1  0
  6  8  1  0
 16 18  1  0
  7  9  2  0
 17 19  2  0
  8 10  2  0
 18 20  2  0
  9 10  1  0
 19 20  1  0
M  END
> <PUBCHEM_COMPOUND_CID>
8571

> <PUBCHEM_CONFORMER_RMSD>
0.6

> <PUBCHEM_CONFORMER_DIVERSEORDER>
3
14
8
5
6
10
13
11
12
7
2
4
9
1

> <PUBCHEM_MMFF94_PARTIAL_CHARGES>
28
1 -0.53
10 0.08
11 -0.15
12 -0.15
13 -0.15
14 -0.15
15 -0.15
16 -0.15
17 0.08
18 0.08
19 0.15
2 -0.53
20 0.15
21 0.15
22 0.15
23 0.15
24 0.15
25 0.45
26 0.45
27 0.45
28 0.45
3 -0.57
4 -0.53
5 -0.53
6 0.09
7 0.09
8 0.4
9 0.08

> <PUBCHEM_EFFECTIVE_ROTOR_COUNT>
2

> <PUBCHEM_PHARMACOPHORE_FEATURES>
7
1 1 donor
1 2 donor
1 3 acceptor
1 4 donor
1 5 donor
6 6 9 11 13 15 17 rings
6 7 10 12 14 16 18 rings

> <PUBCHEM_HEAVY_ATOM_COUNT>
18

> <PUBCHEM_ATOM_DEF_STEREO_COUNT>
0

> <PUBCHEM_ATOM_UDEF_STEREO_COUNT>
0

> <PUBCHEM_BOND_DEF_STEREO_COUNT>
0

> <PUBCHEM_BOND_UDEF_STEREO_COUNT>
0

> <PUBCHEM_ISOTOPIC_ATOM_COUNT>
0

> <PUBCHEM_COMPONENT_COUNT>
1

> <PUBCHEM_CACTVS_TAUTO_COUNT>
72

> <PUBCHEM_CONFORMER_ID>
0000217B00000003

> <PUBCHEM_MMFF94_ENERGY>
59.7646

> <PUBCHEM_FEATURE_SELFOVERLAP>
35.523

> <PUBCHEM_SHAPE_FINGERPRINT>
11471102 20 18409169892103070408
11543360 7 16558473084182650672
11578080 2 11531614863815746903
12236239 1 18131065996288699443
12730499 353 18260275135465842107
13764800 53 16298659508524951853
14115302 16 17274813641062312855
14993402 34 17846215540487606185
15309172 13 17603583049510828995
15342168 16 17968104165179409005
15775835 57 18412826888988243309
16752209 62 16702019734536568467
16945 1 18338804403115108058
1813 80 17908702826610089778
18186145 218 18334579027342918966
19784866 34 18334295413878624880
19862831 5 17703791439638752137
19868273 293 17846494850753190559
20612939 158 18410015399459763708
20645476 183 18131345336920073351
20645477 70 18339644438557177238
20871999 31 17703499013054573895
21486144 27 18040157318289672158
22079108 93 18187935001610251691
22854114 59 17458065950124340569
231179 274 17822006519258234448
23402539 116 18409442626948148612
23402655 69 18343585139818180612
23559900 14 18270131244514800908
23598291 2 17916313731579383754
25 1 18335137605093349618
2748010 2 18049736405846724776
2838139 119 17898835865392311757
3082319 5 17846778520178562597
350125 39 17829344823007393920
4028521 119 18341894112446576825
474 4 18335984259027423912
5374978 207 12973890299285696421
633830 44 18335985259854816367
74978 22 17775280611934871745
76465 3 11743574149888780620
77492 1 18131067091542367739
81228 2 16880770831219455195
8272917 22 18265617572439684195
9981440 41 17624393673978878472

> <PUBCHEM_SHAPE_MULTIPOLES>
341.08
8.1
1.9
1.16
0.73
0.35
-0.07
-4.23
-1.78
-1.35
0.05
0.84
0.24
-0.62

> <PUBCHEM_SHAPE_SELFOVERLAP>
750.848

> <PUBCHEM_SHAPE_VOLUME>
184

> <PUBCHEM_COORDINATE_TYPE>
2
5
10

> <Energy>
46.2868

> <minimizedAffinity>
-7.13268

> <CNNscore>
0.7351915836

> <CNNaffinity>
6.5452785492

> <CNN_VS>
4.8120336533

> <CNNaffinity_variance>
1.5237306356

$$$$
8571


 22 23  0  0  0  0  0  0  0  0999 V2000
   10.1222   46.9055  131.9933 O   0  0  0  0  0  0  0  0  0  0  0  0
    9.6270   46.9031  130.8695 C   0  0  0  0  0  0  0  0  0  0  0  0
    8.0828   44.5231  131.3451 O   0  0  0  0  0  0  0  0  0  0  0  0
   10.0624   42.2998  127.6429 O   0  0  0  0  0  0  0  0  0  0  0  0
    9.7463   45.7000  130.0084 C   0  0  0  0  0  0  0  0  0  0  0  0
    8.9651   44.5693  130.2975 C   0  0  0  0  0  0  0  0  0  0  0  0
   10.6297   45.6609  128.9211 C   0  0  0  0  0  0  0  0  0  0  0  0
    9.0487   43.4232  129.5091 C   0  0  0  0  0  0  0  0  0  0  0  0
   10.7260   44.5062  128.1404 C   0  0  0  0  0  0  0  0  0  0  0  0
    9.9342   43.4013  128.4365 C   0  0  0  0  0  0  0  0  0  0  0  0
    7.9852   45.2655  131.9085 H   0  0  0  0  0  0  0  0  0  0  0  0
    9.5451   41.5372  127.8127 H   0  0  0  0  0  0  0  0  0  0  0  0
    9.7941   49.3637  132.1976 O   0  0  0  0  0  0  0  0  0  0  0  0
    6.7142   51.3545  129.1059 O   0  0  0  0  0  0  0  0  0  0  0  0
    8.8596   48.0754  130.4163 C   0  0  0  0  0  0  0  0  0  0  0  0
    8.9839   49.2883  131.1000 C   0  0  0  0  0  0  0  0  0  0  0  0
    8.0340   47.9700  129.2940 C   0  0  0  0  0  0  0  0  0  0  0  0
    8.2765   50.4095  130.6698 C   0  0  0  0  0  0  0  0  0  0  0  0
    7.3097   49.0861  128.8754 C   0  0  0  0  0  0  0  0  0  0  0  0
    7.4392   50.2929  129.5613 C   0  0  0  0  0  0  0  0  0  0  0  0
   10.2678   48.6073  132.4830 H   0  0  0  0  0  0  0  0  0  0  0  0
    6.7736   52.1829  129.5396 H   0  0  0  0  0  0  0  0  0  0  0  0
  3  6  1  0
  3 11  1  0
 13 16  1  0
 13 21  1  0
  1  2  2  0
  4 10  1  0
  4 12  1  0
 14 20  1  0
 14 22  1  0
  5  2  1  0
  5  6  2  0
  5  7  1  0
 15  2  1  0
 15 16  2  0
 15 17  1  0
  6  8  1  0
 16 18  1  0
  7  9  2  0
 17 19  2  0
  8 10  2  0
 18 20  2  0
  9 10  1  0
 19 20  1  0
M  END
> <PUBCHEM_COMPOUND_CID>
8571

> <PUBCHEM_CONFORMER_RMSD>
0.6

> <PUBCHEM_CONFORMER_DIVERSEORDER>
3
14
8
5
6
10
13
11
12
7
2
4
9
1

> <PUBCHEM_MMFF94_PARTIAL_CHARGES>
28
1 -0.53
10 0.08
11 -0.15
12 -0.15
13 -0.15
14 -0.15
15 -0.15
16 -0.15
17 0.08
18 0.08
19 0.15
2 -0.53
20 0.15
21 0.15
22 0.15
23 0.15
24 0.15
25 0.45
26 0.45
27 0.45
28 0.45
3 -0.57
4 -0.53
5 -0.53
6 0.09
7 0.09
8 0.4
9 0.08

> <PUBCHEM_EFFECTIVE_ROTOR_COUNT>
2

> <PUBCHEM_PHARMACOPHORE_FEATURES>
7
1 1 donor
1 2 donor
1 3 acceptor
1 4 donor
1 5 donor
6 6 9 11 13 15 17 rings
6 7 10 12 14 16 18 rings

> <PUBCHEM_HEAVY_ATOM_COUNT>
18

> <PUBCHEM_ATOM_DEF_STEREO_COUNT>
0

> <PUBCHEM_ATOM_UDEF_STEREO_COUNT>
0

> <PUBCHEM_BOND_DEF_STEREO_COUNT>
0

> <PUBCHEM_BOND_UDEF_STEREO_COUNT>
0

> <PUBCHEM_ISOTOPIC_ATOM_COUNT>
0

> <PUBCHEM_COMPONENT_COUNT>
1

> <PUBCHEM_CACTVS_TAUTO_COUNT>
72

> <PUBCHEM_CONFORMER_ID>
0000217B00000003

> <PUBCHEM_MMFF94_ENERGY>
59.7646

> <PUBCHEM_FEATURE_SELFOVERLAP>
35.523

> <PUBCHEM_SHAPE_FINGERPRINT>
11471102 20 18409169892103070408
11543360 7 16558473084182650672
11578080 2 11531614863815746903
12236239 1 18131065996288699443
12730499 353 18260275135465842107
13764800 53 16298659508524951853
14115302 16 17274813641062312855
14993402 34 17846215540487606185
15309172 13 17603583049510828995
15342168 16 17968104165179409005
15775835 57 18412826888988243309
16752209 62 16702019734536568467
16945 1 18338804403115108058
1813 80 17908702826610089778
18186145 218 18334579027342918966
19784866 34 18334295413878624880
19862831 5 17703791439638752137
19868273 293 17846494850753190559
20612939 158 18410015399459763708
20645476 183 18131345336920073351
20645477 70 18339644438557177238
20871999 31 17703499013054573895
21486144 27 18040157318289672158
22079108 93 18187935001610251691
22854114 59 17458065950124340569
231179 274 17822006519258234448
23402539 116 18409442626948148612
23402655 69 18343585139818180612
23559900 14 18270131244514800908
23598291 2 17916313731579383754
25 1 18335137605093349618
2748010 2 18049736405846724776
2838139 119 17898835865392311757
3082319 5 17846778520178562597
350125 39 17829344823007393920
4028521 119 18341894112446576825
474 4 18335984259027423912
5374978 207 12973890299285696421
633830 44 18335985259854816367
74978 22 17775280611934871745
76465 3 11743574149888780620
77492 1 18131067091542367739
81228 2 16880770831219455195
8272917 22 18265617572439684195
9981440 41 17624393673978878472

> <PUBCHEM_SHAPE_MULTIPOLES>
341.08
8.1
1.9
1.16
0.73
0.35
-0.07
-4.23
-1.78
-1.35
0.05
0.84
0.24
-0.62

> <PUBCHEM_SHAPE_SELFOVERLAP>
750.848

> <PUBCHEM_SHAPE_VOLUME>
184

> <PUBCHEM_COORDINATE_TYPE>
2
5
10

> <Energy>
46.2868

> <minimizedAffinity>
-8.25826

> <CNNscore>
0.6798726320

> <CNNaffinity>
6.1774859428

> <CNN_VS>
4.1999034882

> <CNNaffinity_variance>
0.4429136515

$$$$
8571


 22 23  0  0  0  0  0  0  0  0999 V2000
   10.5984   47.9571  133.4721 O   0  0  0  0  0  0  0  0  0  0  0  0
   10.2221   47.3105  132.4982 C   0  0  0  0  0  0  0  0  0  0  0  0
    8.2176   45.3070  132.9911 O   0  0  0  0  0  0  0  0  0  0  0  0
   11.3076   41.7854  132.2044 O   0  0  0  0  0  0  0  0  0  0  0  0
   10.5194   45.8589  132.4112 C   0  0  0  0  0  0  0  0  0  0  0  0
    9.4953   44.9324  132.6668 C   0  0  0  0  0  0  0  0  0  0  0  0
   11.8013   45.3905  132.0924 C   0  0  0  0  0  0  0  0  0  0  0  0
    9.7372   43.5621  132.5914 C   0  0  0  0  0  0  0  0  0  0  0  0
   12.0483   44.0167  132.0331 C   0  0  0  0  0  0  0  0  0  0  0  0
   11.0169   43.1157  132.2778 C   0  0  0  0  0  0  0  0  0  0  0  0
    7.9980   46.2156  133.0559 H   0  0  0  0  0  0  0  0  0  0  0  0
   10.6376   41.1499  132.3632 H   0  0  0  0  0  0  0  0  0  0  0  0
   10.0625   46.2850  129.8964 O   0  0  0  0  0  0  0  0  0  0  0  0
    7.1346   49.8440  128.5664 O   0  0  0  0  0  0  0  0  0  0  0  0
    9.4185   47.9742  131.4578 C   0  0  0  0  0  0  0  0  0  0  0  0
    9.3551   47.4200  130.1761 C   0  0  0  0  0  0  0  0  0  0  0  0
    8.7087   49.1369  131.7687 C   0  0  0  0  0  0  0  0  0  0  0  0
    8.5836   48.0291  129.1880 C   0  0  0  0  0  0  0  0  0  0  0  0
    7.9530   49.7585  130.7746 C   0  0  0  0  0  0  0  0  0  0  0  0
    7.8935   49.1999  129.4987 C   0  0  0  0  0  0  0  0  0  0  0  0
   10.5798   45.8791  130.5640 H   0  0  0  0  0  0  0  0  0  0  0  0
    7.0690   49.5004  127.6973 H   0  0  0  0  0  0  0  0  0  0  0  0
  3  6  1  0
  3 11  1  0
 13 16  1  0
 13 21  1  0
  1  2  2  0
  4 10  1  0
  4 12  1  0
 14 20  1  0
 14 22  1  0
  5  2  1  0
  5  6  2  0
  5  7  1  0
 15  2  1  0
 15 16  2  0
 15 17  1  0
  6  8  1  0
 16 18  1  0
  7  9  2  0
 17 19  2  0
  8 10  2  0
 18 20  2  0
  9 10  1  0
 19 20  1  0
M  END
> <PUBCHEM_COMPOUND_CID>
8571

> <PUBCHEM_CONFORMER_RMSD>
0.6

> <PUBCHEM_CONFORMER_DIVERSEORDER>
3
14
8
5
6
10
13
11
12
7
2
4
9
1

> <PUBCHEM_MMFF94_PARTIAL_CHARGES>
28
1 -0.53
10 0.08
11 -0.15
12 -0.15
13 -0.15
14 -0.15
15 -0.15
16 -0.15
17 0.08
18 0.08
19 0.15
2 -0.53
20 0.15
21 0.15
22 0.15
23 0.15
24 0.15
25 0.45
26 0.45
27 0.45
28 0.45
3 -0.57
4 -0.53
5 -0.53
6 0.09
7 0.09
8 0.4
9 0.08

> <PUBCHEM_EFFECTIVE_ROTOR_COUNT>
2

> <PUBCHEM_PHARMACOPHORE_FEATURES>
7
1 1 donor
1 2 donor
1 3 acceptor
1 4 donor
1 5 donor
6 6 9 11 13 15 17 rings
6 7 10 12 14 16 18 rings

> <PUBCHEM_HEAVY_ATOM_COUNT>
18

> <PUBCHEM_ATOM_DEF_STEREO_COUNT>
0

> <PUBCHEM_ATOM_UDEF_STEREO_COUNT>
0

> <PUBCHEM_BOND_DEF_STEREO_COUNT>
0

> <PUBCHEM_BOND_UDEF_STEREO_COUNT>
0

> <PUBCHEM_ISOTOPIC_ATOM_COUNT>
0

> <PUBCHEM_COMPONENT_COUNT>
1

> <PUBCHEM_CACTVS_TAUTO_COUNT>
72

> <PUBCHEM_CONFORMER_ID>
0000217B00000003

> <PUBCHEM_MMFF94_ENERGY>
59.7646

> <PUBCHEM_FEATURE_SELFOVERLAP>
35.523

> <PUBCHEM_SHAPE_FINGERPRINT>
11471102 20 18409169892103070408
11543360 7 16558473084182650672
11578080 2 11531614863815746903
12236239 1 18131065996288699443
12730499 353 18260275135465842107
13764800 53 16298659508524951853
14115302 16 17274813641062312855
14993402 34 17846215540487606185
15309172 13 17603583049510828995
15342168 16 17968104165179409005
15775835 57 18412826888988243309
16752209 62 16702019734536568467
16945 1 18338804403115108058
1813 80 17908702826610089778
18186145 218 18334579027342918966
19784866 34 18334295413878624880
19862831 5 17703791439638752137
19868273 293 17846494850753190559
20612939 158 18410015399459763708
20645476 183 18131345336920073351
20645477 70 18339644438557177238
20871999 31 17703499013054573895
21486144 27 18040157318289672158
22079108 93 18187935001610251691
22854114 59 17458065950124340569
231179 274 17822006519258234448
23402539 116 18409442626948148612
23402655 69 18343585139818180612
23559900 14 18270131244514800908
23598291 2 17916313731579383754
25 1 18335137605093349618
2748010 2 18049736405846724776
2838139 119 17898835865392311757
3082319 5 17846778520178562597
350125 39 17829344823007393920
4028521 119 18341894112446576825
474 4 18335984259027423912
5374978 207 12973890299285696421
633830 44 18335985259854816367
74978 22 17775280611934871745
76465 3 11743574149888780620
77492 1 18131067091542367739
81228 2 16880770831219455195
8272917 22 18265617572439684195
9981440 41 17624393673978878472

> <PUBCHEM_SHAPE_MULTIPOLES>
341.08
8.1
1.9
1.16
0.73
0.35
-0.07
-4.23
-1.78
-1.35
0.05
0.84
0.24
-0.62

> <PUBCHEM_SHAPE_SELFOVERLAP>
750.848

> <PUBCHEM_SHAPE_VOLUME>
184

> <PUBCHEM_COORDINATE_TYPE>
2
5
10

> <Energy>
46.2868

> <minimizedAffinity>
-7.87141

> <CNNscore>
0.6676086187

> <CNNaffinity>
6.2680153847

> <CNN_VS>
4.1845812798

> <CNNaffinity_variance>
0.9659006000

$$$$
8571


 22 23  0  0  0  0  0  0  0  0999 V2000
   10.2308   46.9253  131.9389 O   0  0  0  0  0  0  0  0  0  0  0  0
    9.6333   46.8780  130.8670 C   0  0  0  0  0  0  0  0  0  0  0  0
    9.7350   49.4150  132.2191 O   0  0  0  0  0  0  0  0  0  0  0  0
    6.7142   51.3745  129.1202 O   0  0  0  0  0  0  0  0  0  0  0  0
    8.8648   48.0560  130.3929 C   0  0  0  0  0  0  0  0  0  0  0  0
    8.9567   49.2653  131.1011 C   0  0  0  0  0  0  0  0  0  0  0  0
    8.0394   47.9868  129.2623 C   0  0  0  0  0  0  0  0  0  0  0  0
    8.2518   50.3925  130.6835 C   0  0  0  0  0  0  0  0  0  0  0  0
    7.3195   49.1121  128.8530 C   0  0  0  0  0  0  0  0  0  0  0  0
    7.4342   50.3038  129.5616 C   0  0  0  0  0  0  0  0  0  0  0  0
   10.2311   48.6899  132.5451 H   0  0  0  0  0  0  0  0  0  0  0  0
    6.7668   52.1932  129.5728 H   0  0  0  0  0  0  0  0  0  0  0  0
    8.1150   44.5851  131.4002 O   0  0  0  0  0  0  0  0  0  0  0  0
   10.0582   42.3058  127.6537 O   0  0  0  0  0  0  0  0  0  0  0  0
    9.7443   45.6704  130.0314 C   0  0  0  0  0  0  0  0  0  0  0  0
    8.9571   44.5532  130.3247 C   0  0  0  0  0  0  0  0  0  0  0  0
   10.6171   45.6621  128.9403 C   0  0  0  0  0  0  0  0  0  0  0  0
    9.0402   43.4108  129.5304 C   0  0  0  0  0  0  0  0  0  0  0  0
   10.7161   44.5119  128.1575 C   0  0  0  0  0  0  0  0  0  0  0  0
    9.9274   43.4016  128.4551 C   0  0  0  0  0  0  0  0  0  0  0  0
    8.0625   45.3554  131.9313 H   0  0  0  0  0  0  0  0  0  0  0  0
    9.5457   41.5395  127.8206 H   0  0  0  0  0  0  0  0  0  0  0  0
  3  6  1  0
  3 11  1  0
 13 16  1  0
 13 21  1  0
  1  2  2  0
  4 10  1  0
  4 12  1  0
 14 20  1  0
 14 22  1  0
  5  2  1  0
  5  6  2  0
  5  7  1  0
 15  2  1  0
 15 16  2  0
 15 17  1  0
  6  8  1  0
 16 18  1  0
  7  9  2  0
 17 19  2  0
  8 10  2  0
 18 20  2  0
  9 10  1  0
 19 20  1  0
M  END
> <PUBCHEM_COMPOUND_CID>
8571

> <PUBCHEM_CONFORMER_RMSD>
0.6

> <PUBCHEM_CONFORMER_DIVERSEORDER>
3
14
8
5
6
10
13
11
12
7
2
4
9
1

> <PUBCHEM_MMFF94_PARTIAL_CHARGES>
28
1 -0.53
10 0.08
11 -0.15
12 -0.15
13 -0.15
14 -0.15
15 -0.15
16 -0.15
17 0.08
18 0.08
19 0.15
2 -0.53
20 0.15
21 0.15
22 0.15
23 0.15
24 0.15
25 0.45
26 0.45
27 0.45
28 0.45
3 -0.57
4 -0.53
5 -0.53
6 0.09
7 0.09
8 0.4
9 0.08

> <PUBCHEM_EFFECTIVE_ROTOR_COUNT>
2

> <PUBCHEM_PHARMACOPHORE_FEATURES>
7
1 1 donor
1 2 donor
1 3 acceptor
1 4 donor
1 5 donor
6 6 9 11 13 15 17 rings
6 7 10 12 14 16 18 rings

> <PUBCHEM_HEAVY_ATOM_COUNT>
18

> <PUBCHEM_ATOM_DEF_STEREO_COUNT>
0

> <PUBCHEM_ATOM_UDEF_STEREO_COUNT>
0

> <PUBCHEM_BOND_DEF_STEREO_COUNT>
0

> <PUBCHEM_BOND_UDEF_STEREO_COUNT>
0

> <PUBCHEM_ISOTOPIC_ATOM_COUNT>
0

> <PUBCHEM_COMPONENT_COUNT>
1

> <PUBCHEM_CACTVS_TAUTO_COUNT>
72

> <PUBCHEM_CONFORMER_ID>
0000217B00000003

> <PUBCHEM_MMFF94_ENERGY>
59.7646

> <PUBCHEM_FEATURE_SELFOVERLAP>
35.523

> <PUBCHEM_SHAPE_FINGERPRINT>
11471102 20 18409169892103070408
11543360 7 16558473084182650672
11578080 2 11531614863815746903
12236239 1 18131065996288699443
12730499 353 18260275135465842107
13764800 53 16298659508524951853
14115302 16 17274813641062312855
14993402 34 17846215540487606185
15309172 13 17603583049510828995
15342168 16 17968104165179409005
15775835 57 18412826888988243309
16752209 62 16702019734536568467
16945 1 18338804403115108058
1813 80 17908702826610089778
18186145 218 18334579027342918966
19784866 34 18334295413878624880
19862831 5 17703791439638752137
19868273 293 17846494850753190559
20612939 158 18410015399459763708
20645476 183 18131345336920073351
20645477 70 18339644438557177238
20871999 31 17703499013054573895
21486144 27 18040157318289672158
22079108 93 18187935001610251691
22854114 59 17458065950124340569
231179 274 17822006519258234448
23402539 116 18409442626948148612
23402655 69 18343585139818180612
23559900 14 18270131244514800908
23598291 2 17916313731579383754
25 1 18335137605093349618
2748010 2 18049736405846724776
2838139 119 17898835865392311757
3082319 5 17846778520178562597
350125 39 17829344823007393920
4028521 119 18341894112446576825
474 4 18335984259027423912
5374978 207 12973890299285696421
633830 44 18335985259854816367
74978 22 17775280611934871745
76465 3 11743574149888780620
77492 1 18131067091542367739
81228 2 16880770831219455195
8272917 22 18265617572439684195
9981440 41 17624393673978878472

> <PUBCHEM_SHAPE_MULTIPOLES>
341.08
8.1
1.9
1.16
0.73
0.35
-0.07
-4.23
-1.78
-1.35
0.05
0.84
0.24
-0.62

> <PUBCHEM_SHAPE_SELFOVERLAP>
750.848

> <PUBCHEM_SHAPE_VOLUME>
184

> <PUBCHEM_COORDINATE_TYPE>
2
5
10

> <Energy>
46.2868

> <minimizedAffinity>
-8.31005

> <CNNscore>
0.6665964127

> <CNNaffinity>
6.1808719635

> <CNN_VS>
4.1201472282

> <CNNaffinity_variance>
0.4455529749

$$$$
8571


 22 23  0  0  0  0  0  0  0  0999 V2000
    8.0106   45.8165  132.3161 O   0  0  0  0  0  0  0  0  0  0  0  0
    8.7219   46.3442  131.4653 C   0  0  0  0  0  0  0  0  0  0  0  0
    6.7132   46.3703  129.4062 O   0  0  0  0  0  0  0  0  0  0  0  0
    7.0416   51.0840  128.9155 O   0  0  0  0  0  0  0  0  0  0  0  0
    8.2837   47.6000  130.8064 C   0  0  0  0  0  0  0  0  0  0  0  0
    7.3000   47.5425  129.8057 C   0  0  0  0  0  0  0  0  0  0  0  0
    8.8376   48.8406  131.1503 C   0  0  0  0  0  0  0  0  0  0  0  0
    6.8622   48.7014  129.1676 C   0  0  0  0  0  0  0  0  0  0  0  0
    8.4108   50.0007  130.4992 C   0  0  0  0  0  0  0  0  0  0  0  0
    7.4264   49.9234  129.5192 C   0  0  0  0  0  0  0  0  0  0  0  0
    6.9690   45.5600  129.8013 H   0  0  0  0  0  0  0  0  0  0  0  0
    6.3812   51.0699  128.2510 H   0  0  0  0  0  0  0  0  0  0  0  0
   10.7981   46.3418  133.3457 O   0  0  0  0  0  0  0  0  0  0  0  0
   13.7081   44.0777  130.2776 O   0  0  0  0  0  0  0  0  0  0  0  0
   10.0369   45.7567  131.1584 C   0  0  0  0  0  0  0  0  0  0  0  0
   11.0404   45.7641  132.1315 C   0  0  0  0  0  0  0  0  0  0  0  0
   10.2604   45.1768  129.9070 C   0  0  0  0  0  0  0  0  0  0  0  0
   12.2833   45.1951  131.8590 C   0  0  0  0  0  0  0  0  0  0  0  0
   11.5107   44.6258  129.6263 C   0  0  0  0  0  0  0  0  0  0  0  0
   12.5067   44.6358  130.6017 C   0  0  0  0  0  0  0  0  0  0  0  0
    9.9609   46.7231  133.5243 H   0  0  0  0  0  0  0  0  0  0  0  0
   14.4032   44.0646  130.9057 H   0  0  0  0  0  0  0  0  0  0  0  0
  3  6  1  0
  3 11  1  0
 13 16  1  0
 13 21  1  0
  1  2  2  0
  4 10  1  0
  4 12  1  0
 14 20  1  0
 14 22  1  0
  5  2  1  0
  5  6  2  0
  5  7  1  0
 15  2  1  0
 15 16  2  0
 15 17  1  0
  6  8  1  0
 16 18  1  0
  7  9  2  0
 17 19  2  0
  8 10  2  0
 18 20  2  0
  9 10  1  0
 19 20  1  0
M  END
> <PUBCHEM_COMPOUND_CID>
8571

> <PUBCHEM_CONFORMER_RMSD>
0.6

> <PUBCHEM_CONFORMER_DIVERSEORDER>
3
14
8
5
6
10
13
11
12
7
2
4
9
1

> <PUBCHEM_MMFF94_PARTIAL_CHARGES>
28
1 -0.53
10 0.08
11 -0.15
12 -0.15
13 -0.15
14 -0.15
15 -0.15
16 -0.15
17 0.08
18 0.08
19 0.15
2 -0.53
20 0.15
21 0.15
22 0.15
23 0.15
24 0.15
25 0.45
26 0.45
27 0.45
28 0.45
3 -0.57
4 -0.53
5 -0.53
6 0.09
7 0.09
8 0.4
9 0.08

> <PUBCHEM_EFFECTIVE_ROTOR_COUNT>
2

> <PUBCHEM_PHARMACOPHORE_FEATURES>
7
1 1 donor
1 2 donor
1 3 acceptor
1 4 donor
1 5 donor
6 6 9 11 13 15 17 rings
6 7 10 12 14 16 18 rings

> <PUBCHEM_HEAVY_ATOM_COUNT>
18

> <PUBCHEM_ATOM_DEF_STEREO_COUNT>
0

> <PUBCHEM_ATOM_UDEF_STEREO_COUNT>
0

> <PUBCHEM_BOND_DEF_STEREO_COUNT>
0

> <PUBCHEM_BOND_UDEF_STEREO_COUNT>
0

> <PUBCHEM_ISOTOPIC_ATOM_COUNT>
0

> <PUBCHEM_COMPONENT_COUNT>
1

> <PUBCHEM_CACTVS_TAUTO_COUNT>
72

> <PUBCHEM_CONFORMER_ID>
0000217B00000003

> <PUBCHEM_MMFF94_ENERGY>
59.7646

> <PUBCHEM_FEATURE_SELFOVERLAP>
35.523

> <PUBCHEM_SHAPE_FINGERPRINT>
11471102 20 18409169892103070408
11543360 7 16558473084182650672
11578080 2 11531614863815746903
12236239 1 18131065996288699443
12730499 353 18260275135465842107
13764800 53 16298659508524951853
14115302 16 17274813641062312855
14993402 34 17846215540487606185
15309172 13 17603583049510828995
15342168 16 17968104165179409005
15775835 57 18412826888988243309
16752209 62 16702019734536568467
16945 1 18338804403115108058
1813 80 17908702826610089778
18186145 218 18334579027342918966
19784866 34 18334295413878624880
19862831 5 17703791439638752137
19868273 293 17846494850753190559
20612939 158 18410015399459763708
20645476 183 18131345336920073351
20645477 70 18339644438557177238
20871999 31 17703499013054573895
21486144 27 18040157318289672158
22079108 93 18187935001610251691
22854114 59 17458065950124340569
231179 274 17822006519258234448
23402539 116 18409442626948148612
23402655 69 18343585139818180612
23559900 14 18270131244514800908
23598291 2 17916313731579383754
25 1 18335137605093349618
2748010 2 18049736405846724776
2838139 119 17898835865392311757
3082319 5 17846778520178562597
350125 39 17829344823007393920
4028521 119 18341894112446576825
474 4 18335984259027423912
5374978 207 12973890299285696421
633830 44 18335985259854816367
74978 22 17775280611934871745
76465 3 11743574149888780620
77492 1 18131067091542367739
81228 2 16880770831219455195
8272917 22 18265617572439684195
9981440 41 17624393673978878472

> <PUBCHEM_SHAPE_MULTIPOLES>
341.08
8.1
1.9
1.16
0.73
0.35
-0.07
-4.23
-1.78
-1.35
0.05
0.84
0.24
-0.62

> <PUBCHEM_SHAPE_SELFOVERLAP>
750.848

> <PUBCHEM_SHAPE_VOLUME>
184

> <PUBCHEM_COORDINATE_TYPE>
2
5
10

> <Energy>
46.2868

> <minimizedAffinity>
-8.82372

> <CNNscore>
0.6651098132

> <CNNaffinity>
6.4913616180

> <CNN_VS>
4.3174681664

> <CNNaffinity_variance>
1.1811934710

$$$$
8571


 22 23  0  0  0  0  0  0  0  0999 V2000
    7.7393   45.6938  131.9356 O   0  0  0  0  0  0  0  0  0  0  0  0
    8.5525   46.3006  131.2438 C   0  0  0  0  0  0  0  0  0  0  0  0
   10.5719   46.1264  133.2850 O   0  0  0  0  0  0  0  0  0  0  0  0
   13.6552   44.0981  130.2938 O   0  0  0  0  0  0  0  0  0  0  0  0
    9.8899   45.7124  130.9823 C   0  0  0  0  0  0  0  0  0  0  0  0
   10.8317   45.6603  132.0228 C   0  0  0  0  0  0  0  0  0  0  0  0
   10.2399   45.2192  129.7179 C   0  0  0  0  0  0  0  0  0  0  0  0
   12.0960   45.1124  131.8146 C   0  0  0  0  0  0  0  0  0  0  0  0
   11.5131   44.6851  129.5044 C   0  0  0  0  0  0  0  0  0  0  0  0
   12.4270   44.6317  130.5518 C   0  0  0  0  0  0  0  0  0  0  0  0
    9.7377   46.5051  133.4820 H   0  0  0  0  0  0  0  0  0  0  0  0
   14.2960   44.0460  130.9754 H   0  0  0  0  0  0  0  0  0  0  0  0
    6.6901   46.4056  129.1540 O   0  0  0  0  0  0  0  0  0  0  0  0
    7.0674   51.1819  128.9247 O   0  0  0  0  0  0  0  0  0  0  0  0
    8.1623   47.5786  130.6247 C   0  0  0  0  0  0  0  0  0  0  0  0
    7.2181   47.5866  129.5939 C   0  0  0  0  0  0  0  0  0  0  0  0
    8.7213   48.7717  131.0898 C   0  0  0  0  0  0  0  0  0  0  0  0
    6.8275   48.7915  129.0123 C   0  0  0  0  0  0  0  0  0  0  0  0
    8.3464   49.9759  130.4942 C   0  0  0  0  0  0  0  0  0  0  0  0
    7.4035   49.9767  129.4673 C   0  0  0  0  0  0  0  0  0  0  0  0
    6.9557   45.5981  129.5481 H   0  0  0  0  0  0  0  0  0  0  0  0
    6.4375   51.2247  128.2325 H   0  0  0  0  0  0  0  0  0  0  0  0
  3  6  1  0
  3 11  1  0
 13 16  1  0
 13 21  1  0
  1  2  2  0
  4 10  1  0
  4 12  1  0
 14 20  1  0
 14 22  1  0
  5  2  1  0
  5  6  2  0
  5  7  1  0
 15  2  1  0
 15 16  2  0
 15 17  1  0
  6  8  1  0
 16 18  1  0
  7  9  2  0
 17 19  2  0
  8 10  2  0
 18 20  2  0
  9 10  1  0
 19 20  1  0
M  END
> <PUBCHEM_COMPOUND_CID>
8571

> <PUBCHEM_CONFORMER_RMSD>
0.6

> <PUBCHEM_CONFORMER_DIVERSEORDER>
3
14
8
5
6
10
13
11
12
7
2
4
9
1

> <PUBCHEM_MMFF94_PARTIAL_CHARGES>
28
1 -0.53
10 0.08
11 -0.15
12 -0.15
13 -0.15
14 -0.15
15 -0.15
16 -0.15
17 0.08
18 0.08
19 0.15
2 -0.53
20 0.15
21 0.15
22 0.15
23 0.15
24 0.15
25 0.45
26 0.45
27 0.45
28 0.45
3 -0.57
4 -0.53
5 -0.53
6 0.09
7 0.09
8 0.4
9 0.08

> <PUBCHEM_EFFECTIVE_ROTOR_COUNT>
2

> <PUBCHEM_PHARMACOPHORE_FEATURES>
7
1 1 donor
1 2 donor
1 3 acceptor
1 4 donor
1 5 donor
6 6 9 11 13 15 17 rings
6 7 10 12 14 16 18 rings

> <PUBCHEM_HEAVY_ATOM_COUNT>
18

> <PUBCHEM_ATOM_DEF_STEREO_COUNT>
0

> <PUBCHEM_ATOM_UDEF_STEREO_COUNT>
0

> <PUBCHEM_BOND_DEF_STEREO_COUNT>
0

> <PUBCHEM_BOND_UDEF_STEREO_COUNT>
0

> <PUBCHEM_ISOTOPIC_ATOM_COUNT>
0

> <PUBCHEM_COMPONENT_COUNT>
1

> <PUBCHEM_CACTVS_TAUTO_COUNT>
72

> <PUBCHEM_CONFORMER_ID>
0000217B00000003

> <PUBCHEM_MMFF94_ENERGY>
59.7646

> <PUBCHEM_FEATURE_SELFOVERLAP>
35.523

> <PUBCHEM_SHAPE_FINGERPRINT>
11471102 20 18409169892103070408
11543360 7 16558473084182650672
11578080 2 11531614863815746903
12236239 1 18131065996288699443
12730499 353 18260275135465842107
13764800 53 16298659508524951853
14115302 16 17274813641062312855
14993402 34 17846215540487606185
15309172 13 17603583049510828995
15342168 16 17968104165179409005
15775835 57 18412826888988243309
16752209 62 16702019734536568467
16945 1 18338804403115108058
1813 80 17908702826610089778
18186145 218 18334579027342918966
19784866 34 18334295413878624880
19862831 5 17703791439638752137
19868273 293 17846494850753190559
20612939 158 18410015399459763708
20645476 183 18131345336920073351
20645477 70 18339644438557177238
20871999 31 17703499013054573895
21486144 27 18040157318289672158
22079108 93 18187935001610251691
22854114 59 17458065950124340569
231179 274 17822006519258234448
23402539 116 18409442626948148612
23402655 69 18343585139818180612
23559900 14 18270131244514800908
23598291 2 17916313731579383754
25 1 18335137605093349618
2748010 2 18049736405846724776
2838139 119 17898835865392311757
3082319 5 17846778520178562597
350125 39 17829344823007393920
4028521 119 18341894112446576825
474 4 18335984259027423912
5374978 207 12973890299285696421
633830 44 18335985259854816367
74978 22 17775280611934871745
76465 3 11743574149888780620
77492 1 18131067091542367739
81228 2 16880770831219455195
8272917 22 18265617572439684195
9981440 41 17624393673978878472

> <PUBCHEM_SHAPE_MULTIPOLES>
341.08
8.1
1.9
1.16
0.73
0.35
-0.07
-4.23
-1.78
-1.35
0.05
0.84
0.24
-0.62

> <PUBCHEM_SHAPE_SELFOVERLAP>
750.848

> <PUBCHEM_SHAPE_VOLUME>
184

> <PUBCHEM_COORDINATE_TYPE>
2
5
10

> <Energy>
46.2868

> <minimizedAffinity>
-8.79223

> <CNNscore>
0.6585614681

> <CNNaffinity>
6.4890170097

> <CNN_VS>
4.2734165192

> <CNNaffinity_variance>
1.1578983068

$$$$
8571


 22 23  0  0  0  0  0  0  0  0999 V2000
    8.5147   44.6238  129.0992 O   0  0  0  0  0  0  0  0  0  0  0  0
    9.0333   45.3695  129.9256 C   0  0  0  0  0  0  0  0  0  0  0  0
    8.4164   44.6564  132.6433 O   0  0  0  0  0  0  0  0  0  0  0  0
   12.9137   43.3928  133.5070 O   0  0  0  0  0  0  0  0  0  0  0  0
   10.0631   44.8439  130.8566 C   0  0  0  0  0  0  0  0  0  0  0  0
    9.6958   44.5174  132.1722 C   0  0  0  0  0  0  0  0  0  0  0  0
   11.3963   44.6778  130.4576 C   0  0  0  0  0  0  0  0  0  0  0  0
   10.6351   44.0187  133.0727 C   0  0  0  0  0  0  0  0  0  0  0  0
   12.3418   44.1936  131.3651 C   0  0  0  0  0  0  0  0  0  0  0  0
   11.9546   43.8645  132.6601 C   0  0  0  0  0  0  0  0  0  0  0  0
    7.7436   44.9871  132.0812 H   0  0  0  0  0  0  0  0  0  0  0  0
   12.6892   43.1611  134.3867 H   0  0  0  0  0  0  0  0  0  0  0  0
   10.3062   47.1872  131.6351 O   0  0  0  0  0  0  0  0  0  0  0  0
    7.6592   50.8029  129.9240 O   0  0  0  0  0  0  0  0  0  0  0  0
    8.6732   46.7974  129.9359 C   0  0  0  0  0  0  0  0  0  0  0  0
    9.3441   47.6725  130.7950 C   0  0  0  0  0  0  0  0  0  0  0  0
    7.6819   47.2670  129.0704 C   0  0  0  0  0  0  0  0  0  0  0  0
    9.0245   49.0291  130.8010 C   0  0  0  0  0  0  0  0  0  0  0  0
    7.3470   48.6209  129.0907 C   0  0  0  0  0  0  0  0  0  0  0  0
    8.0208   49.4882  129.9493 C   0  0  0  0  0  0  0  0  0  0  0  0
   10.5177   46.2744  131.6275 H   0  0  0  0  0  0  0  0  0  0  0  0
    8.0882   51.4176  130.4861 H   0  0  0  0  0  0  0  0  0  0  0  0
  3  6  1  0
  3 11  1  0
 13 16  1  0
 13 21  1  0
  1  2  2  0
  4 10  1  0
  4 12  1  0
 14 20  1  0
 14 22  1  0
  5  2  1  0
  5  6  2  0
  5  7  1  0
 15  2  1  0
 15 16  2  0
 15 17  1  0
  6  8  1  0
 16 18  1  0
  7  9  2  0
 17 19  2  0
  8 10  2  0
 18 20  2  0
  9 10  1  0
 19 20  1  0
M  END
> <PUBCHEM_COMPOUND_CID>
8571

> <PUBCHEM_CONFORMER_RMSD>
0.6

> <PUBCHEM_CONFORMER_DIVERSEORDER>
3
14
8
5
6
10
13
11
12
7
2
4
9
1

> <PUBCHEM_MMFF94_PARTIAL_CHARGES>
28
1 -0.53
10 0.08
11 -0.15
12 -0.15
13 -0.15
14 -0.15
15 -0.15
16 -0.15
17 0.08
18 0.08
19 0.15
2 -0.53
20 0.15
21 0.15
22 0.15
23 0.15
24 0.15
25 0.45
26 0.45
27 0.45
28 0.45
3 -0.57
4 -0.53
5 -0.53
6 0.09
7 0.09
8 0.4
9 0.08

> <PUBCHEM_EFFECTIVE_ROTOR_COUNT>
2

> <PUBCHEM_PHARMACOPHORE_FEATURES>
7
1 1 donor
1 2 donor
1 3 acceptor
1 4 donor
1 5 donor
6 6 9 11 13 15 17 rings
6 7 10 12 14 16 18 rings

> <PUBCHEM_HEAVY_ATOM_COUNT>
18

> <PUBCHEM_ATOM_DEF_STEREO_COUNT>
0

> <PUBCHEM_ATOM_UDEF_STEREO_COUNT>
0

> <PUBCHEM_BOND_DEF_STEREO_COUNT>
0

> <PUBCHEM_BOND_UDEF_STEREO_COUNT>
0

> <PUBCHEM_ISOTOPIC_ATOM_COUNT>
0

> <PUBCHEM_COMPONENT_COUNT>
1

> <PUBCHEM_CACTVS_TAUTO_COUNT>
72

> <PUBCHEM_CONFORMER_ID>
0000217B00000003

> <PUBCHEM_MMFF94_ENERGY>
59.7646

> <PUBCHEM_FEATURE_SELFOVERLAP>
35.523

> <PUBCHEM_SHAPE_FINGERPRINT>
11471102 20 18409169892103070408
11543360 7 16558473084182650672
11578080 2 11531614863815746903
12236239 1 18131065996288699443
12730499 353 18260275135465842107
13764800 53 16298659508524951853
14115302 16 17274813641062312855
14993402 34 17846215540487606185
15309172 13 17603583049510828995
15342168 16 17968104165179409005
15775835 57 18412826888988243309
16752209 62 16702019734536568467
16945 1 18338804403115108058
1813 80 17908702826610089778
18186145 218 18334579027342918966
19784866 34 18334295413878624880
19862831 5 17703791439638752137
19868273 293 17846494850753190559
20612939 158 18410015399459763708
20645476 183 18131345336920073351
20645477 70 18339644438557177238
20871999 31 17703499013054573895
21486144 27 18040157318289672158
22079108 93 18187935001610251691
22854114 59 17458065950124340569
231179 274 17822006519258234448
23402539 116 18409442626948148612
23402655 69 18343585139818180612
23559900 14 18270131244514800908
23598291 2 17916313731579383754
25 1 18335137605093349618
2748010 2 18049736405846724776
2838139 119 17898835865392311757
3082319 5 17846778520178562597
350125 39 17829344823007393920
4028521 119 18341894112446576825
474 4 18335984259027423912
5374978 207 12973890299285696421
633830 44 18335985259854816367
74978 22 17775280611934871745
76465 3 11743574149888780620
77492 1 18131067091542367739
81228 2 16880770831219455195
8272917 22 18265617572439684195
9981440 41 17624393673978878472

> <PUBCHEM_SHAPE_MULTIPOLES>
341.08
8.1
1.9
1.16
0.73
0.35
-0.07
-4.23
-1.78
-1.35
0.05
0.84
0.24
-0.62

> <PUBCHEM_SHAPE_SELFOVERLAP>
750.848

> <PUBCHEM_SHAPE_VOLUME>
184

> <PUBCHEM_COORDINATE_TYPE>
2
5
10

> <Energy>
46.2868

> <minimizedAffinity>
-8.21305

> <CNNscore>
0.6478717327

> <CNNaffinity>
6.3464045525

> <CNN_VS>
4.1116561890

> <CNNaffinity_variance>
1.2379877567

$$$$
