8571


 22 23  0  0  0  0  0  0  0  0999 V2000
   -5.2245   -2.6315   22.5615 O   0  0  0  0  0  0  0  0  0  0  0  0
   -4.5844   -3.3952   21.8437 C   0  0  0  0  0  0  0  0  0  0  0  0
   -3.7234   -3.3486   19.0993 O   0  0  0  0  0  0  0  0  0  0  0  0
    0.7043   -2.1509   20.3360 O   0  0  0  0  0  0  0  0  0  0  0  0
   -3.1904   -3.0596   21.4597 C   0  0  0  0  0  0  0  0  0  0  0  0
   -2.8347   -3.0577   20.1011 C   0  0  0  0  0  0  0  0  0  0  0  0
   -2.2173   -2.7568   22.4218 C   0  0  0  0  0  0  0  0  0  0  0  0
   -1.5363   -2.7446   19.7035 C   0  0  0  0  0  0  0  0  0  0  0  0
   -0.9113   -2.4592   22.0246 C   0  0  0  0  0  0  0  0  0  0  0  0
   -0.5827   -2.4509   20.6729 C   0  0  0  0  0  0  0  0  0  0  0  0
   -4.6105   -3.5662   19.3086 H   0  0  0  0  0  0  0  0  0  0  0  0
    0.9615   -2.1359   19.4352 H   0  0  0  0  0  0  0  0  0  0  0  0
   -7.0819   -3.4876   20.5786 O   0  0  0  0  0  0  0  0  0  0  0  0
   -6.8491   -8.2672   20.2484 O   0  0  0  0  0  0  0  0  0  0  0  0
   -5.1891   -4.6719   21.4277 C   0  0  0  0  0  0  0  0  0  0  0  0
   -6.4311   -4.6709   20.7862 C   0  0  0  0  0  0  0  0  0  0  0  0
   -4.5049   -5.8684   21.6566 C   0  0  0  0  0  0  0  0  0  0  0  0
   -7.0054   -5.8714   20.3717 C   0  0  0  0  0  0  0  0  0  0  0  0
   -5.0885   -7.0719   21.2608 C   0  0  0  0  0  0  0  0  0  0  0  0
   -6.3270   -7.0636   20.6207 C   0  0  0  0  0  0  0  0  0  0  0  0
   -6.6919   -2.6830   20.8589 H   0  0  0  0  0  0  0  0  0  0  0  0
   -7.6793   -8.3039   19.8157 H   0  0  0  0  0  0  0  0  0  0  0  0
  3  6  1  0
  3 11  1  0
 13 16  1  0
 13 21  1  0
  1  2  2  0
  4 10  1  0
  4 12  1  0
 14 20  1  0
 14 22  1  0
  5  2  1  0
  5  6  2  0
  5  7  1  0
 15  2  1  0
 15 16  2  0
 15 17  1  0
  6  8  1  0
 16 18  1  0
  7  9  2  0
 17 19  2  0
  8 10  2  0
 18 20  2  0
  9 10  1  0
 19 20  1  0
M  END
> <PUBCHEM_COMPOUND_CID>
8571

> <PUBCHEM_CONFORMER_RMSD>
0.6

> <PUBCHEM_CONFORMER_DIVERSEORDER>
3
14
8
5
6
10
13
11
12
7
2
4
9
1

> <PUBCHEM_MMFF94_PARTIAL_CHARGES>
28
1 -0.53
10 0.08
11 -0.15
12 -0.15
13 -0.15
14 -0.15
15 -0.15
16 -0.15
17 0.08
18 0.08
19 0.15
2 -0.53
20 0.15
21 0.15
22 0.15
23 0.15
24 0.15
25 0.45
26 0.45
27 0.45
28 0.45
3 -0.57
4 -0.53
5 -0.53
6 0.09
7 0.09
8 0.4
9 0.08

> <PUBCHEM_EFFECTIVE_ROTOR_COUNT>
2

> <PUBCHEM_PHARMACOPHORE_FEATURES>
7
1 1 donor
1 2 donor
1 3 acceptor
1 4 donor
1 5 donor
6 6 9 11 13 15 17 rings
6 7 10 12 14 16 18 rings

> <PUBCHEM_HEAVY_ATOM_COUNT>
18

> <PUBCHEM_ATOM_DEF_STEREO_COUNT>
0

> <PUBCHEM_ATOM_UDEF_STEREO_COUNT>
0

> <PUBCHEM_BOND_DEF_STEREO_COUNT>
0

> <PUBCHEM_BOND_UDEF_STEREO_COUNT>
0

> <PUBCHEM_ISOTOPIC_ATOM_COUNT>
0

> <PUBCHEM_COMPONENT_COUNT>
1

> <PUBCHEM_CACTVS_TAUTO_COUNT>
72

> <PUBCHEM_CONFORMER_ID>
0000217B00000003

> <PUBCHEM_MMFF94_ENERGY>
59.7646

> <PUBCHEM_FEATURE_SELFOVERLAP>
35.523

> <PUBCHEM_SHAPE_FINGERPRINT>
11471102 20 18409169892103070408
11543360 7 16558473084182650672
11578080 2 11531614863815746903
12236239 1 18131065996288699443
12730499 353 18260275135465842107
13764800 53 16298659508524951853
14115302 16 17274813641062312855
14993402 34 17846215540487606185
15309172 13 17603583049510828995
15342168 16 17968104165179409005
15775835 57 18412826888988243309
16752209 62 16702019734536568467
16945 1 18338804403115108058
1813 80 17908702826610089778
18186145 218 18334579027342918966
19784866 34 18334295413878624880
19862831 5 17703791439638752137
19868273 293 17846494850753190559
20612939 158 18410015399459763708
20645476 183 18131345336920073351
20645477 70 18339644438557177238
20871999 31 17703499013054573895
21486144 27 18040157318289672158
22079108 93 18187935001610251691
22854114 59 17458065950124340569
231179 274 17822006519258234448
23402539 116 18409442626948148612
23402655 69 18343585139818180612
23559900 14 18270131244514800908
23598291 2 17916313731579383754
25 1 18335137605093349618
2748010 2 18049736405846724776
2838139 119 17898835865392311757
3082319 5 17846778520178562597
350125 39 17829344823007393920
4028521 119 18341894112446576825
474 4 18335984259027423912
5374978 207 12973890299285696421
633830 44 18335985259854816367
74978 22 17775280611934871745
76465 3 11743574149888780620
77492 1 18131067091542367739
81228 2 16880770831219455195
8272917 22 18265617572439684195
9981440 41 17624393673978878472

> <PUBCHEM_SHAPE_MULTIPOLES>
341.08
8.1
1.9
1.16
0.73
0.35
-0.07
-4.23
-1.78
-1.35
0.05
0.84
0.24
-0.62

> <PUBCHEM_SHAPE_SELFOVERLAP>
750.848

> <PUBCHEM_SHAPE_VOLUME>
184

> <PUBCHEM_COORDINATE_TYPE>
2
5
10

> <Energy>
46.2868

> <minimizedAffinity>
-8.52707

> <CNNscore>
0.8322589993

> <CNNaffinity>
5.2960510254

> <CNN_VS>
4.4076862335

> <CNNaffinity_variance>
0.6285129189

$$$$
8571


 22 23  0  0  0  0  0  0  0  0999 V2000
   -5.2175   -2.6121   22.4545 O   0  0  0  0  0  0  0  0  0  0  0  0
   -4.5529   -3.4302   21.8244 C   0  0  0  0  0  0  0  0  0  0  0  0
   -7.1611   -3.5640   20.6184 O   0  0  0  0  0  0  0  0  0  0  0  0
   -6.9230   -8.2931   20.2351 O   0  0  0  0  0  0  0  0  0  0  0  0
   -5.1629   -4.7166   21.4044 C   0  0  0  0  0  0  0  0  0  0  0  0
   -6.4417   -4.7122   20.8240 C   0  0  0  0  0  0  0  0  0  0  0  0
   -4.4981   -5.9371   21.5851 C   0  0  0  0  0  0  0  0  0  0  0  0
   -7.0442   -5.9003   20.4151 C   0  0  0  0  0  0  0  0  0  0  0  0
   -5.1088   -7.1302   21.1904 C   0  0  0  0  0  0  0  0  0  0  0  0
   -6.3711   -7.1026   20.6062 C   0  0  0  0  0  0  0  0  0  0  0  0
   -6.8048   -2.7359   20.8740 H   0  0  0  0  0  0  0  0  0  0  0  0
   -7.7717   -8.3128   19.8387 H   0  0  0  0  0  0  0  0  0  0  0  0
   -3.7655   -3.3729   19.1367 O   0  0  0  0  0  0  0  0  0  0  0  0
    0.6970   -2.1161   20.3675 O   0  0  0  0  0  0  0  0  0  0  0  0
   -3.1736   -3.0925   21.4340 C   0  0  0  0  0  0  0  0  0  0  0  0
   -2.8273   -3.0615   20.0800 C   0  0  0  0  0  0  0  0  0  0  0  0
   -2.2320   -2.7832   22.4188 C   0  0  0  0  0  0  0  0  0  0  0  0
   -1.5298   -2.7259   19.6973 C   0  0  0  0  0  0  0  0  0  0  0  0
   -0.9280   -2.4675   22.0376 C   0  0  0  0  0  0  0  0  0  0  0  0
   -0.5897   -2.4376   20.6855 C   0  0  0  0  0  0  0  0  0  0  0  0
   -4.6365   -3.5979   19.3988 H   0  0  0  0  0  0  0  0  0  0  0  0
    0.9639   -2.0852   19.4699 H   0  0  0  0  0  0  0  0  0  0  0  0
  3  6  1  0
  3 11  1  0
 13 16  1  0
 13 21  1  0
  1  2  2  0
  4 10  1  0
  4 12  1  0
 14 20  1  0
 14 22  1  0
  5  2  1  0
  5  6  2  0
  5  7  1  0
 15  2  1  0
 15 16  2  0
 15 17  1  0
  6  8  1  0
 16 18  1  0
  7  9  2  0
 17 19  2  0
  8 10  2  0
 18 20  2  0
  9 10  1  0
 19 20  1  0
M  END
> <PUBCHEM_COMPOUND_CID>
8571

> <PUBCHEM_CONFORMER_RMSD>
0.6

> <PUBCHEM_CONFORMER_DIVERSEORDER>
3
14
8
5
6
10
13
11
12
7
2
4
9
1

> <PUBCHEM_MMFF94_PARTIAL_CHARGES>
28
1 -0.53
10 0.08
11 -0.15
12 -0.15
13 -0.15
14 -0.15
15 -0.15
16 -0.15
17 0.08
18 0.08
19 0.15
2 -0.53
20 0.15
21 0.15
22 0.15
23 0.15
24 0.15
25 0.45
26 0.45
27 0.45
28 0.45
3 -0.57
4 -0.53
5 -0.53
6 0.09
7 0.09
8 0.4
9 0.08

> <PUBCHEM_EFFECTIVE_ROTOR_COUNT>
2

> <PUBCHEM_PHARMACOPHORE_FEATURES>
7
1 1 donor
1 2 donor
1 3 acceptor
1 4 donor
1 5 donor
6 6 9 11 13 15 17 rings
6 7 10 12 14 16 18 rings

> <PUBCHEM_HEAVY_ATOM_COUNT>
18

> <PUBCHEM_ATOM_DEF_STEREO_COUNT>
0

> <PUBCHEM_ATOM_UDEF_STEREO_COUNT>
0

> <PUBCHEM_BOND_DEF_STEREO_COUNT>
0

> <PUBCHEM_BOND_UDEF_STEREO_COUNT>
0

> <PUBCHEM_ISOTOPIC_ATOM_COUNT>
0

> <PUBCHEM_COMPONENT_COUNT>
1

> <PUBCHEM_CACTVS_TAUTO_COUNT>
72

> <PUBCHEM_CONFORMER_ID>
0000217B00000003

> <PUBCHEM_MMFF94_ENERGY>
59.7646

> <PUBCHEM_FEATURE_SELFOVERLAP>
35.523

> <PUBCHEM_SHAPE_FINGERPRINT>
11471102 20 18409169892103070408
11543360 7 16558473084182650672
11578080 2 11531614863815746903
12236239 1 18131065996288699443
12730499 353 18260275135465842107
13764800 53 16298659508524951853
14115302 16 17274813641062312855
14993402 34 17846215540487606185
15309172 13 17603583049510828995
15342168 16 17968104165179409005
15775835 57 18412826888988243309
16752209 62 16702019734536568467
16945 1 18338804403115108058
1813 80 17908702826610089778
18186145 218 18334579027342918966
19784866 34 18334295413878624880
19862831 5 17703791439638752137
19868273 293 17846494850753190559
20612939 158 18410015399459763708
20645476 183 18131345336920073351
20645477 70 18339644438557177238
20871999 31 17703499013054573895
21486144 27 18040157318289672158
22079108 93 18187935001610251691
22854114 59 17458065950124340569
231179 274 17822006519258234448
23402539 116 18409442626948148612
23402655 69 18343585139818180612
23559900 14 18270131244514800908
23598291 2 17916313731579383754
25 1 18335137605093349618
2748010 2 18049736405846724776
2838139 119 17898835865392311757
3082319 5 17846778520178562597
350125 39 17829344823007393920
4028521 119 18341894112446576825
474 4 18335984259027423912
5374978 207 12973890299285696421
633830 44 18335985259854816367
74978 22 17775280611934871745
76465 3 11743574149888780620
77492 1 18131067091542367739
81228 2 16880770831219455195
8272917 22 18265617572439684195
9981440 41 17624393673978878472

> <PUBCHEM_SHAPE_MULTIPOLES>
341.08
8.1
1.9
1.16
0.73
0.35
-0.07
-4.23
-1.78
-1.35
0.05
0.84
0.24
-0.62

> <PUBCHEM_SHAPE_SELFOVERLAP>
750.848

> <PUBCHEM_SHAPE_VOLUME>
184

> <PUBCHEM_COORDINATE_TYPE>
2
5
10

> <Energy>
46.2868

> <minimizedAffinity>
-8.52070

> <CNNscore>
0.8310043812

> <CNNaffinity>
5.2683482170

> <CNN_VS>
4.3780202866

> <CNNaffinity_variance>
0.6448420286

$$$$
8571


 22 23  0  0  0  0  0  0  0  0999 V2000
   -3.7811   -6.3104   21.6856 O   0  0  0  0  0  0  0  0  0  0  0  0
   -4.0069   -5.1043   21.6364 C   0  0  0  0  0  0  0  0  0  0  0  0
   -2.0454   -3.7837   23.2744 O   0  0  0  0  0  0  0  0  0  0  0  0
   -0.1541   -1.5745   19.5179 O   0  0  0  0  0  0  0  0  0  0  0  0
   -2.9937   -4.1822   21.0652 C   0  0  0  0  0  0  0  0  0  0  0  0
   -2.0657   -3.5674   21.9213 C   0  0  0  0  0  0  0  0  0  0  0  0
   -2.9492   -3.9005   19.6930 C   0  0  0  0  0  0  0  0  0  0  0  0
   -1.0985   -2.6984   21.4200 C   0  0  0  0  0  0  0  0  0  0  0  0
   -1.9903   -3.0164   19.1922 C   0  0  0  0  0  0  0  0  0  0  0  0
   -1.0723   -2.4274   20.0558 C   0  0  0  0  0  0  0  0  0  0  0  0
   -2.6728   -4.3589   23.6663 H   0  0  0  0  0  0  0  0  0  0  0  0
    0.4795   -1.1596   20.0696 H   0  0  0  0  0  0  0  0  0  0  0  0
   -6.2485   -5.1477   19.9571 O   0  0  0  0  0  0  0  0  0  0  0  0
   -8.9754   -3.1854   23.3808 O   0  0  0  0  0  0  0  0  0  0  0  0
   -5.3141   -4.5957   22.0851 C   0  0  0  0  0  0  0  0  0  0  0  0
   -6.4101   -4.6498   21.2192 C   0  0  0  0  0  0  0  0  0  0  0  0
   -5.4512   -4.0868   23.3791 C   0  0  0  0  0  0  0  0  0  0  0  0
   -7.6565   -4.1880   21.6386 C   0  0  0  0  0  0  0  0  0  0  0  0
   -6.6933   -3.6053   23.7924 C   0  0  0  0  0  0  0  0  0  0  0  0
   -7.7824   -3.6631   22.9240 C   0  0  0  0  0  0  0  0  0  0  0  0
   -5.4087   -5.4570   19.6795 H   0  0  0  0  0  0  0  0  0  0  0  0
   -9.7312   -3.2066   22.8275 H   0  0  0  0  0  0  0  0  0  0  0  0
  3  6  1  0
  3 11  1  0
 13 16  1  0
 13 21  1  0
  1  2  2  0
  4 10  1  0
  4 12  1  0
 14 20  1  0
 14 22  1  0
  5  2  1  0
  5  6  2  0
  5  7  1  0
 15  2  1  0
 15 16  2  0
 15 17  1  0
  6  8  1  0
 16 18  1  0
  7  9  2  0
 17 19  2  0
  8 10  2  0
 18 20  2  0
  9 10  1  0
 19 20  1  0
M  END
> <PUBCHEM_COMPOUND_CID>
8571

> <PUBCHEM_CONFORMER_RMSD>
0.6

> <PUBCHEM_CONFORMER_DIVERSEORDER>
3
14
8
5
6
10
13
11
12
7
2
4
9
1

> <PUBCHEM_MMFF94_PARTIAL_CHARGES>
28
1 -0.53
10 0.08
11 -0.15
12 -0.15
13 -0.15
14 -0.15
15 -0.15
16 -0.15
17 0.08
18 0.08
19 0.15
2 -0.53
20 0.15
21 0.15
22 0.15
23 0.15
24 0.15
25 0.45
26 0.45
27 0.45
28 0.45
3 -0.57
4 -0.53
5 -0.53
6 0.09
7 0.09
8 0.4
9 0.08

> <PUBCHEM_EFFECTIVE_ROTOR_COUNT>
2

> <PUBCHEM_PHARMACOPHORE_FEATURES>
7
1 1 donor
1 2 donor
1 3 acceptor
1 4 donor
1 5 donor
6 6 9 11 13 15 17 rings
6 7 10 12 14 16 18 rings

> <PUBCHEM_HEAVY_ATOM_COUNT>
18

> <PUBCHEM_ATOM_DEF_STEREO_COUNT>
0

> <PUBCHEM_ATOM_UDEF_STEREO_COUNT>
0

> <PUBCHEM_BOND_DEF_STEREO_COUNT>
0

> <PUBCHEM_BOND_UDEF_STEREO_COUNT>
0

> <PUBCHEM_ISOTOPIC_ATOM_COUNT>
0

> <PUBCHEM_COMPONENT_COUNT>
1

> <PUBCHEM_CACTVS_TAUTO_COUNT>
72

> <PUBCHEM_CONFORMER_ID>
0000217B00000003

> <PUBCHEM_MMFF94_ENERGY>
59.7646

> <PUBCHEM_FEATURE_SELFOVERLAP>
35.523

> <PUBCHEM_SHAPE_FINGERPRINT>
11471102 20 18409169892103070408
11543360 7 16558473084182650672
11578080 2 11531614863815746903
12236239 1 18131065996288699443
12730499 353 18260275135465842107
13764800 53 16298659508524951853
14115302 16 17274813641062312855
14993402 34 17846215540487606185
15309172 13 17603583049510828995
15342168 16 17968104165179409005
15775835 57 18412826888988243309
16752209 62 16702019734536568467
16945 1 18338804403115108058
1813 80 17908702826610089778
18186145 218 18334579027342918966
19784866 34 18334295413878624880
19862831 5 17703791439638752137
19868273 293 17846494850753190559
20612939 158 18410015399459763708
20645476 183 18131345336920073351
20645477 70 18339644438557177238
20871999 31 17703499013054573895
21486144 27 18040157318289672158
22079108 93 18187935001610251691
22854114 59 17458065950124340569
231179 274 17822006519258234448
23402539 116 18409442626948148612
23402655 69 18343585139818180612
23559900 14 18270131244514800908
23598291 2 17916313731579383754
25 1 18335137605093349618
2748010 2 18049736405846724776
2838139 119 17898835865392311757
3082319 5 17846778520178562597
350125 39 17829344823007393920
4028521 119 18341894112446576825
474 4 18335984259027423912
5374978 207 12973890299285696421
633830 44 18335985259854816367
74978 22 17775280611934871745
76465 3 11743574149888780620
77492 1 18131067091542367739
81228 2 16880770831219455195
8272917 22 18265617572439684195
9981440 41 17624393673978878472

> <PUBCHEM_SHAPE_MULTIPOLES>
341.08
8.1
1.9
1.16
0.73
0.35
-0.07
-4.23
-1.78
-1.35
0.05
0.84
0.24
-0.62

> <PUBCHEM_SHAPE_SELFOVERLAP>
750.848

> <PUBCHEM_SHAPE_VOLUME>
184

> <PUBCHEM_COORDINATE_TYPE>
2
5
10

> <Energy>
46.2868

> <minimizedAffinity>
-8.30503

> <CNNscore>
0.7989159822

> <CNNaffinity>
6.2217211723

> <CNN_VS>
4.9706325531

> <CNNaffinity_variance>
0.4800872803

$$$$
8571


 22 23  0  0  0  0  0  0  0  0999 V2000
   -3.7144   -6.3007   21.7154 O   0  0  0  0  0  0  0  0  0  0  0  0
   -3.9988   -5.1122   21.5942 C   0  0  0  0  0  0  0  0  0  0  0  0
   -6.3049   -5.0016   19.8782 O   0  0  0  0  0  0  0  0  0  0  0  0
   -9.0035   -3.1944   23.3452 O   0  0  0  0  0  0  0  0  0  0  0  0
   -5.3126   -4.6111   22.0695 C   0  0  0  0  0  0  0  0  0  0  0  0
   -6.3982   -4.5808   21.1791 C   0  0  0  0  0  0  0  0  0  0  0  0
   -5.4923   -4.1553   23.3826 C   0  0  0  0  0  0  0  0  0  0  0  0
   -7.6469   -4.1196   21.5912 C   0  0  0  0  0  0  0  0  0  0  0  0
   -6.7398   -3.6773   23.7915 C   0  0  0  0  0  0  0  0  0  0  0  0
   -7.8054   -3.6672   22.8972 C   0  0  0  0  0  0  0  0  0  0  0  0
   -5.4890   -5.3219   19.5468 H   0  0  0  0  0  0  0  0  0  0  0  0
   -9.7432   -3.1727   22.7705 H   0  0  0  0  0  0  0  0  0  0  0  0
   -2.0762   -3.8847   23.2200 O   0  0  0  0  0  0  0  0  0  0  0  0
   -0.1935   -1.6045   19.4432 O   0  0  0  0  0  0  0  0  0  0  0  0
   -2.9999   -4.1842   21.0376 C   0  0  0  0  0  0  0  0  0  0  0  0
   -2.0492   -3.6049   21.8829 C   0  0  0  0  0  0  0  0  0  0  0  0
   -2.9976   -3.9109   19.6673 C   0  0  0  0  0  0  0  0  0  0  0  0
   -1.0877   -2.7390   21.3650 C   0  0  0  0  0  0  0  0  0  0  0  0
   -2.0486   -3.0282   19.1516 C   0  0  0  0  0  0  0  0  0  0  0  0
   -1.1028   -2.4548   20.0002 C   0  0  0  0  0  0  0  0  0  0  0  0
   -2.7245   -4.4675   23.5637 H   0  0  0  0  0  0  0  0  0  0  0  0
    0.4584   -1.1988   19.9800 H   0  0  0  0  0  0  0  0  0  0  0  0
  3  6  1  0
  3 11  1  0
 13 16  1  0
 13 21  1  0
  1  2  2  0
  4 10  1  0
  4 12  1  0
 14 20  1  0
 14 22  1  0
  5  2  1  0
  5  6  2  0
  5  7  1  0
 15  2  1  0
 15 16  2  0
 15 17  1  0
  6  8  1  0
 16 18  1  0
  7  9  2  0
 17 19  2  0
  8 10  2  0
 18 20  2  0
  9 10  1  0
 19 20  1  0
M  END
> <PUBCHEM_COMPOUND_CID>
8571

> <PUBCHEM_CONFORMER_RMSD>
0.6

> <PUBCHEM_CONFORMER_DIVERSEORDER>
3
14
8
5
6
10
13
11
12
7
2
4
9
1

> <PUBCHEM_MMFF94_PARTIAL_CHARGES>
28
1 -0.53
10 0.08
11 -0.15
12 -0.15
13 -0.15
14 -0.15
15 -0.15
16 -0.15
17 0.08
18 0.08
19 0.15
2 -0.53
20 0.15
21 0.15
22 0.15
23 0.15
24 0.15
25 0.45
26 0.45
27 0.45
28 0.45
3 -0.57
4 -0.53
5 -0.53
6 0.09
7 0.09
8 0.4
9 0.08

> <PUBCHEM_EFFECTIVE_ROTOR_COUNT>
2

> <PUBCHEM_PHARMACOPHORE_FEATURES>
7
1 1 donor
1 2 donor
1 3 acceptor
1 4 donor
1 5 donor
6 6 9 11 13 15 17 rings
6 7 10 12 14 16 18 rings

> <PUBCHEM_HEAVY_ATOM_COUNT>
18

> <PUBCHEM_ATOM_DEF_STEREO_COUNT>
0

> <PUBCHEM_ATOM_UDEF_STEREO_COUNT>
0

> <PUBCHEM_BOND_DEF_STEREO_COUNT>
0

> <PUBCHEM_BOND_UDEF_STEREO_COUNT>
0

> <PUBCHEM_ISOTOPIC_ATOM_COUNT>
0

> <PUBCHEM_COMPONENT_COUNT>
1

> <PUBCHEM_CACTVS_TAUTO_COUNT>
72

> <PUBCHEM_CONFORMER_ID>
0000217B00000003

> <PUBCHEM_MMFF94_ENERGY>
59.7646

> <PUBCHEM_FEATURE_SELFOVERLAP>
35.523

> <PUBCHEM_SHAPE_FINGERPRINT>
11471102 20 18409169892103070408
11543360 7 16558473084182650672
11578080 2 11531614863815746903
12236239 1 18131065996288699443
12730499 353 18260275135465842107
13764800 53 16298659508524951853
14115302 16 17274813641062312855
14993402 34 17846215540487606185
15309172 13 17603583049510828995
15342168 16 17968104165179409005
15775835 57 18412826888988243309
16752209 62 16702019734536568467
16945 1 18338804403115108058
1813 80 17908702826610089778
18186145 218 18334579027342918966
19784866 34 18334295413878624880
19862831 5 17703791439638752137
19868273 293 17846494850753190559
20612939 158 18410015399459763708
20645476 183 18131345336920073351
20645477 70 18339644438557177238
20871999 31 17703499013054573895
21486144 27 18040157318289672158
22079108 93 18187935001610251691
22854114 59 17458065950124340569
231179 274 17822006519258234448
23402539 116 18409442626948148612
23402655 69 18343585139818180612
23559900 14 18270131244514800908
23598291 2 17916313731579383754
25 1 18335137605093349618
2748010 2 18049736405846724776
2838139 119 17898835865392311757
3082319 5 17846778520178562597
350125 39 17829344823007393920
4028521 119 18341894112446576825
474 4 18335984259027423912
5374978 207 12973890299285696421
633830 44 18335985259854816367
74978 22 17775280611934871745
76465 3 11743574149888780620
77492 1 18131067091542367739
81228 2 16880770831219455195
8272917 22 18265617572439684195
9981440 41 17624393673978878472

> <PUBCHEM_SHAPE_MULTIPOLES>
341.08
8.1
1.9
1.16
0.73
0.35
-0.07
-4.23
-1.78
-1.35
0.05
0.84
0.24
-0.62

> <PUBCHEM_SHAPE_SELFOVERLAP>
750.848

> <PUBCHEM_SHAPE_VOLUME>
184

> <PUBCHEM_COORDINATE_TYPE>
2
5
10

> <Energy>
46.2868

> <minimizedAffinity>
-8.25522

> <CNNscore>
0.7897249460

> <CNNaffinity>
6.2358336449

> <CNN_VS>
4.9245934486

> <CNNaffinity_variance>
0.4948550761

$$$$
8571


 22 23  0  0  0  0  0  0  0  0999 V2000
   -3.6601   -3.4362   23.1388 O   0  0  0  0  0  0  0  0  0  0  0  0
   -3.5596   -3.8753   21.9964 C   0  0  0  0  0  0  0  0  0  0  0  0
   -6.1976   -3.4132   20.9465 O   0  0  0  0  0  0  0  0  0  0  0  0
   -6.9362   -8.0620   20.3047 O   0  0  0  0  0  0  0  0  0  0  0  0
   -4.4362   -4.9862   21.5483 C   0  0  0  0  0  0  0  0  0  0  0  0
   -5.7150   -4.6918   21.0480 C   0  0  0  0  0  0  0  0  0  0  0  0
   -4.0228   -6.3232   21.6245 C   0  0  0  0  0  0  0  0  0  0  0  0
   -6.5639   -5.7088   20.6155 C   0  0  0  0  0  0  0  0  0  0  0  0
   -4.8800   -7.3442   21.2066 C   0  0  0  0  0  0  0  0  0  0  0  0
   -6.1381   -7.0303   20.7027 C   0  0  0  0  0  0  0  0  0  0  0  0
   -5.6696   -2.6899   21.2225 H   0  0  0  0  0  0  0  0  0  0  0  0
   -7.7900   -7.8879   19.9603 H   0  0  0  0  0  0  0  0  0  0  0  0
   -1.3471   -2.4223   22.9131 O   0  0  0  0  0  0  0  0  0  0  0  0
    0.0425   -1.5086   18.4140 O   0  0  0  0  0  0  0  0  0  0  0  0
   -2.6124   -3.2448   21.0614 C   0  0  0  0  0  0  0  0  0  0  0  0
   -1.5134   -2.5409   21.5621 C   0  0  0  0  0  0  0  0  0  0  0  0
   -2.8084   -3.3768   19.6843 C   0  0  0  0  0  0  0  0  0  0  0  0
   -0.6003   -1.9550   20.6871 C   0  0  0  0  0  0  0  0  0  0  0  0
   -1.9065   -2.7731   18.8082 C   0  0  0  0  0  0  0  0  0  0  0  0
   -0.8121   -2.0733   19.3143 C   0  0  0  0  0  0  0  0  0  0  0  0
   -1.9636   -2.8179   23.4974 H   0  0  0  0  0  0  0  0  0  0  0  0
    0.7900   -1.0300   18.7142 H   0  0  0  0  0  0  0  0  0  0  0  0
  3  6  1  0
  3 11  1  0
 13 16  1  0
 13 21  1  0
  1  2  2  0
  4 10  1  0
  4 12  1  0
 14 20  1  0
 14 22  1  0
  5  2  1  0
  5  6  2  0
  5  7  1  0
 15  2  1  0
 15 16  2  0
 15 17  1  0
  6  8  1  0
 16 18  1  0
  7  9  2  0
 17 19  2  0
  8 10  2  0
 18 20  2  0
  9 10  1  0
 19 20  1  0
M  END
> <PUBCHEM_COMPOUND_CID>
8571

> <PUBCHEM_CONFORMER_RMSD>
0.6

> <PUBCHEM_CONFORMER_DIVERSEORDER>
3
14
8
5
6
10
13
11
12
7
2
4
9
1

> <PUBCHEM_MMFF94_PARTIAL_CHARGES>
28
1 -0.53
10 0.08
11 -0.15
12 -0.15
13 -0.15
14 -0.15
15 -0.15
16 -0.15
17 0.08
18 0.08
19 0.15
2 -0.53
20 0.15
21 0.15
22 0.15
23 0.15
24 0.15
25 0.45
26 0.45
27 0.45
28 0.45
3 -0.57
4 -0.53
5 -0.53
6 0.09
7 0.09
8 0.4
9 0.08

> <PUBCHEM_EFFECTIVE_ROTOR_COUNT>
2

> <PUBCHEM_PHARMACOPHORE_FEATURES>
7
1 1 donor
1 2 donor
1 3 acceptor
1 4 donor
1 5 donor
6 6 9 11 13 15 17 rings
6 7 10 12 14 16 18 rings

> <PUBCHEM_HEAVY_ATOM_COUNT>
18

> <PUBCHEM_ATOM_DEF_STEREO_COUNT>
0

> <PUBCHEM_ATOM_UDEF_STEREO_COUNT>
0

> <PUBCHEM_BOND_DEF_STEREO_COUNT>
0

> <PUBCHEM_BOND_UDEF_STEREO_COUNT>
0

> <PUBCHEM_ISOTOPIC_ATOM_COUNT>
0

> <PUBCHEM_COMPONENT_COUNT>
1

> <PUBCHEM_CACTVS_TAUTO_COUNT>
72

> <PUBCHEM_CONFORMER_ID>
0000217B00000003

> <PUBCHEM_MMFF94_ENERGY>
59.7646

> <PUBCHEM_FEATURE_SELFOVERLAP>
35.523

> <PUBCHEM_SHAPE_FINGERPRINT>
11471102 20 18409169892103070408
11543360 7 16558473084182650672
11578080 2 11531614863815746903
12236239 1 18131065996288699443
12730499 353 18260275135465842107
13764800 53 16298659508524951853
14115302 16 17274813641062312855
14993402 34 17846215540487606185
15309172 13 17603583049510828995
15342168 16 17968104165179409005
15775835 57 18412826888988243309
16752209 62 16702019734536568467
16945 1 18338804403115108058
1813 80 17908702826610089778
18186145 218 18334579027342918966
19784866 34 18334295413878624880
19862831 5 17703791439638752137
19868273 293 17846494850753190559
20612939 158 18410015399459763708
20645476 183 18131345336920073351
20645477 70 18339644438557177238
20871999 31 17703499013054573895
21486144 27 18040157318289672158
22079108 93 18187935001610251691
22854114 59 17458065950124340569
231179 274 17822006519258234448
23402539 116 18409442626948148612
23402655 69 18343585139818180612
23559900 14 18270131244514800908
23598291 2 17916313731579383754
25 1 18335137605093349618
2748010 2 18049736405846724776
2838139 119 17898835865392311757
3082319 5 17846778520178562597
350125 39 17829344823007393920
4028521 119 18341894112446576825
474 4 18335984259027423912
5374978 207 12973890299285696421
633830 44 18335985259854816367
74978 22 17775280611934871745
76465 3 11743574149888780620
77492 1 18131067091542367739
81228 2 16880770831219455195
8272917 22 18265617572439684195
9981440 41 17624393673978878472

> <PUBCHEM_SHAPE_MULTIPOLES>
341.08
8.1
1.9
1.16
0.73
0.35
-0.07
-4.23
-1.78
-1.35
0.05
0.84
0.24
-0.62

> <PUBCHEM_SHAPE_SELFOVERLAP>
750.848

> <PUBCHEM_SHAPE_VOLUME>
184

> <PUBCHEM_COORDINATE_TYPE>
2
5
10

> <Energy>
46.2868

> <minimizedAffinity>
-8.54114

> <CNNscore>
0.7814752460

> <CNNaffinity>
5.2539925575

> <CNN_VS>
4.1058650017

> <CNNaffinity_variance>
0.1577588618

$$$$
8571


 22 23  0  0  0  0  0  0  0  0999 V2000
   -3.4986   -3.6326   23.1670 O   0  0  0  0  0  0  0  0  0  0  0  0
   -3.5218   -3.9531   21.9817 C   0  0  0  0  0  0  0  0  0  0  0  0
   -1.3136   -2.3267   22.8499 O   0  0  0  0  0  0  0  0  0  0  0  0
    0.0425   -1.4876   18.3750 O   0  0  0  0  0  0  0  0  0  0  0  0
   -2.5866   -3.3149   21.0218 C   0  0  0  0  0  0  0  0  0  0  0  0
   -1.5301   -2.5302   21.5121 C   0  0  0  0  0  0  0  0  0  0  0  0
   -2.7406   -3.4662   19.6370 C   0  0  0  0  0  0  0  0  0  0  0  0
   -0.6311   -1.9183   20.6407 C   0  0  0  0  0  0  0  0  0  0  0  0
   -1.8494   -2.8392   18.7625 C   0  0  0  0  0  0  0  0  0  0  0  0
   -0.8022   -2.0763   19.2692 C   0  0  0  0  0  0  0  0  0  0  0  0
   -1.8871   -2.7144   23.4816 H   0  0  0  0  0  0  0  0  0  0  0  0
    0.7589   -0.9665   18.6803 H   0  0  0  0  0  0  0  0  0  0  0  0
   -6.0710   -3.3734   20.9757 O   0  0  0  0  0  0  0  0  0  0  0  0
   -6.9674   -8.0346   20.2847 O   0  0  0  0  0  0  0  0  0  0  0  0
   -4.4354   -5.0203   21.5402 C   0  0  0  0  0  0  0  0  0  0  0  0
   -5.6934   -4.6853   21.0309 C   0  0  0  0  0  0  0  0  0  0  0  0
   -4.0267   -6.3545   21.6122 C   0  0  0  0  0  0  0  0  0  0  0  0
   -6.5599   -5.6855   20.5933 C   0  0  0  0  0  0  0  0  0  0  0  0
   -4.9014   -7.3572   21.1937 C   0  0  0  0  0  0  0  0  0  0  0  0
   -6.1542   -7.0160   20.6861 C   0  0  0  0  0  0  0  0  0  0  0  0
   -5.4850   -2.7045   21.2711 H   0  0  0  0  0  0  0  0  0  0  0  0
   -7.8172   -7.8466   19.9378 H   0  0  0  0  0  0  0  0  0  0  0  0
  3  6  1  0
  3 11  1  0
 13 16  1  0
 13 21  1  0
  1  2  2  0
  4 10  1  0
  4 12  1  0
 14 20  1  0
 14 22  1  0
  5  2  1  0
  5  6  2  0
  5  7  1  0
 15  2  1  0
 15 16  2  0
 15 17  1  0
  6  8  1  0
 16 18  1  0
  7  9  2  0
 17 19  2  0
  8 10  2  0
 18 20  2  0
  9 10  1  0
 19 20  1  0
M  END
> <PUBCHEM_COMPOUND_CID>
8571

> <PUBCHEM_CONFORMER_RMSD>
0.6

> <PUBCHEM_CONFORMER_DIVERSEORDER>
3
14
8
5
6
10
13
11
12
7
2
4
9
1

> <PUBCHEM_MMFF94_PARTIAL_CHARGES>
28
1 -0.53
10 0.08
11 -0.15
12 -0.15
13 -0.15
14 -0.15
15 -0.15
16 -0.15
17 0.08
18 0.08
19 0.15
2 -0.53
20 0.15
21 0.15
22 0.15
23 0.15
24 0.15
25 0.45
26 0.45
27 0.45
28 0.45
3 -0.57
4 -0.53
5 -0.53
6 0.09
7 0.09
8 0.4
9 0.08

> <PUBCHEM_EFFECTIVE_ROTOR_COUNT>
2

> <PUBCHEM_PHARMACOPHORE_FEATURES>
7
1 1 donor
1 2 donor
1 3 acceptor
1 4 donor
1 5 donor
6 6 9 11 13 15 17 rings
6 7 10 12 14 16 18 rings

> <PUBCHEM_HEAVY_ATOM_COUNT>
18

> <PUBCHEM_ATOM_DEF_STEREO_COUNT>
0

> <PUBCHEM_ATOM_UDEF_STEREO_COUNT>
0

> <PUBCHEM_BOND_DEF_STEREO_COUNT>
0

> <PUBCHEM_BOND_UDEF_STEREO_COUNT>
0

> <PUBCHEM_ISOTOPIC_ATOM_COUNT>
0

> <PUBCHEM_COMPONENT_COUNT>
1

> <PUBCHEM_CACTVS_TAUTO_COUNT>
72

> <PUBCHEM_CONFORMER_ID>
0000217B00000003

> <PUBCHEM_MMFF94_ENERGY>
59.7646

> <PUBCHEM_FEATURE_SELFOVERLAP>
35.523

> <PUBCHEM_SHAPE_FINGERPRINT>
11471102 20 18409169892103070408
11543360 7 16558473084182650672
11578080 2 11531614863815746903
12236239 1 18131065996288699443
12730499 353 18260275135465842107
13764800 53 16298659508524951853
14115302 16 17274813641062312855
14993402 34 17846215540487606185
15309172 13 17603583049510828995
15342168 16 17968104165179409005
15775835 57 18412826888988243309
16752209 62 16702019734536568467
16945 1 18338804403115108058
1813 80 17908702826610089778
18186145 218 18334579027342918966
19784866 34 18334295413878624880
19862831 5 17703791439638752137
19868273 293 17846494850753190559
20612939 158 18410015399459763708
20645476 183 18131345336920073351
20645477 70 18339644438557177238
20871999 31 17703499013054573895
21486144 27 18040157318289672158
22079108 93 18187935001610251691
22854114 59 17458065950124340569
231179 274 17822006519258234448
23402539 116 18409442626948148612
23402655 69 18343585139818180612
23559900 14 18270131244514800908
23598291 2 17916313731579383754
25 1 18335137605093349618
2748010 2 18049736405846724776
2838139 119 17898835865392311757
3082319 5 17846778520178562597
350125 39 17829344823007393920
4028521 119 18341894112446576825
474 4 18335984259027423912
5374978 207 12973890299285696421
633830 44 18335985259854816367
74978 22 17775280611934871745
76465 3 11743574149888780620
77492 1 18131067091542367739
81228 2 16880770831219455195
8272917 22 18265617572439684195
9981440 41 17624393673978878472

> <PUBCHEM_SHAPE_MULTIPOLES>
341.08
8.1
1.9
1.16
0.73
0.35
-0.07
-4.23
-1.78
-1.35
0.05
0.84
0.24
-0.62

> <PUBCHEM_SHAPE_SELFOVERLAP>
750.848

> <PUBCHEM_SHAPE_VOLUME>
184

> <PUBCHEM_COORDINATE_TYPE>
2
5
10

> <Energy>
46.2868

> <minimizedAffinity>
-8.58963

> <CNNscore>
0.7715950608

> <CNNaffinity>
5.2381496429

> <CNN_VS>
4.0417304039

> <CNNaffinity_variance>
0.1447769552

$$$$
8571


 22 23  0  0  0  0  0  0  0  0999 V2000
   -3.4919   -6.2575   21.7826 O   0  0  0  0  0  0  0  0  0  0  0  0
   -3.8467   -5.1154   21.5036 C   0  0  0  0  0  0  0  0  0  0  0  0
   -1.8521   -3.7333   23.0483 O   0  0  0  0  0  0  0  0  0  0  0  0
   -0.1871   -1.4954   19.2028 O   0  0  0  0  0  0  0  0  0  0  0  0
   -2.8847   -4.1697   20.8844 C   0  0  0  0  0  0  0  0  0  0  0  0
   -1.9372   -3.5253   21.6964 C   0  0  0  0  0  0  0  0  0  0  0  0
   -2.9078   -3.8946   19.5104 C   0  0  0  0  0  0  0  0  0  0  0  0
   -1.0167   -2.6335   21.1494 C   0  0  0  0  0  0  0  0  0  0  0  0
   -1.9959   -2.9879   18.9641 C   0  0  0  0  0  0  0  0  0  0  0  0
   -1.0574   -2.3696   19.7841 C   0  0  0  0  0  0  0  0  0  0  0  0
   -2.4460   -4.3230   23.4699 H   0  0  0  0  0  0  0  0  0  0  0  0
    0.4585   -1.0605   19.7243 H   0  0  0  0  0  0  0  0  0  0  0  0
   -4.6177   -3.6823   23.7836 O   0  0  0  0  0  0  0  0  0  0  0  0
   -9.1822   -3.6022   22.3116 O   0  0  0  0  0  0  0  0  0  0  0  0
   -5.2477   -4.7201   21.7264 C   0  0  0  0  0  0  0  0  0  0  0  0
   -5.5862   -3.9928   22.8711 C   0  0  0  0  0  0  0  0  0  0  0  0
   -6.2197   -5.0549   20.7801 C   0  0  0  0  0  0  0  0  0  0  0  0
   -6.9056   -3.5975   23.0841 C   0  0  0  0  0  0  0  0  0  0  0  0
   -7.5440   -4.6776   21.0028 C   0  0  0  0  0  0  0  0  0  0  0  0
   -7.8743   -3.9517   22.1462 C   0  0  0  0  0  0  0  0  0  0  0  0
   -3.7320   -3.9502   23.6361 H   0  0  0  0  0  0  0  0  0  0  0  0
   -9.4447   -3.1140   23.0670 H   0  0  0  0  0  0  0  0  0  0  0  0
  3  6  1  0
  3 11  1  0
 13 16  1  0
 13 21  1  0
  1  2  2  0
  4 10  1  0
  4 12  1  0
 14 20  1  0
 14 22  1  0
  5  2  1  0
  5  6  2  0
  5  7  1  0
 15  2  1  0
 15 16  2  0
 15 17  1  0
  6  8  1  0
 16 18  1  0
  7  9  2  0
 17 19  2  0
  8 10  2  0
 18 20  2  0
  9 10  1  0
 19 20  1  0
M  END
> <PUBCHEM_COMPOUND_CID>
8571

> <PUBCHEM_CONFORMER_RMSD>
0.6

> <PUBCHEM_CONFORMER_DIVERSEORDER>
3
14
8
5
6
10
13
11
12
7
2
4
9
1

> <PUBCHEM_MMFF94_PARTIAL_CHARGES>
28
1 -0.53
10 0.08
11 -0.15
12 -0.15
13 -0.15
14 -0.15
15 -0.15
16 -0.15
17 0.08
18 0.08
19 0.15
2 -0.53
20 0.15
21 0.15
22 0.15
23 0.15
24 0.15
25 0.45
26 0.45
27 0.45
28 0.45
3 -0.57
4 -0.53
5 -0.53
6 0.09
7 0.09
8 0.4
9 0.08

> <PUBCHEM_EFFECTIVE_ROTOR_COUNT>
2

> <PUBCHEM_PHARMACOPHORE_FEATURES>
7
1 1 donor
1 2 donor
1 3 acceptor
1 4 donor
1 5 donor
6 6 9 11 13 15 17 rings
6 7 10 12 14 16 18 rings

> <PUBCHEM_HEAVY_ATOM_COUNT>
18

> <PUBCHEM_ATOM_DEF_STEREO_COUNT>
0

> <PUBCHEM_ATOM_UDEF_STEREO_COUNT>
0

> <PUBCHEM_BOND_DEF_STEREO_COUNT>
0

> <PUBCHEM_BOND_UDEF_STEREO_COUNT>
0

> <PUBCHEM_ISOTOPIC_ATOM_COUNT>
0

> <PUBCHEM_COMPONENT_COUNT>
1

> <PUBCHEM_CACTVS_TAUTO_COUNT>
72

> <PUBCHEM_CONFORMER_ID>
0000217B00000003

> <PUBCHEM_MMFF94_ENERGY>
59.7646

> <PUBCHEM_FEATURE_SELFOVERLAP>
35.523

> <PUBCHEM_SHAPE_FINGERPRINT>
11471102 20 18409169892103070408
11543360 7 16558473084182650672
11578080 2 11531614863815746903
12236239 1 18131065996288699443
12730499 353 18260275135465842107
13764800 53 16298659508524951853
14115302 16 17274813641062312855
14993402 34 17846215540487606185
15309172 13 17603583049510828995
15342168 16 17968104165179409005
15775835 57 18412826888988243309
16752209 62 16702019734536568467
16945 1 18338804403115108058
1813 80 17908702826610089778
18186145 218 18334579027342918966
19784866 34 18334295413878624880
19862831 5 17703791439638752137
19868273 293 17846494850753190559
20612939 158 18410015399459763708
20645476 183 18131345336920073351
20645477 70 18339644438557177238
20871999 31 17703499013054573895
21486144 27 18040157318289672158
22079108 93 18187935001610251691
22854114 59 17458065950124340569
231179 274 17822006519258234448
23402539 116 18409442626948148612
23402655 69 18343585139818180612
23559900 14 18270131244514800908
23598291 2 17916313731579383754
25 1 18335137605093349618
2748010 2 18049736405846724776
2838139 119 17898835865392311757
3082319 5 17846778520178562597
350125 39 17829344823007393920
4028521 119 18341894112446576825
474 4 18335984259027423912
5374978 207 12973890299285696421
633830 44 18335985259854816367
74978 22 17775280611934871745
76465 3 11743574149888780620
77492 1 18131067091542367739
81228 2 16880770831219455195
8272917 22 18265617572439684195
9981440 41 17624393673978878472

> <PUBCHEM_SHAPE_MULTIPOLES>
341.08
8.1
1.9
1.16
0.73
0.35
-0.07
-4.23
-1.78
-1.35
0.05
0.84
0.24
-0.62

> <PUBCHEM_SHAPE_SELFOVERLAP>
750.848

> <PUBCHEM_SHAPE_VOLUME>
184

> <PUBCHEM_COORDINATE_TYPE>
2
5
10

> <Energy>
46.2868

> <minimizedAffinity>
-8.02592

> <CNNscore>
0.7661892176

> <CNNaffinity>
6.1471195221

> <CNN_VS>
4.7098565102

> <CNNaffinity_variance>
0.4359179437

$$$$
8571


 22 23  0  0  0  0  0  0  0  0999 V2000
   -3.4405   -6.2152   21.7668 O   0  0  0  0  0  0  0  0  0  0  0  0
   -3.8287   -5.1008   21.4269 C   0  0  0  0  0  0  0  0  0  0  0  0
   -4.6587   -3.6892   23.7920 O   0  0  0  0  0  0  0  0  0  0  0  0
   -9.1843   -3.5987   22.3502 O   0  0  0  0  0  0  0  0  0  0  0  0
   -5.2411   -4.7053   21.6548 C   0  0  0  0  0  0  0  0  0  0  0  0
   -5.5800   -4.0200   22.8329 C   0  0  0  0  0  0  0  0  0  0  0  0
   -6.2470   -5.0108   20.7280 C   0  0  0  0  0  0  0  0  0  0  0  0
   -6.8951   -3.6305   23.0791 C   0  0  0  0  0  0  0  0  0  0  0  0
   -7.5685   -4.6352   20.9822 C   0  0  0  0  0  0  0  0  0  0  0  0
   -7.8810   -3.9462   22.1497 C   0  0  0  0  0  0  0  0  0  0  0  0
   -3.7591   -3.9261   23.6789 H   0  0  0  0  0  0  0  0  0  0  0  0
   -9.4314   -3.1340   23.1253 H   0  0  0  0  0  0  0  0  0  0  0  0
   -1.9287   -3.8078   23.0285 O   0  0  0  0  0  0  0  0  0  0  0  0
   -0.1588   -1.4823   19.2249 O   0  0  0  0  0  0  0  0  0  0  0  0
   -2.8655   -4.1436   20.8569 C   0  0  0  0  0  0  0  0  0  0  0  0
   -1.9247   -3.5319   21.6903 C   0  0  0  0  0  0  0  0  0  0  0  0
   -2.8862   -3.8751   19.4859 C   0  0  0  0  0  0  0  0  0  0  0  0
   -0.9964   -2.6378   21.1595 C   0  0  0  0  0  0  0  0  0  0  0  0
   -1.9710   -2.9647   18.9574 C   0  0  0  0  0  0  0  0  0  0  0  0
   -1.0349   -2.3589   19.7942 C   0  0  0  0  0  0  0  0  0  0  0  0
   -2.5547   -4.4096   23.3808 H   0  0  0  0  0  0  0  0  0  0  0  0
    0.4857   -1.0544   19.7535 H   0  0  0  0  0  0  0  0  0  0  0  0
  3  6  1  0
  3 11  1  0
 13 16  1  0
 13 21  1  0
  1  2  2  0
  4 10  1  0
  4 12  1  0
 14 20  1  0
 14 22  1  0
  5  2  1  0
  5  6  2  0
  5  7  1  0
 15  2  1  0
 15 16  2  0
 15 17  1  0
  6  8  1  0
 16 18  1  0
  7  9  2  0
 17 19  2  0
  8 10  2  0
 18 20  2  0
  9 10  1  0
 19 20  1  0
M  END
> <PUBCHEM_COMPOUND_CID>
8571

> <PUBCHEM_CONFORMER_RMSD>
0.6

> <PUBCHEM_CONFORMER_DIVERSEORDER>
3
14
8
5
6
10
13
11
12
7
2
4
9
1

> <PUBCHEM_MMFF94_PARTIAL_CHARGES>
28
1 -0.53
10 0.08
11 -0.15
12 -0.15
13 -0.15
14 -0.15
15 -0.15
16 -0.15
17 0.08
18 0.08
19 0.15
2 -0.53
20 0.15
21 0.15
22 0.15
23 0.15
24 0.15
25 0.45
26 0.45
27 0.45
28 0.45
3 -0.57
4 -0.53
5 -0.53
6 0.09
7 0.09
8 0.4
9 0.08

> <PUBCHEM_EFFECTIVE_ROTOR_COUNT>
2

> <PUBCHEM_PHARMACOPHORE_FEATURES>
7
1 1 donor
1 2 donor
1 3 acceptor
1 4 donor
1 5 donor
6 6 9 11 13 15 17 rings
6 7 10 12 14 16 18 rings

> <PUBCHEM_HEAVY_ATOM_COUNT>
18

> <PUBCHEM_ATOM_DEF_STEREO_COUNT>
0

> <PUBCHEM_ATOM_UDEF_STEREO_COUNT>
0

> <PUBCHEM_BOND_DEF_STEREO_COUNT>
0

> <PUBCHEM_BOND_UDEF_STEREO_COUNT>
0

> <PUBCHEM_ISOTOPIC_ATOM_COUNT>
0

> <PUBCHEM_COMPONENT_COUNT>
1

> <PUBCHEM_CACTVS_TAUTO_COUNT>
72

> <PUBCHEM_CONFORMER_ID>
0000217B00000003

> <PUBCHEM_MMFF94_ENERGY>
59.7646

> <PUBCHEM_FEATURE_SELFOVERLAP>
35.523

> <PUBCHEM_SHAPE_FINGERPRINT>
11471102 20 18409169892103070408
11543360 7 16558473084182650672
11578080 2 11531614863815746903
12236239 1 18131065996288699443
12730499 353 18260275135465842107
13764800 53 16298659508524951853
14115302 16 17274813641062312855
14993402 34 17846215540487606185
15309172 13 17603583049510828995
15342168 16 17968104165179409005
15775835 57 18412826888988243309
16752209 62 16702019734536568467
16945 1 18338804403115108058
1813 80 17908702826610089778
18186145 218 18334579027342918966
19784866 34 18334295413878624880
19862831 5 17703791439638752137
19868273 293 17846494850753190559
20612939 158 18410015399459763708
20645476 183 18131345336920073351
20645477 70 18339644438557177238
20871999 31 17703499013054573895
21486144 27 18040157318289672158
22079108 93 18187935001610251691
22854114 59 17458065950124340569
231179 274 17822006519258234448
23402539 116 18409442626948148612
23402655 69 18343585139818180612
23559900 14 18270131244514800908
23598291 2 17916313731579383754
25 1 18335137605093349618
2748010 2 18049736405846724776
2838139 119 17898835865392311757
3082319 5 17846778520178562597
350125 39 17829344823007393920
4028521 119 18341894112446576825
474 4 18335984259027423912
5374978 207 12973890299285696421
633830 44 18335985259854816367
74978 22 17775280611934871745
76465 3 11743574149888780620
77492 1 18131067091542367739
81228 2 16880770831219455195
8272917 22 18265617572439684195
9981440 41 17624393673978878472

> <PUBCHEM_SHAPE_MULTIPOLES>
341.08
8.1
1.9
1.16
0.73
0.35
-0.07
-4.23
-1.78
-1.35
0.05
0.84
0.24
-0.62

> <PUBCHEM_SHAPE_SELFOVERLAP>
750.848

> <PUBCHEM_SHAPE_VOLUME>
184

> <PUBCHEM_COORDINATE_TYPE>
2
5
10

> <Energy>
46.2868

> <minimizedAffinity>
-8.02913

> <CNNscore>
0.7658739090

> <CNNaffinity>
6.1536116600

> <CNN_VS>
4.7128906250

> <CNNaffinity_variance>
0.4389818907

$$$$
8571


 22 23  0  0  0  0  0  0  0  0999 V2000
   -4.1248   -3.6088   23.1847 O   0  0  0  0  0  0  0  0  0  0  0  0
   -3.9948   -3.9818   22.0219 C   0  0  0  0  0  0  0  0  0  0  0  0
   -1.5666   -2.9024   23.1236 O   0  0  0  0  0  0  0  0  0  0  0  0
    0.0498   -1.7063   18.8196 O   0  0  0  0  0  0  0  0  0  0  0  0
   -2.9347   -3.3914   21.1670 C   0  0  0  0  0  0  0  0  0  0  0  0
   -1.7741   -2.8789   21.7692 C   0  0  0  0  0  0  0  0  0  0  0  0
   -3.0702   -3.3214   19.7738 C   0  0  0  0  0  0  0  0  0  0  0  0
   -0.7569   -2.3200   20.9980 C   0  0  0  0  0  0  0  0  0  0  0  0
   -2.0579   -2.7460   19.0016 C   0  0  0  0  0  0  0  0  0  0  0  0
   -0.9107   -2.2553   19.6169 C   0  0  0  0  0  0  0  0  0  0  0  0
   -2.2174   -3.2668   23.6910 H   0  0  0  0  0  0  0  0  0  0  0  0
    0.8357   -1.3658   19.1994 H   0  0  0  0  0  0  0  0  0  0  0  0
   -3.1562   -6.6543   22.0544 O   0  0  0  0  0  0  0  0  0  0  0  0
   -7.2945   -8.0808   20.0929 O   0  0  0  0  0  0  0  0  0  0  0  0
   -4.8533   -5.0637   21.5106 C   0  0  0  0  0  0  0  0  0  0  0  0
   -4.4009   -6.3854   21.5593 C   0  0  0  0  0  0  0  0  0  0  0  0
   -6.1200   -4.7609   21.0046 C   0  0  0  0  0  0  0  0  0  0  0  0
   -5.2116   -7.4198   21.0949 C   0  0  0  0  0  0  0  0  0  0  0  0
   -6.9234   -5.7933   20.5205 C   0  0  0  0  0  0  0  0  0  0  0  0
   -6.4664   -7.1093   20.5729 C   0  0  0  0  0  0  0  0  0  0  0  0
   -2.6148   -5.9556   22.3654 H   0  0  0  0  0  0  0  0  0  0  0  0
   -7.0239   -8.9776   20.1104 H   0  0  0  0  0  0  0  0  0  0  0  0
  3  6  1  0
  3 11  1  0
 13 16  1  0
 13 21  1  0
  1  2  2  0
  4 10  1  0
  4 12  1  0
 14 20  1  0
 14 22  1  0
  5  2  1  0
  5  6  2  0
  5  7  1  0
 15  2  1  0
 15 16  2  0
 15 17  1  0
  6  8  1  0
 16 18  1  0
  7  9  2  0
 17 19  2  0
  8 10  2  0
 18 20  2  0
  9 10  1  0
 19 20  1  0
M  END
> <PUBCHEM_COMPOUND_CID>
8571

> <PUBCHEM_CONFORMER_RMSD>
0.6

> <PUBCHEM_CONFORMER_DIVERSEORDER>
3
14
8
5
6
10
13
11
12
7
2
4
9
1

> <PUBCHEM_MMFF94_PARTIAL_CHARGES>
28
1 -0.53
10 0.08
11 -0.15
12 -0.15
13 -0.15
14 -0.15
15 -0.15
16 -0.15
17 0.08
18 0.08
19 0.15
2 -0.53
20 0.15
21 0.15
22 0.15
23 0.15
24 0.15
25 0.45
26 0.45
27 0.45
28 0.45
3 -0.57
4 -0.53
5 -0.53
6 0.09
7 0.09
8 0.4
9 0.08

> <PUBCHEM_EFFECTIVE_ROTOR_COUNT>
2

> <PUBCHEM_PHARMACOPHORE_FEATURES>
7
1 1 donor
1 2 donor
1 3 acceptor
1 4 donor
1 5 donor
6 6 9 11 13 15 17 rings
6 7 10 12 14 16 18 rings

> <PUBCHEM_HEAVY_ATOM_COUNT>
18

> <PUBCHEM_ATOM_DEF_STEREO_COUNT>
0

> <PUBCHEM_ATOM_UDEF_STEREO_COUNT>
0

> <PUBCHEM_BOND_DEF_STEREO_COUNT>
0

> <PUBCHEM_BOND_UDEF_STEREO_COUNT>
0

> <PUBCHEM_ISOTOPIC_ATOM_COUNT>
0

> <PUBCHEM_COMPONENT_COUNT>
1

> <PUBCHEM_CACTVS_TAUTO_COUNT>
72

> <PUBCHEM_CONFORMER_ID>
0000217B00000003

> <PUBCHEM_MMFF94_ENERGY>
59.7646

> <PUBCHEM_FEATURE_SELFOVERLAP>
35.523

> <PUBCHEM_SHAPE_FINGERPRINT>
11471102 20 18409169892103070408
11543360 7 16558473084182650672
11578080 2 11531614863815746903
12236239 1 18131065996288699443
12730499 353 18260275135465842107
13764800 53 16298659508524951853
14115302 16 17274813641062312855
14993402 34 17846215540487606185
15309172 13 17603583049510828995
15342168 16 17968104165179409005
15775835 57 18412826888988243309
16752209 62 16702019734536568467
16945 1 18338804403115108058
1813 80 17908702826610089778
18186145 218 18334579027342918966
19784866 34 18334295413878624880
19862831 5 17703791439638752137
19868273 293 17846494850753190559
20612939 158 18410015399459763708
20645476 183 18131345336920073351
20645477 70 18339644438557177238
20871999 31 17703499013054573895
21486144 27 18040157318289672158
22079108 93 18187935001610251691
22854114 59 17458065950124340569
231179 274 17822006519258234448
23402539 116 18409442626948148612
23402655 69 18343585139818180612
23559900 14 18270131244514800908
23598291 2 17916313731579383754
25 1 18335137605093349618
2748010 2 18049736405846724776
2838139 119 17898835865392311757
3082319 5 17846778520178562597
350125 39 17829344823007393920
4028521 119 18341894112446576825
474 4 18335984259027423912
5374978 207 12973890299285696421
633830 44 18335985259854816367
74978 22 17775280611934871745
76465 3 11743574149888780620
77492 1 18131067091542367739
81228 2 16880770831219455195
8272917 22 18265617572439684195
9981440 41 17624393673978878472

> <PUBCHEM_SHAPE_MULTIPOLES>
341.08
8.1
1.9
1.16
0.73
0.35
-0.07
-4.23
-1.78
-1.35
0.05
0.84
0.24
-0.62

> <PUBCHEM_SHAPE_SELFOVERLAP>
750.848

> <PUBCHEM_SHAPE_VOLUME>
184

> <PUBCHEM_COORDINATE_TYPE>
2
5
10

> <Energy>
46.2868

> <minimizedAffinity>
-7.72977

> <CNNscore>
0.7308164239

> <CNNaffinity>
5.3368797302

> <CNN_VS>
3.9002792835

> <CNNaffinity_variance>
0.0781811997

$$$$
