6013


 22 25  0  0  0  0  0  0  0  0999 V2000
   26.9278    2.9161    4.6461 O   0  0  0  0  0  0  0  0  0  0  0  0
   17.2176    6.7764    7.5878 O   0  0  0  0  0  0  0  0  0  0  0  0
   23.8008    4.7693    4.2758 C   0  0  0  0  0  0  0  0  0  0  0  0
   24.5449    3.5549    4.8643 C   0  0  0  0  0  0  0  0  0  0  0  0
   22.2784    4.6261    4.3633 C   0  0  0  0  0  0  0  0  0  0  0  0
   21.8726    4.4832    5.8642 C   0  0  0  0  0  0  0  0  0  0  0  0
   20.3132    4.3718    6.0682 C   0  0  0  0  0  0  0  0  0  0  0  0
   24.2016    3.4673    6.3570 C   0  0  0  0  0  0  0  0  0  0  0  0
   22.6818    3.3665    6.5805 C   0  0  0  0  0  0  0  0  0  0  0  0
   25.9966    3.9782    4.5608 C   0  0  0  0  0  0  0  0  0  0  0  0
   24.4526    4.9580    2.9082 C   0  0  0  0  0  0  0  0  0  0  0  0
   21.5660    5.8313    3.7365 C   0  0  0  0  0  0  0  0  0  0  0  0
   25.9247    4.5724    3.1391 C   0  0  0  0  0  0  0  0  0  0  0  0
   19.6141    5.4921    5.2853 C   0  0  0  0  0  0  0  0  0  0  0  0
   20.0533    5.6997    3.8549 C   0  0  0  0  0  0  0  0  0  0  0  0
   24.2228    2.2039    4.1787 C   0  0  0  0  0  0  0  0  0  0  0  0
   20.0066    4.5143    7.5883 C   0  0  0  0  0  0  0  0  0  0  0  0
   19.7578    3.0187    5.5703 C   0  0  0  0  0  0  0  0  0  0  0  0
   18.5440    4.8016    7.8943 C   0  0  0  0  0  0  0  0  0  0  0  0
   18.6378    6.2628    5.7946 C   0  0  0  0  0  0  0  0  0  0  0  0
   18.0839    6.0261    7.1485 C   0  0  0  0  0  0  0  0  0  0  0  0
   26.9429    2.5713    5.5526 H   0  0  0  0  0  0  0  0  0  0  0  0
  1 10  1  0
  1 22  1  0
  2 21  2  0
  3  4  1  0
  3  5  1  0
  3 11  1  0
  4  8  1  0
  4 10  1  0
  4 16  1  0
  5  6  1  0
  5 12  1  0
  6  7  1  0
  6  9  1  0
  7 14  1  0
  7 17  1  0
  7 18  1  0
  8  9  1  0
 10 13  1  0
 11 13  1  0
 12 15  1  0
 14 15  1  0
 14 20  2  0
 17 19  1  0
 19 21  1  0
 20 21  1  0
M  END
> <PUBCHEM_COMPOUND_CID>
6013

> <PUBCHEM_CONFORMER_RMSD>
0.6

> <PUBCHEM_CONFORMER_DIVERSEORDER>
1

> <PUBCHEM_MMFF94_PARTIAL_CHARGES>
11
1 -0.68
10 0.28
14 -0.28
15 0.14
19 0.06
2 -0.57
20 -0.14
21 0.49
48 0.15
49 0.4
7 0.14

> <PUBCHEM_EFFECTIVE_ROTOR_COUNT>
1.8

> <PUBCHEM_PHARMACOPHORE_FEATURES>
7
1 1 acceptor
1 1 donor
1 2 acceptor
5 3 4 10 11 13 rings
6 3 4 5 6 8 9 rings
6 5 6 7 12 14 15 rings
6 7 14 17 19 20 21 rings

> <PUBCHEM_HEAVY_ATOM_COUNT>
21

> <PUBCHEM_ATOM_DEF_STEREO_COUNT>
6

> <PUBCHEM_ATOM_UDEF_STEREO_COUNT>
0

> <PUBCHEM_BOND_DEF_STEREO_COUNT>
0

> <PUBCHEM_BOND_UDEF_STEREO_COUNT>
0

> <PUBCHEM_ISOTOPIC_ATOM_COUNT>
0

> <PUBCHEM_COMPONENT_COUNT>
1

> <PUBCHEM_CACTVS_TAUTO_COUNT>
5

> <PUBCHEM_CONFORMER_ID>
0000177D00000001

> <PUBCHEM_MMFF94_ENERGY>
67.5416

> <PUBCHEM_FEATURE_SELFOVERLAP>
35.618

> <PUBCHEM_SHAPE_FINGERPRINT>
10062212 137 18336825385559829163
10759866 29 17897457309511876188
10967382 1 18412548682291571786
11132069 177 18410018732180467827
11370993 70 18410569557056084199
11578080 2 16735503067342509174
12011746 2 18412547592124142406
12236239 1 18040155136873436768
12251169 10 18410008845387181634
12403259 226 18410006624652160988
12403259 415 18408880746209696412
12403260 363 18340481291412090749
12403814 3 17894914044785590877
12507557 5 18408881845467772304
12633257 1 18341888602346167976
12839892 36 18340758291450253690
13140716 1 18339643467883616216
13214271 11 18272369780793716703
13224815 77 18411987974316295335
13675066 3 18187087269080573787
14178342 30 18338527339117458393
14223421 5 18341052895787930134
14341114 176 18411985737129035682
14787075 74 18339640165090922602
14790565 3 18050014594947639924
15163728 17 14691189929019880809
15196674 1 18411420639180230811
15375358 24 18413110541697833299
15536298 74 18272376330249831326
15788980 27 17167859768361771669
16945 1 18267308633664624303
17349148 13 18260547844245275310
17492 89 18410012108956776131
1813 80 17168144512515476742
18186145 218 18411423903503023558
18522853 276 18412546492037592553
19050596 39 18410858775858764633
19784866 9 18412265021155473810
200 152 18202274819337965375
20715895 44 18116989984517715477
21033648 29 18262779827106925672
21267235 1 18410302427354843602
21421861 104 18042966467372004754
21637258 2 15647319828885568714
22182313 1 18189614934485510503
22854114 111 18409735070690792279
22854114 59 18343022189864506130
23402539 116 18272925046486162621
23557571 272 18059303161493107767
23559900 14 18343023255612643838
26918003 58 18409728456589012017
2748010 2 18410304609229794207
2838139 119 14835541671104639250
296302 2 16343984710473737934
335352 9 18411702045432157758
34934 24 18341610383102269379
350125 39 18410857681354741304
351380 180 18413386540454065762
3545911 37 18411703166439727155
42 15 18260548935156425576
5104073 3 18410294747868572393
59755656 215 18339930311854621398
633830 44 17988931080225984300
69090 78 18413386557386229218
7364860 26 18200601276388112774
9709674 26 18341058445033876271

> <PUBCHEM_SHAPE_MULTIPOLES>
420.43
9.43
2.1
1.06
1.16
0.42
0.43
-0.59
-2.56
-0.22
0.02
0.09
-0.22
0.11

> <PUBCHEM_SHAPE_SELFOVERLAP>
902.625

> <PUBCHEM_SHAPE_VOLUME>
230.1

> <PUBCHEM_COORDINATE_TYPE>
2
5
10

> <Energy>
71.9966

> <minimizedAffinity>
-9.60354

> <CNNscore>
0.9204958081

> <CNNaffinity>
8.0690221786

> <CNN_VS>
7.4275012016

> <CNNaffinity_variance>
0.5024798512

$$$$
6013


 22 25  0  0  0  0  0  0  0  0999 V2000
   17.7818    3.4720    7.9836 O   0  0  0  0  0  0  0  0  0  0  0  0
   26.7302    4.0625    1.8664 O   0  0  0  0  0  0  0  0  0  0  0  0
   20.1204    4.9409    5.5914 C   0  0  0  0  0  0  0  0  0  0  0  0
   19.8977    4.0750    6.8466 C   0  0  0  0  0  0  0  0  0  0  0  0
   21.5864    5.3439    5.4066 C   0  0  0  0  0  0  0  0  0  0  0  0
   22.4497    4.0503    5.2687 C   0  0  0  0  0  0  0  0  0  0  0  0
   23.9777    4.3571    5.0305 C   0  0  0  0  0  0  0  0  0  0  0  0
   20.6877    2.7719    6.6690 C   0  0  0  0  0  0  0  0  0  0  0  0
   22.1826    3.0481    6.4261 C   0  0  0  0  0  0  0  0  0  0  0  0
   18.3656    3.9147    6.7730 C   0  0  0  0  0  0  0  0  0  0  0  0
   19.0597    6.0315    5.7182 C   0  0  0  0  0  0  0  0  0  0  0  0
   21.7704    6.2351    4.1718 C   0  0  0  0  0  0  0  0  0  0  0  0
   17.8611    5.3142    6.3648 C   0  0  0  0  0  0  0  0  0  0  0  0
   24.1221    5.3865    3.9008 C   0  0  0  0  0  0  0  0  0  0  0  0
   23.2341    6.6065    3.9737 C   0  0  0  0  0  0  0  0  0  0  0  0
   20.3057    4.7503    8.1795 C   0  0  0  0  0  0  0  0  0  0  0  0
   24.6879    3.0292    4.6336 C   0  0  0  0  0  0  0  0  0  0  0  0
   24.6584    4.9306    6.2933 C   0  0  0  0  0  0  0  0  0  0  0  0
   26.0635    3.2310    4.0152 C   0  0  0  0  0  0  0  0  0  0  0  0
   24.9963    5.2660    2.8871 C   0  0  0  0  0  0  0  0  0  0  0  0
   25.9738    4.1538    2.8287 C   0  0  0  0  0  0  0  0  0  0  0  0
   18.1238    2.5916    8.2046 H   0  0  0  0  0  0  0  0  0  0  0  0
  1 10  1  0
  1 22  1  0
  2 21  2  0
  3  4  1  0
  3  5  1  0
  3 11  1  0
  4  8  1  0
  4 10  1  0
  4 16  1  0
  5  6  1  0
  5 12  1  0
  6  7  1  0
  6  9  1  0
  7 14  1  0
  7 17  1  0
  7 18  1  0
  8  9  1  0
 10 13  1  0
 11 13  1  0
 12 15  1  0
 14 15  1  0
 14 20  2  0
 17 19  1  0
 19 21  1  0
 20 21  1  0
M  END
> <PUBCHEM_COMPOUND_CID>
6013

> <PUBCHEM_CONFORMER_RMSD>
0.6

> <PUBCHEM_CONFORMER_DIVERSEORDER>
1

> <PUBCHEM_MMFF94_PARTIAL_CHARGES>
11
1 -0.68
10 0.28
14 -0.28
15 0.14
19 0.06
2 -0.57
20 -0.14
21 0.49
48 0.15
49 0.4
7 0.14

> <PUBCHEM_EFFECTIVE_ROTOR_COUNT>
1.8

> <PUBCHEM_PHARMACOPHORE_FEATURES>
7
1 1 acceptor
1 1 donor
1 2 acceptor
5 3 4 10 11 13 rings
6 3 4 5 6 8 9 rings
6 5 6 7 12 14 15 rings
6 7 14 17 19 20 21 rings

> <PUBCHEM_HEAVY_ATOM_COUNT>
21

> <PUBCHEM_ATOM_DEF_STEREO_COUNT>
6

> <PUBCHEM_ATOM_UDEF_STEREO_COUNT>
0

> <PUBCHEM_BOND_DEF_STEREO_COUNT>
0

> <PUBCHEM_BOND_UDEF_STEREO_COUNT>
0

> <PUBCHEM_ISOTOPIC_ATOM_COUNT>
0

> <PUBCHEM_COMPONENT_COUNT>
1

> <PUBCHEM_CACTVS_TAUTO_COUNT>
5

> <PUBCHEM_CONFORMER_ID>
0000177D00000001

> <PUBCHEM_MMFF94_ENERGY>
67.5416

> <PUBCHEM_FEATURE_SELFOVERLAP>
35.618

> <PUBCHEM_SHAPE_FINGERPRINT>
10062212 137 18336825385559829163
10759866 29 17897457309511876188
10967382 1 18412548682291571786
11132069 177 18410018732180467827
11370993 70 18410569557056084199
11578080 2 16735503067342509174
12011746 2 18412547592124142406
12236239 1 18040155136873436768
12251169 10 18410008845387181634
12403259 226 18410006624652160988
12403259 415 18408880746209696412
12403260 363 18340481291412090749
12403814 3 17894914044785590877
12507557 5 18408881845467772304
12633257 1 18341888602346167976
12839892 36 18340758291450253690
13140716 1 18339643467883616216
13214271 11 18272369780793716703
13224815 77 18411987974316295335
13675066 3 18187087269080573787
14178342 30 18338527339117458393
14223421 5 18341052895787930134
14341114 176 18411985737129035682
14787075 74 18339640165090922602
14790565 3 18050014594947639924
15163728 17 14691189929019880809
15196674 1 18411420639180230811
15375358 24 18413110541697833299
15536298 74 18272376330249831326
15788980 27 17167859768361771669
16945 1 18267308633664624303
17349148 13 18260547844245275310
17492 89 18410012108956776131
1813 80 17168144512515476742
18186145 218 18411423903503023558
18522853 276 18412546492037592553
19050596 39 18410858775858764633
19784866 9 18412265021155473810
200 152 18202274819337965375
20715895 44 18116989984517715477
21033648 29 18262779827106925672
21267235 1 18410302427354843602
21421861 104 18042966467372004754
21637258 2 15647319828885568714
22182313 1 18189614934485510503
22854114 111 18409735070690792279
22854114 59 18343022189864506130
23402539 116 18272925046486162621
23557571 272 18059303161493107767
23559900 14 18343023255612643838
26918003 58 18409728456589012017
2748010 2 18410304609229794207
2838139 119 14835541671104639250
296302 2 16343984710473737934
335352 9 18411702045432157758
34934 24 18341610383102269379
350125 39 18410857681354741304
351380 180 18413386540454065762
3545911 37 18411703166439727155
42 15 18260548935156425576
5104073 3 18410294747868572393
59755656 215 18339930311854621398
633830 44 17988931080225984300
69090 78 18413386557386229218
7364860 26 18200601276388112774
9709674 26 18341058445033876271

> <PUBCHEM_SHAPE_MULTIPOLES>
420.43
9.43
2.1
1.06
1.16
0.42
0.43
-0.59
-2.56
-0.22
0.02
0.09
-0.22
0.11

> <PUBCHEM_SHAPE_SELFOVERLAP>
902.625

> <PUBCHEM_SHAPE_VOLUME>
230.1

> <PUBCHEM_COORDINATE_TYPE>
2
5
10

> <Energy>
71.9966

> <minimizedAffinity>
-8.51736

> <CNNscore>
0.8636150360

> <CNNaffinity>
7.7920818329

> <CNN_VS>
6.7293591499

> <CNNaffinity_variance>
0.4793587029

$$$$
6013


 22 25  0  0  0  0  0  0  0  0999 V2000
   26.8286    4.2471    3.3310 O   0  0  0  0  0  0  0  0  0  0  0  0
   17.4844    6.2449    8.4824 O   0  0  0  0  0  0  0  0  0  0  0  0
   23.2602    4.9631    3.6519 C   0  0  0  0  0  0  0  0  0  0  0  0
   24.5182    4.2796    4.2222 C   0  0  0  0  0  0  0  0  0  0  0  0
   21.9706    4.4711    4.3157 C   0  0  0  0  0  0  0  0  0  0  0  0
   22.0440    4.7777    5.8449 C   0  0  0  0  0  0  0  0  0  0  0  0
   20.7396    4.3465    6.6185 C   0  0  0  0  0  0  0  0  0  0  0  0
   24.6254    4.6491    5.7074 C   0  0  0  0  0  0  0  0  0  0  0  0
   23.3576    4.2447    6.4815 C   0  0  0  0  0  0  0  0  0  0  0  0
   25.5874    4.9266    3.3185 C   0  0  0  0  0  0  0  0  0  0  0  0
   23.4248    4.8093    2.1420 C   0  0  0  0  0  0  0  0  0  0  0  0
   20.7345    5.1408    3.7020 C   0  0  0  0  0  0  0  0  0  0  0  0
   24.9427    4.9289    1.9170 C   0  0  0  0  0  0  0  0  0  0  0  0
   19.5062    4.8874    5.8817 C   0  0  0  0  0  0  0  0  0  0  0  0
   19.4573    4.6728    4.3872 C   0  0  0  0  0  0  0  0  0  0  0  0
   24.5433    2.7386    4.0689 C   0  0  0  0  0  0  0  0  0  0  0  0
   20.8034    4.9416    8.0562 C   0  0  0  0  0  0  0  0  0  0  0  0
   20.6047    2.8106    6.7182 C   0  0  0  0  0  0  0  0  0  0  0  0
   19.4673    4.9296    8.7843 C   0  0  0  0  0  0  0  0  0  0  0  0
   18.4828    5.5080    6.4933 C   0  0  0  0  0  0  0  0  0  0  0  0
   18.4199    5.6393    7.9680 C   0  0  0  0  0  0  0  0  0  0  0  0
   27.1998    4.2681    4.2269 H   0  0  0  0  0  0  0  0  0  0  0  0
  1 10  1  0
  1 22  1  0
  2 21  2  0
  3  4  1  0
  3  5  1  0
  3 11  1  0
  4  8  1  0
  4 10  1  0
  4 16  1  0
  5  6  1  0
  5 12  1  0
  6  7  1  0
  6  9  1  0
  7 14  1  0
  7 17  1  0
  7 18  1  0
  8  9  1  0
 10 13  1  0
 11 13  1  0
 12 15  1  0
 14 15  1  0
 14 20  2  0
 17 19  1  0
 19 21  1  0
 20 21  1  0
M  END
> <PUBCHEM_COMPOUND_CID>
6013

> <PUBCHEM_CONFORMER_RMSD>
0.6

> <PUBCHEM_CONFORMER_DIVERSEORDER>
1

> <PUBCHEM_MMFF94_PARTIAL_CHARGES>
11
1 -0.68
10 0.28
14 -0.28
15 0.14
19 0.06
2 -0.57
20 -0.14
21 0.49
48 0.15
49 0.4
7 0.14

> <PUBCHEM_EFFECTIVE_ROTOR_COUNT>
1.8

> <PUBCHEM_PHARMACOPHORE_FEATURES>
7
1 1 acceptor
1 1 donor
1 2 acceptor
5 3 4 10 11 13 rings
6 3 4 5 6 8 9 rings
6 5 6 7 12 14 15 rings
6 7 14 17 19 20 21 rings

> <PUBCHEM_HEAVY_ATOM_COUNT>
21

> <PUBCHEM_ATOM_DEF_STEREO_COUNT>
6

> <PUBCHEM_ATOM_UDEF_STEREO_COUNT>
0

> <PUBCHEM_BOND_DEF_STEREO_COUNT>
0

> <PUBCHEM_BOND_UDEF_STEREO_COUNT>
0

> <PUBCHEM_ISOTOPIC_ATOM_COUNT>
0

> <PUBCHEM_COMPONENT_COUNT>
1

> <PUBCHEM_CACTVS_TAUTO_COUNT>
5

> <PUBCHEM_CONFORMER_ID>
0000177D00000001

> <PUBCHEM_MMFF94_ENERGY>
67.5416

> <PUBCHEM_FEATURE_SELFOVERLAP>
35.618

> <PUBCHEM_SHAPE_FINGERPRINT>
10062212 137 18336825385559829163
10759866 29 17897457309511876188
10967382 1 18412548682291571786
11132069 177 18410018732180467827
11370993 70 18410569557056084199
11578080 2 16735503067342509174
12011746 2 18412547592124142406
12236239 1 18040155136873436768
12251169 10 18410008845387181634
12403259 226 18410006624652160988
12403259 415 18408880746209696412
12403260 363 18340481291412090749
12403814 3 17894914044785590877
12507557 5 18408881845467772304
12633257 1 18341888602346167976
12839892 36 18340758291450253690
13140716 1 18339643467883616216
13214271 11 18272369780793716703
13224815 77 18411987974316295335
13675066 3 18187087269080573787
14178342 30 18338527339117458393
14223421 5 18341052895787930134
14341114 176 18411985737129035682
14787075 74 18339640165090922602
14790565 3 18050014594947639924
15163728 17 14691189929019880809
15196674 1 18411420639180230811
15375358 24 18413110541697833299
15536298 74 18272376330249831326
15788980 27 17167859768361771669
16945 1 18267308633664624303
17349148 13 18260547844245275310
17492 89 18410012108956776131
1813 80 17168144512515476742
18186145 218 18411423903503023558
18522853 276 18412546492037592553
19050596 39 18410858775858764633
19784866 9 18412265021155473810
200 152 18202274819337965375
20715895 44 18116989984517715477
21033648 29 18262779827106925672
21267235 1 18410302427354843602
21421861 104 18042966467372004754
21637258 2 15647319828885568714
22182313 1 18189614934485510503
22854114 111 18409735070690792279
22854114 59 18343022189864506130
23402539 116 18272925046486162621
23557571 272 18059303161493107767
23559900 14 18343023255612643838
26918003 58 18409728456589012017
2748010 2 18410304609229794207
2838139 119 14835541671104639250
296302 2 16343984710473737934
335352 9 18411702045432157758
34934 24 18341610383102269379
350125 39 18410857681354741304
351380 180 18413386540454065762
3545911 37 18411703166439727155
42 15 18260548935156425576
5104073 3 18410294747868572393
59755656 215 18339930311854621398
633830 44 17988931080225984300
69090 78 18413386557386229218
7364860 26 18200601276388112774
9709674 26 18341058445033876271

> <PUBCHEM_SHAPE_MULTIPOLES>
420.43
9.43
2.1
1.06
1.16
0.42
0.43
-0.59
-2.56
-0.22
0.02
0.09
-0.22
0.11

> <PUBCHEM_SHAPE_SELFOVERLAP>
902.625

> <PUBCHEM_SHAPE_VOLUME>
230.1

> <PUBCHEM_COORDINATE_TYPE>
2
5
10

> <Energy>
71.9966

> <minimizedAffinity>
-9.14852

> <CNNscore>
0.7227643132

> <CNNaffinity>
7.5111536980

> <CNN_VS>
5.4287939072

> <CNNaffinity_variance>
0.2766733468

$$$$
6013


 22 25  0  0  0  0  0  0  0  0999 V2000
   17.7562    6.6951    6.4052 O   0  0  0  0  0  0  0  0  0  0  0  0
   27.3769    1.9230    4.8199 O   0  0  0  0  0  0  0  0  0  0  0  0
   20.1709    3.9540    6.3316 C   0  0  0  0  0  0  0  0  0  0  0  0
   19.6684    5.2771    5.7220 C   0  0  0  0  0  0  0  0  0  0  0  0
   21.1665    3.2274    5.4225 C   0  0  0  0  0  0  0  0  0  0  0  0
   22.3989    4.1559    5.1834 C   0  0  0  0  0  0  0  0  0  0  0  0
   23.5085    3.4813    4.2893 C   0  0  0  0  0  0  0  0  0  0  0  0
   20.8738    6.2126    5.5621 C   0  0  0  0  0  0  0  0  0  0  0  0
   21.9748    5.5702    4.6988 C   0  0  0  0  0  0  0  0  0  0  0  0
   18.6688    5.6960    6.8193 C   0  0  0  0  0  0  0  0  0  0  0  0
   18.8857    3.2419    6.7460 C   0  0  0  0  0  0  0  0  0  0  0  0
   21.6194    1.8975    6.0384 C   0  0  0  0  0  0  0  0  0  0  0  0
   17.9557    4.3818    7.1988 C   0  0  0  0  0  0  0  0  0  0  0  0
   23.8174    2.0782    4.8302 C   0  0  0  0  0  0  0  0  0  0  0  0
   22.6337    1.1944    5.1460 C   0  0  0  0  0  0  0  0  0  0  0  0
   18.9440    5.1288    4.3610 C   0  0  0  0  0  0  0  0  0  0  0  0
   24.7885    4.3666    4.3462 C   0  0  0  0  0  0  0  0  0  0  0  0
   23.0619    3.3413    2.8169 C   0  0  0  0  0  0  0  0  0  0  0  0
   26.0427    3.6634    3.8484 C   0  0  0  0  0  0  0  0  0  0  0  0
   25.0621    1.6039    5.0099 C   0  0  0  0  0  0  0  0  0  0  0  0
   26.2580    2.3794    4.6047 C   0  0  0  0  0  0  0  0  0  0  0  0
   18.2425    7.5024    6.1762 H   0  0  0  0  0  0  0  0  0  0  0  0
  1 10  1  0
  1 22  1  0
  2 21  2  0
  3  4  1  0
  3  5  1  0
  3 11  1  0
  4  8  1  0
  4 10  1  0
  4 16  1  0
  5  6  1  0
  5 12  1  0
  6  7  1  0
  6  9  1  0
  7 14  1  0
  7 17  1  0
  7 18  1  0
  8  9  1  0
 10 13  1  0
 11 13  1  0
 12 15  1  0
 14 15  1  0
 14 20  2  0
 17 19  1  0
 19 21  1  0
 20 21  1  0
M  END
> <PUBCHEM_COMPOUND_CID>
6013

> <PUBCHEM_CONFORMER_RMSD>
0.6

> <PUBCHEM_CONFORMER_DIVERSEORDER>
1

> <PUBCHEM_MMFF94_PARTIAL_CHARGES>
11
1 -0.68
10 0.28
14 -0.28
15 0.14
19 0.06
2 -0.57
20 -0.14
21 0.49
48 0.15
49 0.4
7 0.14

> <PUBCHEM_EFFECTIVE_ROTOR_COUNT>
1.8

> <PUBCHEM_PHARMACOPHORE_FEATURES>
7
1 1 acceptor
1 1 donor
1 2 acceptor
5 3 4 10 11 13 rings
6 3 4 5 6 8 9 rings
6 5 6 7 12 14 15 rings
6 7 14 17 19 20 21 rings

> <PUBCHEM_HEAVY_ATOM_COUNT>
21

> <PUBCHEM_ATOM_DEF_STEREO_COUNT>
6

> <PUBCHEM_ATOM_UDEF_STEREO_COUNT>
0

> <PUBCHEM_BOND_DEF_STEREO_COUNT>
0

> <PUBCHEM_BOND_UDEF_STEREO_COUNT>
0

> <PUBCHEM_ISOTOPIC_ATOM_COUNT>
0

> <PUBCHEM_COMPONENT_COUNT>
1

> <PUBCHEM_CACTVS_TAUTO_COUNT>
5

> <PUBCHEM_CONFORMER_ID>
0000177D00000001

> <PUBCHEM_MMFF94_ENERGY>
67.5416

> <PUBCHEM_FEATURE_SELFOVERLAP>
35.618

> <PUBCHEM_SHAPE_FINGERPRINT>
10062212 137 18336825385559829163
10759866 29 17897457309511876188
10967382 1 18412548682291571786
11132069 177 18410018732180467827
11370993 70 18410569557056084199
11578080 2 16735503067342509174
12011746 2 18412547592124142406
12236239 1 18040155136873436768
12251169 10 18410008845387181634
12403259 226 18410006624652160988
12403259 415 18408880746209696412
12403260 363 18340481291412090749
12403814 3 17894914044785590877
12507557 5 18408881845467772304
12633257 1 18341888602346167976
12839892 36 18340758291450253690
13140716 1 18339643467883616216
13214271 11 18272369780793716703
13224815 77 18411987974316295335
13675066 3 18187087269080573787
14178342 30 18338527339117458393
14223421 5 18341052895787930134
14341114 176 18411985737129035682
14787075 74 18339640165090922602
14790565 3 18050014594947639924
15163728 17 14691189929019880809
15196674 1 18411420639180230811
15375358 24 18413110541697833299
15536298 74 18272376330249831326
15788980 27 17167859768361771669
16945 1 18267308633664624303
17349148 13 18260547844245275310
17492 89 18410012108956776131
1813 80 17168144512515476742
18186145 218 18411423903503023558
18522853 276 18412546492037592553
19050596 39 18410858775858764633
19784866 9 18412265021155473810
200 152 18202274819337965375
20715895 44 18116989984517715477
21033648 29 18262779827106925672
21267235 1 18410302427354843602
21421861 104 18042966467372004754
21637258 2 15647319828885568714
22182313 1 18189614934485510503
22854114 111 18409735070690792279
22854114 59 18343022189864506130
23402539 116 18272925046486162621
23557571 272 18059303161493107767
23559900 14 18343023255612643838
26918003 58 18409728456589012017
2748010 2 18410304609229794207
2838139 119 14835541671104639250
296302 2 16343984710473737934
335352 9 18411702045432157758
34934 24 18341610383102269379
350125 39 18410857681354741304
351380 180 18413386540454065762
3545911 37 18411703166439727155
42 15 18260548935156425576
5104073 3 18410294747868572393
59755656 215 18339930311854621398
633830 44 17988931080225984300
69090 78 18413386557386229218
7364860 26 18200601276388112774
9709674 26 18341058445033876271

> <PUBCHEM_SHAPE_MULTIPOLES>
420.43
9.43
2.1
1.06
1.16
0.42
0.43
-0.59
-2.56
-0.22
0.02
0.09
-0.22
0.11

> <PUBCHEM_SHAPE_SELFOVERLAP>
902.625

> <PUBCHEM_SHAPE_VOLUME>
230.1

> <PUBCHEM_COORDINATE_TYPE>
2
5
10

> <Energy>
71.9966

> <minimizedAffinity>
-8.59650

> <CNNscore>
0.7207354307

> <CNNaffinity>
7.3764896393

> <CNN_VS>
5.3164973259

> <CNNaffinity_variance>
0.2295584232

$$$$
6013


 22 25  0  0  0  0  0  0  0  0999 V2000
   16.8608    4.4590    7.0385 O   0  0  0  0  0  0  0  0  0  0  0  0
   26.7844    2.3217    3.1918 O   0  0  0  0  0  0  0  0  0  0  0  0
   20.0501    5.1673    5.4026 C   0  0  0  0  0  0  0  0  0  0  0  0
   19.2718    4.3837    6.4773 C   0  0  0  0  0  0  0  0  0  0  0  0
   21.5671    5.0843    5.5962 C   0  0  0  0  0  0  0  0  0  0  0  0
   22.0020    3.5866    5.5214 C   0  0  0  0  0  0  0  0  0  0  0  0
   23.5600    3.3941    5.6672 C   0  0  0  0  0  0  0  0  0  0  0  0
   19.6463    2.9016    6.3465 C   0  0  0  0  0  0  0  0  0  0  0  0
   21.1657    2.6908    6.4771 C   0  0  0  0  0  0  0  0  0  0  0  0
   17.8316    4.7250    6.0439 C   0  0  0  0  0  0  0  0  0  0  0  0
   19.3745    6.5363    5.4008 C   0  0  0  0  0  0  0  0  0  0  0  0
   22.3124    5.9037    4.5351 C   0  0  0  0  0  0  0  0  0  0  0  0
   17.8939    6.2232    5.6817 C   0  0  0  0  0  0  0  0  0  0  0  0
   24.2850    4.3541    4.7135 C   0  0  0  0  0  0  0  0  0  0  0  0
   23.8210    5.7918    4.7121 C   0  0  0  0  0  0  0  0  0  0  0  0
   19.5234    4.8549    7.9312 C   0  0  0  0  0  0  0  0  0  0  0  0
   23.9077    1.9203    5.3034 C   0  0  0  0  0  0  0  0  0  0  0  0
   24.0489    3.6835    7.1039 C   0  0  0  0  0  0  0  0  0  0  0  0
   25.3874    1.6878    5.0356 C   0  0  0  0  0  0  0  0  0  0  0  0
   25.3030    3.9882    3.9160 C   0  0  0  0  0  0  0  0  0  0  0  0
   25.8786    2.6235    3.9630 C   0  0  0  0  0  0  0  0  0  0  0  0
   16.8532    3.5096    7.2372 H   0  0  0  0  0  0  0  0  0  0  0  0
  1 10  1  0
  1 22  1  0
  2 21  2  0
  3  4  1  0
  3  5  1  0
  3 11  1  0
  4  8  1  0
  4 10  1  0
  4 16  1  0
  5  6  1  0
  5 12  1  0
  6  7  1  0
  6  9  1  0
  7 14  1  0
  7 17  1  0
  7 18  1  0
  8  9  1  0
 10 13  1  0
 11 13  1  0
 12 15  1  0
 14 15  1  0
 14 20  2  0
 17 19  1  0
 19 21  1  0
 20 21  1  0
M  END
> <PUBCHEM_COMPOUND_CID>
6013

> <PUBCHEM_CONFORMER_RMSD>
0.6

> <PUBCHEM_CONFORMER_DIVERSEORDER>
1

> <PUBCHEM_MMFF94_PARTIAL_CHARGES>
11
1 -0.68
10 0.28
14 -0.28
15 0.14
19 0.06
2 -0.57
20 -0.14
21 0.49
48 0.15
49 0.4
7 0.14

> <PUBCHEM_EFFECTIVE_ROTOR_COUNT>
1.8

> <PUBCHEM_PHARMACOPHORE_FEATURES>
7
1 1 acceptor
1 1 donor
1 2 acceptor
5 3 4 10 11 13 rings
6 3 4 5 6 8 9 rings
6 5 6 7 12 14 15 rings
6 7 14 17 19 20 21 rings

> <PUBCHEM_HEAVY_ATOM_COUNT>
21

> <PUBCHEM_ATOM_DEF_STEREO_COUNT>
6

> <PUBCHEM_ATOM_UDEF_STEREO_COUNT>
0

> <PUBCHEM_BOND_DEF_STEREO_COUNT>
0

> <PUBCHEM_BOND_UDEF_STEREO_COUNT>
0

> <PUBCHEM_ISOTOPIC_ATOM_COUNT>
0

> <PUBCHEM_COMPONENT_COUNT>
1

> <PUBCHEM_CACTVS_TAUTO_COUNT>
5

> <PUBCHEM_CONFORMER_ID>
0000177D00000001

> <PUBCHEM_MMFF94_ENERGY>
67.5416

> <PUBCHEM_FEATURE_SELFOVERLAP>
35.618

> <PUBCHEM_SHAPE_FINGERPRINT>
10062212 137 18336825385559829163
10759866 29 17897457309511876188
10967382 1 18412548682291571786
11132069 177 18410018732180467827
11370993 70 18410569557056084199
11578080 2 16735503067342509174
12011746 2 18412547592124142406
12236239 1 18040155136873436768
12251169 10 18410008845387181634
12403259 226 18410006624652160988
12403259 415 18408880746209696412
12403260 363 18340481291412090749
12403814 3 17894914044785590877
12507557 5 18408881845467772304
12633257 1 18341888602346167976
12839892 36 18340758291450253690
13140716 1 18339643467883616216
13214271 11 18272369780793716703
13224815 77 18411987974316295335
13675066 3 18187087269080573787
14178342 30 18338527339117458393
14223421 5 18341052895787930134
14341114 176 18411985737129035682
14787075 74 18339640165090922602
14790565 3 18050014594947639924
15163728 17 14691189929019880809
15196674 1 18411420639180230811
15375358 24 18413110541697833299
15536298 74 18272376330249831326
15788980 27 17167859768361771669
16945 1 18267308633664624303
17349148 13 18260547844245275310
17492 89 18410012108956776131
1813 80 17168144512515476742
18186145 218 18411423903503023558
18522853 276 18412546492037592553
19050596 39 18410858775858764633
19784866 9 18412265021155473810
200 152 18202274819337965375
20715895 44 18116989984517715477
21033648 29 18262779827106925672
21267235 1 18410302427354843602
21421861 104 18042966467372004754
21637258 2 15647319828885568714
22182313 1 18189614934485510503
22854114 111 18409735070690792279
22854114 59 18343022189864506130
23402539 116 18272925046486162621
23557571 272 18059303161493107767
23559900 14 18343023255612643838
26918003 58 18409728456589012017
2748010 2 18410304609229794207
2838139 119 14835541671104639250
296302 2 16343984710473737934
335352 9 18411702045432157758
34934 24 18341610383102269379
350125 39 18410857681354741304
351380 180 18413386540454065762
3545911 37 18411703166439727155
42 15 18260548935156425576
5104073 3 18410294747868572393
59755656 215 18339930311854621398
633830 44 17988931080225984300
69090 78 18413386557386229218
7364860 26 18200601276388112774
9709674 26 18341058445033876271

> <PUBCHEM_SHAPE_MULTIPOLES>
420.43
9.43
2.1
1.06
1.16
0.42
0.43
-0.59
-2.56
-0.22
0.02
0.09
-0.22
0.11

> <PUBCHEM_SHAPE_SELFOVERLAP>
902.625

> <PUBCHEM_SHAPE_VOLUME>
230.1

> <PUBCHEM_COORDINATE_TYPE>
2
5
10

> <Energy>
71.9966

> <minimizedAffinity>
-8.07725

> <CNNscore>
0.7109169364

> <CNNaffinity>
7.3516159058

> <CNN_VS>
5.2263884544

> <CNNaffinity_variance>
0.2688851655

$$$$
6013


 22 25  0  0  0  0  0  0  0  0999 V2000
   16.6813    6.1349    5.8696 O   0  0  0  0  0  0  0  0  0  0  0  0
   27.3377    4.0764    5.6532 O   0  0  0  0  0  0  0  0  0  0  0  0
   19.8384    4.6657    6.9759 C   0  0  0  0  0  0  0  0  0  0  0  0
   18.9527    5.1494    5.8113 C   0  0  0  0  0  0  0  0  0  0  0  0
   21.0252    3.8215    6.5019 C   0  0  0  0  0  0  0  0  0  0  0  0
   21.9048    4.6847    5.5432 C   0  0  0  0  0  0  0  0  0  0  0  0
   23.1832    3.9180    5.0297 C   0  0  0  0  0  0  0  0  0  0  0  0
   19.8035    6.0595    4.9159 C   0  0  0  0  0  0  0  0  0  0  0  0
   21.0630    5.3334    4.4094 C   0  0  0  0  0  0  0  0  0  0  0  0
   17.8567    5.8785    6.6148 C   0  0  0  0  0  0  0  0  0  0  0  0
   18.8379    4.0580    7.9558 C   0  0  0  0  0  0  0  0  0  0  0  0
   21.8658    3.3239    7.6845 C   0  0  0  0  0  0  0  0  0  0  0  0
   17.5894    4.9473    7.8153 C   0  0  0  0  0  0  0  0  0  0  0  0
   23.9114    3.2825    6.2224 C   0  0  0  0  0  0  0  0  0  0  0  0
   23.0628    2.5123    7.2066 C   0  0  0  0  0  0  0  0  0  0  0  0
   18.3314    4.0167    4.9568 C   0  0  0  0  0  0  0  0  0  0  0  0
   24.1174    4.9429    4.3211 C   0  0  0  0  0  0  0  0  0  0  0  0
   22.8244    2.7946    4.0315 C   0  0  0  0  0  0  0  0  0  0  0  0
   25.5363    4.4353    4.1107 C   0  0  0  0  0  0  0  0  0  0  0  0
   25.2395    3.3592    6.4143 C   0  0  0  0  0  0  0  0  0  0  0  0
   26.1352    3.9969    5.4208 C   0  0  0  0  0  0  0  0  0  0  0  0
   16.8912    6.7219    5.1265 H   0  0  0  0  0  0  0  0  0  0  0  0
  1 10  1  0
  1 22  1  0
  2 21  2  0
  3  4  1  0
  3  5  1  0
  3 11  1  0
  4  8  1  0
  4 10  1  0
  4 16  1  0
  5  6  1  0
  5 12  1  0
  6  7  1  0
  6  9  1  0
  7 14  1  0
  7 17  1  0
  7 18  1  0
  8  9  1  0
 10 13  1  0
 11 13  1  0
 12 15  1  0
 14 15  1  0
 14 20  2  0
 17 19  1  0
 19 21  1  0
 20 21  1  0
M  END
> <PUBCHEM_COMPOUND_CID>
6013

> <PUBCHEM_CONFORMER_RMSD>
0.6

> <PUBCHEM_CONFORMER_DIVERSEORDER>
1

> <PUBCHEM_MMFF94_PARTIAL_CHARGES>
11
1 -0.68
10 0.28
14 -0.28
15 0.14
19 0.06
2 -0.57
20 -0.14
21 0.49
48 0.15
49 0.4
7 0.14

> <PUBCHEM_EFFECTIVE_ROTOR_COUNT>
1.8

> <PUBCHEM_PHARMACOPHORE_FEATURES>
7
1 1 acceptor
1 1 donor
1 2 acceptor
5 3 4 10 11 13 rings
6 3 4 5 6 8 9 rings
6 5 6 7 12 14 15 rings
6 7 14 17 19 20 21 rings

> <PUBCHEM_HEAVY_ATOM_COUNT>
21

> <PUBCHEM_ATOM_DEF_STEREO_COUNT>
6

> <PUBCHEM_ATOM_UDEF_STEREO_COUNT>
0

> <PUBCHEM_BOND_DEF_STEREO_COUNT>
0

> <PUBCHEM_BOND_UDEF_STEREO_COUNT>
0

> <PUBCHEM_ISOTOPIC_ATOM_COUNT>
0

> <PUBCHEM_COMPONENT_COUNT>
1

> <PUBCHEM_CACTVS_TAUTO_COUNT>
5

> <PUBCHEM_CONFORMER_ID>
0000177D00000001

> <PUBCHEM_MMFF94_ENERGY>
67.5416

> <PUBCHEM_FEATURE_SELFOVERLAP>
35.618

> <PUBCHEM_SHAPE_FINGERPRINT>
10062212 137 18336825385559829163
10759866 29 17897457309511876188
10967382 1 18412548682291571786
11132069 177 18410018732180467827
11370993 70 18410569557056084199
11578080 2 16735503067342509174
12011746 2 18412547592124142406
12236239 1 18040155136873436768
12251169 10 18410008845387181634
12403259 226 18410006624652160988
12403259 415 18408880746209696412
12403260 363 18340481291412090749
12403814 3 17894914044785590877
12507557 5 18408881845467772304
12633257 1 18341888602346167976
12839892 36 18340758291450253690
13140716 1 18339643467883616216
13214271 11 18272369780793716703
13224815 77 18411987974316295335
13675066 3 18187087269080573787
14178342 30 18338527339117458393
14223421 5 18341052895787930134
14341114 176 18411985737129035682
14787075 74 18339640165090922602
14790565 3 18050014594947639924
15163728 17 14691189929019880809
15196674 1 18411420639180230811
15375358 24 18413110541697833299
15536298 74 18272376330249831326
15788980 27 17167859768361771669
16945 1 18267308633664624303
17349148 13 18260547844245275310
17492 89 18410012108956776131
1813 80 17168144512515476742
18186145 218 18411423903503023558
18522853 276 18412546492037592553
19050596 39 18410858775858764633
19784866 9 18412265021155473810
200 152 18202274819337965375
20715895 44 18116989984517715477
21033648 29 18262779827106925672
21267235 1 18410302427354843602
21421861 104 18042966467372004754
21637258 2 15647319828885568714
22182313 1 18189614934485510503
22854114 111 18409735070690792279
22854114 59 18343022189864506130
23402539 116 18272925046486162621
23557571 272 18059303161493107767
23559900 14 18343023255612643838
26918003 58 18409728456589012017
2748010 2 18410304609229794207
2838139 119 14835541671104639250
296302 2 16343984710473737934
335352 9 18411702045432157758
34934 24 18341610383102269379
350125 39 18410857681354741304
351380 180 18413386540454065762
3545911 37 18411703166439727155
42 15 18260548935156425576
5104073 3 18410294747868572393
59755656 215 18339930311854621398
633830 44 17988931080225984300
69090 78 18413386557386229218
7364860 26 18200601276388112774
9709674 26 18341058445033876271

> <PUBCHEM_SHAPE_MULTIPOLES>
420.43
9.43
2.1
1.06
1.16
0.42
0.43
-0.59
-2.56
-0.22
0.02
0.09
-0.22
0.11

> <PUBCHEM_SHAPE_SELFOVERLAP>
902.625

> <PUBCHEM_SHAPE_VOLUME>
230.1

> <PUBCHEM_COORDINATE_TYPE>
2
5
10

> <Energy>
71.9966

> <minimizedAffinity>
-5.95374

> <CNNscore>
0.6116706133

> <CNNaffinity>
7.0707168579

> <CNN_VS>
4.3249497414

> <CNNaffinity_variance>
0.1418937445

$$$$
6013


 22 25  0  0  0  0  0  0  0  0999 V2000
   16.7968    5.5285    7.1190 O   0  0  0  0  0  0  0  0  0  0  0  0
   26.8122    4.6284    3.0294 O   0  0  0  0  0  0  0  0  0  0  0  0
   20.4241    5.0962    7.1899 C   0  0  0  0  0  0  0  0  0  0  0  0
   19.0880    4.8578    6.4601 C   0  0  0  0  0  0  0  0  0  0  0  0
   21.5636    4.2421    6.6262 C   0  0  0  0  0  0  0  0  0  0  0  0
   21.7590    4.5970    5.1183 C   0  0  0  0  0  0  0  0  0  0  0  0
   22.9436    3.7989    4.4507 C   0  0  0  0  0  0  0  0  0  0  0  0
   19.2660    5.2818    4.9964 C   0  0  0  0  0  0  0  0  0  0  0  0
   20.4242    4.5206    4.3263 C   0  0  0  0  0  0  0  0  0  0  0  0
   18.1778    5.7833    7.2929 C   0  0  0  0  0  0  0  0  0  0  0  0
   20.0533    4.9616    8.6648 C   0  0  0  0  0  0  0  0  0  0  0  0
   22.8700    4.4732    7.3963 C   0  0  0  0  0  0  0  0  0  0  0  0
   18.6317    5.5456    8.7479 C   0  0  0  0  0  0  0  0  0  0  0  0
   24.1939    3.9054    5.3350 C   0  0  0  0  0  0  0  0  0  0  0  0
   24.0076    3.6464    6.8116 C   0  0  0  0  0  0  0  0  0  0  0  0
   18.5705    3.3990    6.5173 C   0  0  0  0  0  0  0  0  0  0  0  0
   23.2271    4.4222    3.0520 C   0  0  0  0  0  0  0  0  0  0  0  0
   22.6069    2.3016    4.2724 C   0  0  0  0  0  0  0  0  0  0  0  0
   24.5661    4.0108    2.4577 C   0  0  0  0  0  0  0  0  0  0  0  0
   25.4203    4.1894    4.8641 C   0  0  0  0  0  0  0  0  0  0  0  0
   25.6842    4.3336    3.4131 C   0  0  0  0  0  0  0  0  0  0  0  0
   16.5523    5.6889    6.1941 H   0  0  0  0  0  0  0  0  0  0  0  0
  1 10  1  0
  1 22  1  0
  2 21  2  0
  3  4  1  0
  3  5  1  0
  3 11  1  0
  4  8  1  0
  4 10  1  0
  4 16  1  0
  5  6  1  0
  5 12  1  0
  6  7  1  0
  6  9  1  0
  7 14  1  0
  7 17  1  0
  7 18  1  0
  8  9  1  0
 10 13  1  0
 11 13  1  0
 12 15  1  0
 14 15  1  0
 14 20  2  0
 17 19  1  0
 19 21  1  0
 20 21  1  0
M  END
> <PUBCHEM_COMPOUND_CID>
6013

> <PUBCHEM_CONFORMER_RMSD>
0.6

> <PUBCHEM_CONFORMER_DIVERSEORDER>
1

> <PUBCHEM_MMFF94_PARTIAL_CHARGES>
11
1 -0.68
10 0.28
14 -0.28
15 0.14
19 0.06
2 -0.57
20 -0.14
21 0.49
48 0.15
49 0.4
7 0.14

> <PUBCHEM_EFFECTIVE_ROTOR_COUNT>
1.8

> <PUBCHEM_PHARMACOPHORE_FEATURES>
7
1 1 acceptor
1 1 donor
1 2 acceptor
5 3 4 10 11 13 rings
6 3 4 5 6 8 9 rings
6 5 6 7 12 14 15 rings
6 7 14 17 19 20 21 rings

> <PUBCHEM_HEAVY_ATOM_COUNT>
21

> <PUBCHEM_ATOM_DEF_STEREO_COUNT>
6

> <PUBCHEM_ATOM_UDEF_STEREO_COUNT>
0

> <PUBCHEM_BOND_DEF_STEREO_COUNT>
0

> <PUBCHEM_BOND_UDEF_STEREO_COUNT>
0

> <PUBCHEM_ISOTOPIC_ATOM_COUNT>
0

> <PUBCHEM_COMPONENT_COUNT>
1

> <PUBCHEM_CACTVS_TAUTO_COUNT>
5

> <PUBCHEM_CONFORMER_ID>
0000177D00000001

> <PUBCHEM_MMFF94_ENERGY>
67.5416

> <PUBCHEM_FEATURE_SELFOVERLAP>
35.618

> <PUBCHEM_SHAPE_FINGERPRINT>
10062212 137 18336825385559829163
10759866 29 17897457309511876188
10967382 1 18412548682291571786
11132069 177 18410018732180467827
11370993 70 18410569557056084199
11578080 2 16735503067342509174
12011746 2 18412547592124142406
12236239 1 18040155136873436768
12251169 10 18410008845387181634
12403259 226 18410006624652160988
12403259 415 18408880746209696412
12403260 363 18340481291412090749
12403814 3 17894914044785590877
12507557 5 18408881845467772304
12633257 1 18341888602346167976
12839892 36 18340758291450253690
13140716 1 18339643467883616216
13214271 11 18272369780793716703
13224815 77 18411987974316295335
13675066 3 18187087269080573787
14178342 30 18338527339117458393
14223421 5 18341052895787930134
14341114 176 18411985737129035682
14787075 74 18339640165090922602
14790565 3 18050014594947639924
15163728 17 14691189929019880809
15196674 1 18411420639180230811
15375358 24 18413110541697833299
15536298 74 18272376330249831326
15788980 27 17167859768361771669
16945 1 18267308633664624303
17349148 13 18260547844245275310
17492 89 18410012108956776131
1813 80 17168144512515476742
18186145 218 18411423903503023558
18522853 276 18412546492037592553
19050596 39 18410858775858764633
19784866 9 18412265021155473810
200 152 18202274819337965375
20715895 44 18116989984517715477
21033648 29 18262779827106925672
21267235 1 18410302427354843602
21421861 104 18042966467372004754
21637258 2 15647319828885568714
22182313 1 18189614934485510503
22854114 111 18409735070690792279
22854114 59 18343022189864506130
23402539 116 18272925046486162621
23557571 272 18059303161493107767
23559900 14 18343023255612643838
26918003 58 18409728456589012017
2748010 2 18410304609229794207
2838139 119 14835541671104639250
296302 2 16343984710473737934
335352 9 18411702045432157758
34934 24 18341610383102269379
350125 39 18410857681354741304
351380 180 18413386540454065762
3545911 37 18411703166439727155
42 15 18260548935156425576
5104073 3 18410294747868572393
59755656 215 18339930311854621398
633830 44 17988931080225984300
69090 78 18413386557386229218
7364860 26 18200601276388112774
9709674 26 18341058445033876271

> <PUBCHEM_SHAPE_MULTIPOLES>
420.43
9.43
2.1
1.06
1.16
0.42
0.43
-0.59
-2.56
-0.22
0.02
0.09
-0.22
0.11

> <PUBCHEM_SHAPE_SELFOVERLAP>
902.625

> <PUBCHEM_SHAPE_VOLUME>
230.1

> <PUBCHEM_COORDINATE_TYPE>
2
5
10

> <Energy>
71.9966

> <minimizedAffinity>
-8.32732

> <CNNscore>
0.4054320157

> <CNNaffinity>
7.0733847618

> <CNN_VS>
2.8677766323

> <CNNaffinity_variance>
0.1646627635

$$$$
6013


 22 25  0  0  0  0  0  0  0  0999 V2000
   26.7546    2.2752    3.0665 O   0  0  0  0  0  0  0  0  0  0  0  0
   16.8226    5.0629    6.4466 O   0  0  0  0  0  0  0  0  0  0  0  0
   24.0994    2.9521    5.4833 C   0  0  0  0  0  0  0  0  0  0  0  0
   24.7555    3.2802    4.1280 C   0  0  0  0  0  0  0  0  0  0  0  0
   23.0885    4.0161    5.9211 C   0  0  0  0  0  0  0  0  0  0  0  0
   21.9632    4.1138    4.8430 C   0  0  0  0  0  0  0  0  0  0  0  0
   20.8429    5.1568    5.2210 C   0  0  0  0  0  0  0  0  0  0  0  0
   23.6535    3.2980    3.0608 C   0  0  0  0  0  0  0  0  0  0  0  0
   22.5433    4.3043    3.4140 C   0  0  0  0  0  0  0  0  0  0  0  0
   25.7316    2.0905    4.0266 C   0  0  0  0  0  0  0  0  0  0  0  0
   25.2885    2.6393    6.3882 C   0  0  0  0  0  0  0  0  0  0  0  0
   22.4808    3.6815    7.2892 C   0  0  0  0  0  0  0  0  0  0  0  0
   26.2970    1.9461    5.4545 C   0  0  0  0  0  0  0  0  0  0  0  0
   20.3754    4.9050    6.6614 C   0  0  0  0  0  0  0  0  0  0  0  0
   21.4525    4.7251    7.7053 C   0  0  0  0  0  0  0  0  0  0  0  0
   25.5325    4.6197    4.0924 C   0  0  0  0  0  0  0  0  0  0  0  0
   19.6509    4.9740    4.2357 C   0  0  0  0  0  0  0  0  0  0  0  0
   21.3503    6.6131    5.1279 C   0  0  0  0  0  0  0  0  0  0  0  0
   18.3636    5.6385    4.7011 C   0  0  0  0  0  0  0  0  0  0  0  0
   19.0840    4.8608    7.0311 C   0  0  0  0  0  0  0  0  0  0  0  0
   17.9891    5.1495    6.0751 C   0  0  0  0  0  0  0  0  0  0  0  0
   26.3592    2.3614    2.1850 H   0  0  0  0  0  0  0  0  0  0  0  0
  1 10  1  0
  1 22  1  0
  2 21  2  0
  3  4  1  0
  3  5  1  0
  3 11  1  0
  4  8  1  0
  4 10  1  0
  4 16  1  0
  5  6  1  0
  5 12  1  0
  6  7  1  0
  6  9  1  0
  7 14  1  0
  7 17  1  0
  7 18  1  0
  8  9  1  0
 10 13  1  0
 11 13  1  0
 12 15  1  0
 14 15  1  0
 14 20  2  0
 17 19  1  0
 19 21  1  0
 20 21  1  0
M  END
> <PUBCHEM_COMPOUND_CID>
6013

> <PUBCHEM_CONFORMER_RMSD>
0.6

> <PUBCHEM_CONFORMER_DIVERSEORDER>
1

> <PUBCHEM_MMFF94_PARTIAL_CHARGES>
11
1 -0.68
10 0.28
14 -0.28
15 0.14
19 0.06
2 -0.57
20 -0.14
21 0.49
48 0.15
49 0.4
7 0.14

> <PUBCHEM_EFFECTIVE_ROTOR_COUNT>
1.8

> <PUBCHEM_PHARMACOPHORE_FEATURES>
7
1 1 acceptor
1 1 donor
1 2 acceptor
5 3 4 10 11 13 rings
6 3 4 5 6 8 9 rings
6 5 6 7 12 14 15 rings
6 7 14 17 19 20 21 rings

> <PUBCHEM_HEAVY_ATOM_COUNT>
21

> <PUBCHEM_ATOM_DEF_STEREO_COUNT>
6

> <PUBCHEM_ATOM_UDEF_STEREO_COUNT>
0

> <PUBCHEM_BOND_DEF_STEREO_COUNT>
0

> <PUBCHEM_BOND_UDEF_STEREO_COUNT>
0

> <PUBCHEM_ISOTOPIC_ATOM_COUNT>
0

> <PUBCHEM_COMPONENT_COUNT>
1

> <PUBCHEM_CACTVS_TAUTO_COUNT>
5

> <PUBCHEM_CONFORMER_ID>
0000177D00000001

> <PUBCHEM_MMFF94_ENERGY>
67.5416

> <PUBCHEM_FEATURE_SELFOVERLAP>
35.618

> <PUBCHEM_SHAPE_FINGERPRINT>
10062212 137 18336825385559829163
10759866 29 17897457309511876188
10967382 1 18412548682291571786
11132069 177 18410018732180467827
11370993 70 18410569557056084199
11578080 2 16735503067342509174
12011746 2 18412547592124142406
12236239 1 18040155136873436768
12251169 10 18410008845387181634
12403259 226 18410006624652160988
12403259 415 18408880746209696412
12403260 363 18340481291412090749
12403814 3 17894914044785590877
12507557 5 18408881845467772304
12633257 1 18341888602346167976
12839892 36 18340758291450253690
13140716 1 18339643467883616216
13214271 11 18272369780793716703
13224815 77 18411987974316295335
13675066 3 18187087269080573787
14178342 30 18338527339117458393
14223421 5 18341052895787930134
14341114 176 18411985737129035682
14787075 74 18339640165090922602
14790565 3 18050014594947639924
15163728 17 14691189929019880809
15196674 1 18411420639180230811
15375358 24 18413110541697833299
15536298 74 18272376330249831326
15788980 27 17167859768361771669
16945 1 18267308633664624303
17349148 13 18260547844245275310
17492 89 18410012108956776131
1813 80 17168144512515476742
18186145 218 18411423903503023558
18522853 276 18412546492037592553
19050596 39 18410858775858764633
19784866 9 18412265021155473810
200 152 18202274819337965375
20715895 44 18116989984517715477
21033648 29 18262779827106925672
21267235 1 18410302427354843602
21421861 104 18042966467372004754
21637258 2 15647319828885568714
22182313 1 18189614934485510503
22854114 111 18409735070690792279
22854114 59 18343022189864506130
23402539 116 18272925046486162621
23557571 272 18059303161493107767
23559900 14 18343023255612643838
26918003 58 18409728456589012017
2748010 2 18410304609229794207
2838139 119 14835541671104639250
296302 2 16343984710473737934
335352 9 18411702045432157758
34934 24 18341610383102269379
350125 39 18410857681354741304
351380 180 18413386540454065762
3545911 37 18411703166439727155
42 15 18260548935156425576
5104073 3 18410294747868572393
59755656 215 18339930311854621398
633830 44 17988931080225984300
69090 78 18413386557386229218
7364860 26 18200601276388112774
9709674 26 18341058445033876271

> <PUBCHEM_SHAPE_MULTIPOLES>
420.43
9.43
2.1
1.06
1.16
0.42
0.43
-0.59
-2.56
-0.22
0.02
0.09
-0.22
0.11

> <PUBCHEM_SHAPE_SELFOVERLAP>
902.625

> <PUBCHEM_SHAPE_VOLUME>
230.1

> <PUBCHEM_COORDINATE_TYPE>
2
5
10

> <Energy>
71.9966

> <minimizedAffinity>
-9.20470

> <CNNscore>
0.2622580230

> <CNNaffinity>
7.0918459892

> <CNN_VS>
1.8598935604

> <CNNaffinity_variance>
0.2802217901

$$$$
6013


 22 25  0  0  0  0  0  0  0  0999 V2000
   17.6873    4.9579    4.7991 O   0  0  0  0  0  0  0  0  0  0  0  0
   27.9847    1.5250    4.9439 O   0  0  0  0  0  0  0  0  0  0  0  0
   21.3124    5.2043    4.4153 C   0  0  0  0  0  0  0  0  0  0  0  0
   20.1101    4.5955    5.1627 C   0  0  0  0  0  0  0  0  0  0  0  0
   22.6364    4.9869    5.1538 C   0  0  0  0  0  0  0  0  0  0  0  0
   22.8806    3.4524    5.3066 C   0  0  0  0  0  0  0  0  0  0  0  0
   24.2462    3.1183    6.0203 C   0  0  0  0  0  0  0  0  0  0  0  0
   20.3204    3.0778    5.2406 C   0  0  0  0  0  0  0  0  0  0  0  0
   21.6534    2.7282    5.9268 C   0  0  0  0  0  0  0  0  0  0  0  0
   18.9751    5.0411    4.2185 C   0  0  0  0  0  0  0  0  0  0  0  0
   20.8571    6.6288    4.1087 C   0  0  0  0  0  0  0  0  0  0  0  0
   23.8078    5.6356    4.4055 C   0  0  0  0  0  0  0  0  0  0  0  0
   19.3477    6.4897    3.8413 C   0  0  0  0  0  0  0  0  0  0  0  0
   25.3775    3.9176    5.3584 C   0  0  0  0  0  0  0  0  0  0  0  0
   25.1264    5.3891    5.1267 C   0  0  0  0  0  0  0  0  0  0  0  0
   19.8798    5.1601    6.5866 C   0  0  0  0  0  0  0  0  0  0  0  0
   24.5162    1.5919    5.8714 C   0  0  0  0  0  0  0  0  0  0  0  0
   24.2191    3.4776    7.5227 C   0  0  0  0  0  0  0  0  0  0  0  0
   25.9526    1.1912    6.1737 C   0  0  0  0  0  0  0  0  0  0  0  0
   26.5603    3.3860    5.0048 C   0  0  0  0  0  0  0  0  0  0  0  0
   26.9073    1.9795    5.3167 C   0  0  0  0  0  0  0  0  0  0  0  0
   17.4917    4.0342    5.0212 H   0  0  0  0  0  0  0  0  0  0  0  0
  1 10  1  0
  1 22  1  0
  2 21  2  0
  3  4  1  0
  3  5  1  0
  3 11  1  0
  4  8  1  0
  4 10  1  0
  4 16  1  0
  5  6  1  0
  5 12  1  0
  6  7  1  0
  6  9  1  0
  7 14  1  0
  7 17  1  0
  7 18  1  0
  8  9  1  0
 10 13  1  0
 11 13  1  0
 12 15  1  0
 14 15  1  0
 14 20  2  0
 17 19  1  0
 19 21  1  0
 20 21  1  0
M  END
> <PUBCHEM_COMPOUND_CID>
6013

> <PUBCHEM_CONFORMER_RMSD>
0.6

> <PUBCHEM_CONFORMER_DIVERSEORDER>
1

> <PUBCHEM_MMFF94_PARTIAL_CHARGES>
11
1 -0.68
10 0.28
14 -0.28
15 0.14
19 0.06
2 -0.57
20 -0.14
21 0.49
48 0.15
49 0.4
7 0.14

> <PUBCHEM_EFFECTIVE_ROTOR_COUNT>
1.8

> <PUBCHEM_PHARMACOPHORE_FEATURES>
7
1 1 acceptor
1 1 donor
1 2 acceptor
5 3 4 10 11 13 rings
6 3 4 5 6 8 9 rings
6 5 6 7 12 14 15 rings
6 7 14 17 19 20 21 rings

> <PUBCHEM_HEAVY_ATOM_COUNT>
21

> <PUBCHEM_ATOM_DEF_STEREO_COUNT>
6

> <PUBCHEM_ATOM_UDEF_STEREO_COUNT>
0

> <PUBCHEM_BOND_DEF_STEREO_COUNT>
0

> <PUBCHEM_BOND_UDEF_STEREO_COUNT>
0

> <PUBCHEM_ISOTOPIC_ATOM_COUNT>
0

> <PUBCHEM_COMPONENT_COUNT>
1

> <PUBCHEM_CACTVS_TAUTO_COUNT>
5

> <PUBCHEM_CONFORMER_ID>
0000177D00000001

> <PUBCHEM_MMFF94_ENERGY>
67.5416

> <PUBCHEM_FEATURE_SELFOVERLAP>
35.618

> <PUBCHEM_SHAPE_FINGERPRINT>
10062212 137 18336825385559829163
10759866 29 17897457309511876188
10967382 1 18412548682291571786
11132069 177 18410018732180467827
11370993 70 18410569557056084199
11578080 2 16735503067342509174
12011746 2 18412547592124142406
12236239 1 18040155136873436768
12251169 10 18410008845387181634
12403259 226 18410006624652160988
12403259 415 18408880746209696412
12403260 363 18340481291412090749
12403814 3 17894914044785590877
12507557 5 18408881845467772304
12633257 1 18341888602346167976
12839892 36 18340758291450253690
13140716 1 18339643467883616216
13214271 11 18272369780793716703
13224815 77 18411987974316295335
13675066 3 18187087269080573787
14178342 30 18338527339117458393
14223421 5 18341052895787930134
14341114 176 18411985737129035682
14787075 74 18339640165090922602
14790565 3 18050014594947639924
15163728 17 14691189929019880809
15196674 1 18411420639180230811
15375358 24 18413110541697833299
15536298 74 18272376330249831326
15788980 27 17167859768361771669
16945 1 18267308633664624303
17349148 13 18260547844245275310
17492 89 18410012108956776131
1813 80 17168144512515476742
18186145 218 18411423903503023558
18522853 276 18412546492037592553
19050596 39 18410858775858764633
19784866 9 18412265021155473810
200 152 18202274819337965375
20715895 44 18116989984517715477
21033648 29 18262779827106925672
21267235 1 18410302427354843602
21421861 104 18042966467372004754
21637258 2 15647319828885568714
22182313 1 18189614934485510503
22854114 111 18409735070690792279
22854114 59 18343022189864506130
23402539 116 18272925046486162621
23557571 272 18059303161493107767
23559900 14 18343023255612643838
26918003 58 18409728456589012017
2748010 2 18410304609229794207
2838139 119 14835541671104639250
296302 2 16343984710473737934
335352 9 18411702045432157758
34934 24 18341610383102269379
350125 39 18410857681354741304
351380 180 18413386540454065762
3545911 37 18411703166439727155
42 15 18260548935156425576
5104073 3 18410294747868572393
59755656 215 18339930311854621398
633830 44 17988931080225984300
69090 78 18413386557386229218
7364860 26 18200601276388112774
9709674 26 18341058445033876271

> <PUBCHEM_SHAPE_MULTIPOLES>
420.43
9.43
2.1
1.06
1.16
0.42
0.43
-0.59
-2.56
-0.22
0.02
0.09
-0.22
0.11

> <PUBCHEM_SHAPE_SELFOVERLAP>
902.625

> <PUBCHEM_SHAPE_VOLUME>
230.1

> <PUBCHEM_COORDINATE_TYPE>
2
5
10

> <Energy>
71.9966

> <minimizedAffinity>
-3.92774

> <CNNscore>
0.2276387513

> <CNNaffinity>
6.6457481384

> <CNN_VS>
1.5128297806

> <CNNaffinity_variance>
0.0961090997

$$$$
