448537


 22 23  0  0  0  0  0  0  0  0999 V2000
    5.7412    0.3354   -5.6666 C   0  0  0  0  0  0  0  0  0  0  0  0
    5.2517   -0.8935   -5.3664 C   0  0  0  0  0  0  0  0  0  0  0  0
   11.2727    1.0956   -6.3772 O   0  0  0  0  0  0  0  0  0  0  0  0
    7.1904    0.5395   -5.8661 C   0  0  0  0  0  0  0  0  0  0  0  0
    7.7680    0.3183   -7.1236 C   0  0  0  0  0  0  0  0  0  0  0  0
    8.0002    0.9488   -4.7990 C   0  0  0  0  0  0  0  0  0  0  0  0
    9.1405    0.5008   -7.3112 C   0  0  0  0  0  0  0  0  0  0  0  0
    9.3712    1.1314   -4.9871 C   0  0  0  0  0  0  0  0  0  0  0  0
    9.9291    0.9062   -6.2394 C   0  0  0  0  0  0  0  0  0  0  0  0
   11.6831    0.9532   -7.2073 H   0  0  0  0  0  0  0  0  0  0  0  0
   -0.2798   -1.6409   -4.6416 O   0  0  0  0  0  0  0  0  0  0  0  0
    3.8020   -1.0989   -5.1692 C   0  0  0  0  0  0  0  0  0  0  0  0
    2.9389   -1.1666   -6.2703 C   0  0  0  0  0  0  0  0  0  0  0  0
    3.2781   -1.2181   -3.8753 C   0  0  0  0  0  0  0  0  0  0  0  0
    1.5688   -1.3492   -6.0762 C   0  0  0  0  0  0  0  0  0  0  0  0
    1.9085   -1.4015   -3.6813 C   0  0  0  0  0  0  0  0  0  0  0  0
    1.0647   -1.4647   -4.7857 C   0  0  0  0  0  0  0  0  0  0  0  0
   -0.8309   -1.6808   -5.3983 H   0  0  0  0  0  0  0  0  0  0  0  0
    4.9123    1.5910   -5.8718 C   0  0  0  0  0  0  0  0  0  0  0  0
    4.6084    2.3254   -4.5724 C   0  0  0  0  0  0  0  0  0  0  0  0
    6.0724   -2.1644   -5.2389 C   0  0  0  0  0  0  0  0  0  0  0  0
    5.4255   -3.3627   -5.9213 C   0  0  0  0  0  0  0  0  0  0  0  0
  3  9  1  0
  3 10  1  0
 11 17  1  0
 11 18  1  0
  1  2  2  0
  1 19  1  0
  1  4  1  0
  2 21  1  0
  2 12  1  0
 19 20  1  0
 21 22  1  0
  4  5  2  0
  4  6  1  0
 12 13  2  0
 12 14  1  0
  5  7  1  0
 13 15  1  0
  6  8  2  0
 14 16  2  0
  7  9  2  0
 15 17  2  0
  8  9  1  0
 16 17  1  0
M  END
> <PUBCHEM_COMPOUND_CID>
448537

> <PUBCHEM_CONFORMER_RMSD>
0.6

> <PUBCHEM_CONFORMER_DIVERSEORDER>
1
3
2

> <PUBCHEM_MMFF94_PARTIAL_CHARGES>
28
1 -0.53
11 -0.15
12 -0.15
13 -0.15
14 -0.15
15 -0.15
16 -0.15
17 -0.15
18 -0.15
19 0.08
2 -0.53
20 0.08
3 -0.17
31 0.15
32 0.15
33 0.15
34 0.15
35 0.15
36 0.15
37 0.15
38 0.15
39 0.45
4 -0.17
40 0.45
5 0.14
6 0.14
7 0.03
8 0.03

> <PUBCHEM_EFFECTIVE_ROTOR_COUNT>
4

> <PUBCHEM_PHARMACOPHORE_FEATURES>
6
1 1 donor
1 10 hydrophobe
1 2 donor
1 9 hydrophobe
6 7 11 13 15 17 19 rings
6 8 12 14 16 18 20 rings

> <PUBCHEM_HEAVY_ATOM_COUNT>
20

> <PUBCHEM_ATOM_DEF_STEREO_COUNT>
0

> <PUBCHEM_ATOM_UDEF_STEREO_COUNT>
0

> <PUBCHEM_BOND_DEF_STEREO_COUNT>
1

> <PUBCHEM_BOND_UDEF_STEREO_COUNT>
0

> <PUBCHEM_ISOTOPIC_ATOM_COUNT>
0

> <PUBCHEM_COMPONENT_COUNT>
1

> <PUBCHEM_CACTVS_TAUTO_COUNT>
3

> <PUBCHEM_CONFORMER_ID>
0006D81900000001

> <PUBCHEM_MMFF94_ENERGY>
60.231

> <PUBCHEM_FEATURE_SELFOVERLAP>
30.447

> <PUBCHEM_SHAPE_FINGERPRINT>
10366900 7 18186514428534874893
104564 63 18339924792832442081
10906281 52 18129397028286092948
11646440 116 18130798871235594657
12592029 89 16950278473467191938
12788726 201 18270697410649816016
13140716 1 18266458895859843337
13533116 47 18340201896197096762
13760787 19 16660644076447957075
14115302 16 18186806919849492430
14341114 176 15647057049052281551
15099037 51 18335139812416525942
15848700 24 18202843262111810220
15848702 151 16988848262958300981
16752209 62 18335696105492573576
16945 1 18410855473013063775
1813 80 18272378572207267076
18186145 218 18338228362096015613
187816 3 18410857663704853992
19141452 34 17131829889222033293
19784866 9 18113613452605694563
200 152 16950282905968490344
20028762 73 18055641861278493167
20600515 1 18340218469921978116
20645477 70 16009301016701038466
21285901 2 17917162606291067244
23175994 123 18333735723499757565
23402539 116 17988639696664490244
23493267 7 17313098635762053785
23557571 272 17489592229515708168
23559900 14 15554438621982335170
266924 87 18194116322357846868
347723 3 18410856551049855057
34934 24 18129105515976021729
3545911 37 15719391732852524422
4072396 5 18261662693185545291
4214541 1 15791727494979709055
465052 167 17240208741576471315
474 4 17917140731779840409
59755656 215 18270402685366324510
633830 44 18342455975941661781
69090 78 17060620005479420895
7226269 152 18410853270196137312
7495541 125 17531535390133293585
77779 3 15719110262139125926
81228 2 18128838385973970688
8272917 22 16660357039657468298
9971528 1 17775283884826915592

> <PUBCHEM_SHAPE_MULTIPOLES>
399.85
10.42
1.74
1.37
0
0
0.06
0
1.28
0
-0.74
0
0
-0.06

> <PUBCHEM_SHAPE_SELFOVERLAP>
850.96

> <PUBCHEM_SHAPE_VOLUME>
224.1

> <PUBCHEM_COORDINATE_TYPE>
2
5
10

> <Energy>
28.3223

> <minimizedAffinity>
-9.77912

> <CNNscore>
0.9885056019

> <CNNaffinity>
8.3696851730

> <CNN_VS>
8.2734804153

> <CNNaffinity_variance>
1.2062942982

$$$$
448537


 22 23  0  0  0  0  0  0  0  0999 V2000
    5.1911   -0.8604   -5.3780 C   0  0  0  0  0  0  0  0  0  0  0  0
    5.6845    0.3765   -5.6357 C   0  0  0  0  0  0  0  0  0  0  0  0
   -0.3367   -1.6775   -4.7021 O   0  0  0  0  0  0  0  0  0  0  0  0
    3.7408   -1.0671   -5.1889 C   0  0  0  0  0  0  0  0  0  0  0  0
    3.2064   -1.1822   -3.8986 C   0  0  0  0  0  0  0  0  0  0  0  0
    2.8891   -1.1566   -6.2974 C   0  0  0  0  0  0  0  0  0  0  0  0
    1.8363   -1.3884   -3.7186 C   0  0  0  0  0  0  0  0  0  0  0  0
    1.5203   -1.3621   -6.1169 C   0  0  0  0  0  0  0  0  0  0  0  0
    1.0061   -1.4761   -4.8313 C   0  0  0  0  0  0  0  0  0  0  0  0
   -0.7183   -1.7590   -3.8504 H   0  0  0  0  0  0  0  0  0  0  0  0
   11.2069    1.2038   -6.3434 O   0  0  0  0  0  0  0  0  0  0  0  0
    7.1348    0.5836   -5.8274 C   0  0  0  0  0  0  0  0  0  0  0  0
    7.9606    0.8738   -4.7340 C   0  0  0  0  0  0  0  0  0  0  0  0
    7.6937    0.5003   -7.1095 C   0  0  0  0  0  0  0  0  0  0  0  0
    9.3280    1.0798   -4.9240 C   0  0  0  0  0  0  0  0  0  0  0  0
    9.0608    0.7053   -7.2993 C   0  0  0  0  0  0  0  0  0  0  0  0
    9.8668    0.9944   -6.2027 C   0  0  0  0  0  0  0  0  0  0  0  0
   11.7323    1.3973   -5.5922 H   0  0  0  0  0  0  0  0  0  0  0  0
    6.0072   -2.1383   -5.2966 C   0  0  0  0  0  0  0  0  0  0  0  0
    5.3622   -3.3068   -6.0306 C   0  0  0  0  0  0  0  0  0  0  0  0
    4.8598    1.6413   -5.7951 C   0  0  0  0  0  0  0  0  0  0  0  0
    4.5564    2.3261   -4.4688 C   0  0  0  0  0  0  0  0  0  0  0  0
  3  9  1  0
  3 10  1  0
 11 17  1  0
 11 18  1  0
  1  2  2  0
  1 19  1  0
  1  4  1  0
  2 21  1  0
  2 12  1  0
 19 20  1  0
 21 22  1  0
  4  5  2  0
  4  6  1  0
 12 13  2  0
 12 14  1  0
  5  7  1  0
 13 15  1  0
  6  8  2  0
 14 16  2  0
  7  9  2  0
 15 17  2  0
  8  9  1  0
 16 17  1  0
M  END
> <PUBCHEM_COMPOUND_CID>
448537

> <PUBCHEM_CONFORMER_RMSD>
0.6

> <PUBCHEM_CONFORMER_DIVERSEORDER>
1
3
2

> <PUBCHEM_MMFF94_PARTIAL_CHARGES>
28
1 -0.53
11 -0.15
12 -0.15
13 -0.15
14 -0.15
15 -0.15
16 -0.15
17 -0.15
18 -0.15
19 0.08
2 -0.53
20 0.08
3 -0.17
31 0.15
32 0.15
33 0.15
34 0.15
35 0.15
36 0.15
37 0.15
38 0.15
39 0.45
4 -0.17
40 0.45
5 0.14
6 0.14
7 0.03
8 0.03

> <PUBCHEM_EFFECTIVE_ROTOR_COUNT>
4

> <PUBCHEM_PHARMACOPHORE_FEATURES>
6
1 1 donor
1 10 hydrophobe
1 2 donor
1 9 hydrophobe
6 7 11 13 15 17 19 rings
6 8 12 14 16 18 20 rings

> <PUBCHEM_HEAVY_ATOM_COUNT>
20

> <PUBCHEM_ATOM_DEF_STEREO_COUNT>
0

> <PUBCHEM_ATOM_UDEF_STEREO_COUNT>
0

> <PUBCHEM_BOND_DEF_STEREO_COUNT>
1

> <PUBCHEM_BOND_UDEF_STEREO_COUNT>
0

> <PUBCHEM_ISOTOPIC_ATOM_COUNT>
0

> <PUBCHEM_COMPONENT_COUNT>
1

> <PUBCHEM_CACTVS_TAUTO_COUNT>
3

> <PUBCHEM_CONFORMER_ID>
0006D81900000001

> <PUBCHEM_MMFF94_ENERGY>
60.231

> <PUBCHEM_FEATURE_SELFOVERLAP>
30.447

> <PUBCHEM_SHAPE_FINGERPRINT>
10366900 7 18186514428534874893
104564 63 18339924792832442081
10906281 52 18129397028286092948
11646440 116 18130798871235594657
12592029 89 16950278473467191938
12788726 201 18270697410649816016
13140716 1 18266458895859843337
13533116 47 18340201896197096762
13760787 19 16660644076447957075
14115302 16 18186806919849492430
14341114 176 15647057049052281551
15099037 51 18335139812416525942
15848700 24 18202843262111810220
15848702 151 16988848262958300981
16752209 62 18335696105492573576
16945 1 18410855473013063775
1813 80 18272378572207267076
18186145 218 18338228362096015613
187816 3 18410857663704853992
19141452 34 17131829889222033293
19784866 9 18113613452605694563
200 152 16950282905968490344
20028762 73 18055641861278493167
20600515 1 18340218469921978116
20645477 70 16009301016701038466
21285901 2 17917162606291067244
23175994 123 18333735723499757565
23402539 116 17988639696664490244
23493267 7 17313098635762053785
23557571 272 17489592229515708168
23559900 14 15554438621982335170
266924 87 18194116322357846868
347723 3 18410856551049855057
34934 24 18129105515976021729
3545911 37 15719391732852524422
4072396 5 18261662693185545291
4214541 1 15791727494979709055
465052 167 17240208741576471315
474 4 17917140731779840409
59755656 215 18270402685366324510
633830 44 18342455975941661781
69090 78 17060620005479420895
7226269 152 18410853270196137312
7495541 125 17531535390133293585
77779 3 15719110262139125926
81228 2 18128838385973970688
8272917 22 16660357039657468298
9971528 1 17775283884826915592

> <PUBCHEM_SHAPE_MULTIPOLES>
399.85
10.42
1.74
1.37
0
0
0.06
0
1.28
0
-0.74
0
0
-0.06

> <PUBCHEM_SHAPE_SELFOVERLAP>
850.96

> <PUBCHEM_SHAPE_VOLUME>
224.1

> <PUBCHEM_COORDINATE_TYPE>
2
5
10

> <Energy>
28.3223

> <minimizedAffinity>
-9.78628

> <CNNscore>
0.9879090786

> <CNNaffinity>
8.3198137283

> <CNN_VS>
8.2192192078

> <CNNaffinity_variance>
1.1102050543

$$$$
448537


 22 23  0  0  0  0  0  0  0  0999 V2000
    5.1781   -0.8547   -5.3573 C   0  0  0  0  0  0  0  0  0  0  0  0
    5.6528    0.3904   -5.6107 C   0  0  0  0  0  0  0  0  0  0  0  0
   -0.3360   -1.7028   -4.6112 O   0  0  0  0  0  0  0  0  0  0  0  0
    3.7307   -1.0847   -5.1734 C   0  0  0  0  0  0  0  0  0  0  0  0
    2.8784   -1.1430   -6.2843 C   0  0  0  0  0  0  0  0  0  0  0  0
    3.1972   -1.2393   -3.8875 C   0  0  0  0  0  0  0  0  0  0  0  0
    1.5074   -1.3499   -6.1112 C   0  0  0  0  0  0  0  0  0  0  0  0
    1.8275   -1.4464   -3.7153 C   0  0  0  0  0  0  0  0  0  0  0  0
    0.9955   -1.4999   -4.8265 C   0  0  0  0  0  0  0  0  0  0  0  0
   -0.9268   -1.7445   -5.3371 H   0  0  0  0  0  0  0  0  0  0  0  0
   11.1642    1.3046   -6.2964 O   0  0  0  0  0  0  0  0  0  0  0  0
    7.1002    0.6207   -5.7973 C   0  0  0  0  0  0  0  0  0  0  0  0
    7.9315    0.8424   -4.6921 C   0  0  0  0  0  0  0  0  0  0  0  0
    7.6507    0.6285   -7.0856 C   0  0  0  0  0  0  0  0  0  0  0  0
    9.2961    1.0709   -4.8766 C   0  0  0  0  0  0  0  0  0  0  0  0
    9.0151    0.8560   -7.2700 C   0  0  0  0  0  0  0  0  0  0  0  0
    9.8266    1.0763   -6.1616 C   0  0  0  0  0  0  0  0  0  0  0  0
   11.6935    1.4507   -5.5372 H   0  0  0  0  0  0  0  0  0  0  0  0
    6.0139   -2.1198   -5.2764 C   0  0  0  0  0  0  0  0  0  0  0  0
    5.3921   -3.2954   -6.0190 C   0  0  0  0  0  0  0  0  0  0  0  0
    4.8088    1.6424   -5.7697 C   0  0  0  0  0  0  0  0  0  0  0  0
    4.5688    2.3707   -4.4536 C   0  0  0  0  0  0  0  0  0  0  0  0
  3  9  1  0
  3 10  1  0
 11 17  1  0
 11 18  1  0
  1  2  2  0
  1 19  1  0
  1  4  1  0
  2 21  1  0
  2 12  1  0
 19 20  1  0
 21 22  1  0
  4  5  2  0
  4  6  1  0
 12 13  2  0
 12 14  1  0
  5  7  1  0
 13 15  1  0
  6  8  2  0
 14 16  2  0
  7  9  2  0
 15 17  2  0
  8  9  1  0
 16 17  1  0
M  END
> <PUBCHEM_COMPOUND_CID>
448537

> <PUBCHEM_CONFORMER_RMSD>
0.6

> <PUBCHEM_CONFORMER_DIVERSEORDER>
1
3
2

> <PUBCHEM_MMFF94_PARTIAL_CHARGES>
28
1 -0.53
11 -0.15
12 -0.15
13 -0.15
14 -0.15
15 -0.15
16 -0.15
17 -0.15
18 -0.15
19 0.08
2 -0.53
20 0.08
3 -0.17
31 0.15
32 0.15
33 0.15
34 0.15
35 0.15
36 0.15
37 0.15
38 0.15
39 0.45
4 -0.17
40 0.45
5 0.14
6 0.14
7 0.03
8 0.03

> <PUBCHEM_EFFECTIVE_ROTOR_COUNT>
4

> <PUBCHEM_PHARMACOPHORE_FEATURES>
6
1 1 donor
1 10 hydrophobe
1 2 donor
1 9 hydrophobe
6 7 11 13 15 17 19 rings
6 8 12 14 16 18 20 rings

> <PUBCHEM_HEAVY_ATOM_COUNT>
20

> <PUBCHEM_ATOM_DEF_STEREO_COUNT>
0

> <PUBCHEM_ATOM_UDEF_STEREO_COUNT>
0

> <PUBCHEM_BOND_DEF_STEREO_COUNT>
1

> <PUBCHEM_BOND_UDEF_STEREO_COUNT>
0

> <PUBCHEM_ISOTOPIC_ATOM_COUNT>
0

> <PUBCHEM_COMPONENT_COUNT>
1

> <PUBCHEM_CACTVS_TAUTO_COUNT>
3

> <PUBCHEM_CONFORMER_ID>
0006D81900000001

> <PUBCHEM_MMFF94_ENERGY>
60.231

> <PUBCHEM_FEATURE_SELFOVERLAP>
30.447

> <PUBCHEM_SHAPE_FINGERPRINT>
10366900 7 18186514428534874893
104564 63 18339924792832442081
10906281 52 18129397028286092948
11646440 116 18130798871235594657
12592029 89 16950278473467191938
12788726 201 18270697410649816016
13140716 1 18266458895859843337
13533116 47 18340201896197096762
13760787 19 16660644076447957075
14115302 16 18186806919849492430
14341114 176 15647057049052281551
15099037 51 18335139812416525942
15848700 24 18202843262111810220
15848702 151 16988848262958300981
16752209 62 18335696105492573576
16945 1 18410855473013063775
1813 80 18272378572207267076
18186145 218 18338228362096015613
187816 3 18410857663704853992
19141452 34 17131829889222033293
19784866 9 18113613452605694563
200 152 16950282905968490344
20028762 73 18055641861278493167
20600515 1 18340218469921978116
20645477 70 16009301016701038466
21285901 2 17917162606291067244
23175994 123 18333735723499757565
23402539 116 17988639696664490244
23493267 7 17313098635762053785
23557571 272 17489592229515708168
23559900 14 15554438621982335170
266924 87 18194116322357846868
347723 3 18410856551049855057
34934 24 18129105515976021729
3545911 37 15719391732852524422
4072396 5 18261662693185545291
4214541 1 15791727494979709055
465052 167 17240208741576471315
474 4 17917140731779840409
59755656 215 18270402685366324510
633830 44 18342455975941661781
69090 78 17060620005479420895
7226269 152 18410853270196137312
7495541 125 17531535390133293585
77779 3 15719110262139125926
81228 2 18128838385973970688
8272917 22 16660357039657468298
9971528 1 17775283884826915592

> <PUBCHEM_SHAPE_MULTIPOLES>
399.85
10.42
1.74
1.37
0
0
0.06
0
1.28
0
-0.74
0
0
-0.06

> <PUBCHEM_SHAPE_SELFOVERLAP>
850.96

> <PUBCHEM_SHAPE_VOLUME>
224.1

> <PUBCHEM_COORDINATE_TYPE>
2
5
10

> <Energy>
28.3223

> <minimizedAffinity>
-9.81124

> <CNNscore>
0.9876409769

> <CNNaffinity>
8.3494968414

> <CNN_VS>
8.2463054657

> <CNNaffinity_variance>
1.1653957367

$$$$
448537


 22 23  0  0  0  0  0  0  0  0999 V2000
    5.7946   -0.5957   -5.7264 C   0  0  0  0  0  0  0  0  0  0  0  0
    4.8389    0.1334   -5.0981 C   0  0  0  0  0  0  0  0  0  0  0  0
   11.0176    1.4138   -6.3295 O   0  0  0  0  0  0  0  0  0  0  0  0
    7.1606   -0.0593   -5.8943 C   0  0  0  0  0  0  0  0  0  0  0  0
    7.6001    0.3715   -7.1534 C   0  0  0  0  0  0  0  0  0  0  0  0
    8.0299    0.0167   -4.7986 C   0  0  0  0  0  0  0  0  0  0  0  0
    8.8955    0.8692   -7.3158 C   0  0  0  0  0  0  0  0  0  0  0  0
    9.3238    0.5145   -4.9614 C   0  0  0  0  0  0  0  0  0  0  0  0
    9.7452    0.9358   -6.2164 C   0  0  0  0  0  0  0  0  0  0  0  0
   11.3357    1.7069   -7.1606 H   0  0  0  0  0  0  0  0  0  0  0  0
   -0.3800   -1.8814   -4.4767 O   0  0  0  0  0  0  0  0  0  0  0  0
    3.4730   -0.4035   -4.9275 C   0  0  0  0  0  0  0  0  0  0  0  0
    2.6950   -0.7313   -6.0451 C   0  0  0  0  0  0  0  0  0  0  0  0
    2.9420   -0.5799   -3.6431 C   0  0  0  0  0  0  0  0  0  0  0  0
    1.4010   -1.2272   -5.8768 C   0  0  0  0  0  0  0  0  0  0  0  0
    1.6488   -1.0765   -3.4748 C   0  0  0  0  0  0  0  0  0  0  0  0
    0.8886   -1.3954   -4.5955 C   0  0  0  0  0  0  0  0  0  0  0  0
   -0.8755   -2.0902   -5.2440 H   0  0  0  0  0  0  0  0  0  0  0  0
    5.6174   -2.0009   -6.2737 C   0  0  0  0  0  0  0  0  0  0  0  0
    5.7834   -3.0809   -5.2123 C   0  0  0  0  0  0  0  0  0  0  0  0
    5.0377    1.5064   -4.4813 C   0  0  0  0  0  0  0  0  0  0  0  0
    4.3427    2.6159   -5.2598 C   0  0  0  0  0  0  0  0  0  0  0  0
  3  9  1  0
  3 10  1  0
 11 17  1  0
 11 18  1  0
  1  2  2  0
  1 19  1  0
  1  4  1  0
  2 21  1  0
  2 12  1  0
 19 20  1  0
 21 22  1  0
  4  5  2  0
  4  6  1  0
 12 13  2  0
 12 14  1  0
  5  7  1  0
 13 15  1  0
  6  8  2  0
 14 16  2  0
  7  9  2  0
 15 17  2  0
  8  9  1  0
 16 17  1  0
M  END
> <PUBCHEM_COMPOUND_CID>
448537

> <PUBCHEM_CONFORMER_RMSD>
0.6

> <PUBCHEM_CONFORMER_DIVERSEORDER>
1
3
2

> <PUBCHEM_MMFF94_PARTIAL_CHARGES>
28
1 -0.53
11 -0.15
12 -0.15
13 -0.15
14 -0.15
15 -0.15
16 -0.15
17 -0.15
18 -0.15
19 0.08
2 -0.53
20 0.08
3 -0.17
31 0.15
32 0.15
33 0.15
34 0.15
35 0.15
36 0.15
37 0.15
38 0.15
39 0.45
4 -0.17
40 0.45
5 0.14
6 0.14
7 0.03
8 0.03

> <PUBCHEM_EFFECTIVE_ROTOR_COUNT>
4

> <PUBCHEM_PHARMACOPHORE_FEATURES>
6
1 1 donor
1 10 hydrophobe
1 2 donor
1 9 hydrophobe
6 7 11 13 15 17 19 rings
6 8 12 14 16 18 20 rings

> <PUBCHEM_HEAVY_ATOM_COUNT>
20

> <PUBCHEM_ATOM_DEF_STEREO_COUNT>
0

> <PUBCHEM_ATOM_UDEF_STEREO_COUNT>
0

> <PUBCHEM_BOND_DEF_STEREO_COUNT>
1

> <PUBCHEM_BOND_UDEF_STEREO_COUNT>
0

> <PUBCHEM_ISOTOPIC_ATOM_COUNT>
0

> <PUBCHEM_COMPONENT_COUNT>
1

> <PUBCHEM_CACTVS_TAUTO_COUNT>
3

> <PUBCHEM_CONFORMER_ID>
0006D81900000001

> <PUBCHEM_MMFF94_ENERGY>
60.231

> <PUBCHEM_FEATURE_SELFOVERLAP>
30.447

> <PUBCHEM_SHAPE_FINGERPRINT>
10366900 7 18186514428534874893
104564 63 18339924792832442081
10906281 52 18129397028286092948
11646440 116 18130798871235594657
12592029 89 16950278473467191938
12788726 201 18270697410649816016
13140716 1 18266458895859843337
13533116 47 18340201896197096762
13760787 19 16660644076447957075
14115302 16 18186806919849492430
14341114 176 15647057049052281551
15099037 51 18335139812416525942
15848700 24 18202843262111810220
15848702 151 16988848262958300981
16752209 62 18335696105492573576
16945 1 18410855473013063775
1813 80 18272378572207267076
18186145 218 18338228362096015613
187816 3 18410857663704853992
19141452 34 17131829889222033293
19784866 9 18113613452605694563
200 152 16950282905968490344
20028762 73 18055641861278493167
20600515 1 18340218469921978116
20645477 70 16009301016701038466
21285901 2 17917162606291067244
23175994 123 18333735723499757565
23402539 116 17988639696664490244
23493267 7 17313098635762053785
23557571 272 17489592229515708168
23559900 14 15554438621982335170
266924 87 18194116322357846868
347723 3 18410856551049855057
34934 24 18129105515976021729
3545911 37 15719391732852524422
4072396 5 18261662693185545291
4214541 1 15791727494979709055
465052 167 17240208741576471315
474 4 17917140731779840409
59755656 215 18270402685366324510
633830 44 18342455975941661781
69090 78 17060620005479420895
7226269 152 18410853270196137312
7495541 125 17531535390133293585
77779 3 15719110262139125926
81228 2 18128838385973970688
8272917 22 16660357039657468298
9971528 1 17775283884826915592

> <PUBCHEM_SHAPE_MULTIPOLES>
399.85
10.42
1.74
1.37
0
0
0.06
0
1.28
0
-0.74
0
0
-0.06

> <PUBCHEM_SHAPE_SELFOVERLAP>
850.96

> <PUBCHEM_SHAPE_VOLUME>
224.1

> <PUBCHEM_COORDINATE_TYPE>
2
5
10

> <Energy>
28.3223

> <minimizedAffinity>
-9.12699

> <CNNscore>
0.9816713929

> <CNNaffinity>
8.0880308151

> <CNN_VS>
7.9397883415

> <CNNaffinity_variance>
0.6248366237

$$$$
448537


 22 23  0  0  0  0  0  0  0  0999 V2000
    5.9143   -0.7149   -5.3056 C   0  0  0  0  0  0  0  0  0  0  0  0
    4.8256    0.0854   -5.4251 C   0  0  0  0  0  0  0  0  0  0  0  0
   11.0610    1.3158   -6.3391 O   0  0  0  0  0  0  0  0  0  0  0  0
    7.2687   -0.1854   -5.5638 C   0  0  0  0  0  0  0  0  0  0  0  0
    7.9854    0.4497   -4.5405 C   0  0  0  0  0  0  0  0  0  0  0  0
    7.8451   -0.3073   -6.8346 C   0  0  0  0  0  0  0  0  0  0  0  0
    9.2625    0.9605   -4.7862 C   0  0  0  0  0  0  0  0  0  0  0  0
    9.1212    0.2028   -7.0793 C   0  0  0  0  0  0  0  0  0  0  0  0
    9.8181    0.8314   -6.0549 C   0  0  0  0  0  0  0  0  0  0  0  0
   11.5599    1.7455   -5.6727 H   0  0  0  0  0  0  0  0  0  0  0  0
   -0.3533   -1.8971   -4.4604 O   0  0  0  0  0  0  0  0  0  0  0  0
    3.4707   -0.4430   -5.1645 C   0  0  0  0  0  0  0  0  0  0  0  0
    2.6278   -0.7898   -6.2280 C   0  0  0  0  0  0  0  0  0  0  0  0
    3.0150   -0.5919   -3.8480 C   0  0  0  0  0  0  0  0  0  0  0  0
    1.3447   -1.2774   -5.9747 C   0  0  0  0  0  0  0  0  0  0  0  0
    1.7326   -1.0802   -3.5947 C   0  0  0  0  0  0  0  0  0  0  0  0
    0.9074   -1.4184   -4.6626 C   0  0  0  0  0  0  0  0  0  0  0  0
   -0.8933   -2.1192   -5.1932 H   0  0  0  0  0  0  0  0  0  0  0  0
    5.8984   -2.1700   -4.8719 C   0  0  0  0  0  0  0  0  0  0  0  0
    5.5284   -3.1254   -5.9989 C   0  0  0  0  0  0  0  0  0  0  0  0
    4.8485    1.5608   -5.7822 C   0  0  0  0  0  0  0  0  0  0  0  0
    4.7316    2.4704   -4.5660 C   0  0  0  0  0  0  0  0  0  0  0  0
  3  9  1  0
  3 10  1  0
 11 17  1  0
 11 18  1  0
  1  2  2  0
  1 19  1  0
  1  4  1  0
  2 21  1  0
  2 12  1  0
 19 20  1  0
 21 22  1  0
  4  5  2  0
  4  6  1  0
 12 13  2  0
 12 14  1  0
  5  7  1  0
 13 15  1  0
  6  8  2  0
 14 16  2  0
  7  9  2  0
 15 17  2  0
  8  9  1  0
 16 17  1  0
M  END
> <PUBCHEM_COMPOUND_CID>
448537

> <PUBCHEM_CONFORMER_RMSD>
0.6

> <PUBCHEM_CONFORMER_DIVERSEORDER>
1
3
2

> <PUBCHEM_MMFF94_PARTIAL_CHARGES>
28
1 -0.53
11 -0.15
12 -0.15
13 -0.15
14 -0.15
15 -0.15
16 -0.15
17 -0.15
18 -0.15
19 0.08
2 -0.53
20 0.08
3 -0.17
31 0.15
32 0.15
33 0.15
34 0.15
35 0.15
36 0.15
37 0.15
38 0.15
39 0.45
4 -0.17
40 0.45
5 0.14
6 0.14
7 0.03
8 0.03

> <PUBCHEM_EFFECTIVE_ROTOR_COUNT>
4

> <PUBCHEM_PHARMACOPHORE_FEATURES>
6
1 1 donor
1 10 hydrophobe
1 2 donor
1 9 hydrophobe
6 7 11 13 15 17 19 rings
6 8 12 14 16 18 20 rings

> <PUBCHEM_HEAVY_ATOM_COUNT>
20

> <PUBCHEM_ATOM_DEF_STEREO_COUNT>
0

> <PUBCHEM_ATOM_UDEF_STEREO_COUNT>
0

> <PUBCHEM_BOND_DEF_STEREO_COUNT>
1

> <PUBCHEM_BOND_UDEF_STEREO_COUNT>
0

> <PUBCHEM_ISOTOPIC_ATOM_COUNT>
0

> <PUBCHEM_COMPONENT_COUNT>
1

> <PUBCHEM_CACTVS_TAUTO_COUNT>
3

> <PUBCHEM_CONFORMER_ID>
0006D81900000001

> <PUBCHEM_MMFF94_ENERGY>
60.231

> <PUBCHEM_FEATURE_SELFOVERLAP>
30.447

> <PUBCHEM_SHAPE_FINGERPRINT>
10366900 7 18186514428534874893
104564 63 18339924792832442081
10906281 52 18129397028286092948
11646440 116 18130798871235594657
12592029 89 16950278473467191938
12788726 201 18270697410649816016
13140716 1 18266458895859843337
13533116 47 18340201896197096762
13760787 19 16660644076447957075
14115302 16 18186806919849492430
14341114 176 15647057049052281551
15099037 51 18335139812416525942
15848700 24 18202843262111810220
15848702 151 16988848262958300981
16752209 62 18335696105492573576
16945 1 18410855473013063775
1813 80 18272378572207267076
18186145 218 18338228362096015613
187816 3 18410857663704853992
19141452 34 17131829889222033293
19784866 9 18113613452605694563
200 152 16950282905968490344
20028762 73 18055641861278493167
20600515 1 18340218469921978116
20645477 70 16009301016701038466
21285901 2 17917162606291067244
23175994 123 18333735723499757565
23402539 116 17988639696664490244
23493267 7 17313098635762053785
23557571 272 17489592229515708168
23559900 14 15554438621982335170
266924 87 18194116322357846868
347723 3 18410856551049855057
34934 24 18129105515976021729
3545911 37 15719391732852524422
4072396 5 18261662693185545291
4214541 1 15791727494979709055
465052 167 17240208741576471315
474 4 17917140731779840409
59755656 215 18270402685366324510
633830 44 18342455975941661781
69090 78 17060620005479420895
7226269 152 18410853270196137312
7495541 125 17531535390133293585
77779 3 15719110262139125926
81228 2 18128838385973970688
8272917 22 16660357039657468298
9971528 1 17775283884826915592

> <PUBCHEM_SHAPE_MULTIPOLES>
399.85
10.42
1.74
1.37
0
0
0.06
0
1.28
0
-0.74
0
0
-0.06

> <PUBCHEM_SHAPE_SELFOVERLAP>
850.96

> <PUBCHEM_SHAPE_VOLUME>
224.1

> <PUBCHEM_COORDINATE_TYPE>
2
5
10

> <Energy>
28.3223

> <minimizedAffinity>
-9.33409

> <CNNscore>
0.9798026085

> <CNNaffinity>
8.0067501068

> <CNN_VS>
7.8450345993

> <CNNaffinity_variance>
0.5511010885

$$$$
448537


 22 23  0  0  0  0  0  0  0  0999 V2000
    4.8300    0.1050   -5.4335 C   0  0  0  0  0  0  0  0  0  0  0  0
    5.9202   -0.6915   -5.3038 C   0  0  0  0  0  0  0  0  0  0  0  0
   -0.3338   -1.8842   -4.4046 O   0  0  0  0  0  0  0  0  0  0  0  0
    3.4761   -0.4254   -5.1746 C   0  0  0  0  0  0  0  0  0  0  0  0
    2.6425   -0.7846   -6.2423 C   0  0  0  0  0  0  0  0  0  0  0  0
    3.0116   -0.5672   -3.8608 C   0  0  0  0  0  0  0  0  0  0  0  0
    1.3575   -1.2765   -5.9992 C   0  0  0  0  0  0  0  0  0  0  0  0
    1.7279   -1.0593   -3.6185 C   0  0  0  0  0  0  0  0  0  0  0  0
    0.9130   -1.4092   -4.6878 C   0  0  0  0  0  0  0  0  0  0  0  0
   -0.9107   -2.1300   -5.1007 H   0  0  0  0  0  0  0  0  0  0  0  0
   11.0939    1.2904   -6.2972 O   0  0  0  0  0  0  0  0  0  0  0  0
    7.2751   -0.1610   -5.5601 C   0  0  0  0  0  0  0  0  0  0  0  0
    7.8600   -0.2907   -6.8261 C   0  0  0  0  0  0  0  0  0  0  0  0
    7.9897    0.4689   -4.5327 C   0  0  0  0  0  0  0  0  0  0  0  0
    9.1450    0.2026   -7.0580 C   0  0  0  0  0  0  0  0  0  0  0  0
    9.2740    0.9629   -4.7648 C   0  0  0  0  0  0  0  0  0  0  0  0
    9.8411    0.8241   -6.0276 C   0  0  0  0  0  0  0  0  0  0  0  0
   11.4579    1.1871   -7.1544 H   0  0  0  0  0  0  0  0  0  0  0  0
    4.8506    1.5789   -5.7981 C   0  0  0  0  0  0  0  0  0  0  0  0
    4.7222    2.4955   -4.5884 C   0  0  0  0  0  0  0  0  0  0  0  0
    5.9056   -2.1442   -4.8626 C   0  0  0  0  0  0  0  0  0  0  0  0
    5.5275   -3.1038   -5.9835 C   0  0  0  0  0  0  0  0  0  0  0  0
  3  9  1  0
  3 10  1  0
 11 17  1  0
 11 18  1  0
  1  2  2  0
  1 19  1  0
  1  4  1  0
  2 21  1  0
  2 12  1  0
 19 20  1  0
 21 22  1  0
  4  5  2  0
  4  6  1  0
 12 13  2  0
 12 14  1  0
  5  7  1  0
 13 15  1  0
  6  8  2  0
 14 16  2  0
  7  9  2  0
 15 17  2  0
  8  9  1  0
 16 17  1  0
M  END
> <PUBCHEM_COMPOUND_CID>
448537

> <PUBCHEM_CONFORMER_RMSD>
0.6

> <PUBCHEM_CONFORMER_DIVERSEORDER>
1
3
2

> <PUBCHEM_MMFF94_PARTIAL_CHARGES>
28
1 -0.53
11 -0.15
12 -0.15
13 -0.15
14 -0.15
15 -0.15
16 -0.15
17 -0.15
18 -0.15
19 0.08
2 -0.53
20 0.08
3 -0.17
31 0.15
32 0.15
33 0.15
34 0.15
35 0.15
36 0.15
37 0.15
38 0.15
39 0.45
4 -0.17
40 0.45
5 0.14
6 0.14
7 0.03
8 0.03

> <PUBCHEM_EFFECTIVE_ROTOR_COUNT>
4

> <PUBCHEM_PHARMACOPHORE_FEATURES>
6
1 1 donor
1 10 hydrophobe
1 2 donor
1 9 hydrophobe
6 7 11 13 15 17 19 rings
6 8 12 14 16 18 20 rings

> <PUBCHEM_HEAVY_ATOM_COUNT>
20

> <PUBCHEM_ATOM_DEF_STEREO_COUNT>
0

> <PUBCHEM_ATOM_UDEF_STEREO_COUNT>
0

> <PUBCHEM_BOND_DEF_STEREO_COUNT>
1

> <PUBCHEM_BOND_UDEF_STEREO_COUNT>
0

> <PUBCHEM_ISOTOPIC_ATOM_COUNT>
0

> <PUBCHEM_COMPONENT_COUNT>
1

> <PUBCHEM_CACTVS_TAUTO_COUNT>
3

> <PUBCHEM_CONFORMER_ID>
0006D81900000001

> <PUBCHEM_MMFF94_ENERGY>
60.231

> <PUBCHEM_FEATURE_SELFOVERLAP>
30.447

> <PUBCHEM_SHAPE_FINGERPRINT>
10366900 7 18186514428534874893
104564 63 18339924792832442081
10906281 52 18129397028286092948
11646440 116 18130798871235594657
12592029 89 16950278473467191938
12788726 201 18270697410649816016
13140716 1 18266458895859843337
13533116 47 18340201896197096762
13760787 19 16660644076447957075
14115302 16 18186806919849492430
14341114 176 15647057049052281551
15099037 51 18335139812416525942
15848700 24 18202843262111810220
15848702 151 16988848262958300981
16752209 62 18335696105492573576
16945 1 18410855473013063775
1813 80 18272378572207267076
18186145 218 18338228362096015613
187816 3 18410857663704853992
19141452 34 17131829889222033293
19784866 9 18113613452605694563
200 152 16950282905968490344
20028762 73 18055641861278493167
20600515 1 18340218469921978116
20645477 70 16009301016701038466
21285901 2 17917162606291067244
23175994 123 18333735723499757565
23402539 116 17988639696664490244
23493267 7 17313098635762053785
23557571 272 17489592229515708168
23559900 14 15554438621982335170
266924 87 18194116322357846868
347723 3 18410856551049855057
34934 24 18129105515976021729
3545911 37 15719391732852524422
4072396 5 18261662693185545291
4214541 1 15791727494979709055
465052 167 17240208741576471315
474 4 17917140731779840409
59755656 215 18270402685366324510
633830 44 18342455975941661781
69090 78 17060620005479420895
7226269 152 18410853270196137312
7495541 125 17531535390133293585
77779 3 15719110262139125926
81228 2 18128838385973970688
8272917 22 16660357039657468298
9971528 1 17775283884826915592

> <PUBCHEM_SHAPE_MULTIPOLES>
399.85
10.42
1.74
1.37
0
0
0.06
0
1.28
0
-0.74
0
0
-0.06

> <PUBCHEM_SHAPE_SELFOVERLAP>
850.96

> <PUBCHEM_SHAPE_VOLUME>
224.1

> <PUBCHEM_COORDINATE_TYPE>
2
5
10

> <Energy>
28.3223

> <minimizedAffinity>
-9.31978

> <CNNscore>
0.9789737463

> <CNNaffinity>
8.0319528580

> <CNN_VS>
7.8630709648

> <CNNaffinity_variance>
0.5995723605

$$$$
448537


 22 23  0  0  0  0  0  0  0  0999 V2000
    5.9173   -0.7004   -5.2777 C   0  0  0  0  0  0  0  0  0  0  0  0
    4.8333    0.1033   -5.4155 C   0  0  0  0  0  0  0  0  0  0  0  0
   11.0783    1.2859   -6.3262 O   0  0  0  0  0  0  0  0  0  0  0  0
    7.2755   -0.1825   -5.5399 C   0  0  0  0  0  0  0  0  0  0  0  0
    7.9993    0.4492   -4.5196 C   0  0  0  0  0  0  0  0  0  0  0  0
    7.8483   -0.3121   -6.8115 C   0  0  0  0  0  0  0  0  0  0  0  0
    9.2800    0.9490   -4.7690 C   0  0  0  0  0  0  0  0  0  0  0  0
    9.1281    0.1870   -7.0599 C   0  0  0  0  0  0  0  0  0  0  0  0
    9.8321    0.8123   -6.0384 C   0  0  0  0  0  0  0  0  0  0  0  0
   11.5820    1.7132   -5.6618 H   0  0  0  0  0  0  0  0  0  0  0  0
   -0.3258   -1.8944   -4.3789 O   0  0  0  0  0  0  0  0  0  0  0  0
    3.4746   -0.4133   -5.1510 C   0  0  0  0  0  0  0  0  0  0  0  0
    3.0077   -0.5412   -3.8367 C   0  0  0  0  0  0  0  0  0  0  0  0
    2.6454   -0.7889   -6.2160 C   0  0  0  0  0  0  0  0  0  0  0  0
    1.7273   -1.0409   -3.5936 C   0  0  0  0  0  0  0  0  0  0  0  0
    1.3649   -1.2876   -5.9730 C   0  0  0  0  0  0  0  0  0  0  0  0
    0.9172   -1.4100   -4.6615 C   0  0  0  0  0  0  0  0  0  0  0  0
   -0.6085   -1.9689   -3.4888 H   0  0  0  0  0  0  0  0  0  0  0  0
    5.8921   -2.1475   -4.8186 C   0  0  0  0  0  0  0  0  0  0  0  0
    5.5399   -3.1224   -5.9346 C   0  0  0  0  0  0  0  0  0  0  0  0
    4.8653    1.5721   -5.7984 C   0  0  0  0  0  0  0  0  0  0  0  0
    4.6678    2.5027   -4.6088 C   0  0  0  0  0  0  0  0  0  0  0  0
  3  9  1  0
  3 10  1  0
 11 17  1  0
 11 18  1  0
  1  2  2  0
  1 19  1  0
  1  4  1  0
  2 21  1  0
  2 12  1  0
 19 20  1  0
 21 22  1  0
  4  5  2  0
  4  6  1  0
 12 13  2  0
 12 14  1  0
  5  7  1  0
 13 15  1  0
  6  8  2  0
 14 16  2  0
  7  9  2  0
 15 17  2  0
  8  9  1  0
 16 17  1  0
M  END
> <PUBCHEM_COMPOUND_CID>
448537

> <PUBCHEM_CONFORMER_RMSD>
0.6

> <PUBCHEM_CONFORMER_DIVERSEORDER>
1
3
2

> <PUBCHEM_MMFF94_PARTIAL_CHARGES>
28
1 -0.53
11 -0.15
12 -0.15
13 -0.15
14 -0.15
15 -0.15
16 -0.15
17 -0.15
18 -0.15
19 0.08
2 -0.53
20 0.08
3 -0.17
31 0.15
32 0.15
33 0.15
34 0.15
35 0.15
36 0.15
37 0.15
38 0.15
39 0.45
4 -0.17
40 0.45
5 0.14
6 0.14
7 0.03
8 0.03

> <PUBCHEM_EFFECTIVE_ROTOR_COUNT>
4

> <PUBCHEM_PHARMACOPHORE_FEATURES>
6
1 1 donor
1 10 hydrophobe
1 2 donor
1 9 hydrophobe
6 7 11 13 15 17 19 rings
6 8 12 14 16 18 20 rings

> <PUBCHEM_HEAVY_ATOM_COUNT>
20

> <PUBCHEM_ATOM_DEF_STEREO_COUNT>
0

> <PUBCHEM_ATOM_UDEF_STEREO_COUNT>
0

> <PUBCHEM_BOND_DEF_STEREO_COUNT>
1

> <PUBCHEM_BOND_UDEF_STEREO_COUNT>
0

> <PUBCHEM_ISOTOPIC_ATOM_COUNT>
0

> <PUBCHEM_COMPONENT_COUNT>
1

> <PUBCHEM_CACTVS_TAUTO_COUNT>
3

> <PUBCHEM_CONFORMER_ID>
0006D81900000001

> <PUBCHEM_MMFF94_ENERGY>
60.231

> <PUBCHEM_FEATURE_SELFOVERLAP>
30.447

> <PUBCHEM_SHAPE_FINGERPRINT>
10366900 7 18186514428534874893
104564 63 18339924792832442081
10906281 52 18129397028286092948
11646440 116 18130798871235594657
12592029 89 16950278473467191938
12788726 201 18270697410649816016
13140716 1 18266458895859843337
13533116 47 18340201896197096762
13760787 19 16660644076447957075
14115302 16 18186806919849492430
14341114 176 15647057049052281551
15099037 51 18335139812416525942
15848700 24 18202843262111810220
15848702 151 16988848262958300981
16752209 62 18335696105492573576
16945 1 18410855473013063775
1813 80 18272378572207267076
18186145 218 18338228362096015613
187816 3 18410857663704853992
19141452 34 17131829889222033293
19784866 9 18113613452605694563
200 152 16950282905968490344
20028762 73 18055641861278493167
20600515 1 18340218469921978116
20645477 70 16009301016701038466
21285901 2 17917162606291067244
23175994 123 18333735723499757565
23402539 116 17988639696664490244
23493267 7 17313098635762053785
23557571 272 17489592229515708168
23559900 14 15554438621982335170
266924 87 18194116322357846868
347723 3 18410856551049855057
34934 24 18129105515976021729
3545911 37 15719391732852524422
4072396 5 18261662693185545291
4214541 1 15791727494979709055
465052 167 17240208741576471315
474 4 17917140731779840409
59755656 215 18270402685366324510
633830 44 18342455975941661781
69090 78 17060620005479420895
7226269 152 18410853270196137312
7495541 125 17531535390133293585
77779 3 15719110262139125926
81228 2 18128838385973970688
8272917 22 16660357039657468298
9971528 1 17775283884826915592

> <PUBCHEM_SHAPE_MULTIPOLES>
399.85
10.42
1.74
1.37
0
0
0.06
0
1.28
0
-0.74
0
0
-0.06

> <PUBCHEM_SHAPE_SELFOVERLAP>
850.96

> <PUBCHEM_SHAPE_VOLUME>
224.1

> <PUBCHEM_COORDINATE_TYPE>
2
5
10

> <Energy>
28.3223

> <minimizedAffinity>
-9.32592

> <CNNscore>
0.9775444269

> <CNNaffinity>
7.9992599487

> <CNN_VS>
7.8196320534

> <CNNaffinity_variance>
0.5602179170

$$$$
448537


 22 23  0  0  0  0  0  0  0  0999 V2000
    4.8300    0.1239   -5.3943 C   0  0  0  0  0  0  0  0  0  0  0  0
    5.9214   -0.6691   -5.2538 C   0  0  0  0  0  0  0  0  0  0  0  0
   -0.3216   -1.9231   -4.4183 O   0  0  0  0  0  0  0  0  0  0  0  0
    3.4769   -0.4048   -5.1271 C   0  0  0  0  0  0  0  0  0  0  0  0
    3.0212   -0.5447   -3.8093 C   0  0  0  0  0  0  0  0  0  0  0  0
    2.6412   -0.7770   -6.1877 C   0  0  0  0  0  0  0  0  0  0  0  0
    1.7455   -1.0546   -3.5547 C   0  0  0  0  0  0  0  0  0  0  0  0
    1.3666   -1.2859   -5.9327 C   0  0  0  0  0  0  0  0  0  0  0  0
    0.9301   -1.4203   -4.6207 C   0  0  0  0  0  0  0  0  0  0  0  0
   -0.6491   -2.0276   -3.5468 H   0  0  0  0  0  0  0  0  0  0  0  0
   11.0917    1.3060   -6.2781 O   0  0  0  0  0  0  0  0  0  0  0  0
    7.2753   -0.1402   -5.5184 C   0  0  0  0  0  0  0  0  0  0  0  0
    7.8632   -0.2947   -6.7803 C   0  0  0  0  0  0  0  0  0  0  0  0
    7.9862    0.5128   -4.5030 C   0  0  0  0  0  0  0  0  0  0  0  0
    9.1473    0.1972   -7.0199 C   0  0  0  0  0  0  0  0  0  0  0  0
    9.2695    1.0054   -4.7428 C   0  0  0  0  0  0  0  0  0  0  0  0
    9.8396    0.8420   -6.0013 C   0  0  0  0  0  0  0  0  0  0  0  0
   11.4577    1.1859   -7.1322 H   0  0  0  0  0  0  0  0  0  0  0  0
    4.8481    1.5924   -5.7800 C   0  0  0  0  0  0  0  0  0  0  0  0
    4.6754    2.5253   -4.5883 C   0  0  0  0  0  0  0  0  0  0  0  0
    5.9092   -2.1154   -4.7919 C   0  0  0  0  0  0  0  0  0  0  0  0
    5.5876   -3.0961   -5.9121 C   0  0  0  0  0  0  0  0  0  0  0  0
  3  9  1  0
  3 10  1  0
 11 17  1  0
 11 18  1  0
  1  2  2  0
  1 19  1  0
  1  4  1  0
  2 21  1  0
  2 12  1  0
 19 20  1  0
 21 22  1  0
  4  5  2  0
  4  6  1  0
 12 13  2  0
 12 14  1  0
  5  7  1  0
 13 15  1  0
  6  8  2  0
 14 16  2  0
  7  9  2  0
 15 17  2  0
  8  9  1  0
 16 17  1  0
M  END
> <PUBCHEM_COMPOUND_CID>
448537

> <PUBCHEM_CONFORMER_RMSD>
0.6

> <PUBCHEM_CONFORMER_DIVERSEORDER>
1
3
2

> <PUBCHEM_MMFF94_PARTIAL_CHARGES>
28
1 -0.53
11 -0.15
12 -0.15
13 -0.15
14 -0.15
15 -0.15
16 -0.15
17 -0.15
18 -0.15
19 0.08
2 -0.53
20 0.08
3 -0.17
31 0.15
32 0.15
33 0.15
34 0.15
35 0.15
36 0.15
37 0.15
38 0.15
39 0.45
4 -0.17
40 0.45
5 0.14
6 0.14
7 0.03
8 0.03

> <PUBCHEM_EFFECTIVE_ROTOR_COUNT>
4

> <PUBCHEM_PHARMACOPHORE_FEATURES>
6
1 1 donor
1 10 hydrophobe
1 2 donor
1 9 hydrophobe
6 7 11 13 15 17 19 rings
6 8 12 14 16 18 20 rings

> <PUBCHEM_HEAVY_ATOM_COUNT>
20

> <PUBCHEM_ATOM_DEF_STEREO_COUNT>
0

> <PUBCHEM_ATOM_UDEF_STEREO_COUNT>
0

> <PUBCHEM_BOND_DEF_STEREO_COUNT>
1

> <PUBCHEM_BOND_UDEF_STEREO_COUNT>
0

> <PUBCHEM_ISOTOPIC_ATOM_COUNT>
0

> <PUBCHEM_COMPONENT_COUNT>
1

> <PUBCHEM_CACTVS_TAUTO_COUNT>
3

> <PUBCHEM_CONFORMER_ID>
0006D81900000001

> <PUBCHEM_MMFF94_ENERGY>
60.231

> <PUBCHEM_FEATURE_SELFOVERLAP>
30.447

> <PUBCHEM_SHAPE_FINGERPRINT>
10366900 7 18186514428534874893
104564 63 18339924792832442081
10906281 52 18129397028286092948
11646440 116 18130798871235594657
12592029 89 16950278473467191938
12788726 201 18270697410649816016
13140716 1 18266458895859843337
13533116 47 18340201896197096762
13760787 19 16660644076447957075
14115302 16 18186806919849492430
14341114 176 15647057049052281551
15099037 51 18335139812416525942
15848700 24 18202843262111810220
15848702 151 16988848262958300981
16752209 62 18335696105492573576
16945 1 18410855473013063775
1813 80 18272378572207267076
18186145 218 18338228362096015613
187816 3 18410857663704853992
19141452 34 17131829889222033293
19784866 9 18113613452605694563
200 152 16950282905968490344
20028762 73 18055641861278493167
20600515 1 18340218469921978116
20645477 70 16009301016701038466
21285901 2 17917162606291067244
23175994 123 18333735723499757565
23402539 116 17988639696664490244
23493267 7 17313098635762053785
23557571 272 17489592229515708168
23559900 14 15554438621982335170
266924 87 18194116322357846868
347723 3 18410856551049855057
34934 24 18129105515976021729
3545911 37 15719391732852524422
4072396 5 18261662693185545291
4214541 1 15791727494979709055
465052 167 17240208741576471315
474 4 17917140731779840409
59755656 215 18270402685366324510
633830 44 18342455975941661781
69090 78 17060620005479420895
7226269 152 18410853270196137312
7495541 125 17531535390133293585
77779 3 15719110262139125926
81228 2 18128838385973970688
8272917 22 16660357039657468298
9971528 1 17775283884826915592

> <PUBCHEM_SHAPE_MULTIPOLES>
399.85
10.42
1.74
1.37
0
0
0.06
0
1.28
0
-0.74
0
0
-0.06

> <PUBCHEM_SHAPE_SELFOVERLAP>
850.96

> <PUBCHEM_SHAPE_VOLUME>
224.1

> <PUBCHEM_COORDINATE_TYPE>
2
5
10

> <Energy>
28.3223

> <minimizedAffinity>
-9.31525

> <CNNscore>
0.9773655534

> <CNNaffinity>
8.0125846863

> <CNN_VS>
7.8312244415

> <CNNaffinity_variance>
0.5741853714

$$$$
448537


 22 23  0  0  0  0  0  0  0  0999 V2000
    6.4415   -0.4164   -5.1006 C   0  0  0  0  0  0  0  0  0  0  0  0
    5.6681    0.2994   -4.2466 C   0  0  0  0  0  0  0  0  0  0  0  0
   11.5980    1.3858   -6.4580 O   0  0  0  0  0  0  0  0  0  0  0  0
    7.7907    0.0574   -5.4702 C   0  0  0  0  0  0  0  0  0  0  0  0
    8.3530   -0.3037   -6.7020 C   0  0  0  0  0  0  0  0  0  0  0  0
    8.5219    0.8655   -4.5902 C   0  0  0  0  0  0  0  0  0  0  0  0
    9.6334    0.1351   -7.0485 C   0  0  0  0  0  0  0  0  0  0  0  0
    9.8009    1.3040   -4.9372 C   0  0  0  0  0  0  0  0  0  0  0  0
   10.3452    0.9358   -6.1612 C   0  0  0  0  0  0  0  0  0  0  0  0
   11.9966    1.1574   -7.2746 H   0  0  0  0  0  0  0  0  0  0  0  0
    0.5413   -1.5072   -2.7855 O   0  0  0  0  0  0  0  0  0  0  0  0
    4.3194   -0.1753   -3.8744 C   0  0  0  0  0  0  0  0  0  0  0  0
    3.5614    0.5172   -2.9217 C   0  0  0  0  0  0  0  0  0  0  0  0
    3.7920   -1.3303   -4.4667 C   0  0  0  0  0  0  0  0  0  0  0  0
    2.2926    0.0565   -2.5663 C   0  0  0  0  0  0  0  0  0  0  0  0
    2.5232   -1.7904   -4.1121 C   0  0  0  0  0  0  0  0  0  0  0  0
    1.7842   -1.0917   -3.1627 C   0  0  0  0  0  0  0  0  0  0  0  0
    0.0598   -1.0225   -2.1444 H   0  0  0  0  0  0  0  0  0  0  0  0
    6.0686   -1.7494   -5.7249 C   0  0  0  0  0  0  0  0  0  0  0  0
    5.3449   -1.6036   -7.0572 C   0  0  0  0  0  0  0  0  0  0  0  0
    6.0722    1.5923   -3.5610 C   0  0  0  0  0  0  0  0  0  0  0  0
    5.4226    2.8233   -4.1796 C   0  0  0  0  0  0  0  0  0  0  0  0
  3  9  1  0
  3 10  1  0
 11 17  1  0
 11 18  1  0
  1  2  2  0
  1 19  1  0
  1  4  1  0
  2 21  1  0
  2 12  1  0
 19 20  1  0
 21 22  1  0
  4  5  2  0
  4  6  1  0
 12 13  2  0
 12 14  1  0
  5  7  1  0
 13 15  1  0
  6  8  2  0
 14 16  2  0
  7  9  2  0
 15 17  2  0
  8  9  1  0
 16 17  1  0
M  END
> <PUBCHEM_COMPOUND_CID>
448537

> <PUBCHEM_CONFORMER_RMSD>
0.6

> <PUBCHEM_CONFORMER_DIVERSEORDER>
1
3
2

> <PUBCHEM_MMFF94_PARTIAL_CHARGES>
28
1 -0.53
11 -0.15
12 -0.15
13 -0.15
14 -0.15
15 -0.15
16 -0.15
17 -0.15
18 -0.15
19 0.08
2 -0.53
20 0.08
3 -0.17
31 0.15
32 0.15
33 0.15
34 0.15
35 0.15
36 0.15
37 0.15
38 0.15
39 0.45
4 -0.17
40 0.45
5 0.14
6 0.14
7 0.03
8 0.03

> <PUBCHEM_EFFECTIVE_ROTOR_COUNT>
4

> <PUBCHEM_PHARMACOPHORE_FEATURES>
6
1 1 donor
1 10 hydrophobe
1 2 donor
1 9 hydrophobe
6 7 11 13 15 17 19 rings
6 8 12 14 16 18 20 rings

> <PUBCHEM_HEAVY_ATOM_COUNT>
20

> <PUBCHEM_ATOM_DEF_STEREO_COUNT>
0

> <PUBCHEM_ATOM_UDEF_STEREO_COUNT>
0

> <PUBCHEM_BOND_DEF_STEREO_COUNT>
1

> <PUBCHEM_BOND_UDEF_STEREO_COUNT>
0

> <PUBCHEM_ISOTOPIC_ATOM_COUNT>
0

> <PUBCHEM_COMPONENT_COUNT>
1

> <PUBCHEM_CACTVS_TAUTO_COUNT>
3

> <PUBCHEM_CONFORMER_ID>
0006D81900000001

> <PUBCHEM_MMFF94_ENERGY>
60.231

> <PUBCHEM_FEATURE_SELFOVERLAP>
30.447

> <PUBCHEM_SHAPE_FINGERPRINT>
10366900 7 18186514428534874893
104564 63 18339924792832442081
10906281 52 18129397028286092948
11646440 116 18130798871235594657
12592029 89 16950278473467191938
12788726 201 18270697410649816016
13140716 1 18266458895859843337
13533116 47 18340201896197096762
13760787 19 16660644076447957075
14115302 16 18186806919849492430
14341114 176 15647057049052281551
15099037 51 18335139812416525942
15848700 24 18202843262111810220
15848702 151 16988848262958300981
16752209 62 18335696105492573576
16945 1 18410855473013063775
1813 80 18272378572207267076
18186145 218 18338228362096015613
187816 3 18410857663704853992
19141452 34 17131829889222033293
19784866 9 18113613452605694563
200 152 16950282905968490344
20028762 73 18055641861278493167
20600515 1 18340218469921978116
20645477 70 16009301016701038466
21285901 2 17917162606291067244
23175994 123 18333735723499757565
23402539 116 17988639696664490244
23493267 7 17313098635762053785
23557571 272 17489592229515708168
23559900 14 15554438621982335170
266924 87 18194116322357846868
347723 3 18410856551049855057
34934 24 18129105515976021729
3545911 37 15719391732852524422
4072396 5 18261662693185545291
4214541 1 15791727494979709055
465052 167 17240208741576471315
474 4 17917140731779840409
59755656 215 18270402685366324510
633830 44 18342455975941661781
69090 78 17060620005479420895
7226269 152 18410853270196137312
7495541 125 17531535390133293585
77779 3 15719110262139125926
81228 2 18128838385973970688
8272917 22 16660357039657468298
9971528 1 17775283884826915592

> <PUBCHEM_SHAPE_MULTIPOLES>
399.85
10.42
1.74
1.37
0
0
0.06
0
1.28
0
-0.74
0
0
-0.06

> <PUBCHEM_SHAPE_SELFOVERLAP>
850.96

> <PUBCHEM_SHAPE_VOLUME>
224.1

> <PUBCHEM_COORDINATE_TYPE>
2
5
10

> <Energy>
28.3223

> <minimizedAffinity>
-9.10735

> <CNNscore>
0.9693952799

> <CNNaffinity>
7.9054865837

> <CNN_VS>
7.6635413170

> <CNNaffinity_variance>
0.4392601550

$$$$
