8571


 22 23  0  0  0  0  0  0  0  0999 V2000
  104.8069   15.1576   22.0870 O   0  0  0  0  0  0  0  0  0  0  0  0
  104.7744   15.4842   23.2704 C   0  0  0  0  0  0  0  0  0  0  0  0
  104.7527   17.8097   24.9634 O   0  0  0  0  0  0  0  0  0  0  0  0
  100.0456   17.5448   25.5470 O   0  0  0  0  0  0  0  0  0  0  0  0
  103.5214   16.0205   23.8583 C   0  0  0  0  0  0  0  0  0  0  0  0
  103.5810   17.1584   24.6792 C   0  0  0  0  0  0  0  0  0  0  0  0
  102.2815   15.4105   23.6239 C   0  0  0  0  0  0  0  0  0  0  0  0
  102.4247   17.6913   25.2457 C   0  0  0  0  0  0  0  0  0  0  0  0
  101.1243   15.9347   24.2052 C   0  0  0  0  0  0  0  0  0  0  0  0
  101.2035   17.0699   25.0054 C   0  0  0  0  0  0  0  0  0  0  0  0
  105.5613   17.4954   24.6092 H   0  0  0  0  0  0  0  0  0  0  0  0
  100.0610   18.3074   26.0911 H   0  0  0  0  0  0  0  0  0  0  0  0
  104.6198   14.1306   25.7179 O   0  0  0  0  0  0  0  0  0  0  0  0
  109.3312   14.6788   26.4323 O   0  0  0  0  0  0  0  0  0  0  0  0
  105.9660   15.2746   24.1100 C   0  0  0  0  0  0  0  0  0  0  0  0
  105.8462   14.5808   25.3176 C   0  0  0  0  0  0  0  0  0  0  0  0
  107.2075   15.7498   23.6800 C   0  0  0  0  0  0  0  0  0  0  0  0
  106.9698   14.3606   26.1123 C   0  0  0  0  0  0  0  0  0  0  0  0
  108.3288   15.5480   24.4847 C   0  0  0  0  0  0  0  0  0  0  0  0
  108.2023   14.8545   25.6874 C   0  0  0  0  0  0  0  0  0  0  0  0
  103.8672   14.2810   25.1803 H   0  0  0  0  0  0  0  0  0  0  0  0
  109.2879   14.2180   27.2469 H   0  0  0  0  0  0  0  0  0  0  0  0
  3  6  1  0
  3 11  1  0
 13 16  1  0
 13 21  1  0
  1  2  2  0
  4 10  1  0
  4 12  1  0
 14 20  1  0
 14 22  1  0
  5  2  1  0
  5  6  2  0
  5  7  1  0
 15  2  1  0
 15 16  2  0
 15 17  1  0
  6  8  1  0
 16 18  1  0
  7  9  2  0
 17 19  2  0
  8 10  2  0
 18 20  2  0
  9 10  1  0
 19 20  1  0
M  END
> <PUBCHEM_COMPOUND_CID>
8571

> <PUBCHEM_CONFORMER_RMSD>
0.6

> <PUBCHEM_CONFORMER_DIVERSEORDER>
3
14
8
5
6
10
13
11
12
7
2
4
9
1

> <PUBCHEM_MMFF94_PARTIAL_CHARGES>
28
1 -0.53
10 0.08
11 -0.15
12 -0.15
13 -0.15
14 -0.15
15 -0.15
16 -0.15
17 0.08
18 0.08
19 0.15
2 -0.53
20 0.15
21 0.15
22 0.15
23 0.15
24 0.15
25 0.45
26 0.45
27 0.45
28 0.45
3 -0.57
4 -0.53
5 -0.53
6 0.09
7 0.09
8 0.4
9 0.08

> <PUBCHEM_EFFECTIVE_ROTOR_COUNT>
2

> <PUBCHEM_PHARMACOPHORE_FEATURES>
7
1 1 donor
1 2 donor
1 3 acceptor
1 4 donor
1 5 donor
6 6 9 11 13 15 17 rings
6 7 10 12 14 16 18 rings

> <PUBCHEM_HEAVY_ATOM_COUNT>
18

> <PUBCHEM_ATOM_DEF_STEREO_COUNT>
0

> <PUBCHEM_ATOM_UDEF_STEREO_COUNT>
0

> <PUBCHEM_BOND_DEF_STEREO_COUNT>
0

> <PUBCHEM_BOND_UDEF_STEREO_COUNT>
0

> <PUBCHEM_ISOTOPIC_ATOM_COUNT>
0

> <PUBCHEM_COMPONENT_COUNT>
1

> <PUBCHEM_CACTVS_TAUTO_COUNT>
72

> <PUBCHEM_CONFORMER_ID>
0000217B00000003

> <PUBCHEM_MMFF94_ENERGY>
59.7646

> <PUBCHEM_FEATURE_SELFOVERLAP>
35.523

> <PUBCHEM_SHAPE_FINGERPRINT>
11471102 20 18409169892103070408
11543360 7 16558473084182650672
11578080 2 11531614863815746903
12236239 1 18131065996288699443
12730499 353 18260275135465842107
13764800 53 16298659508524951853
14115302 16 17274813641062312855
14993402 34 17846215540487606185
15309172 13 17603583049510828995
15342168 16 17968104165179409005
15775835 57 18412826888988243309
16752209 62 16702019734536568467
16945 1 18338804403115108058
1813 80 17908702826610089778
18186145 218 18334579027342918966
19784866 34 18334295413878624880
19862831 5 17703791439638752137
19868273 293 17846494850753190559
20612939 158 18410015399459763708
20645476 183 18131345336920073351
20645477 70 18339644438557177238
20871999 31 17703499013054573895
21486144 27 18040157318289672158
22079108 93 18187935001610251691
22854114 59 17458065950124340569
231179 274 17822006519258234448
23402539 116 18409442626948148612
23402655 69 18343585139818180612
23559900 14 18270131244514800908
23598291 2 17916313731579383754
25 1 18335137605093349618
2748010 2 18049736405846724776
2838139 119 17898835865392311757
3082319 5 17846778520178562597
350125 39 17829344823007393920
4028521 119 18341894112446576825
474 4 18335984259027423912
5374978 207 12973890299285696421
633830 44 18335985259854816367
74978 22 17775280611934871745
76465 3 11743574149888780620
77492 1 18131067091542367739
81228 2 16880770831219455195
8272917 22 18265617572439684195
9981440 41 17624393673978878472

> <PUBCHEM_SHAPE_MULTIPOLES>
341.08
8.1
1.9
1.16
0.73
0.35
-0.07
-4.23
-1.78
-1.35
0.05
0.84
0.24
-0.62

> <PUBCHEM_SHAPE_SELFOVERLAP>
750.848

> <PUBCHEM_SHAPE_VOLUME>
184

> <PUBCHEM_COORDINATE_TYPE>
2
5
10

> <Energy>
46.2868

> <minimizedAffinity>
-7.55525

> <CNNscore>
0.6901654005

> <CNNaffinity>
5.5026383400

> <CNN_VS>
3.7977306843

> <CNNaffinity_variance>
0.4830712378

$$$$
8571


 22 23  0  0  0  0  0  0  0  0999 V2000
  105.9230   16.5872   23.5447 O   0  0  0  0  0  0  0  0  0  0  0  0
  104.9406   15.8585   23.4348 C   0  0  0  0  0  0  0  0  0  0  0  0
  105.9423   13.5508   24.8298 O   0  0  0  0  0  0  0  0  0  0  0  0
  105.4699   10.8116   20.9773 O   0  0  0  0  0  0  0  0  0  0  0  0
  105.0689   14.5337   22.7779 C   0  0  0  0  0  0  0  0  0  0  0  0
  105.5682   13.4478   23.5154 C   0  0  0  0  0  0  0  0  0  0  0  0
  104.7155   14.3435   21.4351 C   0  0  0  0  0  0  0  0  0  0  0  0
  105.6996   12.1889   22.9325 C   0  0  0  0  0  0  0  0  0  0  0  0
  104.8628   13.0855   20.8455 C   0  0  0  0  0  0  0  0  0  0  0  0
  105.3478   12.0201   21.5972 C   0  0  0  0  0  0  0  0  0  0  0  0
  105.8751   14.3738   25.2729 H   0  0  0  0  0  0  0  0  0  0  0  0
  105.7932   10.0717   21.4526 H   0  0  0  0  0  0  0  0  0  0  0  0
  104.8339   17.6738   25.5655 O   0  0  0  0  0  0  0  0  0  0  0  0
  100.0417   17.4769   25.6238 O   0  0  0  0  0  0  0  0  0  0  0  0
  103.6576   16.2834   24.0199 C   0  0  0  0  0  0  0  0  0  0  0  0
  103.6498   17.2026   25.0729 C   0  0  0  0  0  0  0  0  0  0  0  0
  102.4611   15.7822   23.5009 C   0  0  0  0  0  0  0  0  0  0  0  0
  102.4411   17.6259   25.6230 C   0  0  0  0  0  0  0  0  0  0  0  0
  101.2520   16.1895   24.0647 C   0  0  0  0  0  0  0  0  0  0  0  0
  101.2514   17.1071   25.1141 C   0  0  0  0  0  0  0  0  0  0  0  0
  105.6440   17.3864   25.1925 H   0  0  0  0  0  0  0  0  0  0  0  0
   99.9989   18.0915   26.3297 H   0  0  0  0  0  0  0  0  0  0  0  0
  3  6  1  0
  3 11  1  0
 13 16  1  0
 13 21  1  0
  1  2  2  0
  4 10  1  0
  4 12  1  0
 14 20  1  0
 14 22  1  0
  5  2  1  0
  5  6  2  0
  5  7  1  0
 15  2  1  0
 15 16  2  0
 15 17  1  0
  6  8  1  0
 16 18  1  0
  7  9  2  0
 17 19  2  0
  8 10  2  0
 18 20  2  0
  9 10  1  0
 19 20  1  0
M  END
> <PUBCHEM_COMPOUND_CID>
8571

> <PUBCHEM_CONFORMER_RMSD>
0.6

> <PUBCHEM_CONFORMER_DIVERSEORDER>
3
14
8
5
6
10
13
11
12
7
2
4
9
1

> <PUBCHEM_MMFF94_PARTIAL_CHARGES>
28
1 -0.53
10 0.08
11 -0.15
12 -0.15
13 -0.15
14 -0.15
15 -0.15
16 -0.15
17 0.08
18 0.08
19 0.15
2 -0.53
20 0.15
21 0.15
22 0.15
23 0.15
24 0.15
25 0.45
26 0.45
27 0.45
28 0.45
3 -0.57
4 -0.53
5 -0.53
6 0.09
7 0.09
8 0.4
9 0.08

> <PUBCHEM_EFFECTIVE_ROTOR_COUNT>
2

> <PUBCHEM_PHARMACOPHORE_FEATURES>
7
1 1 donor
1 2 donor
1 3 acceptor
1 4 donor
1 5 donor
6 6 9 11 13 15 17 rings
6 7 10 12 14 16 18 rings

> <PUBCHEM_HEAVY_ATOM_COUNT>
18

> <PUBCHEM_ATOM_DEF_STEREO_COUNT>
0

> <PUBCHEM_ATOM_UDEF_STEREO_COUNT>
0

> <PUBCHEM_BOND_DEF_STEREO_COUNT>
0

> <PUBCHEM_BOND_UDEF_STEREO_COUNT>
0

> <PUBCHEM_ISOTOPIC_ATOM_COUNT>
0

> <PUBCHEM_COMPONENT_COUNT>
1

> <PUBCHEM_CACTVS_TAUTO_COUNT>
72

> <PUBCHEM_CONFORMER_ID>
0000217B00000003

> <PUBCHEM_MMFF94_ENERGY>
59.7646

> <PUBCHEM_FEATURE_SELFOVERLAP>
35.523

> <PUBCHEM_SHAPE_FINGERPRINT>
11471102 20 18409169892103070408
11543360 7 16558473084182650672
11578080 2 11531614863815746903
12236239 1 18131065996288699443
12730499 353 18260275135465842107
13764800 53 16298659508524951853
14115302 16 17274813641062312855
14993402 34 17846215540487606185
15309172 13 17603583049510828995
15342168 16 17968104165179409005
15775835 57 18412826888988243309
16752209 62 16702019734536568467
16945 1 18338804403115108058
1813 80 17908702826610089778
18186145 218 18334579027342918966
19784866 34 18334295413878624880
19862831 5 17703791439638752137
19868273 293 17846494850753190559
20612939 158 18410015399459763708
20645476 183 18131345336920073351
20645477 70 18339644438557177238
20871999 31 17703499013054573895
21486144 27 18040157318289672158
22079108 93 18187935001610251691
22854114 59 17458065950124340569
231179 274 17822006519258234448
23402539 116 18409442626948148612
23402655 69 18343585139818180612
23559900 14 18270131244514800908
23598291 2 17916313731579383754
25 1 18335137605093349618
2748010 2 18049736405846724776
2838139 119 17898835865392311757
3082319 5 17846778520178562597
350125 39 17829344823007393920
4028521 119 18341894112446576825
474 4 18335984259027423912
5374978 207 12973890299285696421
633830 44 18335985259854816367
74978 22 17775280611934871745
76465 3 11743574149888780620
77492 1 18131067091542367739
81228 2 16880770831219455195
8272917 22 18265617572439684195
9981440 41 17624393673978878472

> <PUBCHEM_SHAPE_MULTIPOLES>
341.08
8.1
1.9
1.16
0.73
0.35
-0.07
-4.23
-1.78
-1.35
0.05
0.84
0.24
-0.62

> <PUBCHEM_SHAPE_SELFOVERLAP>
750.848

> <PUBCHEM_SHAPE_VOLUME>
184

> <PUBCHEM_COORDINATE_TYPE>
2
5
10

> <Energy>
46.2868

> <minimizedAffinity>
-8.40831

> <CNNscore>
0.6678900123

> <CNNaffinity>
6.1702599525

> <CNN_VS>
4.1210551262

> <CNNaffinity_variance>
0.6636641622

$$$$
8571


 22 23  0  0  0  0  0  0  0  0999 V2000
  105.6995   15.9849   22.0483 O   0  0  0  0  0  0  0  0  0  0  0  0
  105.1533   15.3468   22.9442 C   0  0  0  0  0  0  0  0  0  0  0  0
  105.1729   17.4342   24.9235 O   0  0  0  0  0  0  0  0  0  0  0  0
  100.4430   17.3037   25.3474 O   0  0  0  0  0  0  0  0  0  0  0  0
  103.9053   15.8577   23.5645 C   0  0  0  0  0  0  0  0  0  0  0  0
  103.9851   16.8769   24.5274 C   0  0  0  0  0  0  0  0  0  0  0  0
  102.6497   15.3380   23.2214 C   0  0  0  0  0  0  0  0  0  0  0  0
  102.8343   17.3829   25.1286 C   0  0  0  0  0  0  0  0  0  0  0  0
  101.4970   15.8335   23.8361 C   0  0  0  0  0  0  0  0  0  0  0  0
  101.5971   16.8519   24.7786 C   0  0  0  0  0  0  0  0  0  0  0  0
  105.9787   17.1327   24.5523 H   0  0  0  0  0  0  0  0  0  0  0  0
  100.4723   17.9887   25.9861 H   0  0  0  0  0  0  0  0  0  0  0  0
  106.9558   15.1202   25.0764 O   0  0  0  0  0  0  0  0  0  0  0  0
  107.2364   10.3710   24.4648 O   0  0  0  0  0  0  0  0  0  0  0  0
  105.7102   14.0440   23.3454 C   0  0  0  0  0  0  0  0  0  0  0  0
  106.5957   13.9745   24.4248 C   0  0  0  0  0  0  0  0  0  0  0  0
  105.3296   12.8880   22.6590 C   0  0  0  0  0  0  0  0  0  0  0  0
  107.1155   12.7448   24.8253 C   0  0  0  0  0  0  0  0  0  0  0  0
  105.8655   11.6598   23.0459 C   0  0  0  0  0  0  0  0  0  0  0  0
  106.7474   11.5977   24.1238 C   0  0  0  0  0  0  0  0  0  0  0  0
  106.6037   15.9447   24.8036 H   0  0  0  0  0  0  0  0  0  0  0  0
  107.8316   10.2873   25.1834 H   0  0  0  0  0  0  0  0  0  0  0  0
  3  6  1  0
  3 11  1  0
 13 16  1  0
 13 21  1  0
  1  2  2  0
  4 10  1  0
  4 12  1  0
 14 20  1  0
 14 22  1  0
  5  2  1  0
  5  6  2  0
  5  7  1  0
 15  2  1  0
 15 16  2  0
 15 17  1  0
  6  8  1  0
 16 18  1  0
  7  9  2  0
 17 19  2  0
  8 10  2  0
 18 20  2  0
  9 10  1  0
 19 20  1  0
M  END
> <PUBCHEM_COMPOUND_CID>
8571

> <PUBCHEM_CONFORMER_RMSD>
0.6

> <PUBCHEM_CONFORMER_DIVERSEORDER>
3
14
8
5
6
10
13
11
12
7
2
4
9
1

> <PUBCHEM_MMFF94_PARTIAL_CHARGES>
28
1 -0.53
10 0.08
11 -0.15
12 -0.15
13 -0.15
14 -0.15
15 -0.15
16 -0.15
17 0.08
18 0.08
19 0.15
2 -0.53
20 0.15
21 0.15
22 0.15
23 0.15
24 0.15
25 0.45
26 0.45
27 0.45
28 0.45
3 -0.57
4 -0.53
5 -0.53
6 0.09
7 0.09
8 0.4
9 0.08

> <PUBCHEM_EFFECTIVE_ROTOR_COUNT>
2

> <PUBCHEM_PHARMACOPHORE_FEATURES>
7
1 1 donor
1 2 donor
1 3 acceptor
1 4 donor
1 5 donor
6 6 9 11 13 15 17 rings
6 7 10 12 14 16 18 rings

> <PUBCHEM_HEAVY_ATOM_COUNT>
18

> <PUBCHEM_ATOM_DEF_STEREO_COUNT>
0

> <PUBCHEM_ATOM_UDEF_STEREO_COUNT>
0

> <PUBCHEM_BOND_DEF_STEREO_COUNT>
0

> <PUBCHEM_BOND_UDEF_STEREO_COUNT>
0

> <PUBCHEM_ISOTOPIC_ATOM_COUNT>
0

> <PUBCHEM_COMPONENT_COUNT>
1

> <PUBCHEM_CACTVS_TAUTO_COUNT>
72

> <PUBCHEM_CONFORMER_ID>
0000217B00000003

> <PUBCHEM_MMFF94_ENERGY>
59.7646

> <PUBCHEM_FEATURE_SELFOVERLAP>
35.523

> <PUBCHEM_SHAPE_FINGERPRINT>
11471102 20 18409169892103070408
11543360 7 16558473084182650672
11578080 2 11531614863815746903
12236239 1 18131065996288699443
12730499 353 18260275135465842107
13764800 53 16298659508524951853
14115302 16 17274813641062312855
14993402 34 17846215540487606185
15309172 13 17603583049510828995
15342168 16 17968104165179409005
15775835 57 18412826888988243309
16752209 62 16702019734536568467
16945 1 18338804403115108058
1813 80 17908702826610089778
18186145 218 18334579027342918966
19784866 34 18334295413878624880
19862831 5 17703791439638752137
19868273 293 17846494850753190559
20612939 158 18410015399459763708
20645476 183 18131345336920073351
20645477 70 18339644438557177238
20871999 31 17703499013054573895
21486144 27 18040157318289672158
22079108 93 18187935001610251691
22854114 59 17458065950124340569
231179 274 17822006519258234448
23402539 116 18409442626948148612
23402655 69 18343585139818180612
23559900 14 18270131244514800908
23598291 2 17916313731579383754
25 1 18335137605093349618
2748010 2 18049736405846724776
2838139 119 17898835865392311757
3082319 5 17846778520178562597
350125 39 17829344823007393920
4028521 119 18341894112446576825
474 4 18335984259027423912
5374978 207 12973890299285696421
633830 44 18335985259854816367
74978 22 17775280611934871745
76465 3 11743574149888780620
77492 1 18131067091542367739
81228 2 16880770831219455195
8272917 22 18265617572439684195
9981440 41 17624393673978878472

> <PUBCHEM_SHAPE_MULTIPOLES>
341.08
8.1
1.9
1.16
0.73
0.35
-0.07
-4.23
-1.78
-1.35
0.05
0.84
0.24
-0.62

> <PUBCHEM_SHAPE_SELFOVERLAP>
750.848

> <PUBCHEM_SHAPE_VOLUME>
184

> <PUBCHEM_COORDINATE_TYPE>
2
5
10

> <Energy>
46.2868

> <minimizedAffinity>
-8.62628

> <CNNscore>
0.6587066650

> <CNNaffinity>
6.1711258888

> <CNN_VS>
4.0649619102

> <CNNaffinity_variance>
0.8130012155

$$$$
8571


 22 23  0  0  0  0  0  0  0  0999 V2000
  103.1113   12.8958   21.9105 O   0  0  0  0  0  0  0  0  0  0  0  0
  103.8040   13.7501   22.4568 C   0  0  0  0  0  0  0  0  0  0  0  0
  105.3447   11.3531   22.8510 O   0  0  0  0  0  0  0  0  0  0  0  0
  109.4106   13.6084   21.8761 O   0  0  0  0  0  0  0  0  0  0  0  0
  105.2792   13.7248   22.2944 C   0  0  0  0  0  0  0  0  0  0  0  0
  105.9719   12.5213   22.5045 C   0  0  0  0  0  0  0  0  0  0  0  0
  105.9989   14.8766   21.9486 C   0  0  0  0  0  0  0  0  0  0  0  0
  107.3563   12.4594   22.3581 C   0  0  0  0  0  0  0  0  0  0  0  0
  107.3888   14.8189   21.8181 C   0  0  0  0  0  0  0  0  0  0  0  0
  108.0544   13.6138   22.0186 C   0  0  0  0  0  0  0  0  0  0  0  0
  104.4145   11.3361   22.9630 H   0  0  0  0  0  0  0  0  0  0  0  0
  109.8920   12.8147   22.0037 H   0  0  0  0  0  0  0  0  0  0  0  0
  104.6012   14.3993   25.0625 O   0  0  0  0  0  0  0  0  0  0  0  0
  101.3220   17.8918   25.3022 O   0  0  0  0  0  0  0  0  0  0  0  0
  103.1523   14.8324   23.2134 C   0  0  0  0  0  0  0  0  0  0  0  0
  103.5915   15.1327   24.5060 C   0  0  0  0  0  0  0  0  0  0  0  0
  102.1183   15.5637   22.6230 C   0  0  0  0  0  0  0  0  0  0  0  0
  102.9945   16.1666   25.2253 C   0  0  0  0  0  0  0  0  0  0  0  0
  101.5064   16.5848   23.3500 C   0  0  0  0  0  0  0  0  0  0  0  0
  101.9501   16.8795   24.6383 C   0  0  0  0  0  0  0  0  0  0  0  0
  104.9996   13.7052   24.5751 H   0  0  0  0  0  0  0  0  0  0  0  0
  101.5909   18.1205   26.1701 H   0  0  0  0  0  0  0  0  0  0  0  0
  3  6  1  0
  3 11  1  0
 13 16  1  0
 13 21  1  0
  1  2  2  0
  4 10  1  0
  4 12  1  0
 14 20  1  0
 14 22  1  0
  5  2  1  0
  5  6  2  0
  5  7  1  0
 15  2  1  0
 15 16  2  0
 15 17  1  0
  6  8  1  0
 16 18  1  0
  7  9  2  0
 17 19  2  0
  8 10  2  0
 18 20  2  0
  9 10  1  0
 19 20  1  0
M  END
> <PUBCHEM_COMPOUND_CID>
8571

> <PUBCHEM_CONFORMER_RMSD>
0.6

> <PUBCHEM_CONFORMER_DIVERSEORDER>
3
14
8
5
6
10
13
11
12
7
2
4
9
1

> <PUBCHEM_MMFF94_PARTIAL_CHARGES>
28
1 -0.53
10 0.08
11 -0.15
12 -0.15
13 -0.15
14 -0.15
15 -0.15
16 -0.15
17 0.08
18 0.08
19 0.15
2 -0.53
20 0.15
21 0.15
22 0.15
23 0.15
24 0.15
25 0.45
26 0.45
27 0.45
28 0.45
3 -0.57
4 -0.53
5 -0.53
6 0.09
7 0.09
8 0.4
9 0.08

> <PUBCHEM_EFFECTIVE_ROTOR_COUNT>
2

> <PUBCHEM_PHARMACOPHORE_FEATURES>
7
1 1 donor
1 2 donor
1 3 acceptor
1 4 donor
1 5 donor
6 6 9 11 13 15 17 rings
6 7 10 12 14 16 18 rings

> <PUBCHEM_HEAVY_ATOM_COUNT>
18

> <PUBCHEM_ATOM_DEF_STEREO_COUNT>
0

> <PUBCHEM_ATOM_UDEF_STEREO_COUNT>
0

> <PUBCHEM_BOND_DEF_STEREO_COUNT>
0

> <PUBCHEM_BOND_UDEF_STEREO_COUNT>
0

> <PUBCHEM_ISOTOPIC_ATOM_COUNT>
0

> <PUBCHEM_COMPONENT_COUNT>
1

> <PUBCHEM_CACTVS_TAUTO_COUNT>
72

> <PUBCHEM_CONFORMER_ID>
0000217B00000003

> <PUBCHEM_MMFF94_ENERGY>
59.7646

> <PUBCHEM_FEATURE_SELFOVERLAP>
35.523

> <PUBCHEM_SHAPE_FINGERPRINT>
11471102 20 18409169892103070408
11543360 7 16558473084182650672
11578080 2 11531614863815746903
12236239 1 18131065996288699443
12730499 353 18260275135465842107
13764800 53 16298659508524951853
14115302 16 17274813641062312855
14993402 34 17846215540487606185
15309172 13 17603583049510828995
15342168 16 17968104165179409005
15775835 57 18412826888988243309
16752209 62 16702019734536568467
16945 1 18338804403115108058
1813 80 17908702826610089778
18186145 218 18334579027342918966
19784866 34 18334295413878624880
19862831 5 17703791439638752137
19868273 293 17846494850753190559
20612939 158 18410015399459763708
20645476 183 18131345336920073351
20645477 70 18339644438557177238
20871999 31 17703499013054573895
21486144 27 18040157318289672158
22079108 93 18187935001610251691
22854114 59 17458065950124340569
231179 274 17822006519258234448
23402539 116 18409442626948148612
23402655 69 18343585139818180612
23559900 14 18270131244514800908
23598291 2 17916313731579383754
25 1 18335137605093349618
2748010 2 18049736405846724776
2838139 119 17898835865392311757
3082319 5 17846778520178562597
350125 39 17829344823007393920
4028521 119 18341894112446576825
474 4 18335984259027423912
5374978 207 12973890299285696421
633830 44 18335985259854816367
74978 22 17775280611934871745
76465 3 11743574149888780620
77492 1 18131067091542367739
81228 2 16880770831219455195
8272917 22 18265617572439684195
9981440 41 17624393673978878472

> <PUBCHEM_SHAPE_MULTIPOLES>
341.08
8.1
1.9
1.16
0.73
0.35
-0.07
-4.23
-1.78
-1.35
0.05
0.84
0.24
-0.62

> <PUBCHEM_SHAPE_SELFOVERLAP>
750.848

> <PUBCHEM_SHAPE_VOLUME>
184

> <PUBCHEM_COORDINATE_TYPE>
2
5
10

> <Energy>
46.2868

> <minimizedAffinity>
-8.27149

> <CNNscore>
0.6306173801

> <CNNaffinity>
6.4571266174

> <CNN_VS>
4.0719761848

> <CNNaffinity_variance>
1.2392987013

$$$$
8571


 22 23  0  0  0  0  0  0  0  0999 V2000
  105.7820   16.0709   22.2455 O   0  0  0  0  0  0  0  0  0  0  0  0
  105.1464   15.3457   23.0059 C   0  0  0  0  0  0  0  0  0  0  0  0
  106.8517   15.0181   25.2994 O   0  0  0  0  0  0  0  0  0  0  0  0
  107.2673   10.3486   24.5301 O   0  0  0  0  0  0  0  0  0  0  0  0
  105.6930   14.0232   23.4002 C   0  0  0  0  0  0  0  0  0  0  0  0
  106.5224   13.9328   24.5300 C   0  0  0  0  0  0  0  0  0  0  0  0
  105.4114   12.8641   22.6643 C   0  0  0  0  0  0  0  0  0  0  0  0
  107.0510   12.7076   24.9315 C   0  0  0  0  0  0  0  0  0  0  0  0
  105.9547   11.6383   23.0568 C   0  0  0  0  0  0  0  0  0  0  0  0
  106.7640   11.5685   24.1862 C   0  0  0  0  0  0  0  0  0  0  0  0
  106.5243   15.8672   25.0762 H   0  0  0  0  0  0  0  0  0  0  0  0
  107.8162   10.2640   25.2847 H   0  0  0  0  0  0  0  0  0  0  0  0
  105.0887   17.3107   25.0014 O   0  0  0  0  0  0  0  0  0  0  0  0
  100.2952   17.1882   25.1227 O   0  0  0  0  0  0  0  0  0  0  0  0
  103.8761   15.8301   23.5719 C   0  0  0  0  0  0  0  0  0  0  0  0
  103.8928   16.8225   24.5562 C   0  0  0  0  0  0  0  0  0  0  0  0
  102.6670   15.3104   23.1026 C   0  0  0  0  0  0  0  0  0  0  0  0
  102.6963   17.3018   25.0867 C   0  0  0  0  0  0  0  0  0  0  0  0
  101.4700   15.7747   23.6479 C   0  0  0  0  0  0  0  0  0  0  0  0
  101.4939   16.7653   24.6286 C   0  0  0  0  0  0  0  0  0  0  0  0
  105.8905   16.9854   24.6418 H   0  0  0  0  0  0  0  0  0  0  0  0
  100.2688   17.8525   25.7829 H   0  0  0  0  0  0  0  0  0  0  0  0
  3  6  1  0
  3 11  1  0
 13 16  1  0
 13 21  1  0
  1  2  2  0
  4 10  1  0
  4 12  1  0
 14 20  1  0
 14 22  1  0
  5  2  1  0
  5  6  2  0
  5  7  1  0
 15  2  1  0
 15 16  2  0
 15 17  1  0
  6  8  1  0
 16 18  1  0
  7  9  2  0
 17 19  2  0
  8 10  2  0
 18 20  2  0
  9 10  1  0
 19 20  1  0
M  END
> <PUBCHEM_COMPOUND_CID>
8571

> <PUBCHEM_CONFORMER_RMSD>
0.6

> <PUBCHEM_CONFORMER_DIVERSEORDER>
3
14
8
5
6
10
13
11
12
7
2
4
9
1

> <PUBCHEM_MMFF94_PARTIAL_CHARGES>
28
1 -0.53
10 0.08
11 -0.15
12 -0.15
13 -0.15
14 -0.15
15 -0.15
16 -0.15
17 0.08
18 0.08
19 0.15
2 -0.53
20 0.15
21 0.15
22 0.15
23 0.15
24 0.15
25 0.45
26 0.45
27 0.45
28 0.45
3 -0.57
4 -0.53
5 -0.53
6 0.09
7 0.09
8 0.4
9 0.08

> <PUBCHEM_EFFECTIVE_ROTOR_COUNT>
2

> <PUBCHEM_PHARMACOPHORE_FEATURES>
7
1 1 donor
1 2 donor
1 3 acceptor
1 4 donor
1 5 donor
6 6 9 11 13 15 17 rings
6 7 10 12 14 16 18 rings

> <PUBCHEM_HEAVY_ATOM_COUNT>
18

> <PUBCHEM_ATOM_DEF_STEREO_COUNT>
0

> <PUBCHEM_ATOM_UDEF_STEREO_COUNT>
0

> <PUBCHEM_BOND_DEF_STEREO_COUNT>
0

> <PUBCHEM_BOND_UDEF_STEREO_COUNT>
0

> <PUBCHEM_ISOTOPIC_ATOM_COUNT>
0

> <PUBCHEM_COMPONENT_COUNT>
1

> <PUBCHEM_CACTVS_TAUTO_COUNT>
72

> <PUBCHEM_CONFORMER_ID>
0000217B00000003

> <PUBCHEM_MMFF94_ENERGY>
59.7646

> <PUBCHEM_FEATURE_SELFOVERLAP>
35.523

> <PUBCHEM_SHAPE_FINGERPRINT>
11471102 20 18409169892103070408
11543360 7 16558473084182650672
11578080 2 11531614863815746903
12236239 1 18131065996288699443
12730499 353 18260275135465842107
13764800 53 16298659508524951853
14115302 16 17274813641062312855
14993402 34 17846215540487606185
15309172 13 17603583049510828995
15342168 16 17968104165179409005
15775835 57 18412826888988243309
16752209 62 16702019734536568467
16945 1 18338804403115108058
1813 80 17908702826610089778
18186145 218 18334579027342918966
19784866 34 18334295413878624880
19862831 5 17703791439638752137
19868273 293 17846494850753190559
20612939 158 18410015399459763708
20645476 183 18131345336920073351
20645477 70 18339644438557177238
20871999 31 17703499013054573895
21486144 27 18040157318289672158
22079108 93 18187935001610251691
22854114 59 17458065950124340569
231179 274 17822006519258234448
23402539 116 18409442626948148612
23402655 69 18343585139818180612
23559900 14 18270131244514800908
23598291 2 17916313731579383754
25 1 18335137605093349618
2748010 2 18049736405846724776
2838139 119 17898835865392311757
3082319 5 17846778520178562597
350125 39 17829344823007393920
4028521 119 18341894112446576825
474 4 18335984259027423912
5374978 207 12973890299285696421
633830 44 18335985259854816367
74978 22 17775280611934871745
76465 3 11743574149888780620
77492 1 18131067091542367739
81228 2 16880770831219455195
8272917 22 18265617572439684195
9981440 41 17624393673978878472

> <PUBCHEM_SHAPE_MULTIPOLES>
341.08
8.1
1.9
1.16
0.73
0.35
-0.07
-4.23
-1.78
-1.35
0.05
0.84
0.24
-0.62

> <PUBCHEM_SHAPE_SELFOVERLAP>
750.848

> <PUBCHEM_SHAPE_VOLUME>
184

> <PUBCHEM_COORDINATE_TYPE>
2
5
10

> <Energy>
46.2868

> <minimizedAffinity>
-8.70445

> <CNNscore>
0.6168203950

> <CNNaffinity>
6.1106948853

> <CNN_VS>
3.7692012787

> <CNNaffinity_variance>
0.7055747509

$$$$
8571


 22 23  0  0  0  0  0  0  0  0999 V2000
  105.9638   16.7568   23.5318 O   0  0  0  0  0  0  0  0  0  0  0  0
  105.0375   15.9508   23.5563 C   0  0  0  0  0  0  0  0  0  0  0  0
  102.5306   15.4495   22.2375 O   0  0  0  0  0  0  0  0  0  0  0  0
  100.0748   17.4040   25.8036 O   0  0  0  0  0  0  0  0  0  0  0  0
  103.7373   16.3326   24.1619 C   0  0  0  0  0  0  0  0  0  0  0  0
  102.5494   16.0617   23.4635 C   0  0  0  0  0  0  0  0  0  0  0  0
  103.6675   16.9687   25.4088 C   0  0  0  0  0  0  0  0  0  0  0  0
  101.3105   16.4033   24.0025 C   0  0  0  0  0  0  0  0  0  0  0  0
  102.4266   17.3264   25.9420 C   0  0  0  0  0  0  0  0  0  0  0  0
  101.2611   17.0379   25.2394 C   0  0  0  0  0  0  0  0  0  0  0  0
  103.3346   15.1976   21.8273 H   0  0  0  0  0  0  0  0  0  0  0  0
   99.2696   17.2257   25.3588 H   0  0  0  0  0  0  0  0  0  0  0  0
  105.5886   13.6575   25.0674 O   0  0  0  0  0  0  0  0  0  0  0  0
  105.6620   10.9468   21.1109 O   0  0  0  0  0  0  0  0  0  0  0  0
  105.2097   14.6337   22.9204 C   0  0  0  0  0  0  0  0  0  0  0  0
  105.4694   13.5127   23.7140 C   0  0  0  0  0  0  0  0  0  0  0  0
  105.0880   14.5139   21.5337 C   0  0  0  0  0  0  0  0  0  0  0  0
  105.6165   12.2578   23.1255 C   0  0  0  0  0  0  0  0  0  0  0  0
  105.2557   13.2619   20.9420 C   0  0  0  0  0  0  0  0  0  0  0  0
  105.5136   12.1479   21.7396 C   0  0  0  0  0  0  0  0  0  0  0  0
  105.4889   14.5032   25.4586 H   0  0  0  0  0  0  0  0  0  0  0  0
  105.8363   10.1744   21.6117 H   0  0  0  0  0  0  0  0  0  0  0  0
  3  6  1  0
  3 11  1  0
 13 16  1  0
 13 21  1  0
  1  2  2  0
  4 10  1  0
  4 12  1  0
 14 20  1  0
 14 22  1  0
  5  2  1  0
  5  6  2  0
  5  7  1  0
 15  2  1  0
 15 16  2  0
 15 17  1  0
  6  8  1  0
 16 18  1  0
  7  9  2  0
 17 19  2  0
  8 10  2  0
 18 20  2  0
  9 10  1  0
 19 20  1  0
M  END
> <PUBCHEM_COMPOUND_CID>
8571

> <PUBCHEM_CONFORMER_RMSD>
0.6

> <PUBCHEM_CONFORMER_DIVERSEORDER>
3
14
8
5
6
10
13
11
12
7
2
4
9
1

> <PUBCHEM_MMFF94_PARTIAL_CHARGES>
28
1 -0.53
10 0.08
11 -0.15
12 -0.15
13 -0.15
14 -0.15
15 -0.15
16 -0.15
17 0.08
18 0.08
19 0.15
2 -0.53
20 0.15
21 0.15
22 0.15
23 0.15
24 0.15
25 0.45
26 0.45
27 0.45
28 0.45
3 -0.57
4 -0.53
5 -0.53
6 0.09
7 0.09
8 0.4
9 0.08

> <PUBCHEM_EFFECTIVE_ROTOR_COUNT>
2

> <PUBCHEM_PHARMACOPHORE_FEATURES>
7
1 1 donor
1 2 donor
1 3 acceptor
1 4 donor
1 5 donor
6 6 9 11 13 15 17 rings
6 7 10 12 14 16 18 rings

> <PUBCHEM_HEAVY_ATOM_COUNT>
18

> <PUBCHEM_ATOM_DEF_STEREO_COUNT>
0

> <PUBCHEM_ATOM_UDEF_STEREO_COUNT>
0

> <PUBCHEM_BOND_DEF_STEREO_COUNT>
0

> <PUBCHEM_BOND_UDEF_STEREO_COUNT>
0

> <PUBCHEM_ISOTOPIC_ATOM_COUNT>
0

> <PUBCHEM_COMPONENT_COUNT>
1

> <PUBCHEM_CACTVS_TAUTO_COUNT>
72

> <PUBCHEM_CONFORMER_ID>
0000217B00000003

> <PUBCHEM_MMFF94_ENERGY>
59.7646

> <PUBCHEM_FEATURE_SELFOVERLAP>
35.523

> <PUBCHEM_SHAPE_FINGERPRINT>
11471102 20 18409169892103070408
11543360 7 16558473084182650672
11578080 2 11531614863815746903
12236239 1 18131065996288699443
12730499 353 18260275135465842107
13764800 53 16298659508524951853
14115302 16 17274813641062312855
14993402 34 17846215540487606185
15309172 13 17603583049510828995
15342168 16 17968104165179409005
15775835 57 18412826888988243309
16752209 62 16702019734536568467
16945 1 18338804403115108058
1813 80 17908702826610089778
18186145 218 18334579027342918966
19784866 34 18334295413878624880
19862831 5 17703791439638752137
19868273 293 17846494850753190559
20612939 158 18410015399459763708
20645476 183 18131345336920073351
20645477 70 18339644438557177238
20871999 31 17703499013054573895
21486144 27 18040157318289672158
22079108 93 18187935001610251691
22854114 59 17458065950124340569
231179 274 17822006519258234448
23402539 116 18409442626948148612
23402655 69 18343585139818180612
23559900 14 18270131244514800908
23598291 2 17916313731579383754
25 1 18335137605093349618
2748010 2 18049736405846724776
2838139 119 17898835865392311757
3082319 5 17846778520178562597
350125 39 17829344823007393920
4028521 119 18341894112446576825
474 4 18335984259027423912
5374978 207 12973890299285696421
633830 44 18335985259854816367
74978 22 17775280611934871745
76465 3 11743574149888780620
77492 1 18131067091542367739
81228 2 16880770831219455195
8272917 22 18265617572439684195
9981440 41 17624393673978878472

> <PUBCHEM_SHAPE_MULTIPOLES>
341.08
8.1
1.9
1.16
0.73
0.35
-0.07
-4.23
-1.78
-1.35
0.05
0.84
0.24
-0.62

> <PUBCHEM_SHAPE_SELFOVERLAP>
750.848

> <PUBCHEM_SHAPE_VOLUME>
184

> <PUBCHEM_COORDINATE_TYPE>
2
5
10

> <Energy>
46.2868

> <minimizedAffinity>
-8.26821

> <CNNscore>
0.5924942493

> <CNNaffinity>
6.2198948860

> <CNN_VS>
3.6852519512

> <CNNaffinity_variance>
0.8989889622

$$$$
8571


 22 23  0  0  0  0  0  0  0  0999 V2000
  103.9130   13.0678   23.1301 O   0  0  0  0  0  0  0  0  0  0  0  0
  104.3246   14.1307   23.5871 C   0  0  0  0  0  0  0  0  0  0  0  0
  106.0336   13.4460   25.7974 O   0  0  0  0  0  0  0  0  0  0  0  0
  109.8488   15.2590   23.6237 O   0  0  0  0  0  0  0  0  0  0  0  0
  105.7790   14.4276   23.5814 C   0  0  0  0  0  0  0  0  0  0  0  0
  106.5566   14.0691   24.6945 C   0  0  0  0  0  0  0  0  0  0  0  0
  106.3925   15.0687   22.4965 C   0  0  0  0  0  0  0  0  0  0  0  0
  107.9253   14.3294   24.7229 C   0  0  0  0  0  0  0  0  0  0  0  0
  107.7616   15.3449   22.5317 C   0  0  0  0  0  0  0  0  0  0  0  0
  108.5161   14.9704   23.6388 C   0  0  0  0  0  0  0  0  0  0  0  0
  105.1187   13.2463   25.8328 H   0  0  0  0  0  0  0  0  0  0  0  0
  110.3880   15.0216   24.3523 H   0  0  0  0  0  0  0  0  0  0  0  0
  101.9160   14.6148   22.2415 O   0  0  0  0  0  0  0  0  0  0  0  0
  100.6544   17.9189   25.4818 O   0  0  0  0  0  0  0  0  0  0  0  0
  103.3583   15.1292   24.0748 C   0  0  0  0  0  0  0  0  0  0  0  0
  102.1616   15.3286   23.3804 C   0  0  0  0  0  0  0  0  0  0  0  0
  103.6363   15.8496   25.2393 C   0  0  0  0  0  0  0  0  0  0  0  0
  101.2312   16.2580   23.8422 C   0  0  0  0  0  0  0  0  0  0  0  0
  102.7150   16.7947   25.6905 C   0  0  0  0  0  0  0  0  0  0  0  0
  101.5232   16.9878   24.9936 C   0  0  0  0  0  0  0  0  0  0  0  0
  102.5444   13.9910   21.9349 H   0  0  0  0  0  0  0  0  0  0  0  0
   99.8426   18.0781   25.0420 H   0  0  0  0  0  0  0  0  0  0  0  0
  3  6  1  0
  3 11  1  0
 13 16  1  0
 13 21  1  0
  1  2  2  0
  4 10  1  0
  4 12  1  0
 14 20  1  0
 14 22  1  0
  5  2  1  0
  5  6  2  0
  5  7  1  0
 15  2  1  0
 15 16  2  0
 15 17  1  0
  6  8  1  0
 16 18  1  0
  7  9  2  0
 17 19  2  0
  8 10  2  0
 18 20  2  0
  9 10  1  0
 19 20  1  0
M  END
> <PUBCHEM_COMPOUND_CID>
8571

> <PUBCHEM_CONFORMER_RMSD>
0.6

> <PUBCHEM_CONFORMER_DIVERSEORDER>
3
14
8
5
6
10
13
11
12
7
2
4
9
1

> <PUBCHEM_MMFF94_PARTIAL_CHARGES>
28
1 -0.53
10 0.08
11 -0.15
12 -0.15
13 -0.15
14 -0.15
15 -0.15
16 -0.15
17 0.08
18 0.08
19 0.15
2 -0.53
20 0.15
21 0.15
22 0.15
23 0.15
24 0.15
25 0.45
26 0.45
27 0.45
28 0.45
3 -0.57
4 -0.53
5 -0.53
6 0.09
7 0.09
8 0.4
9 0.08

> <PUBCHEM_EFFECTIVE_ROTOR_COUNT>
2

> <PUBCHEM_PHARMACOPHORE_FEATURES>
7
1 1 donor
1 2 donor
1 3 acceptor
1 4 donor
1 5 donor
6 6 9 11 13 15 17 rings
6 7 10 12 14 16 18 rings

> <PUBCHEM_HEAVY_ATOM_COUNT>
18

> <PUBCHEM_ATOM_DEF_STEREO_COUNT>
0

> <PUBCHEM_ATOM_UDEF_STEREO_COUNT>
0

> <PUBCHEM_BOND_DEF_STEREO_COUNT>
0

> <PUBCHEM_BOND_UDEF_STEREO_COUNT>
0

> <PUBCHEM_ISOTOPIC_ATOM_COUNT>
0

> <PUBCHEM_COMPONENT_COUNT>
1

> <PUBCHEM_CACTVS_TAUTO_COUNT>
72

> <PUBCHEM_CONFORMER_ID>
0000217B00000003

> <PUBCHEM_MMFF94_ENERGY>
59.7646

> <PUBCHEM_FEATURE_SELFOVERLAP>
35.523

> <PUBCHEM_SHAPE_FINGERPRINT>
11471102 20 18409169892103070408
11543360 7 16558473084182650672
11578080 2 11531614863815746903
12236239 1 18131065996288699443
12730499 353 18260275135465842107
13764800 53 16298659508524951853
14115302 16 17274813641062312855
14993402 34 17846215540487606185
15309172 13 17603583049510828995
15342168 16 17968104165179409005
15775835 57 18412826888988243309
16752209 62 16702019734536568467
16945 1 18338804403115108058
1813 80 17908702826610089778
18186145 218 18334579027342918966
19784866 34 18334295413878624880
19862831 5 17703791439638752137
19868273 293 17846494850753190559
20612939 158 18410015399459763708
20645476 183 18131345336920073351
20645477 70 18339644438557177238
20871999 31 17703499013054573895
21486144 27 18040157318289672158
22079108 93 18187935001610251691
22854114 59 17458065950124340569
231179 274 17822006519258234448
23402539 116 18409442626948148612
23402655 69 18343585139818180612
23559900 14 18270131244514800908
23598291 2 17916313731579383754
25 1 18335137605093349618
2748010 2 18049736405846724776
2838139 119 17898835865392311757
3082319 5 17846778520178562597
350125 39 17829344823007393920
4028521 119 18341894112446576825
474 4 18335984259027423912
5374978 207 12973890299285696421
633830 44 18335985259854816367
74978 22 17775280611934871745
76465 3 11743574149888780620
77492 1 18131067091542367739
81228 2 16880770831219455195
8272917 22 18265617572439684195
9981440 41 17624393673978878472

> <PUBCHEM_SHAPE_MULTIPOLES>
341.08
8.1
1.9
1.16
0.73
0.35
-0.07
-4.23
-1.78
-1.35
0.05
0.84
0.24
-0.62

> <PUBCHEM_SHAPE_SELFOVERLAP>
750.848

> <PUBCHEM_SHAPE_VOLUME>
184

> <PUBCHEM_COORDINATE_TYPE>
2
5
10

> <Energy>
46.2868

> <minimizedAffinity>
-7.93123

> <CNNscore>
0.5901550651

> <CNNaffinity>
6.3055396080

> <CNN_VS>
3.7212462425

> <CNNaffinity_variance>
0.8863762021

$$$$
8571


 22 23  0  0  0  0  0  0  0  0999 V2000
  105.6695   16.3196   22.4491 O   0  0  0  0  0  0  0  0  0  0  0  0
  105.1267   15.6199   23.3000 C   0  0  0  0  0  0  0  0  0  0  0  0
  102.5535   15.2420   22.0709 O   0  0  0  0  0  0  0  0  0  0  0  0
  100.3273   17.3563   25.6961 O   0  0  0  0  0  0  0  0  0  0  0  0
  103.8699   16.0760   23.9446 C   0  0  0  0  0  0  0  0  0  0  0  0
  102.6463   15.8630   23.2891 C   0  0  0  0  0  0  0  0  0  0  0  0
  103.8764   16.7259   25.1863 C   0  0  0  0  0  0  0  0  0  0  0  0
  101.4463   16.2751   23.8654 C   0  0  0  0  0  0  0  0  0  0  0  0
  102.6750   17.1541   25.7568 C   0  0  0  0  0  0  0  0  0  0  0  0
  101.4726   16.9223   25.0966 C   0  0  0  0  0  0  0  0  0  0  0  0
  103.3286   14.9438   21.6369 H   0  0  0  0  0  0  0  0  0  0  0  0
   99.4992   17.2175   25.2804 H   0  0  0  0  0  0  0  0  0  0  0  0
  107.1504   15.3279   25.2147 O   0  0  0  0  0  0  0  0  0  0  0  0
  107.2606   10.5831   24.5197 O   0  0  0  0  0  0  0  0  0  0  0  0
  105.6973   14.3008   23.6211 C   0  0  0  0  0  0  0  0  0  0  0  0
  106.6958   14.1987   24.5940 C   0  0  0  0  0  0  0  0  0  0  0  0
  105.2181   13.1623   22.9679 C   0  0  0  0  0  0  0  0  0  0  0  0
  107.2309   12.9536   24.9193 C   0  0  0  0  0  0  0  0  0  0  0  0
  105.7678   11.9184   23.2781 C   0  0  0  0  0  0  0  0  0  0  0  0
  106.7627   11.8238   24.2500 C   0  0  0  0  0  0  0  0  0  0  0  0
  106.7877   16.1628   24.9926 H   0  0  0  0  0  0  0  0  0  0  0  0
  107.9304   10.4776   25.1663 H   0  0  0  0  0  0  0  0  0  0  0  0
  3  6  1  0
  3 11  1  0
 13 16  1  0
 13 21  1  0
  1  2  2  0
  4 10  1  0
  4 12  1  0
 14 20  1  0
 14 22  1  0
  5  2  1  0
  5  6  2  0
  5  7  1  0
 15  2  1  0
 15 16  2  0
 15 17  1  0
  6  8  1  0
 16 18  1  0
  7  9  2  0
 17 19  2  0
  8 10  2  0
 18 20  2  0
  9 10  1  0
 19 20  1  0
M  END
> <PUBCHEM_COMPOUND_CID>
8571

> <PUBCHEM_CONFORMER_RMSD>
0.6

> <PUBCHEM_CONFORMER_DIVERSEORDER>
3
14
8
5
6
10
13
11
12
7
2
4
9
1

> <PUBCHEM_MMFF94_PARTIAL_CHARGES>
28
1 -0.53
10 0.08
11 -0.15
12 -0.15
13 -0.15
14 -0.15
15 -0.15
16 -0.15
17 0.08
18 0.08
19 0.15
2 -0.53
20 0.15
21 0.15
22 0.15
23 0.15
24 0.15
25 0.45
26 0.45
27 0.45
28 0.45
3 -0.57
4 -0.53
5 -0.53
6 0.09
7 0.09
8 0.4
9 0.08

> <PUBCHEM_EFFECTIVE_ROTOR_COUNT>
2

> <PUBCHEM_PHARMACOPHORE_FEATURES>
7
1 1 donor
1 2 donor
1 3 acceptor
1 4 donor
1 5 donor
6 6 9 11 13 15 17 rings
6 7 10 12 14 16 18 rings

> <PUBCHEM_HEAVY_ATOM_COUNT>
18

> <PUBCHEM_ATOM_DEF_STEREO_COUNT>
0

> <PUBCHEM_ATOM_UDEF_STEREO_COUNT>
0

> <PUBCHEM_BOND_DEF_STEREO_COUNT>
0

> <PUBCHEM_BOND_UDEF_STEREO_COUNT>
0

> <PUBCHEM_ISOTOPIC_ATOM_COUNT>
0

> <PUBCHEM_COMPONENT_COUNT>
1

> <PUBCHEM_CACTVS_TAUTO_COUNT>
72

> <PUBCHEM_CONFORMER_ID>
0000217B00000003

> <PUBCHEM_MMFF94_ENERGY>
59.7646

> <PUBCHEM_FEATURE_SELFOVERLAP>
35.523

> <PUBCHEM_SHAPE_FINGERPRINT>
11471102 20 18409169892103070408
11543360 7 16558473084182650672
11578080 2 11531614863815746903
12236239 1 18131065996288699443
12730499 353 18260275135465842107
13764800 53 16298659508524951853
14115302 16 17274813641062312855
14993402 34 17846215540487606185
15309172 13 17603583049510828995
15342168 16 17968104165179409005
15775835 57 18412826888988243309
16752209 62 16702019734536568467
16945 1 18338804403115108058
1813 80 17908702826610089778
18186145 218 18334579027342918966
19784866 34 18334295413878624880
19862831 5 17703791439638752137
19868273 293 17846494850753190559
20612939 158 18410015399459763708
20645476 183 18131345336920073351
20645477 70 18339644438557177238
20871999 31 17703499013054573895
21486144 27 18040157318289672158
22079108 93 18187935001610251691
22854114 59 17458065950124340569
231179 274 17822006519258234448
23402539 116 18409442626948148612
23402655 69 18343585139818180612
23559900 14 18270131244514800908
23598291 2 17916313731579383754
25 1 18335137605093349618
2748010 2 18049736405846724776
2838139 119 17898835865392311757
3082319 5 17846778520178562597
350125 39 17829344823007393920
4028521 119 18341894112446576825
474 4 18335984259027423912
5374978 207 12973890299285696421
633830 44 18335985259854816367
74978 22 17775280611934871745
76465 3 11743574149888780620
77492 1 18131067091542367739
81228 2 16880770831219455195
8272917 22 18265617572439684195
9981440 41 17624393673978878472

> <PUBCHEM_SHAPE_MULTIPOLES>
341.08
8.1
1.9
1.16
0.73
0.35
-0.07
-4.23
-1.78
-1.35
0.05
0.84
0.24
-0.62

> <PUBCHEM_SHAPE_SELFOVERLAP>
750.848

> <PUBCHEM_SHAPE_VOLUME>
184

> <PUBCHEM_COORDINATE_TYPE>
2
5
10

> <Energy>
46.2868

> <minimizedAffinity>
-8.57811

> <CNNscore>
0.5619485378

> <CNNaffinity>
6.3406310081

> <CNN_VS>
3.5631082058

> <CNNaffinity_variance>
1.0798263550

$$$$
8571


 22 23  0  0  0  0  0  0  0  0999 V2000
  106.7193   16.1357   25.3498 O   0  0  0  0  0  0  0  0  0  0  0  0
  106.0051   15.4497   24.6235 C   0  0  0  0  0  0  0  0  0  0  0  0
  106.8709   15.5455   21.8820 O   0  0  0  0  0  0  0  0  0  0  0  0
  108.1352   10.9667   21.9484 O   0  0  0  0  0  0  0  0  0  0  0  0
  106.5703   14.2637   23.9328 C   0  0  0  0  0  0  0  0  0  0  0  0
  106.9715   14.3775   22.5917 C   0  0  0  0  0  0  0  0  0  0  0  0
  106.7013   13.0293   24.5833 C   0  0  0  0  0  0  0  0  0  0  0  0
  107.5091   13.2861   21.9123 C   0  0  0  0  0  0  0  0  0  0  0  0
  107.2248   11.9304   23.8975 C   0  0  0  0  0  0  0  0  0  0  0  0
  107.6276   12.0676   22.5730 C   0  0  0  0  0  0  0  0  0  0  0  0
  106.5168   16.3118   22.2887 H   0  0  0  0  0  0  0  0  0  0  0  0
  108.4166   11.0221   21.0564 H   0  0  0  0  0  0  0  0  0  0  0  0
  104.2800   13.9020   23.0502 O   0  0  0  0  0  0  0  0  0  0  0  0
  100.5588   16.7021   24.1990 O   0  0  0  0  0  0  0  0  0  0  0  0
  104.5743   15.7763   24.5015 C   0  0  0  0  0  0  0  0  0  0  0  0
  103.7461   14.9683   23.7171 C   0  0  0  0  0  0  0  0  0  0  0  0
  104.0546   16.8756   25.1898 C   0  0  0  0  0  0  0  0  0  0  0  0
  102.3869   15.2568   23.6083 C   0  0  0  0  0  0  0  0  0  0  0  0
  102.6985   17.1772   25.0647 C   0  0  0  0  0  0  0  0  0  0  0  0
  101.8781   16.3666   24.2815 C   0  0  0  0  0  0  0  0  0  0  0  0
  105.1944   13.7119   23.1265 H   0  0  0  0  0  0  0  0  0  0  0  0
   99.9747   16.1824   23.6827 H   0  0  0  0  0  0  0  0  0  0  0  0
  3  6  1  0
  3 11  1  0
 13 16  1  0
 13 21  1  0
  1  2  2  0
  4 10  1  0
  4 12  1  0
 14 20  1  0
 14 22  1  0
  5  2  1  0
  5  6  2  0
  5  7  1  0
 15  2  1  0
 15 16  2  0
 15 17  1  0
  6  8  1  0
 16 18  1  0
  7  9  2  0
 17 19  2  0
  8 10  2  0
 18 20  2  0
  9 10  1  0
 19 20  1  0
M  END
> <PUBCHEM_COMPOUND_CID>
8571

> <PUBCHEM_CONFORMER_RMSD>
0.6

> <PUBCHEM_CONFORMER_DIVERSEORDER>
3
14
8
5
6
10
13
11
12
7
2
4
9
1

> <PUBCHEM_MMFF94_PARTIAL_CHARGES>
28
1 -0.53
10 0.08
11 -0.15
12 -0.15
13 -0.15
14 -0.15
15 -0.15
16 -0.15
17 0.08
18 0.08
19 0.15
2 -0.53
20 0.15
21 0.15
22 0.15
23 0.15
24 0.15
25 0.45
26 0.45
27 0.45
28 0.45
3 -0.57
4 -0.53
5 -0.53
6 0.09
7 0.09
8 0.4
9 0.08

> <PUBCHEM_EFFECTIVE_ROTOR_COUNT>
2

> <PUBCHEM_PHARMACOPHORE_FEATURES>
7
1 1 donor
1 2 donor
1 3 acceptor
1 4 donor
1 5 donor
6 6 9 11 13 15 17 rings
6 7 10 12 14 16 18 rings

> <PUBCHEM_HEAVY_ATOM_COUNT>
18

> <PUBCHEM_ATOM_DEF_STEREO_COUNT>
0

> <PUBCHEM_ATOM_UDEF_STEREO_COUNT>
0

> <PUBCHEM_BOND_DEF_STEREO_COUNT>
0

> <PUBCHEM_BOND_UDEF_STEREO_COUNT>
0

> <PUBCHEM_ISOTOPIC_ATOM_COUNT>
0

> <PUBCHEM_COMPONENT_COUNT>
1

> <PUBCHEM_CACTVS_TAUTO_COUNT>
72

> <PUBCHEM_CONFORMER_ID>
0000217B00000003

> <PUBCHEM_MMFF94_ENERGY>
59.7646

> <PUBCHEM_FEATURE_SELFOVERLAP>
35.523

> <PUBCHEM_SHAPE_FINGERPRINT>
11471102 20 18409169892103070408
11543360 7 16558473084182650672
11578080 2 11531614863815746903
12236239 1 18131065996288699443
12730499 353 18260275135465842107
13764800 53 16298659508524951853
14115302 16 17274813641062312855
14993402 34 17846215540487606185
15309172 13 17603583049510828995
15342168 16 17968104165179409005
15775835 57 18412826888988243309
16752209 62 16702019734536568467
16945 1 18338804403115108058
1813 80 17908702826610089778
18186145 218 18334579027342918966
19784866 34 18334295413878624880
19862831 5 17703791439638752137
19868273 293 17846494850753190559
20612939 158 18410015399459763708
20645476 183 18131345336920073351
20645477 70 18339644438557177238
20871999 31 17703499013054573895
21486144 27 18040157318289672158
22079108 93 18187935001610251691
22854114 59 17458065950124340569
231179 274 17822006519258234448
23402539 116 18409442626948148612
23402655 69 18343585139818180612
23559900 14 18270131244514800908
23598291 2 17916313731579383754
25 1 18335137605093349618
2748010 2 18049736405846724776
2838139 119 17898835865392311757
3082319 5 17846778520178562597
350125 39 17829344823007393920
4028521 119 18341894112446576825
474 4 18335984259027423912
5374978 207 12973890299285696421
633830 44 18335985259854816367
74978 22 17775280611934871745
76465 3 11743574149888780620
77492 1 18131067091542367739
81228 2 16880770831219455195
8272917 22 18265617572439684195
9981440 41 17624393673978878472

> <PUBCHEM_SHAPE_MULTIPOLES>
341.08
8.1
1.9
1.16
0.73
0.35
-0.07
-4.23
-1.78
-1.35
0.05
0.84
0.24
-0.62

> <PUBCHEM_SHAPE_SELFOVERLAP>
750.848

> <PUBCHEM_SHAPE_VOLUME>
184

> <PUBCHEM_COORDINATE_TYPE>
2
5
10

> <Energy>
46.2868

> <minimizedAffinity>
-8.53533

> <CNNscore>
0.5478947759

> <CNNaffinity>
6.1072959900

> <CNN_VS>
3.3461556435

> <CNNaffinity_variance>
0.7978039384

$$$$
