896


 19 20  0  0  0  0  0  0  0  0999 V2000
   25.2550    4.1402    5.7226 N   0  0  0  0  0  0  0  0  0  0  0  0
   23.4412    3.7589    6.9646 C   0  0  0  0  0  0  0  0  0  0  0  0
   23.0882    3.6516    5.5809 C   0  0  0  0  0  0  0  0  0  0  0  0
   24.2340    3.9069    4.8314 C   0  0  0  0  0  0  0  0  0  0  0  0
   24.7889    4.0593    7.0093 C   0  0  0  0  0  0  0  0  0  0  0  0
   21.8836    3.3626    4.9041 C   0  0  0  0  0  0  0  0  0  0  0  0
   24.2370    3.8948    3.4331 C   0  0  0  0  0  0  0  0  0  0  0  0
   21.8560    3.3546    3.5060 C   0  0  0  0  0  0  0  0  0  0  0  0
   23.0235    3.6176    2.7891 C   0  0  0  0  0  0  0  0  0  0  0  0
   26.1866    4.3371    5.4727 H   0  0  0  0  0  0  0  0  0  0  0  0
   20.7497    3.1046    2.7379 O   0  0  0  0  0  0  0  0  0  0  0  0
   19.6076    3.9184    2.9815 C   0  0  0  0  0  0  0  0  0  0  0  0
   22.5154    3.5770    8.1311 C   0  0  0  0  0  0  0  0  0  0  0  0
   23.1940    3.8300    9.4820 C   0  0  0  0  0  0  0  0  0  0  0  0
   25.1565    3.4674   11.5056 O   0  0  0  0  0  0  0  0  0  0  0  0
   24.6105    4.1412    9.3786 N   0  0  0  0  0  0  0  0  0  0  0  0
   25.4786    3.9572   10.4297 C   0  0  0  0  0  0  0  0  0  0  0  0
   26.8878    4.3889   10.1260 C   0  0  0  0  0  0  0  0  0  0  0  0
   24.9596    4.4951    8.5288 H   0  0  0  0  0  0  0  0  0  0  0  0
 11  8  1  0
 11 12  1  0
 15 17  2  0
  1  4  1  0
  1  5  1  0
  1 10  1  0
 16 14  1  0
 16 17  1  0
 16 19  1  0
  2  3  1  0
  2 13  1  0
  2  5  2  0
  3  4  2  0
  3  6  1  0
 13 14  1  0
  4  7  1  0
  6  8  2  0
  7  9  2  0
  8  9  1  0
 17 18  1  0
M  END
> <PUBCHEM_COMPOUND_CID>
896

> <PUBCHEM_CONFORMER_RMSD>
0.6

> <PUBCHEM_CONFORMER_DIVERSEORDER>
1
13
50
55
28
16
42
48
27
15
62
60
65
61
36
4
20
58
41
17
59
21
2
63
47
57
40
56
22
64
54
37
51
7
31
53
26
8
49
39
32
11
5
33
38
52
23
45
43
12
14
9
34
44
35
10
25
29
46
6
30
24
3
19
18

> <PUBCHEM_MMFF94_PARTIAL_CHARGES>
22
1 -0.36
10 0.3
11 -0.15
12 -0.15
13 0.08
14 -0.15
15 0.57
16 0.06
17 0.28
2 -0.57
20 0.15
23 0.27
24 0.15
25 0.15
26 0.15
27 0.37
3 0.03
4 -0.73
5 -0.18
7 0.18
8 -0.15
9 -0.3

> <PUBCHEM_EFFECTIVE_ROTOR_COUNT>
5

> <PUBCHEM_PHARMACOPHORE_FEATURES>
7
1 1 acceptor
1 2 acceptor
1 3 cation
1 3 donor
1 4 donor
5 3 5 6 8 9 rings
6 6 8 11 12 13 14 rings

> <PUBCHEM_HEAVY_ATOM_COUNT>
17

> <PUBCHEM_ATOM_DEF_STEREO_COUNT>
0

> <PUBCHEM_ATOM_UDEF_STEREO_COUNT>
0

> <PUBCHEM_BOND_DEF_STEREO_COUNT>
0

> <PUBCHEM_BOND_UDEF_STEREO_COUNT>
0

> <PUBCHEM_ISOTOPIC_ATOM_COUNT>
0

> <PUBCHEM_COMPONENT_COUNT>
1

> <PUBCHEM_CACTVS_TAUTO_COUNT>
2

> <PUBCHEM_CONFORMER_ID>
0000038000000001

> <PUBCHEM_MMFF94_ENERGY>
32.7119

> <PUBCHEM_FEATURE_SELFOVERLAP>
35.612

> <PUBCHEM_SHAPE_FINGERPRINT>
10967382 1 18410853274190255273
11640471 11 17676780867509025316
13027679 85 18194690495324420133
13140716 1 17978229692519098697
13965767 371 16608554374032828400
1420 336 18266184924512803916
14787075 74 17896612875907719035
14790565 3 18341057316043312793
15006816 218 16754940689043299904
16945 1 18195239147136872059
19591789 44 18120376712306458779
19765921 60 17749382706469569763
20510252 161 18342458093286620745
21141583 151 18124894583888822372
21524375 3 17972887951224859043
2334 1 18410572855759727185
23419403 2 17326855944455494142
23557571 272 18201719608641642450
23559900 14 18342173410755765088
2748010 2 18337115553281152647
353137 74 18409164389875307419
44154327 71 18267028250037128041
526903 126 18410576235872810256
537710 114 18408601466050490037
7832392 63 17187566044572678455
9981440 41 18116712022929254594

> <PUBCHEM_SHAPE_MULTIPOLES>
328.15
4.94
3.77
0.97
2.92
1.2
-0.06
0.99
-1.27
-0.81
0.74
0.39
0.23
-0.66

> <PUBCHEM_SHAPE_SELFOVERLAP>
695.133

> <PUBCHEM_SHAPE_VOLUME>
185.3

> <PUBCHEM_COORDINATE_TYPE>
2
5
10

> <Energy>
0.232708

> <minimizedAffinity>
-6.35245

> <CNNscore>
0.6158290505

> <CNNaffinity>
6.5641274452

> <CNN_VS>
4.0423803329

> <CNNaffinity_variance>
0.3821450770

$$$$
896


 19 20  0  0  0  0  0  0  0  0999 V2000
   26.1517    4.5651    5.9459 N   0  0  0  0  0  0  0  0  0  0  0  0
   24.9378    5.8031    7.3501 C   0  0  0  0  0  0  0  0  0  0  0  0
   24.0560    5.1149    6.4558 C   0  0  0  0  0  0  0  0  0  0  0  0
   24.8402    4.3625    5.5848 C   0  0  0  0  0  0  0  0  0  0  0  0
   26.2232    5.4345    7.0036 C   0  0  0  0  0  0  0  0  0  0  0  0
   22.6522    5.0751    6.3133 C   0  0  0  0  0  0  0  0  0  0  0  0
   24.2918    3.5733    4.5692 C   0  0  0  0  0  0  0  0  0  0  0  0
   22.0778    4.3026    5.2990 C   0  0  0  0  0  0  0  0  0  0  0  0
   22.8960    3.5640    4.4438 C   0  0  0  0  0  0  0  0  0  0  0  0
   26.9275    4.1463    5.5080 H   0  0  0  0  0  0  0  0  0  0  0  0
   20.7350    4.1951    5.0503 O   0  0  0  0  0  0  0  0  0  0  0  0
   20.3619    3.6200    3.8029 C   0  0  0  0  0  0  0  0  0  0  0  0
   24.5301    6.7407    8.4481 C   0  0  0  0  0  0  0  0  0  0  0  0
   24.8843    6.2198    9.8455 C   0  0  0  0  0  0  0  0  0  0  0  0
   26.1985    4.1900   11.3390 O   0  0  0  0  0  0  0  0  0  0  0  0
   24.3797    4.8841   10.1197 N   0  0  0  0  0  0  0  0  0  0  0  0
   25.1081    3.9586   10.8305 C   0  0  0  0  0  0  0  0  0  0  0  0
   24.4226    2.6249   10.9566 C   0  0  0  0  0  0  0  0  0  0  0  0
   23.4880    4.6339    9.7858 H   0  0  0  0  0  0  0  0  0  0  0  0
 11  8  1  0
 11 12  1  0
 15 17  2  0
  1  4  1  0
  1  5  1  0
  1 10  1  0
 16 14  1  0
 16 17  1  0
 16 19  1  0
  2  3  1  0
  2 13  1  0
  2  5  2  0
  3  4  2  0
  3  6  1  0
 13 14  1  0
  4  7  1  0
  6  8  2  0
  7  9  2  0
  8  9  1  0
 17 18  1  0
M  END
> <PUBCHEM_COMPOUND_CID>
896

> <PUBCHEM_CONFORMER_RMSD>
0.6

> <PUBCHEM_CONFORMER_DIVERSEORDER>
1
13
50
55
28
16
42
48
27
15
62
60
65
61
36
4
20
58
41
17
59
21
2
63
47
57
40
56
22
64
54
37
51
7
31
53
26
8
49
39
32
11
5
33
38
52
23
45
43
12
14
9
34
44
35
10
25
29
46
6
30
24
3
19
18

> <PUBCHEM_MMFF94_PARTIAL_CHARGES>
22
1 -0.36
10 0.3
11 -0.15
12 -0.15
13 0.08
14 -0.15
15 0.57
16 0.06
17 0.28
2 -0.57
20 0.15
23 0.27
24 0.15
25 0.15
26 0.15
27 0.37
3 0.03
4 -0.73
5 -0.18
7 0.18
8 -0.15
9 -0.3

> <PUBCHEM_EFFECTIVE_ROTOR_COUNT>
5

> <PUBCHEM_PHARMACOPHORE_FEATURES>
7
1 1 acceptor
1 2 acceptor
1 3 cation
1 3 donor
1 4 donor
5 3 5 6 8 9 rings
6 6 8 11 12 13 14 rings

> <PUBCHEM_HEAVY_ATOM_COUNT>
17

> <PUBCHEM_ATOM_DEF_STEREO_COUNT>
0

> <PUBCHEM_ATOM_UDEF_STEREO_COUNT>
0

> <PUBCHEM_BOND_DEF_STEREO_COUNT>
0

> <PUBCHEM_BOND_UDEF_STEREO_COUNT>
0

> <PUBCHEM_ISOTOPIC_ATOM_COUNT>
0

> <PUBCHEM_COMPONENT_COUNT>
1

> <PUBCHEM_CACTVS_TAUTO_COUNT>
2

> <PUBCHEM_CONFORMER_ID>
0000038000000001

> <PUBCHEM_MMFF94_ENERGY>
32.7119

> <PUBCHEM_FEATURE_SELFOVERLAP>
35.612

> <PUBCHEM_SHAPE_FINGERPRINT>
10967382 1 18410853274190255273
11640471 11 17676780867509025316
13027679 85 18194690495324420133
13140716 1 17978229692519098697
13965767 371 16608554374032828400
1420 336 18266184924512803916
14787075 74 17896612875907719035
14790565 3 18341057316043312793
15006816 218 16754940689043299904
16945 1 18195239147136872059
19591789 44 18120376712306458779
19765921 60 17749382706469569763
20510252 161 18342458093286620745
21141583 151 18124894583888822372
21524375 3 17972887951224859043
2334 1 18410572855759727185
23419403 2 17326855944455494142
23557571 272 18201719608641642450
23559900 14 18342173410755765088
2748010 2 18337115553281152647
353137 74 18409164389875307419
44154327 71 18267028250037128041
526903 126 18410576235872810256
537710 114 18408601466050490037
7832392 63 17187566044572678455
9981440 41 18116712022929254594

> <PUBCHEM_SHAPE_MULTIPOLES>
328.15
4.94
3.77
0.97
2.92
1.2
-0.06
0.99
-1.27
-0.81
0.74
0.39
0.23
-0.66

> <PUBCHEM_SHAPE_SELFOVERLAP>
695.133

> <PUBCHEM_SHAPE_VOLUME>
185.3

> <PUBCHEM_COORDINATE_TYPE>
2
5
10

> <Energy>
0.232708

> <minimizedAffinity>
-7.18687

> <CNNscore>
0.4923926890

> <CNNaffinity>
6.2056908607

> <CNN_VS>
3.0556368828

> <CNNaffinity_variance>
0.1647743136

$$$$
896


 19 20  0  0  0  0  0  0  0  0999 V2000
   24.5982    5.4867   10.8653 N   0  0  0  0  0  0  0  0  0  0  0  0
   24.4253    6.0793    8.7213 C   0  0  0  0  0  0  0  0  0  0  0  0
   23.8165    4.7954    8.8993 C   0  0  0  0  0  0  0  0  0  0  0  0
   23.9510    4.4463   10.2409 C   0  0  0  0  0  0  0  0  0  0  0  0
   24.8936    6.4729    9.9599 C   0  0  0  0  0  0  0  0  0  0  0  0
   23.1655    3.8982    8.0253 C   0  0  0  0  0  0  0  0  0  0  0  0
   23.4719    3.2378   10.7558 C   0  0  0  0  0  0  0  0  0  0  0  0
   22.6864    2.6778    8.5117 C   0  0  0  0  0  0  0  0  0  0  0  0
   22.8418    2.3617    9.8617 C   0  0  0  0  0  0  0  0  0  0  0  0
   24.8179    5.5188   11.8244 H   0  0  0  0  0  0  0  0  0  0  0  0
   22.0539    1.7210    7.7630 O   0  0  0  0  0  0  0  0  0  0  0  0
   20.8846    2.1302    7.0619 C   0  0  0  0  0  0  0  0  0  0  0  0
   24.5272    6.8396    7.4319 C   0  0  0  0  0  0  0  0  0  0  0  0
   25.9005    6.7084    6.7638 C   0  0  0  0  0  0  0  0  0  0  0  0
   27.6316    5.1583    8.4003 O   0  0  0  0  0  0  0  0  0  0  0  0
   26.3105    5.3334    6.5293 N   0  0  0  0  0  0  0  0  0  0  0  0
   27.1806    4.6762    7.3681 C   0  0  0  0  0  0  0  0  0  0  0  0
   27.5106    3.2797    6.9150 C   0  0  0  0  0  0  0  0  0  0  0  0
   25.9541    4.8572    5.7448 H   0  0  0  0  0  0  0  0  0  0  0  0
 11  8  1  0
 11 12  1  0
 15 17  2  0
  1  4  1  0
  1  5  1  0
  1 10  1  0
 16 14  1  0
 16 17  1  0
 16 19  1  0
  2  3  1  0
  2 13  1  0
  2  5  2  0
  3  4  2  0
  3  6  1  0
 13 14  1  0
  4  7  1  0
  6  8  2  0
  7  9  2  0
  8  9  1  0
 17 18  1  0
M  END
> <PUBCHEM_COMPOUND_CID>
896

> <PUBCHEM_CONFORMER_RMSD>
0.6

> <PUBCHEM_CONFORMER_DIVERSEORDER>
1
13
50
55
28
16
42
48
27
15
62
60
65
61
36
4
20
58
41
17
59
21
2
63
47
57
40
56
22
64
54
37
51
7
31
53
26
8
49
39
32
11
5
33
38
52
23
45
43
12
14
9
34
44
35
10
25
29
46
6
30
24
3
19
18

> <PUBCHEM_MMFF94_PARTIAL_CHARGES>
22
1 -0.36
10 0.3
11 -0.15
12 -0.15
13 0.08
14 -0.15
15 0.57
16 0.06
17 0.28
2 -0.57
20 0.15
23 0.27
24 0.15
25 0.15
26 0.15
27 0.37
3 0.03
4 -0.73
5 -0.18
7 0.18
8 -0.15
9 -0.3

> <PUBCHEM_EFFECTIVE_ROTOR_COUNT>
5

> <PUBCHEM_PHARMACOPHORE_FEATURES>
7
1 1 acceptor
1 2 acceptor
1 3 cation
1 3 donor
1 4 donor
5 3 5 6 8 9 rings
6 6 8 11 12 13 14 rings

> <PUBCHEM_HEAVY_ATOM_COUNT>
17

> <PUBCHEM_ATOM_DEF_STEREO_COUNT>
0

> <PUBCHEM_ATOM_UDEF_STEREO_COUNT>
0

> <PUBCHEM_BOND_DEF_STEREO_COUNT>
0

> <PUBCHEM_BOND_UDEF_STEREO_COUNT>
0

> <PUBCHEM_ISOTOPIC_ATOM_COUNT>
0

> <PUBCHEM_COMPONENT_COUNT>
1

> <PUBCHEM_CACTVS_TAUTO_COUNT>
2

> <PUBCHEM_CONFORMER_ID>
0000038000000001

> <PUBCHEM_MMFF94_ENERGY>
32.7119

> <PUBCHEM_FEATURE_SELFOVERLAP>
35.612

> <PUBCHEM_SHAPE_FINGERPRINT>
10967382 1 18410853274190255273
11640471 11 17676780867509025316
13027679 85 18194690495324420133
13140716 1 17978229692519098697
13965767 371 16608554374032828400
1420 336 18266184924512803916
14787075 74 17896612875907719035
14790565 3 18341057316043312793
15006816 218 16754940689043299904
16945 1 18195239147136872059
19591789 44 18120376712306458779
19765921 60 17749382706469569763
20510252 161 18342458093286620745
21141583 151 18124894583888822372
21524375 3 17972887951224859043
2334 1 18410572855759727185
23419403 2 17326855944455494142
23557571 272 18201719608641642450
23559900 14 18342173410755765088
2748010 2 18337115553281152647
353137 74 18409164389875307419
44154327 71 18267028250037128041
526903 126 18410576235872810256
537710 114 18408601466050490037
7832392 63 17187566044572678455
9981440 41 18116712022929254594

> <PUBCHEM_SHAPE_MULTIPOLES>
328.15
4.94
3.77
0.97
2.92
1.2
-0.06
0.99
-1.27
-0.81
0.74
0.39
0.23
-0.66

> <PUBCHEM_SHAPE_SELFOVERLAP>
695.133

> <PUBCHEM_SHAPE_VOLUME>
185.3

> <PUBCHEM_COORDINATE_TYPE>
2
5
10

> <Energy>
0.232708

> <minimizedAffinity>
-5.57703

> <CNNscore>
0.3699936569

> <CNNaffinity>
6.4034762383

> <CNN_VS>
2.3692455292

> <CNNaffinity_variance>
0.2921184301

$$$$
896


 19 20  0  0  0  0  0  0  0  0999 V2000
   22.5765    0.8157    9.0524 N   0  0  0  0  0  0  0  0  0  0  0  0
   21.8875    2.4519    7.7012 C   0  0  0  0  0  0  0  0  0  0  0  0
   22.7488    3.0069    8.7016 C   0  0  0  0  0  0  0  0  0  0  0  0
   23.1518    1.9673    9.5363 C   0  0  0  0  0  0  0  0  0  0  0  0
   21.8090    1.0956    7.9515 C   0  0  0  0  0  0  0  0  0  0  0  0
   23.2150    4.3124    8.9681 C   0  0  0  0  0  0  0  0  0  0  0  0
   23.9956    2.1667   10.6333 C   0  0  0  0  0  0  0  0  0  0  0  0
   24.0512    4.5417   10.0653 C   0  0  0  0  0  0  0  0  0  0  0  0
   24.4316    3.4755   10.8806 C   0  0  0  0  0  0  0  0  0  0  0  0
   22.6982   -0.0807    9.4407 H   0  0  0  0  0  0  0  0  0  0  0  0
   24.5545    5.7608   10.4353 O   0  0  0  0  0  0  0  0  0  0  0  0
   24.8050    6.6914    9.3878 C   0  0  0  0  0  0  0  0  0  0  0  0
   21.2082    3.2095    6.5986 C   0  0  0  0  0  0  0  0  0  0  0  0
   21.9881    4.4519    6.1540 C   0  0  0  0  0  0  0  0  0  0  0  0
   21.4919    5.0084    3.4114 O   0  0  0  0  0  0  0  0  0  0  0  0
   22.8959    4.2094    5.0444 N   0  0  0  0  0  0  0  0  0  0  0  0
   22.5499    4.4864    3.7422 C   0  0  0  0  0  0  0  0  0  0  0  0
   23.6151    4.1140    2.7466 C   0  0  0  0  0  0  0  0  0  0  0  0
   23.7871    3.8348    5.2311 H   0  0  0  0  0  0  0  0  0  0  0  0
 11  8  1  0
 11 12  1  0
 15 17  2  0
  1  4  1  0
  1  5  1  0
  1 10  1  0
 16 14  1  0
 16 17  1  0
 16 19  1  0
  2  3  1  0
  2 13  1  0
  2  5  2  0
  3  4  2  0
  3  6  1  0
 13 14  1  0
  4  7  1  0
  6  8  2  0
  7  9  2  0
  8  9  1  0
 17 18  1  0
M  END
> <PUBCHEM_COMPOUND_CID>
896

> <PUBCHEM_CONFORMER_RMSD>
0.6

> <PUBCHEM_CONFORMER_DIVERSEORDER>
1
13
50
55
28
16
42
48
27
15
62
60
65
61
36
4
20
58
41
17
59
21
2
63
47
57
40
56
22
64
54
37
51
7
31
53
26
8
49
39
32
11
5
33
38
52
23
45
43
12
14
9
34
44
35
10
25
29
46
6
30
24
3
19
18

> <PUBCHEM_MMFF94_PARTIAL_CHARGES>
22
1 -0.36
10 0.3
11 -0.15
12 -0.15
13 0.08
14 -0.15
15 0.57
16 0.06
17 0.28
2 -0.57
20 0.15
23 0.27
24 0.15
25 0.15
26 0.15
27 0.37
3 0.03
4 -0.73
5 -0.18
7 0.18
8 -0.15
9 -0.3

> <PUBCHEM_EFFECTIVE_ROTOR_COUNT>
5

> <PUBCHEM_PHARMACOPHORE_FEATURES>
7
1 1 acceptor
1 2 acceptor
1 3 cation
1 3 donor
1 4 donor
5 3 5 6 8 9 rings
6 6 8 11 12 13 14 rings

> <PUBCHEM_HEAVY_ATOM_COUNT>
17

> <PUBCHEM_ATOM_DEF_STEREO_COUNT>
0

> <PUBCHEM_ATOM_UDEF_STEREO_COUNT>
0

> <PUBCHEM_BOND_DEF_STEREO_COUNT>
0

> <PUBCHEM_BOND_UDEF_STEREO_COUNT>
0

> <PUBCHEM_ISOTOPIC_ATOM_COUNT>
0

> <PUBCHEM_COMPONENT_COUNT>
1

> <PUBCHEM_CACTVS_TAUTO_COUNT>
2

> <PUBCHEM_CONFORMER_ID>
0000038000000001

> <PUBCHEM_MMFF94_ENERGY>
32.7119

> <PUBCHEM_FEATURE_SELFOVERLAP>
35.612

> <PUBCHEM_SHAPE_FINGERPRINT>
10967382 1 18410853274190255273
11640471 11 17676780867509025316
13027679 85 18194690495324420133
13140716 1 17978229692519098697
13965767 371 16608554374032828400
1420 336 18266184924512803916
14787075 74 17896612875907719035
14790565 3 18341057316043312793
15006816 218 16754940689043299904
16945 1 18195239147136872059
19591789 44 18120376712306458779
19765921 60 17749382706469569763
20510252 161 18342458093286620745
21141583 151 18124894583888822372
21524375 3 17972887951224859043
2334 1 18410572855759727185
23419403 2 17326855944455494142
23557571 272 18201719608641642450
23559900 14 18342173410755765088
2748010 2 18337115553281152647
353137 74 18409164389875307419
44154327 71 18267028250037128041
526903 126 18410576235872810256
537710 114 18408601466050490037
7832392 63 17187566044572678455
9981440 41 18116712022929254594

> <PUBCHEM_SHAPE_MULTIPOLES>
328.15
4.94
3.77
0.97
2.92
1.2
-0.06
0.99
-1.27
-0.81
0.74
0.39
0.23
-0.66

> <PUBCHEM_SHAPE_SELFOVERLAP>
695.133

> <PUBCHEM_SHAPE_VOLUME>
185.3

> <PUBCHEM_COORDINATE_TYPE>
2
5
10

> <Energy>
0.232708

> <minimizedAffinity>
-6.45614

> <CNNscore>
0.3543846607

> <CNNaffinity>
6.5553231239

> <CNN_VS>
2.3231060505

> <CNNaffinity_variance>
0.3743621409

$$$$
896


 19 20  0  0  0  0  0  0  0  0999 V2000
   21.1460    3.2098    7.8570 N   0  0  0  0  0  0  0  0  0  0  0  0
   23.1152    4.2395    7.6570 C   0  0  0  0  0  0  0  0  0  0  0  0
   22.4310    4.2964    6.4002 C   0  0  0  0  0  0  0  0  0  0  0  0
   21.2141    3.6361    6.5512 C   0  0  0  0  0  0  0  0  0  0  0  0
   22.2866    3.5624    8.5308 C   0  0  0  0  0  0  0  0  0  0  0  0
   22.7512    4.8528    5.1430 C   0  0  0  0  0  0  0  0  0  0  0  0
   20.2985    3.4963    5.5037 C   0  0  0  0  0  0  0  0  0  0  0  0
   21.8584    4.7180    4.0752 C   0  0  0  0  0  0  0  0  0  0  0  0
   20.6497    4.0474    4.2639 C   0  0  0  0  0  0  0  0  0  0  0  0
   20.3873    2.7218    8.2512 H   0  0  0  0  0  0  0  0  0  0  0  0
   22.0615    5.1984    2.8086 O   0  0  0  0  0  0  0  0  0  0  0  0
   23.1757    4.6700    2.0976 C   0  0  0  0  0  0  0  0  0  0  0  0
   24.4706    4.8103    7.9538 C   0  0  0  0  0  0  0  0  0  0  0  0
   24.6168    5.2892    9.4025 C   0  0  0  0  0  0  0  0  0  0  0  0
   26.1576    3.0808   10.3116 O   0  0  0  0  0  0  0  0  0  0  0  0
   24.2138    4.3021   10.3909 N   0  0  0  0  0  0  0  0  0  0  0  0
   25.0232    3.2471   10.7435 C   0  0  0  0  0  0  0  0  0  0  0  0
   24.3939    2.3175   11.7456 C   0  0  0  0  0  0  0  0  0  0  0  0
   23.3331    4.3916   10.8219 H   0  0  0  0  0  0  0  0  0  0  0  0
 11  8  1  0
 11 12  1  0
 15 17  2  0
  1  4  1  0
  1  5  1  0
  1 10  1  0
 16 14  1  0
 16 17  1  0
 16 19  1  0
  2  3  1  0
  2 13  1  0
  2  5  2  0
  3  4  2  0
  3  6  1  0
 13 14  1  0
  4  7  1  0
  6  8  2  0
  7  9  2  0
  8  9  1  0
 17 18  1  0
M  END
> <PUBCHEM_COMPOUND_CID>
896

> <PUBCHEM_CONFORMER_RMSD>
0.6

> <PUBCHEM_CONFORMER_DIVERSEORDER>
1
13
50
55
28
16
42
48
27
15
62
60
65
61
36
4
20
58
41
17
59
21
2
63
47
57
40
56
22
64
54
37
51
7
31
53
26
8
49
39
32
11
5
33
38
52
23
45
43
12
14
9
34
44
35
10
25
29
46
6
30
24
3
19
18

> <PUBCHEM_MMFF94_PARTIAL_CHARGES>
22
1 -0.36
10 0.3
11 -0.15
12 -0.15
13 0.08
14 -0.15
15 0.57
16 0.06
17 0.28
2 -0.57
20 0.15
23 0.27
24 0.15
25 0.15
26 0.15
27 0.37
3 0.03
4 -0.73
5 -0.18
7 0.18
8 -0.15
9 -0.3

> <PUBCHEM_EFFECTIVE_ROTOR_COUNT>
5

> <PUBCHEM_PHARMACOPHORE_FEATURES>
7
1 1 acceptor
1 2 acceptor
1 3 cation
1 3 donor
1 4 donor
5 3 5 6 8 9 rings
6 6 8 11 12 13 14 rings

> <PUBCHEM_HEAVY_ATOM_COUNT>
17

> <PUBCHEM_ATOM_DEF_STEREO_COUNT>
0

> <PUBCHEM_ATOM_UDEF_STEREO_COUNT>
0

> <PUBCHEM_BOND_DEF_STEREO_COUNT>
0

> <PUBCHEM_BOND_UDEF_STEREO_COUNT>
0

> <PUBCHEM_ISOTOPIC_ATOM_COUNT>
0

> <PUBCHEM_COMPONENT_COUNT>
1

> <PUBCHEM_CACTVS_TAUTO_COUNT>
2

> <PUBCHEM_CONFORMER_ID>
0000038000000001

> <PUBCHEM_MMFF94_ENERGY>
32.7119

> <PUBCHEM_FEATURE_SELFOVERLAP>
35.612

> <PUBCHEM_SHAPE_FINGERPRINT>
10967382 1 18410853274190255273
11640471 11 17676780867509025316
13027679 85 18194690495324420133
13140716 1 17978229692519098697
13965767 371 16608554374032828400
1420 336 18266184924512803916
14787075 74 17896612875907719035
14790565 3 18341057316043312793
15006816 218 16754940689043299904
16945 1 18195239147136872059
19591789 44 18120376712306458779
19765921 60 17749382706469569763
20510252 161 18342458093286620745
21141583 151 18124894583888822372
21524375 3 17972887951224859043
2334 1 18410572855759727185
23419403 2 17326855944455494142
23557571 272 18201719608641642450
23559900 14 18342173410755765088
2748010 2 18337115553281152647
353137 74 18409164389875307419
44154327 71 18267028250037128041
526903 126 18410576235872810256
537710 114 18408601466050490037
7832392 63 17187566044572678455
9981440 41 18116712022929254594

> <PUBCHEM_SHAPE_MULTIPOLES>
328.15
4.94
3.77
0.97
2.92
1.2
-0.06
0.99
-1.27
-0.81
0.74
0.39
0.23
-0.66

> <PUBCHEM_SHAPE_SELFOVERLAP>
695.133

> <PUBCHEM_SHAPE_VOLUME>
185.3

> <PUBCHEM_COORDINATE_TYPE>
2
5
10

> <Energy>
0.232708

> <minimizedAffinity>
-5.72902

> <CNNscore>
0.3437498212

> <CNNaffinity>
5.7758564949

> <CNN_VS>
1.9854496717

> <CNNaffinity_variance>
0.0579884537

$$$$
896


 19 20  0  0  0  0  0  0  0  0999 V2000
   23.1485    4.1849    2.5219 N   0  0  0  0  0  0  0  0  0  0  0  0
   24.1356    4.2648    4.5211 C   0  0  0  0  0  0  0  0  0  0  0  0
   22.7475    3.9613    4.6998 C   0  0  0  0  0  0  0  0  0  0  0  0
   22.1559    3.9310    3.4393 C   0  0  0  0  0  0  0  0  0  0  0  0
   24.3431    4.3927    3.1614 C   0  0  0  0  0  0  0  0  0  0  0  0
   21.9442    3.7145    5.8340 C   0  0  0  0  0  0  0  0  0  0  0  0
   20.7945    3.6721    3.2529 C   0  0  0  0  0  0  0  0  0  0  0  0
   20.5775    3.4636    5.6769 C   0  0  0  0  0  0  0  0  0  0  0  0
   20.0198    3.4438    4.3982 C   0  0  0  0  0  0  0  0  0  0  0  0
   23.0197    4.2132    1.5463 H   0  0  0  0  0  0  0  0  0  0  0  0
   19.6942    3.2262    6.6966 O   0  0  0  0  0  0  0  0  0  0  0  0
   20.0351    2.1853    7.6056 C   0  0  0  0  0  0  0  0  0  0  0  0
   25.1569    4.4120    5.6103 C   0  0  0  0  0  0  0  0  0  0  0  0
   25.1603    3.2363    6.5938 C   0  0  0  0  0  0  0  0  0  0  0  0
   27.1681    4.7192    7.9530 O   0  0  0  0  0  0  0  0  0  0  0  0
   25.1412    3.6391    7.9907 N   0  0  0  0  0  0  0  0  0  0  0  0
   26.1804    4.3326    8.5663 C   0  0  0  0  0  0  0  0  0  0  0  0
   25.9797    4.6054   10.0326 C   0  0  0  0  0  0  0  0  0  0  0  0
   24.3592    3.4080    8.5424 H   0  0  0  0  0  0  0  0  0  0  0  0
 11  8  1  0
 11 12  1  0
 15 17  2  0
  1  4  1  0
  1  5  1  0
  1 10  1  0
 16 14  1  0
 16 17  1  0
 16 19  1  0
  2  3  1  0
  2 13  1  0
  2  5  2  0
  3  4  2  0
  3  6  1  0
 13 14  1  0
  4  7  1  0
  6  8  2  0
  7  9  2  0
  8  9  1  0
 17 18  1  0
M  END
> <PUBCHEM_COMPOUND_CID>
896

> <PUBCHEM_CONFORMER_RMSD>
0.6

> <PUBCHEM_CONFORMER_DIVERSEORDER>
1
13
50
55
28
16
42
48
27
15
62
60
65
61
36
4
20
58
41
17
59
21
2
63
47
57
40
56
22
64
54
37
51
7
31
53
26
8
49
39
32
11
5
33
38
52
23
45
43
12
14
9
34
44
35
10
25
29
46
6
30
24
3
19
18

> <PUBCHEM_MMFF94_PARTIAL_CHARGES>
22
1 -0.36
10 0.3
11 -0.15
12 -0.15
13 0.08
14 -0.15
15 0.57
16 0.06
17 0.28
2 -0.57
20 0.15
23 0.27
24 0.15
25 0.15
26 0.15
27 0.37
3 0.03
4 -0.73
5 -0.18
7 0.18
8 -0.15
9 -0.3

> <PUBCHEM_EFFECTIVE_ROTOR_COUNT>
5

> <PUBCHEM_PHARMACOPHORE_FEATURES>
7
1 1 acceptor
1 2 acceptor
1 3 cation
1 3 donor
1 4 donor
5 3 5 6 8 9 rings
6 6 8 11 12 13 14 rings

> <PUBCHEM_HEAVY_ATOM_COUNT>
17

> <PUBCHEM_ATOM_DEF_STEREO_COUNT>
0

> <PUBCHEM_ATOM_UDEF_STEREO_COUNT>
0

> <PUBCHEM_BOND_DEF_STEREO_COUNT>
0

> <PUBCHEM_BOND_UDEF_STEREO_COUNT>
0

> <PUBCHEM_ISOTOPIC_ATOM_COUNT>
0

> <PUBCHEM_COMPONENT_COUNT>
1

> <PUBCHEM_CACTVS_TAUTO_COUNT>
2

> <PUBCHEM_CONFORMER_ID>
0000038000000001

> <PUBCHEM_MMFF94_ENERGY>
32.7119

> <PUBCHEM_FEATURE_SELFOVERLAP>
35.612

> <PUBCHEM_SHAPE_FINGERPRINT>
10967382 1 18410853274190255273
11640471 11 17676780867509025316
13027679 85 18194690495324420133
13140716 1 17978229692519098697
13965767 371 16608554374032828400
1420 336 18266184924512803916
14787075 74 17896612875907719035
14790565 3 18341057316043312793
15006816 218 16754940689043299904
16945 1 18195239147136872059
19591789 44 18120376712306458779
19765921 60 17749382706469569763
20510252 161 18342458093286620745
21141583 151 18124894583888822372
21524375 3 17972887951224859043
2334 1 18410572855759727185
23419403 2 17326855944455494142
23557571 272 18201719608641642450
23559900 14 18342173410755765088
2748010 2 18337115553281152647
353137 74 18409164389875307419
44154327 71 18267028250037128041
526903 126 18410576235872810256
537710 114 18408601466050490037
7832392 63 17187566044572678455
9981440 41 18116712022929254594

> <PUBCHEM_SHAPE_MULTIPOLES>
328.15
4.94
3.77
0.97
2.92
1.2
-0.06
0.99
-1.27
-0.81
0.74
0.39
0.23
-0.66

> <PUBCHEM_SHAPE_SELFOVERLAP>
695.133

> <PUBCHEM_SHAPE_VOLUME>
185.3

> <PUBCHEM_COORDINATE_TYPE>
2
5
10

> <Energy>
0.232708

> <minimizedAffinity>
-5.04014

> <CNNscore>
0.3403870761

> <CNNaffinity>
6.4575748444

> <CNN_VS>
2.1980750561

> <CNNaffinity_variance>
0.5259244442

$$$$
896


 19 20  0  0  0  0  0  0  0  0999 V2000
   26.1239    6.4369    8.6476 N   0  0  0  0  0  0  0  0  0  0  0  0
   24.4642    5.8967    7.2579 C   0  0  0  0  0  0  0  0  0  0  0  0
   24.4586    4.9875    8.3643 C   0  0  0  0  0  0  0  0  0  0  0  0
   25.5107    5.3399    9.2062 C   0  0  0  0  0  0  0  0  0  0  0  0
   25.5063    6.7779    7.4721 C   0  0  0  0  0  0  0  0  0  0  0  0
   23.6456    3.8883    8.7157 C   0  0  0  0  0  0  0  0  0  0  0  0
   25.7981    4.6432   10.3839 C   0  0  0  0  0  0  0  0  0  0  0  0
   23.9175    3.1672    9.8825 C   0  0  0  0  0  0  0  0  0  0  0  0
   24.9819    3.5486   10.6998 C   0  0  0  0  0  0  0  0  0  0  0  0
   26.8953    6.9093    9.0360 H   0  0  0  0  0  0  0  0  0  0  0  0
   23.2137    2.0769   10.3210 O   0  0  0  0  0  0  0  0  0  0  0  0
   22.6094    1.2641    9.3208 C   0  0  0  0  0  0  0  0  0  0  0  0
   23.5144    5.8836    6.0965 C   0  0  0  0  0  0  0  0  0  0  0  0
   23.7008    4.6681    5.1815 C   0  0  0  0  0  0  0  0  0  0  0  0
   21.5220    2.9370    5.7592 O   0  0  0  0  0  0  0  0  0  0  0  0
   22.5590    4.3989    4.3226 N   0  0  0  0  0  0  0  0  0  0  0  0
   21.5658    3.5171    4.6809 C   0  0  0  0  0  0  0  0  0  0  0  0
   20.5050    3.3485    3.6270 C   0  0  0  0  0  0  0  0  0  0  0  0
   22.4945    4.8627    3.4566 H   0  0  0  0  0  0  0  0  0  0  0  0
 11  8  1  0
 11 12  1  0
 15 17  2  0
  1  4  1  0
  1  5  1  0
  1 10  1  0
 16 14  1  0
 16 17  1  0
 16 19  1  0
  2  3  1  0
  2 13  1  0
  2  5  2  0
  3  4  2  0
  3  6  1  0
 13 14  1  0
  4  7  1  0
  6  8  2  0
  7  9  2  0
  8  9  1  0
 17 18  1  0
M  END
> <PUBCHEM_COMPOUND_CID>
896

> <PUBCHEM_CONFORMER_RMSD>
0.6

> <PUBCHEM_CONFORMER_DIVERSEORDER>
1
13
50
55
28
16
42
48
27
15
62
60
65
61
36
4
20
58
41
17
59
21
2
63
47
57
40
56
22
64
54
37
51
7
31
53
26
8
49
39
32
11
5
33
38
52
23
45
43
12
14
9
34
44
35
10
25
29
46
6
30
24
3
19
18

> <PUBCHEM_MMFF94_PARTIAL_CHARGES>
22
1 -0.36
10 0.3
11 -0.15
12 -0.15
13 0.08
14 -0.15
15 0.57
16 0.06
17 0.28
2 -0.57
20 0.15
23 0.27
24 0.15
25 0.15
26 0.15
27 0.37
3 0.03
4 -0.73
5 -0.18
7 0.18
8 -0.15
9 -0.3

> <PUBCHEM_EFFECTIVE_ROTOR_COUNT>
5

> <PUBCHEM_PHARMACOPHORE_FEATURES>
7
1 1 acceptor
1 2 acceptor
1 3 cation
1 3 donor
1 4 donor
5 3 5 6 8 9 rings
6 6 8 11 12 13 14 rings

> <PUBCHEM_HEAVY_ATOM_COUNT>
17

> <PUBCHEM_ATOM_DEF_STEREO_COUNT>
0

> <PUBCHEM_ATOM_UDEF_STEREO_COUNT>
0

> <PUBCHEM_BOND_DEF_STEREO_COUNT>
0

> <PUBCHEM_BOND_UDEF_STEREO_COUNT>
0

> <PUBCHEM_ISOTOPIC_ATOM_COUNT>
0

> <PUBCHEM_COMPONENT_COUNT>
1

> <PUBCHEM_CACTVS_TAUTO_COUNT>
2

> <PUBCHEM_CONFORMER_ID>
0000038000000001

> <PUBCHEM_MMFF94_ENERGY>
32.7119

> <PUBCHEM_FEATURE_SELFOVERLAP>
35.612

> <PUBCHEM_SHAPE_FINGERPRINT>
10967382 1 18410853274190255273
11640471 11 17676780867509025316
13027679 85 18194690495324420133
13140716 1 17978229692519098697
13965767 371 16608554374032828400
1420 336 18266184924512803916
14787075 74 17896612875907719035
14790565 3 18341057316043312793
15006816 218 16754940689043299904
16945 1 18195239147136872059
19591789 44 18120376712306458779
19765921 60 17749382706469569763
20510252 161 18342458093286620745
21141583 151 18124894583888822372
21524375 3 17972887951224859043
2334 1 18410572855759727185
23419403 2 17326855944455494142
23557571 272 18201719608641642450
23559900 14 18342173410755765088
2748010 2 18337115553281152647
353137 74 18409164389875307419
44154327 71 18267028250037128041
526903 126 18410576235872810256
537710 114 18408601466050490037
7832392 63 17187566044572678455
9981440 41 18116712022929254594

> <PUBCHEM_SHAPE_MULTIPOLES>
328.15
4.94
3.77
0.97
2.92
1.2
-0.06
0.99
-1.27
-0.81
0.74
0.39
0.23
-0.66

> <PUBCHEM_SHAPE_SELFOVERLAP>
695.133

> <PUBCHEM_SHAPE_VOLUME>
185.3

> <PUBCHEM_COORDINATE_TYPE>
2
5
10

> <Energy>
0.232708

> <minimizedAffinity>
-6.32059

> <CNNscore>
0.3104136586

> <CNNaffinity>
6.3699378967

> <CNN_VS>
1.9773157835

> <CNNaffinity_variance>
0.3482154906

$$$$
896


 19 20  0  0  0  0  0  0  0  0999 V2000
   24.7460    5.6322   10.7622 N   0  0  0  0  0  0  0  0  0  0  0  0
   24.4745    5.7152    8.5492 C   0  0  0  0  0  0  0  0  0  0  0  0
   24.1366    4.4021    9.0101 C   0  0  0  0  0  0  0  0  0  0  0  0
   24.3278    4.3762   10.3894 C   0  0  0  0  0  0  0  0  0  0  0  0
   24.8433    6.4451    9.6626 C   0  0  0  0  0  0  0  0  0  0  0  0
   23.6878    3.2301    8.3638 C   0  0  0  0  0  0  0  0  0  0  0  0
   24.0989    3.2318   11.1597 C   0  0  0  0  0  0  0  0  0  0  0  0
   23.4616    2.0684    9.1087 C   0  0  0  0  0  0  0  0  0  0  0  0
   23.6665    2.0800   10.4886 C   0  0  0  0  0  0  0  0  0  0  0  0
   24.9468    5.9078   11.6856 H   0  0  0  0  0  0  0  0  0  0  0  0
   23.0419    0.8693    8.5965 O   0  0  0  0  0  0  0  0  0  0  0  0
   21.8480    0.8900    7.8219 C   0  0  0  0  0  0  0  0  0  0  0  0
   24.4311    6.1928    7.1276 C   0  0  0  0  0  0  0  0  0  0  0  0
   25.6243    5.7105    6.2949 C   0  0  0  0  0  0  0  0  0  0  0  0
   23.2400    5.1914    4.8378 O   0  0  0  0  0  0  0  0  0  0  0  0
   25.3415    4.5328    5.4907 N   0  0  0  0  0  0  0  0  0  0  0  0
   24.1394    4.3595    4.8446 C   0  0  0  0  0  0  0  0  0  0  0  0
   24.0369    3.0501    4.1100 C   0  0  0  0  0  0  0  0  0  0  0  0
   26.0326    3.8368    5.4057 H   0  0  0  0  0  0  0  0  0  0  0  0
 11  8  1  0
 11 12  1  0
 15 17  2  0
  1  4  1  0
  1  5  1  0
  1 10  1  0
 16 14  1  0
 16 17  1  0
 16 19  1  0
  2  3  1  0
  2 13  1  0
  2  5  2  0
  3  4  2  0
  3  6  1  0
 13 14  1  0
  4  7  1  0
  6  8  2  0
  7  9  2  0
  8  9  1  0
 17 18  1  0
M  END
> <PUBCHEM_COMPOUND_CID>
896

> <PUBCHEM_CONFORMER_RMSD>
0.6

> <PUBCHEM_CONFORMER_DIVERSEORDER>
1
13
50
55
28
16
42
48
27
15
62
60
65
61
36
4
20
58
41
17
59
21
2
63
47
57
40
56
22
64
54
37
51
7
31
53
26
8
49
39
32
11
5
33
38
52
23
45
43
12
14
9
34
44
35
10
25
29
46
6
30
24
3
19
18

> <PUBCHEM_MMFF94_PARTIAL_CHARGES>
22
1 -0.36
10 0.3
11 -0.15
12 -0.15
13 0.08
14 -0.15
15 0.57
16 0.06
17 0.28
2 -0.57
20 0.15
23 0.27
24 0.15
25 0.15
26 0.15
27 0.37
3 0.03
4 -0.73
5 -0.18
7 0.18
8 -0.15
9 -0.3

> <PUBCHEM_EFFECTIVE_ROTOR_COUNT>
5

> <PUBCHEM_PHARMACOPHORE_FEATURES>
7
1 1 acceptor
1 2 acceptor
1 3 cation
1 3 donor
1 4 donor
5 3 5 6 8 9 rings
6 6 8 11 12 13 14 rings

> <PUBCHEM_HEAVY_ATOM_COUNT>
17

> <PUBCHEM_ATOM_DEF_STEREO_COUNT>
0

> <PUBCHEM_ATOM_UDEF_STEREO_COUNT>
0

> <PUBCHEM_BOND_DEF_STEREO_COUNT>
0

> <PUBCHEM_BOND_UDEF_STEREO_COUNT>
0

> <PUBCHEM_ISOTOPIC_ATOM_COUNT>
0

> <PUBCHEM_COMPONENT_COUNT>
1

> <PUBCHEM_CACTVS_TAUTO_COUNT>
2

> <PUBCHEM_CONFORMER_ID>
0000038000000001

> <PUBCHEM_MMFF94_ENERGY>
32.7119

> <PUBCHEM_FEATURE_SELFOVERLAP>
35.612

> <PUBCHEM_SHAPE_FINGERPRINT>
10967382 1 18410853274190255273
11640471 11 17676780867509025316
13027679 85 18194690495324420133
13140716 1 17978229692519098697
13965767 371 16608554374032828400
1420 336 18266184924512803916
14787075 74 17896612875907719035
14790565 3 18341057316043312793
15006816 218 16754940689043299904
16945 1 18195239147136872059
19591789 44 18120376712306458779
19765921 60 17749382706469569763
20510252 161 18342458093286620745
21141583 151 18124894583888822372
21524375 3 17972887951224859043
2334 1 18410572855759727185
23419403 2 17326855944455494142
23557571 272 18201719608641642450
23559900 14 18342173410755765088
2748010 2 18337115553281152647
353137 74 18409164389875307419
44154327 71 18267028250037128041
526903 126 18410576235872810256
537710 114 18408601466050490037
7832392 63 17187566044572678455
9981440 41 18116712022929254594

> <PUBCHEM_SHAPE_MULTIPOLES>
328.15
4.94
3.77
0.97
2.92
1.2
-0.06
0.99
-1.27
-0.81
0.74
0.39
0.23
-0.66

> <PUBCHEM_SHAPE_SELFOVERLAP>
695.133

> <PUBCHEM_SHAPE_VOLUME>
185.3

> <PUBCHEM_COORDINATE_TYPE>
2
5
10

> <Energy>
0.232708

> <minimizedAffinity>
-6.62716

> <CNNscore>
0.3084950745

> <CNNaffinity>
6.3182525635

> <CNN_VS>
1.9491498470

> <CNNaffinity_variance>
0.1590235978

$$$$
896


 19 20  0  0  0  0  0  0  0  0999 V2000
   25.3601    2.7423    6.6600 N   0  0  0  0  0  0  0  0  0  0  0  0
   23.7570    2.2030    8.1151 C   0  0  0  0  0  0  0  0  0  0  0  0
   23.1490    2.6613    6.9022 C   0  0  0  0  0  0  0  0  0  0  0  0
   24.1711    3.0024    6.0197 C   0  0  0  0  0  0  0  0  0  0  0  0
   25.1237    2.2660    7.9236 C   0  0  0  0  0  0  0  0  0  0  0  0
   21.8097    2.8185    6.4848 C   0  0  0  0  0  0  0  0  0  0  0  0
   23.9230    3.5014    4.7373 C   0  0  0  0  0  0  0  0  0  0  0  0
   21.5332    3.3259    5.2113 C   0  0  0  0  0  0  0  0  0  0  0  0
   22.5837    3.6590    4.3558 C   0  0  0  0  0  0  0  0  0  0  0  0
   26.2526    2.8785    6.2676 H   0  0  0  0  0  0  0  0  0  0  0  0
   20.2808    3.5382    4.6989 O   0  0  0  0  0  0  0  0  0  0  0  0
   20.1683    3.5623    3.2802 C   0  0  0  0  0  0  0  0  0  0  0  0
   23.0362    1.7449    9.3486 C   0  0  0  0  0  0  0  0  0  0  0  0
   23.2287    2.6873   10.5420 C   0  0  0  0  0  0  0  0  0  0  0  0
   25.6250    4.1060   11.1103 O   0  0  0  0  0  0  0  0  0  0  0  0
   23.5322    4.0583   10.1648 N   0  0  0  0  0  0  0  0  0  0  0  0
   24.7142    4.6688   10.5147 C   0  0  0  0  0  0  0  0  0  0  0  0
   24.8036    6.1028   10.0675 C   0  0  0  0  0  0  0  0  0  0  0  0
   22.8703    4.5661    9.6420 H   0  0  0  0  0  0  0  0  0  0  0  0
 11  8  1  0
 11 12  1  0
 15 17  2  0
  1  4  1  0
  1  5  1  0
  1 10  1  0
 16 14  1  0
 16 17  1  0
 16 19  1  0
  2  3  1  0
  2 13  1  0
  2  5  2  0
  3  4  2  0
  3  6  1  0
 13 14  1  0
  4  7  1  0
  6  8  2  0
  7  9  2  0
  8  9  1  0
 17 18  1  0
M  END
> <PUBCHEM_COMPOUND_CID>
896

> <PUBCHEM_CONFORMER_RMSD>
0.6

> <PUBCHEM_CONFORMER_DIVERSEORDER>
1
13
50
55
28
16
42
48
27
15
62
60
65
61
36
4
20
58
41
17
59
21
2
63
47
57
40
56
22
64
54
37
51
7
31
53
26
8
49
39
32
11
5
33
38
52
23
45
43
12
14
9
34
44
35
10
25
29
46
6
30
24
3
19
18

> <PUBCHEM_MMFF94_PARTIAL_CHARGES>
22
1 -0.36
10 0.3
11 -0.15
12 -0.15
13 0.08
14 -0.15
15 0.57
16 0.06
17 0.28
2 -0.57
20 0.15
23 0.27
24 0.15
25 0.15
26 0.15
27 0.37
3 0.03
4 -0.73
5 -0.18
7 0.18
8 -0.15
9 -0.3

> <PUBCHEM_EFFECTIVE_ROTOR_COUNT>
5

> <PUBCHEM_PHARMACOPHORE_FEATURES>
7
1 1 acceptor
1 2 acceptor
1 3 cation
1 3 donor
1 4 donor
5 3 5 6 8 9 rings
6 6 8 11 12 13 14 rings

> <PUBCHEM_HEAVY_ATOM_COUNT>
17

> <PUBCHEM_ATOM_DEF_STEREO_COUNT>
0

> <PUBCHEM_ATOM_UDEF_STEREO_COUNT>
0

> <PUBCHEM_BOND_DEF_STEREO_COUNT>
0

> <PUBCHEM_BOND_UDEF_STEREO_COUNT>
0

> <PUBCHEM_ISOTOPIC_ATOM_COUNT>
0

> <PUBCHEM_COMPONENT_COUNT>
1

> <PUBCHEM_CACTVS_TAUTO_COUNT>
2

> <PUBCHEM_CONFORMER_ID>
0000038000000001

> <PUBCHEM_MMFF94_ENERGY>
32.7119

> <PUBCHEM_FEATURE_SELFOVERLAP>
35.612

> <PUBCHEM_SHAPE_FINGERPRINT>
10967382 1 18410853274190255273
11640471 11 17676780867509025316
13027679 85 18194690495324420133
13140716 1 17978229692519098697
13965767 371 16608554374032828400
1420 336 18266184924512803916
14787075 74 17896612875907719035
14790565 3 18341057316043312793
15006816 218 16754940689043299904
16945 1 18195239147136872059
19591789 44 18120376712306458779
19765921 60 17749382706469569763
20510252 161 18342458093286620745
21141583 151 18124894583888822372
21524375 3 17972887951224859043
2334 1 18410572855759727185
23419403 2 17326855944455494142
23557571 272 18201719608641642450
23559900 14 18342173410755765088
2748010 2 18337115553281152647
353137 74 18409164389875307419
44154327 71 18267028250037128041
526903 126 18410576235872810256
537710 114 18408601466050490037
7832392 63 17187566044572678455
9981440 41 18116712022929254594

> <PUBCHEM_SHAPE_MULTIPOLES>
328.15
4.94
3.77
0.97
2.92
1.2
-0.06
0.99
-1.27
-0.81
0.74
0.39
0.23
-0.66

> <PUBCHEM_SHAPE_SELFOVERLAP>
695.133

> <PUBCHEM_SHAPE_VOLUME>
185.3

> <PUBCHEM_COORDINATE_TYPE>
2
5
10

> <Energy>
0.232708

> <minimizedAffinity>
-6.67799

> <CNNscore>
0.3070133030

> <CNNaffinity>
6.2404189110

> <CNN_VS>
1.9158916473

> <CNNaffinity_variance>
0.1349345744

$$$$
