5757


 22 25  0  0  0  0  0  0  0  0999 V2000
  -10.3853   -4.0738    8.3169 O   0  0  0  0  0  0  0  0  0  0  0  0
   -4.1978   -4.1999   17.3664 O   0  0  0  0  0  0  0  0  0  0  0  0
   -8.7877   -4.3627   10.1726 C   0  0  0  0  0  0  0  0  0  0  0  0
   -7.5510   -5.2787   10.2684 C   0  0  0  0  0  0  0  0  0  0  0  0
   -6.6492   -4.9096   11.4460 C   0  0  0  0  0  0  0  0  0  0  0  0
   -7.4584   -5.0818   12.7675 C   0  0  0  0  0  0  0  0  0  0  0  0
   -9.4239   -4.9368    8.8921 C   0  0  0  0  0  0  0  0  0  0  0  0
   -9.6204   -4.5505   11.4466 C   0  0  0  0  0  0  0  0  0  0  0  0
   -6.9804   -5.2543    8.8532 C   0  0  0  0  0  0  0  0  0  0  0  0
   -8.7906   -4.2858   12.7179 C   0  0  0  0  0  0  0  0  0  0  0  0
   -8.2251   -5.1665    7.9511 C   0  0  0  0  0  0  0  0  0  0  0  0
   -5.3903   -5.7760   11.5177 C   0  0  0  0  0  0  0  0  0  0  0  0
   -8.4686   -2.8571    9.9873 C   0  0  0  0  0  0  0  0  0  0  0  0
   -6.5847   -4.8085   13.9908 C   0  0  0  0  0  0  0  0  0  0  0  0
   -4.4691   -5.2645   12.6226 C   0  0  0  0  0  0  0  0  0  0  0  0
   -5.1805   -4.9415   13.9162 C   0  0  0  0  0  0  0  0  0  0  0  0
   -7.1589   -4.5082   15.2392 C   0  0  0  0  0  0  0  0  0  0  0  0
   -4.3937   -4.7197   15.0618 C   0  0  0  0  0  0  0  0  0  0  0  0
   -6.3688   -4.3002   16.3722 C   0  0  0  0  0  0  0  0  0  0  0  0
   -4.9911   -4.4025   16.2748 C   0  0  0  0  0  0  0  0  0  0  0  0
  -11.1226   -3.9529    8.9355 H   0  0  0  0  0  0  0  0  0  0  0  0
   -3.2668   -4.2717   17.2887 H   0  0  0  0  0  0  0  0  0  0  0  0
  1  7  1  0
  1 21  1  0
  2 20  1  0
  2 22  1  0
  3  4  1  0
  3  7  1  0
  3  8  1  0
  3 13  1  0
  4  5  1  0
  4  9  1  0
  5  6  1  0
  5 12  1  0
  6 10  1  0
  6 14  1  0
  7 11  1  0
  8 10  1  0
  9 11  1  0
 12 15  1  0
 14 16  2  0
 14 17  1  0
 15 16  1  0
 16 18  1  0
 17 19  2  0
 18 20  2  0
 19 20  1  0
M  END
> <PUBCHEM_COMPOUND_CID>
5757

> <PUBCHEM_CONFORMER_RMSD>
0.6

> <PUBCHEM_CONFORMER_DIVERSEORDER>
1

> <PUBCHEM_MMFF94_PARTIAL_CHARGES>
16
1 -0.68
14 -0.14
15 0.14
16 -0.14
17 -0.15
18 -0.15
19 -0.15
2 -0.53
20 0.08
40 0.4
41 0.15
42 0.15
43 0.15
44 0.45
6 0.14
7 0.28

> <PUBCHEM_EFFECTIVE_ROTOR_COUNT>
1.4

> <PUBCHEM_PHARMACOPHORE_FEATURES>
7
1 1 acceptor
1 1 donor
1 2 donor
5 3 4 7 9 11 rings
6 14 16 17 18 19 20 rings
6 3 4 5 6 8 10 rings
6 5 6 12 14 15 16 rings

> <PUBCHEM_HEAVY_ATOM_COUNT>
20

> <PUBCHEM_ATOM_DEF_STEREO_COUNT>
5

> <PUBCHEM_ATOM_UDEF_STEREO_COUNT>
0

> <PUBCHEM_BOND_DEF_STEREO_COUNT>
0

> <PUBCHEM_BOND_UDEF_STEREO_COUNT>
0

> <PUBCHEM_ISOTOPIC_ATOM_COUNT>
0

> <PUBCHEM_COMPONENT_COUNT>
1

> <PUBCHEM_CACTVS_TAUTO_COUNT>
9

> <PUBCHEM_CONFORMER_ID>
0000167D00000001

> <PUBCHEM_MMFF94_ENERGY>
68.4596

> <PUBCHEM_FEATURE_SELFOVERLAP>
35.62

> <PUBCHEM_SHAPE_FINGERPRINT>
10 15 18262512710780645640
10411042 1 16969703283687688743
10616163 171 18338239395883154686
10967382 1 18410012100429229070
11132069 177 18409162216832884669
11578080 2 17201347718505248258
12011746 2 18410859841042374310
12107183 9 17690845558000159065
12236239 1 13470690338792453460
12251169 10 18335139816864396069
12403259 415 18410852127603240605
12403814 3 17530960289353343621
12500047 106 18271238421624861530
12592029 89 18334859377112304987
12788726 201 17703518696578858128
128620 24 11818992989152349105
13140716 1 18192429898953651512
13533116 47 17846218813073552003
13544592 145 18272379637759764926
13675066 3 18341893012844745609
14178342 30 18123731313450613666
14341114 176 18409738343777605753
14866123 147 17046555868986690930
15042514 8 18263932206156989787
15196674 1 18410012108982090935
15256400 18 18410857620686823693
15295992 7 17845930826899781123
15536298 74 18413671296627645270
1601671 61 18409168826940819996
16945 1 18266170819592368622
17349148 13 18412820287929204701
17804303 29 18410296916890392117
1813 80 16950285091842931756
18186145 218 17417805158171412875
19141452 34 18413108389914235807
192875 21 13830133918406568194
19591789 44 18192993725128068838
200 152 18131627885965453901
20028762 73 18272929458099065015
20261772 1 18410856577167961319
20510252 161 18341895147623301209
20645477 70 18200878374956666302
21033648 29 18271512131406579929
21267235 1 18337399244825179854
21279426 13 18124035632930519374
21421861 104 17895744090149736410
22854114 59 18412546505207311417
22892500 29 17274814788166584896
23184049 59 18410576175690384255
23402539 116 18342170081765240151
23557571 272 17773880972535682807
23558518 356 17682680979747269074
23559900 14 18413389822146813342
2748010 2 18337666399911122230
3004659 81 18260835844047909814
335352 9 18410013195572088855
34934 24 18411133675799850702
350125 39 18409735045496469133
351380 180 18409730664571278687
3545911 37 18411703192367818988
4214541 1 18409167684326479901
465052 167 17967541176940287083
495365 180 17346587600050392546
5104073 3 18409449150412323065
542803 24 17346883342628774985
59755656 215 18335983048405458773
69090 78 18341891905091661271
77779 3 18409450271409361990
7832392 63 18341046427736201710
9709674 26 18410862087368844367
9999458 23 17967819357476725574

> <PUBCHEM_SHAPE_MULTIPOLES>
399.85
9.72
2.11
0.84
3.73
0.39
0.22
-1.2
1.2
-0.24
-0.15
-0.38
-0.13
0.32

> <PUBCHEM_SHAPE_SELFOVERLAP>
871.414

> <PUBCHEM_SHAPE_VOLUME>
217.1

> <PUBCHEM_COORDINATE_TYPE>
2
5
10

> <Energy>
58.4396

> <minimizedAffinity>
-11.42613

> <CNNscore>
0.9756981730

> <CNNaffinity>
8.2052431107

> <CNN_VS>
8.0058403015

> <CNNaffinity_variance>
1.0530179739

$$$$
5757


 22 25  0  0  0  0  0  0  0  0999 V2000
   -8.7705   -5.0047    7.4393 O   0  0  0  0  0  0  0  0  0  0  0  0
   -4.4801   -5.0525   17.5282 O   0  0  0  0  0  0  0  0  0  0  0  0
   -8.0909   -4.7855    9.7993 C   0  0  0  0  0  0  0  0  0  0  0  0
   -8.7567   -3.9926   10.9420 C   0  0  0  0  0  0  0  0  0  0  0  0
   -8.2136   -4.3915   12.3140 C   0  0  0  0  0  0  0  0  0  0  0  0
   -6.6874   -4.0765   12.3577 C   0  0  0  0  0  0  0  0  0  0  0  0
   -8.8814   -4.2140    8.6066 C   0  0  0  0  0  0  0  0  0  0  0  0
   -6.5935   -4.4548    9.7985 C   0  0  0  0  0  0  0  0  0  0  0  0
  -10.2482   -4.1418   10.6559 C   0  0  0  0  0  0  0  0  0  0  0  0
   -5.9431   -4.7384   11.1665 C   0  0  0  0  0  0  0  0  0  0  0  0
  -10.3337   -4.1498    9.1186 C   0  0  0  0  0  0  0  0  0  0  0  0
   -8.9069   -3.6514   13.4595 C   0  0  0  0  0  0  0  0  0  0  0  0
   -8.2754   -6.3225    9.8811 C   0  0  0  0  0  0  0  0  0  0  0  0
   -6.1000   -4.3752   13.7361 C   0  0  0  0  0  0  0  0  0  0  0  0
   -8.4219   -4.1972   14.8004 C   0  0  0  0  0  0  0  0  0  0  0  0
   -6.9247   -4.3854   14.8827 C   0  0  0  0  0  0  0  0  0  0  0  0
   -4.7161   -4.5565   13.9106 C   0  0  0  0  0  0  0  0  0  0  0  0
   -6.3611   -4.6281   16.1493 C   0  0  0  0  0  0  0  0  0  0  0  0
   -4.1661   -4.7864   15.1739 C   0  0  0  0  0  0  0  0  0  0  0  0
   -4.9930   -4.8256   16.2842 C   0  0  0  0  0  0  0  0  0  0  0  0
   -7.8457   -5.0220    7.1472 H   0  0  0  0  0  0  0  0  0  0  0  0
   -5.0490   -5.0769   18.2722 H   0  0  0  0  0  0  0  0  0  0  0  0
  1  7  1  0
  1 21  1  0
  2 20  1  0
  2 22  1  0
  3  4  1  0
  3  7  1  0
  3  8  1  0
  3 13  1  0
  4  5  1  0
  4  9  1  0
  5  6  1  0
  5 12  1  0
  6 10  1  0
  6 14  1  0
  7 11  1  0
  8 10  1  0
  9 11  1  0
 12 15  1  0
 14 16  2  0
 14 17  1  0
 15 16  1  0
 16 18  1  0
 17 19  2  0
 18 20  2  0
 19 20  1  0
M  END
> <PUBCHEM_COMPOUND_CID>
5757

> <PUBCHEM_CONFORMER_RMSD>
0.6

> <PUBCHEM_CONFORMER_DIVERSEORDER>
1

> <PUBCHEM_MMFF94_PARTIAL_CHARGES>
16
1 -0.68
14 -0.14
15 0.14
16 -0.14
17 -0.15
18 -0.15
19 -0.15
2 -0.53
20 0.08
40 0.4
41 0.15
42 0.15
43 0.15
44 0.45
6 0.14
7 0.28

> <PUBCHEM_EFFECTIVE_ROTOR_COUNT>
1.4

> <PUBCHEM_PHARMACOPHORE_FEATURES>
7
1 1 acceptor
1 1 donor
1 2 donor
5 3 4 7 9 11 rings
6 14 16 17 18 19 20 rings
6 3 4 5 6 8 10 rings
6 5 6 12 14 15 16 rings

> <PUBCHEM_HEAVY_ATOM_COUNT>
20

> <PUBCHEM_ATOM_DEF_STEREO_COUNT>
5

> <PUBCHEM_ATOM_UDEF_STEREO_COUNT>
0

> <PUBCHEM_BOND_DEF_STEREO_COUNT>
0

> <PUBCHEM_BOND_UDEF_STEREO_COUNT>
0

> <PUBCHEM_ISOTOPIC_ATOM_COUNT>
0

> <PUBCHEM_COMPONENT_COUNT>
1

> <PUBCHEM_CACTVS_TAUTO_COUNT>
9

> <PUBCHEM_CONFORMER_ID>
0000167D00000001

> <PUBCHEM_MMFF94_ENERGY>
68.4596

> <PUBCHEM_FEATURE_SELFOVERLAP>
35.62

> <PUBCHEM_SHAPE_FINGERPRINT>
10 15 18262512710780645640
10411042 1 16969703283687688743
10616163 171 18338239395883154686
10967382 1 18410012100429229070
11132069 177 18409162216832884669
11578080 2 17201347718505248258
12011746 2 18410859841042374310
12107183 9 17690845558000159065
12236239 1 13470690338792453460
12251169 10 18335139816864396069
12403259 415 18410852127603240605
12403814 3 17530960289353343621
12500047 106 18271238421624861530
12592029 89 18334859377112304987
12788726 201 17703518696578858128
128620 24 11818992989152349105
13140716 1 18192429898953651512
13533116 47 17846218813073552003
13544592 145 18272379637759764926
13675066 3 18341893012844745609
14178342 30 18123731313450613666
14341114 176 18409738343777605753
14866123 147 17046555868986690930
15042514 8 18263932206156989787
15196674 1 18410012108982090935
15256400 18 18410857620686823693
15295992 7 17845930826899781123
15536298 74 18413671296627645270
1601671 61 18409168826940819996
16945 1 18266170819592368622
17349148 13 18412820287929204701
17804303 29 18410296916890392117
1813 80 16950285091842931756
18186145 218 17417805158171412875
19141452 34 18413108389914235807
192875 21 13830133918406568194
19591789 44 18192993725128068838
200 152 18131627885965453901
20028762 73 18272929458099065015
20261772 1 18410856577167961319
20510252 161 18341895147623301209
20645477 70 18200878374956666302
21033648 29 18271512131406579929
21267235 1 18337399244825179854
21279426 13 18124035632930519374
21421861 104 17895744090149736410
22854114 59 18412546505207311417
22892500 29 17274814788166584896
23184049 59 18410576175690384255
23402539 116 18342170081765240151
23557571 272 17773880972535682807
23558518 356 17682680979747269074
23559900 14 18413389822146813342
2748010 2 18337666399911122230
3004659 81 18260835844047909814
335352 9 18410013195572088855
34934 24 18411133675799850702
350125 39 18409735045496469133
351380 180 18409730664571278687
3545911 37 18411703192367818988
4214541 1 18409167684326479901
465052 167 17967541176940287083
495365 180 17346587600050392546
5104073 3 18409449150412323065
542803 24 17346883342628774985
59755656 215 18335983048405458773
69090 78 18341891905091661271
77779 3 18409450271409361990
7832392 63 18341046427736201710
9709674 26 18410862087368844367
9999458 23 17967819357476725574

> <PUBCHEM_SHAPE_MULTIPOLES>
399.85
9.72
2.11
0.84
3.73
0.39
0.22
-1.2
1.2
-0.24
-0.15
-0.38
-0.13
0.32

> <PUBCHEM_SHAPE_SELFOVERLAP>
871.414

> <PUBCHEM_SHAPE_VOLUME>
217.1

> <PUBCHEM_COORDINATE_TYPE>
2
5
10

> <Energy>
58.4396

> <minimizedAffinity>
-10.54788

> <CNNscore>
0.8730602264

> <CNNaffinity>
7.7259383202

> <CNN_VS>
6.7452096939

> <CNNaffinity_variance>
0.7104408145

$$$$
5757


 22 25  0  0  0  0  0  0  0  0999 V2000
   -3.5392   -4.8187   16.4047 O   0  0  0  0  0  0  0  0  0  0  0  0
   -9.7628   -4.1143    7.4066 O   0  0  0  0  0  0  0  0  0  0  0  0
   -5.2306   -4.7195   14.6134 C   0  0  0  0  0  0  0  0  0  0  0  0
   -6.7639   -4.8549   14.7037 C   0  0  0  0  0  0  0  0  0  0  0  0
   -7.4601   -4.3990   13.4216 C   0  0  0  0  0  0  0  0  0  0  0  0
   -6.9823   -5.3038   12.2453 C   0  0  0  0  0  0  0  0  0  0  0  0
   -4.8560   -5.1788   16.0356 C   0  0  0  0  0  0  0  0  0  0  0  0
   -4.7361   -5.6367   13.4882 C   0  0  0  0  0  0  0  0  0  0  0  0
   -7.1039   -4.1689   16.0238 C   0  0  0  0  0  0  0  0  0  0  0  0
   -5.4328   -5.3277   12.1488 C   0  0  0  0  0  0  0  0  0  0  0  0
   -5.9081   -4.5011   16.9351 C   0  0  0  0  0  0  0  0  0  0  0  0
   -8.9849   -4.4761   13.5203 C   0  0  0  0  0  0  0  0  0  0  0  0
   -4.7190   -3.2782   14.3605 C   0  0  0  0  0  0  0  0  0  0  0  0
   -7.7076   -4.9526   10.9472 C   0  0  0  0  0  0  0  0  0  0  0  0
   -9.6182   -3.8750   12.2679 C   0  0  0  0  0  0  0  0  0  0  0  0
   -8.9692   -4.3181   10.9771 C   0  0  0  0  0  0  0  0  0  0  0  0
   -7.1832   -5.3317    9.6984 C   0  0  0  0  0  0  0  0  0  0  0  0
   -9.6390   -4.0332    9.7726 C   0  0  0  0  0  0  0  0  0  0  0  0
   -7.8617   -5.0530    8.5096 C   0  0  0  0  0  0  0  0  0  0  0  0
   -9.0828   -4.4012    8.5543 C   0  0  0  0  0  0  0  0  0  0  0  0
   -2.9063   -5.2626   15.8187 H   0  0  0  0  0  0  0  0  0  0  0  0
  -10.5882   -3.6728    7.4489 H   0  0  0  0  0  0  0  0  0  0  0  0
  1  7  1  0
  1 21  1  0
  2 20  1  0
  2 22  1  0
  3  4  1  0
  3  7  1  0
  3  8  1  0
  3 13  1  0
  4  5  1  0
  4  9  1  0
  5  6  1  0
  5 12  1  0
  6 10  1  0
  6 14  1  0
  7 11  1  0
  8 10  1  0
  9 11  1  0
 12 15  1  0
 14 16  2  0
 14 17  1  0
 15 16  1  0
 16 18  1  0
 17 19  2  0
 18 20  2  0
 19 20  1  0
M  END
> <PUBCHEM_COMPOUND_CID>
5757

> <PUBCHEM_CONFORMER_RMSD>
0.6

> <PUBCHEM_CONFORMER_DIVERSEORDER>
1

> <PUBCHEM_MMFF94_PARTIAL_CHARGES>
16
1 -0.68
14 -0.14
15 0.14
16 -0.14
17 -0.15
18 -0.15
19 -0.15
2 -0.53
20 0.08
40 0.4
41 0.15
42 0.15
43 0.15
44 0.45
6 0.14
7 0.28

> <PUBCHEM_EFFECTIVE_ROTOR_COUNT>
1.4

> <PUBCHEM_PHARMACOPHORE_FEATURES>
7
1 1 acceptor
1 1 donor
1 2 donor
5 3 4 7 9 11 rings
6 14 16 17 18 19 20 rings
6 3 4 5 6 8 10 rings
6 5 6 12 14 15 16 rings

> <PUBCHEM_HEAVY_ATOM_COUNT>
20

> <PUBCHEM_ATOM_DEF_STEREO_COUNT>
5

> <PUBCHEM_ATOM_UDEF_STEREO_COUNT>
0

> <PUBCHEM_BOND_DEF_STEREO_COUNT>
0

> <PUBCHEM_BOND_UDEF_STEREO_COUNT>
0

> <PUBCHEM_ISOTOPIC_ATOM_COUNT>
0

> <PUBCHEM_COMPONENT_COUNT>
1

> <PUBCHEM_CACTVS_TAUTO_COUNT>
9

> <PUBCHEM_CONFORMER_ID>
0000167D00000001

> <PUBCHEM_MMFF94_ENERGY>
68.4596

> <PUBCHEM_FEATURE_SELFOVERLAP>
35.62

> <PUBCHEM_SHAPE_FINGERPRINT>
10 15 18262512710780645640
10411042 1 16969703283687688743
10616163 171 18338239395883154686
10967382 1 18410012100429229070
11132069 177 18409162216832884669
11578080 2 17201347718505248258
12011746 2 18410859841042374310
12107183 9 17690845558000159065
12236239 1 13470690338792453460
12251169 10 18335139816864396069
12403259 415 18410852127603240605
12403814 3 17530960289353343621
12500047 106 18271238421624861530
12592029 89 18334859377112304987
12788726 201 17703518696578858128
128620 24 11818992989152349105
13140716 1 18192429898953651512
13533116 47 17846218813073552003
13544592 145 18272379637759764926
13675066 3 18341893012844745609
14178342 30 18123731313450613666
14341114 176 18409738343777605753
14866123 147 17046555868986690930
15042514 8 18263932206156989787
15196674 1 18410012108982090935
15256400 18 18410857620686823693
15295992 7 17845930826899781123
15536298 74 18413671296627645270
1601671 61 18409168826940819996
16945 1 18266170819592368622
17349148 13 18412820287929204701
17804303 29 18410296916890392117
1813 80 16950285091842931756
18186145 218 17417805158171412875
19141452 34 18413108389914235807
192875 21 13830133918406568194
19591789 44 18192993725128068838
200 152 18131627885965453901
20028762 73 18272929458099065015
20261772 1 18410856577167961319
20510252 161 18341895147623301209
20645477 70 18200878374956666302
21033648 29 18271512131406579929
21267235 1 18337399244825179854
21279426 13 18124035632930519374
21421861 104 17895744090149736410
22854114 59 18412546505207311417
22892500 29 17274814788166584896
23184049 59 18410576175690384255
23402539 116 18342170081765240151
23557571 272 17773880972535682807
23558518 356 17682680979747269074
23559900 14 18413389822146813342
2748010 2 18337666399911122230
3004659 81 18260835844047909814
335352 9 18410013195572088855
34934 24 18411133675799850702
350125 39 18409735045496469133
351380 180 18409730664571278687
3545911 37 18411703192367818988
4214541 1 18409167684326479901
465052 167 17967541176940287083
495365 180 17346587600050392546
5104073 3 18409449150412323065
542803 24 17346883342628774985
59755656 215 18335983048405458773
69090 78 18341891905091661271
77779 3 18409450271409361990
7832392 63 18341046427736201710
9709674 26 18410862087368844367
9999458 23 17967819357476725574

> <PUBCHEM_SHAPE_MULTIPOLES>
399.85
9.72
2.11
0.84
3.73
0.39
0.22
-1.2
1.2
-0.24
-0.15
-0.38
-0.13
0.32

> <PUBCHEM_SHAPE_SELFOVERLAP>
871.414

> <PUBCHEM_SHAPE_VOLUME>
217.1

> <PUBCHEM_COORDINATE_TYPE>
2
5
10

> <Energy>
58.4396

> <minimizedAffinity>
-8.93285

> <CNNscore>
0.5613639355

> <CNNaffinity>
7.3385329247

> <CNN_VS>
4.1195878983

> <CNNaffinity_variance>
0.6361057162

$$$$
5757


 22 25  0  0  0  0  0  0  0  0999 V2000
   -4.2472   -4.1321   16.0368 O   0  0  0  0  0  0  0  0  0  0  0  0
  -11.8975   -4.3655    8.1874 O   0  0  0  0  0  0  0  0  0  0  0  0
   -5.6821   -4.2579   14.0357 C   0  0  0  0  0  0  0  0  0  0  0  0
   -5.2990   -4.5509   12.5711 C   0  0  0  0  0  0  0  0  0  0  0  0
   -6.5198   -4.8681   11.7076 C   0  0  0  0  0  0  0  0  0  0  0  0
   -7.4632   -3.6269   11.7017 C   0  0  0  0  0  0  0  0  0  0  0  0
   -4.2733   -4.0533   14.6251 C   0  0  0  0  0  0  0  0  0  0  0  0
   -6.5764   -3.0123   14.0549 C   0  0  0  0  0  0  0  0  0  0  0  0
   -4.1826   -5.5838   12.6957 C   0  0  0  0  0  0  0  0  0  0  0  0
   -7.8107   -3.1788   13.1472 C   0  0  0  0  0  0  0  0  0  0  0  0
   -3.4314   -5.1680   13.9739 C   0  0  0  0  0  0  0  0  0  0  0  0
   -6.1465   -5.2155   10.2652 C   0  0  0  0  0  0  0  0  0  0  0  0
   -6.4068   -5.4194   14.7629 C   0  0  0  0  0  0  0  0  0  0  0  0
   -8.6652   -3.8498   10.7852 C   0  0  0  0  0  0  0  0  0  0  0  0
   -7.3900   -5.6593    9.4986 C   0  0  0  0  0  0  0  0  0  0  0  0
   -8.5985   -4.7806    9.7249 C   0  0  0  0  0  0  0  0  0  0  0  0
   -9.8305   -3.0731   10.9161 C   0  0  0  0  0  0  0  0  0  0  0  0
   -9.7030   -4.9481    8.8689 C   0  0  0  0  0  0  0  0  0  0  0  0
  -10.9170   -3.2406   10.0543 C   0  0  0  0  0  0  0  0  0  0  0  0
  -10.8478   -4.1806    9.0395 C   0  0  0  0  0  0  0  0  0  0  0  0
   -4.7860   -3.4174   16.4106 H   0  0  0  0  0  0  0  0  0  0  0  0
  -11.8396   -5.0044    7.5044 H   0  0  0  0  0  0  0  0  0  0  0  0
  1  7  1  0
  1 21  1  0
  2 20  1  0
  2 22  1  0
  3  4  1  0
  3  7  1  0
  3  8  1  0
  3 13  1  0
  4  5  1  0
  4  9  1  0
  5  6  1  0
  5 12  1  0
  6 10  1  0
  6 14  1  0
  7 11  1  0
  8 10  1  0
  9 11  1  0
 12 15  1  0
 14 16  2  0
 14 17  1  0
 15 16  1  0
 16 18  1  0
 17 19  2  0
 18 20  2  0
 19 20  1  0
M  END
> <PUBCHEM_COMPOUND_CID>
5757

> <PUBCHEM_CONFORMER_RMSD>
0.6

> <PUBCHEM_CONFORMER_DIVERSEORDER>
1

> <PUBCHEM_MMFF94_PARTIAL_CHARGES>
16
1 -0.68
14 -0.14
15 0.14
16 -0.14
17 -0.15
18 -0.15
19 -0.15
2 -0.53
20 0.08
40 0.4
41 0.15
42 0.15
43 0.15
44 0.45
6 0.14
7 0.28

> <PUBCHEM_EFFECTIVE_ROTOR_COUNT>
1.4

> <PUBCHEM_PHARMACOPHORE_FEATURES>
7
1 1 acceptor
1 1 donor
1 2 donor
5 3 4 7 9 11 rings
6 14 16 17 18 19 20 rings
6 3 4 5 6 8 10 rings
6 5 6 12 14 15 16 rings

> <PUBCHEM_HEAVY_ATOM_COUNT>
20

> <PUBCHEM_ATOM_DEF_STEREO_COUNT>
5

> <PUBCHEM_ATOM_UDEF_STEREO_COUNT>
0

> <PUBCHEM_BOND_DEF_STEREO_COUNT>
0

> <PUBCHEM_BOND_UDEF_STEREO_COUNT>
0

> <PUBCHEM_ISOTOPIC_ATOM_COUNT>
0

> <PUBCHEM_COMPONENT_COUNT>
1

> <PUBCHEM_CACTVS_TAUTO_COUNT>
9

> <PUBCHEM_CONFORMER_ID>
0000167D00000001

> <PUBCHEM_MMFF94_ENERGY>
68.4596

> <PUBCHEM_FEATURE_SELFOVERLAP>
35.62

> <PUBCHEM_SHAPE_FINGERPRINT>
10 15 18262512710780645640
10411042 1 16969703283687688743
10616163 171 18338239395883154686
10967382 1 18410012100429229070
11132069 177 18409162216832884669
11578080 2 17201347718505248258
12011746 2 18410859841042374310
12107183 9 17690845558000159065
12236239 1 13470690338792453460
12251169 10 18335139816864396069
12403259 415 18410852127603240605
12403814 3 17530960289353343621
12500047 106 18271238421624861530
12592029 89 18334859377112304987
12788726 201 17703518696578858128
128620 24 11818992989152349105
13140716 1 18192429898953651512
13533116 47 17846218813073552003
13544592 145 18272379637759764926
13675066 3 18341893012844745609
14178342 30 18123731313450613666
14341114 176 18409738343777605753
14866123 147 17046555868986690930
15042514 8 18263932206156989787
15196674 1 18410012108982090935
15256400 18 18410857620686823693
15295992 7 17845930826899781123
15536298 74 18413671296627645270
1601671 61 18409168826940819996
16945 1 18266170819592368622
17349148 13 18412820287929204701
17804303 29 18410296916890392117
1813 80 16950285091842931756
18186145 218 17417805158171412875
19141452 34 18413108389914235807
192875 21 13830133918406568194
19591789 44 18192993725128068838
200 152 18131627885965453901
20028762 73 18272929458099065015
20261772 1 18410856577167961319
20510252 161 18341895147623301209
20645477 70 18200878374956666302
21033648 29 18271512131406579929
21267235 1 18337399244825179854
21279426 13 18124035632930519374
21421861 104 17895744090149736410
22854114 59 18412546505207311417
22892500 29 17274814788166584896
23184049 59 18410576175690384255
23402539 116 18342170081765240151
23557571 272 17773880972535682807
23558518 356 17682680979747269074
23559900 14 18413389822146813342
2748010 2 18337666399911122230
3004659 81 18260835844047909814
335352 9 18410013195572088855
34934 24 18411133675799850702
350125 39 18409735045496469133
351380 180 18409730664571278687
3545911 37 18411703192367818988
4214541 1 18409167684326479901
465052 167 17967541176940287083
495365 180 17346587600050392546
5104073 3 18409449150412323065
542803 24 17346883342628774985
59755656 215 18335983048405458773
69090 78 18341891905091661271
77779 3 18409450271409361990
7832392 63 18341046427736201710
9709674 26 18410862087368844367
9999458 23 17967819357476725574

> <PUBCHEM_SHAPE_MULTIPOLES>
399.85
9.72
2.11
0.84
3.73
0.39
0.22
-1.2
1.2
-0.24
-0.15
-0.38
-0.13
0.32

> <PUBCHEM_SHAPE_SELFOVERLAP>
871.414

> <PUBCHEM_SHAPE_VOLUME>
217.1

> <PUBCHEM_COORDINATE_TYPE>
2
5
10

> <Energy>
58.4396

> <minimizedAffinity>
-5.45157

> <CNNscore>
0.2768464088

> <CNNaffinity>
6.9754490852

> <CNN_VS>
1.9311280251

> <CNNaffinity_variance>
0.5509546399

$$$$
5757


 22 25  0  0  0  0  0  0  0  0999 V2000
   -6.2946   -2.8404   16.9880 O   0  0  0  0  0  0  0  0  0  0  0  0
   -9.0076   -7.1082    7.2607 O   0  0  0  0  0  0  0  0  0  0  0  0
   -6.5439   -3.9096   14.7802 C   0  0  0  0  0  0  0  0  0  0  0  0
   -5.4974   -4.6551   13.9278 C   0  0  0  0  0  0  0  0  0  0  0  0
   -6.1394   -5.4507   12.7915 C   0  0  0  0  0  0  0  0  0  0  0  0
   -6.8863   -4.4595   11.8480 C   0  0  0  0  0  0  0  0  0  0  0  0
   -5.6085   -3.2885   15.8354 C   0  0  0  0  0  0  0  0  0  0  0  0
   -7.2608   -2.8976   13.8782 C   0  0  0  0  0  0  0  0  0  0  0  0
   -4.6488   -5.3849   14.9652 C   0  0  0  0  0  0  0  0  0  0  0  0
   -7.8843   -3.5732   12.6414 C   0  0  0  0  0  0  0  0  0  0  0  0
   -4.6148   -4.4197   16.1644 C   0  0  0  0  0  0  0  0  0  0  0  0
   -5.1152   -6.2395   11.9733 C   0  0  0  0  0  0  0  0  0  0  0  0
   -7.5955   -4.8215   15.4627 C   0  0  0  0  0  0  0  0  0  0  0  0
   -7.4805   -5.1851   10.6419 C   0  0  0  0  0  0  0  0  0  0  0  0
   -5.8320   -7.1195   10.9519 C   0  0  0  0  0  0  0  0  0  0  0  0
   -6.9434   -6.4169   10.2069 C   0  0  0  0  0  0  0  0  0  0  0  0
   -8.5125   -4.6045    9.8827 C   0  0  0  0  0  0  0  0  0  0  0  0
   -7.4805   -7.0545    9.0731 C   0  0  0  0  0  0  0  0  0  0  0  0
   -9.0312   -5.2414    8.7528 C   0  0  0  0  0  0  0  0  0  0  0  0
   -8.5151   -6.4645    8.3584 C   0  0  0  0  0  0  0  0  0  0  0  0
   -6.9091   -2.1309   16.7431 H   0  0  0  0  0  0  0  0  0  0  0  0
   -8.6508   -7.9354    7.0032 H   0  0  0  0  0  0  0  0  0  0  0  0
  1  7  1  0
  1 21  1  0
  2 20  1  0
  2 22  1  0
  3  4  1  0
  3  7  1  0
  3  8  1  0
  3 13  1  0
  4  5  1  0
  4  9  1  0
  5  6  1  0
  5 12  1  0
  6 10  1  0
  6 14  1  0
  7 11  1  0
  8 10  1  0
  9 11  1  0
 12 15  1  0
 14 16  2  0
 14 17  1  0
 15 16  1  0
 16 18  1  0
 17 19  2  0
 18 20  2  0
 19 20  1  0
M  END
> <PUBCHEM_COMPOUND_CID>
5757

> <PUBCHEM_CONFORMER_RMSD>
0.6

> <PUBCHEM_CONFORMER_DIVERSEORDER>
1

> <PUBCHEM_MMFF94_PARTIAL_CHARGES>
16
1 -0.68
14 -0.14
15 0.14
16 -0.14
17 -0.15
18 -0.15
19 -0.15
2 -0.53
20 0.08
40 0.4
41 0.15
42 0.15
43 0.15
44 0.45
6 0.14
7 0.28

> <PUBCHEM_EFFECTIVE_ROTOR_COUNT>
1.4

> <PUBCHEM_PHARMACOPHORE_FEATURES>
7
1 1 acceptor
1 1 donor
1 2 donor
5 3 4 7 9 11 rings
6 14 16 17 18 19 20 rings
6 3 4 5 6 8 10 rings
6 5 6 12 14 15 16 rings

> <PUBCHEM_HEAVY_ATOM_COUNT>
20

> <PUBCHEM_ATOM_DEF_STEREO_COUNT>
5

> <PUBCHEM_ATOM_UDEF_STEREO_COUNT>
0

> <PUBCHEM_BOND_DEF_STEREO_COUNT>
0

> <PUBCHEM_BOND_UDEF_STEREO_COUNT>
0

> <PUBCHEM_ISOTOPIC_ATOM_COUNT>
0

> <PUBCHEM_COMPONENT_COUNT>
1

> <PUBCHEM_CACTVS_TAUTO_COUNT>
9

> <PUBCHEM_CONFORMER_ID>
0000167D00000001

> <PUBCHEM_MMFF94_ENERGY>
68.4596

> <PUBCHEM_FEATURE_SELFOVERLAP>
35.62

> <PUBCHEM_SHAPE_FINGERPRINT>
10 15 18262512710780645640
10411042 1 16969703283687688743
10616163 171 18338239395883154686
10967382 1 18410012100429229070
11132069 177 18409162216832884669
11578080 2 17201347718505248258
12011746 2 18410859841042374310
12107183 9 17690845558000159065
12236239 1 13470690338792453460
12251169 10 18335139816864396069
12403259 415 18410852127603240605
12403814 3 17530960289353343621
12500047 106 18271238421624861530
12592029 89 18334859377112304987
12788726 201 17703518696578858128
128620 24 11818992989152349105
13140716 1 18192429898953651512
13533116 47 17846218813073552003
13544592 145 18272379637759764926
13675066 3 18341893012844745609
14178342 30 18123731313450613666
14341114 176 18409738343777605753
14866123 147 17046555868986690930
15042514 8 18263932206156989787
15196674 1 18410012108982090935
15256400 18 18410857620686823693
15295992 7 17845930826899781123
15536298 74 18413671296627645270
1601671 61 18409168826940819996
16945 1 18266170819592368622
17349148 13 18412820287929204701
17804303 29 18410296916890392117
1813 80 16950285091842931756
18186145 218 17417805158171412875
19141452 34 18413108389914235807
192875 21 13830133918406568194
19591789 44 18192993725128068838
200 152 18131627885965453901
20028762 73 18272929458099065015
20261772 1 18410856577167961319
20510252 161 18341895147623301209
20645477 70 18200878374956666302
21033648 29 18271512131406579929
21267235 1 18337399244825179854
21279426 13 18124035632930519374
21421861 104 17895744090149736410
22854114 59 18412546505207311417
22892500 29 17274814788166584896
23184049 59 18410576175690384255
23402539 116 18342170081765240151
23557571 272 17773880972535682807
23558518 356 17682680979747269074
23559900 14 18413389822146813342
2748010 2 18337666399911122230
3004659 81 18260835844047909814
335352 9 18410013195572088855
34934 24 18411133675799850702
350125 39 18409735045496469133
351380 180 18409730664571278687
3545911 37 18411703192367818988
4214541 1 18409167684326479901
465052 167 17967541176940287083
495365 180 17346587600050392546
5104073 3 18409449150412323065
542803 24 17346883342628774985
59755656 215 18335983048405458773
69090 78 18341891905091661271
77779 3 18409450271409361990
7832392 63 18341046427736201710
9709674 26 18410862087368844367
9999458 23 17967819357476725574

> <PUBCHEM_SHAPE_MULTIPOLES>
399.85
9.72
2.11
0.84
3.73
0.39
0.22
-1.2
1.2
-0.24
-0.15
-0.38
-0.13
0.32

> <PUBCHEM_SHAPE_SELFOVERLAP>
871.414

> <PUBCHEM_SHAPE_VOLUME>
217.1

> <PUBCHEM_COORDINATE_TYPE>
2
5
10

> <Energy>
58.4396

> <minimizedAffinity>
-8.82687

> <CNNscore>
0.2432367355

> <CNNaffinity>
6.9091167450

> <CNN_VS>
1.6805510521

> <CNNaffinity_variance>
0.2938144207

$$$$
5757


 22 25  0  0  0  0  0  0  0  0999 V2000
  -10.9741   -6.5375    9.3321 O   0  0  0  0  0  0  0  0  0  0  0  0
   -3.8429   -3.8300   17.2068 O   0  0  0  0  0  0  0  0  0  0  0  0
   -9.3255   -5.6063   10.9115 C   0  0  0  0  0  0  0  0  0  0  0  0
   -8.6014   -4.2453   10.8842 C   0  0  0  0  0  0  0  0  0  0  0  0
   -7.9233   -3.9255   12.2163 C   0  0  0  0  0  0  0  0  0  0  0  0
   -6.8488   -5.0178   12.5043 C   0  0  0  0  0  0  0  0  0  0  0  0
   -9.9354   -5.5920    9.4966 C   0  0  0  0  0  0  0  0  0  0  0  0
   -8.2773   -6.6998   11.1510 C   0  0  0  0  0  0  0  0  0  0  0  0
   -9.6585   -3.2914   10.3353 C   0  0  0  0  0  0  0  0  0  0  0  0
   -7.4630   -6.4421   12.4337 C   0  0  0  0  0  0  0  0  0  0  0  0
  -10.4439   -4.1473    9.3247 C   0  0  0  0  0  0  0  0  0  0  0  0
   -7.2491   -2.5522   12.2189 C   0  0  0  0  0  0  0  0  0  0  0  0
  -10.4434   -5.7267   11.9788 C   0  0  0  0  0  0  0  0  0  0  0  0
   -6.0744   -4.7081   13.7845 C   0  0  0  0  0  0  0  0  0  0  0  0
   -6.7186   -2.2359   13.6152 C   0  0  0  0  0  0  0  0  0  0  0  0
   -5.9872   -3.3847   14.2703 C   0  0  0  0  0  0  0  0  0  0  0  0
   -5.3566   -5.7126   14.4584 C   0  0  0  0  0  0  0  0  0  0  0  0
   -5.2408   -3.1122   15.4318 C   0  0  0  0  0  0  0  0  0  0  0  0
   -4.6104   -5.4289   15.6048 C   0  0  0  0  0  0  0  0  0  0  0  0
   -4.5616   -4.1315   16.0866 C   0  0  0  0  0  0  0  0  0  0  0  0
  -10.6180   -7.4324    9.4470 H   0  0  0  0  0  0  0  0  0  0  0  0
   -3.8170   -2.9487   17.5238 H   0  0  0  0  0  0  0  0  0  0  0  0
  1  7  1  0
  1 21  1  0
  2 20  1  0
  2 22  1  0
  3  4  1  0
  3  7  1  0
  3  8  1  0
  3 13  1  0
  4  5  1  0
  4  9  1  0
  5  6  1  0
  5 12  1  0
  6 10  1  0
  6 14  1  0
  7 11  1  0
  8 10  1  0
  9 11  1  0
 12 15  1  0
 14 16  2  0
 14 17  1  0
 15 16  1  0
 16 18  1  0
 17 19  2  0
 18 20  2  0
 19 20  1  0
M  END
> <PUBCHEM_COMPOUND_CID>
5757

> <PUBCHEM_CONFORMER_RMSD>
0.6

> <PUBCHEM_CONFORMER_DIVERSEORDER>
1

> <PUBCHEM_MMFF94_PARTIAL_CHARGES>
16
1 -0.68
14 -0.14
15 0.14
16 -0.14
17 -0.15
18 -0.15
19 -0.15
2 -0.53
20 0.08
40 0.4
41 0.15
42 0.15
43 0.15
44 0.45
6 0.14
7 0.28

> <PUBCHEM_EFFECTIVE_ROTOR_COUNT>
1.4

> <PUBCHEM_PHARMACOPHORE_FEATURES>
7
1 1 acceptor
1 1 donor
1 2 donor
5 3 4 7 9 11 rings
6 14 16 17 18 19 20 rings
6 3 4 5 6 8 10 rings
6 5 6 12 14 15 16 rings

> <PUBCHEM_HEAVY_ATOM_COUNT>
20

> <PUBCHEM_ATOM_DEF_STEREO_COUNT>
5

> <PUBCHEM_ATOM_UDEF_STEREO_COUNT>
0

> <PUBCHEM_BOND_DEF_STEREO_COUNT>
0

> <PUBCHEM_BOND_UDEF_STEREO_COUNT>
0

> <PUBCHEM_ISOTOPIC_ATOM_COUNT>
0

> <PUBCHEM_COMPONENT_COUNT>
1

> <PUBCHEM_CACTVS_TAUTO_COUNT>
9

> <PUBCHEM_CONFORMER_ID>
0000167D00000001

> <PUBCHEM_MMFF94_ENERGY>
68.4596

> <PUBCHEM_FEATURE_SELFOVERLAP>
35.62

> <PUBCHEM_SHAPE_FINGERPRINT>
10 15 18262512710780645640
10411042 1 16969703283687688743
10616163 171 18338239395883154686
10967382 1 18410012100429229070
11132069 177 18409162216832884669
11578080 2 17201347718505248258
12011746 2 18410859841042374310
12107183 9 17690845558000159065
12236239 1 13470690338792453460
12251169 10 18335139816864396069
12403259 415 18410852127603240605
12403814 3 17530960289353343621
12500047 106 18271238421624861530
12592029 89 18334859377112304987
12788726 201 17703518696578858128
128620 24 11818992989152349105
13140716 1 18192429898953651512
13533116 47 17846218813073552003
13544592 145 18272379637759764926
13675066 3 18341893012844745609
14178342 30 18123731313450613666
14341114 176 18409738343777605753
14866123 147 17046555868986690930
15042514 8 18263932206156989787
15196674 1 18410012108982090935
15256400 18 18410857620686823693
15295992 7 17845930826899781123
15536298 74 18413671296627645270
1601671 61 18409168826940819996
16945 1 18266170819592368622
17349148 13 18412820287929204701
17804303 29 18410296916890392117
1813 80 16950285091842931756
18186145 218 17417805158171412875
19141452 34 18413108389914235807
192875 21 13830133918406568194
19591789 44 18192993725128068838
200 152 18131627885965453901
20028762 73 18272929458099065015
20261772 1 18410856577167961319
20510252 161 18341895147623301209
20645477 70 18200878374956666302
21033648 29 18271512131406579929
21267235 1 18337399244825179854
21279426 13 18124035632930519374
21421861 104 17895744090149736410
22854114 59 18412546505207311417
22892500 29 17274814788166584896
23184049 59 18410576175690384255
23402539 116 18342170081765240151
23557571 272 17773880972535682807
23558518 356 17682680979747269074
23559900 14 18413389822146813342
2748010 2 18337666399911122230
3004659 81 18260835844047909814
335352 9 18410013195572088855
34934 24 18411133675799850702
350125 39 18409735045496469133
351380 180 18409730664571278687
3545911 37 18411703192367818988
4214541 1 18409167684326479901
465052 167 17967541176940287083
495365 180 17346587600050392546
5104073 3 18409449150412323065
542803 24 17346883342628774985
59755656 215 18335983048405458773
69090 78 18341891905091661271
77779 3 18409450271409361990
7832392 63 18341046427736201710
9709674 26 18410862087368844367
9999458 23 17967819357476725574

> <PUBCHEM_SHAPE_MULTIPOLES>
399.85
9.72
2.11
0.84
3.73
0.39
0.22
-1.2
1.2
-0.24
-0.15
-0.38
-0.13
0.32

> <PUBCHEM_SHAPE_SELFOVERLAP>
871.414

> <PUBCHEM_SHAPE_VOLUME>
217.1

> <PUBCHEM_COORDINATE_TYPE>
2
5
10

> <Energy>
58.4396

> <minimizedAffinity>
-4.94930

> <CNNscore>
0.1832251698

> <CNNaffinity>
6.7214679718

> <CNN_VS>
1.2315421104

> <CNNaffinity_variance>
0.4165725708

$$$$
5757


 22 25  0  0  0  0  0  0  0  0999 V2000
  -11.9493   -2.7598   11.9980 O   0  0  0  0  0  0  0  0  0  0  0  0
   -2.9600   -7.2219    7.5846 O   0  0  0  0  0  0  0  0  0  0  0  0
   -9.7542   -3.6578   11.3238 C   0  0  0  0  0  0  0  0  0  0  0  0
   -8.4181   -3.6624   12.0935 C   0  0  0  0  0  0  0  0  0  0  0  0
   -7.3944   -4.6090   11.4670 C   0  0  0  0  0  0  0  0  0  0  0  0
   -7.0926   -4.1277   10.0151 C   0  0  0  0  0  0  0  0  0  0  0  0
  -10.5543   -2.6931   12.2201 C   0  0  0  0  0  0  0  0  0  0  0  0
   -9.4850   -3.1453    9.9037 C   0  0  0  0  0  0  0  0  0  0  0  0
   -8.8440   -3.8751   13.5433 C   0  0  0  0  0  0  0  0  0  0  0  0
   -8.3996   -3.9753    9.1909 C   0  0  0  0  0  0  0  0  0  0  0  0
  -10.1817   -3.1205   13.6532 C   0  0  0  0  0  0  0  0  0  0  0  0
   -6.0841   -4.6640   12.2548 C   0  0  0  0  0  0  0  0  0  0  0  0
  -10.4639   -5.0338   11.2452 C   0  0  0  0  0  0  0  0  0  0  0  0
   -6.0101   -4.9855    9.3617 C   0  0  0  0  0  0  0  0  0  0  0  0
   -5.1647   -5.7287   11.6614 C   0  0  0  0  0  0  0  0  0  0  0  0
   -5.0827   -5.6992   10.1527 C   0  0  0  0  0  0  0  0  0  0  0  0
   -5.8531   -5.0140    7.9642 C   0  0  0  0  0  0  0  0  0  0  0  0
   -4.0706   -6.4566    9.5342 C   0  0  0  0  0  0  0  0  0  0  0  0
   -4.8384   -5.7611    7.3613 C   0  0  0  0  0  0  0  0  0  0  0  0
   -3.9570   -6.4814    8.1501 C   0  0  0  0  0  0  0  0  0  0  0  0
  -12.1455   -2.4847   11.0887 H   0  0  0  0  0  0  0  0  0  0  0  0
   -2.3695   -7.7054    8.1282 H   0  0  0  0  0  0  0  0  0  0  0  0
  1  7  1  0
  1 21  1  0
  2 20  1  0
  2 22  1  0
  3  4  1  0
  3  7  1  0
  3  8  1  0
  3 13  1  0
  4  5  1  0
  4  9  1  0
  5  6  1  0
  5 12  1  0
  6 10  1  0
  6 14  1  0
  7 11  1  0
  8 10  1  0
  9 11  1  0
 12 15  1  0
 14 16  2  0
 14 17  1  0
 15 16  1  0
 16 18  1  0
 17 19  2  0
 18 20  2  0
 19 20  1  0
M  END
> <PUBCHEM_COMPOUND_CID>
5757

> <PUBCHEM_CONFORMER_RMSD>
0.6

> <PUBCHEM_CONFORMER_DIVERSEORDER>
1

> <PUBCHEM_MMFF94_PARTIAL_CHARGES>
16
1 -0.68
14 -0.14
15 0.14
16 -0.14
17 -0.15
18 -0.15
19 -0.15
2 -0.53
20 0.08
40 0.4
41 0.15
42 0.15
43 0.15
44 0.45
6 0.14
7 0.28

> <PUBCHEM_EFFECTIVE_ROTOR_COUNT>
1.4

> <PUBCHEM_PHARMACOPHORE_FEATURES>
7
1 1 acceptor
1 1 donor
1 2 donor
5 3 4 7 9 11 rings
6 14 16 17 18 19 20 rings
6 3 4 5 6 8 10 rings
6 5 6 12 14 15 16 rings

> <PUBCHEM_HEAVY_ATOM_COUNT>
20

> <PUBCHEM_ATOM_DEF_STEREO_COUNT>
5

> <PUBCHEM_ATOM_UDEF_STEREO_COUNT>
0

> <PUBCHEM_BOND_DEF_STEREO_COUNT>
0

> <PUBCHEM_BOND_UDEF_STEREO_COUNT>
0

> <PUBCHEM_ISOTOPIC_ATOM_COUNT>
0

> <PUBCHEM_COMPONENT_COUNT>
1

> <PUBCHEM_CACTVS_TAUTO_COUNT>
9

> <PUBCHEM_CONFORMER_ID>
0000167D00000001

> <PUBCHEM_MMFF94_ENERGY>
68.4596

> <PUBCHEM_FEATURE_SELFOVERLAP>
35.62

> <PUBCHEM_SHAPE_FINGERPRINT>
10 15 18262512710780645640
10411042 1 16969703283687688743
10616163 171 18338239395883154686
10967382 1 18410012100429229070
11132069 177 18409162216832884669
11578080 2 17201347718505248258
12011746 2 18410859841042374310
12107183 9 17690845558000159065
12236239 1 13470690338792453460
12251169 10 18335139816864396069
12403259 415 18410852127603240605
12403814 3 17530960289353343621
12500047 106 18271238421624861530
12592029 89 18334859377112304987
12788726 201 17703518696578858128
128620 24 11818992989152349105
13140716 1 18192429898953651512
13533116 47 17846218813073552003
13544592 145 18272379637759764926
13675066 3 18341893012844745609
14178342 30 18123731313450613666
14341114 176 18409738343777605753
14866123 147 17046555868986690930
15042514 8 18263932206156989787
15196674 1 18410012108982090935
15256400 18 18410857620686823693
15295992 7 17845930826899781123
15536298 74 18413671296627645270
1601671 61 18409168826940819996
16945 1 18266170819592368622
17349148 13 18412820287929204701
17804303 29 18410296916890392117
1813 80 16950285091842931756
18186145 218 17417805158171412875
19141452 34 18413108389914235807
192875 21 13830133918406568194
19591789 44 18192993725128068838
200 152 18131627885965453901
20028762 73 18272929458099065015
20261772 1 18410856577167961319
20510252 161 18341895147623301209
20645477 70 18200878374956666302
21033648 29 18271512131406579929
21267235 1 18337399244825179854
21279426 13 18124035632930519374
21421861 104 17895744090149736410
22854114 59 18412546505207311417
22892500 29 17274814788166584896
23184049 59 18410576175690384255
23402539 116 18342170081765240151
23557571 272 17773880972535682807
23558518 356 17682680979747269074
23559900 14 18413389822146813342
2748010 2 18337666399911122230
3004659 81 18260835844047909814
335352 9 18410013195572088855
34934 24 18411133675799850702
350125 39 18409735045496469133
351380 180 18409730664571278687
3545911 37 18411703192367818988
4214541 1 18409167684326479901
465052 167 17967541176940287083
495365 180 17346587600050392546
5104073 3 18409449150412323065
542803 24 17346883342628774985
59755656 215 18335983048405458773
69090 78 18341891905091661271
77779 3 18409450271409361990
7832392 63 18341046427736201710
9709674 26 18410862087368844367
9999458 23 17967819357476725574

> <PUBCHEM_SHAPE_MULTIPOLES>
399.85
9.72
2.11
0.84
3.73
0.39
0.22
-1.2
1.2
-0.24
-0.15
-0.38
-0.13
0.32

> <PUBCHEM_SHAPE_SELFOVERLAP>
871.414

> <PUBCHEM_SHAPE_VOLUME>
217.1

> <PUBCHEM_COORDINATE_TYPE>
2
5
10

> <Energy>
58.4396

> <minimizedAffinity>
5.73411

> <CNNscore>
0.1423484832

> <CNNaffinity>
5.6172013283

> <CNN_VS>
0.7996000648

> <CNNaffinity_variance>
0.8224915862

$$$$
5757


 22 25  0  0  0  0  0  0  0  0999 V2000
   -6.9342   -4.9100    8.1971 O   0  0  0  0  0  0  0  0  0  0  0  0
  -10.5146    1.5651   16.2873 O   0  0  0  0  0  0  0  0  0  0  0  0
   -8.0852   -3.5296    9.8852 C   0  0  0  0  0  0  0  0  0  0  0  0
   -9.5939   -3.2845   10.0886 C   0  0  0  0  0  0  0  0  0  0  0  0
   -9.8971   -2.6436   11.4427 C   0  0  0  0  0  0  0  0  0  0  0  0
   -9.1880   -1.2567   11.5085 C   0  0  0  0  0  0  0  0  0  0  0  0
   -8.1287   -4.2198    8.5083 C   0  0  0  0  0  0  0  0  0  0  0  0
   -7.3743   -2.1709    9.9035 C   0  0  0  0  0  0  0  0  0  0  0  0
  -10.2226   -4.6309    9.7410 C   0  0  0  0  0  0  0  0  0  0  0  0
   -7.6727   -1.3853   11.1953 C   0  0  0  0  0  0  0  0  0  0  0  0
   -9.3329   -5.1763    8.6088 C   0  0  0  0  0  0  0  0  0  0  0  0
  -11.3959   -2.4472   11.6787 C   0  0  0  0  0  0  0  0  0  0  0  0
   -7.4310   -4.4635   10.9354 C   0  0  0  0  0  0  0  0  0  0  0  0
   -9.5219   -0.5256   12.8079 C   0  0  0  0  0  0  0  0  0  0  0  0
  -11.6367   -1.9395   13.0983 C   0  0  0  0  0  0  0  0  0  0  0  0
  -10.7022   -0.8299   13.5217 C   0  0  0  0  0  0  0  0  0  0  0  0
   -8.7142    0.5264   13.2759 C   0  0  0  0  0  0  0  0  0  0  0  0
  -11.0117   -0.1225   14.6983 C   0  0  0  0  0  0  0  0  0  0  0  0
   -9.0365    1.2288   14.4396 C   0  0  0  0  0  0  0  0  0  0  0  0
  -10.1805    0.8964   15.1457 C   0  0  0  0  0  0  0  0  0  0  0  0
   -6.2005   -4.2779    8.1423 H   0  0  0  0  0  0  0  0  0  0  0  0
  -11.2910    1.3315   16.7569 H   0  0  0  0  0  0  0  0  0  0  0  0
  1  7  1  0
  1 21  1  0
  2 20  1  0
  2 22  1  0
  3  4  1  0
  3  7  1  0
  3  8  1  0
  3 13  1  0
  4  5  1  0
  4  9  1  0
  5  6  1  0
  5 12  1  0
  6 10  1  0
  6 14  1  0
  7 11  1  0
  8 10  1  0
  9 11  1  0
 12 15  1  0
 14 16  2  0
 14 17  1  0
 15 16  1  0
 16 18  1  0
 17 19  2  0
 18 20  2  0
 19 20  1  0
M  END
> <PUBCHEM_COMPOUND_CID>
5757

> <PUBCHEM_CONFORMER_RMSD>
0.6

> <PUBCHEM_CONFORMER_DIVERSEORDER>
1

> <PUBCHEM_MMFF94_PARTIAL_CHARGES>
16
1 -0.68
14 -0.14
15 0.14
16 -0.14
17 -0.15
18 -0.15
19 -0.15
2 -0.53
20 0.08
40 0.4
41 0.15
42 0.15
43 0.15
44 0.45
6 0.14
7 0.28

> <PUBCHEM_EFFECTIVE_ROTOR_COUNT>
1.4

> <PUBCHEM_PHARMACOPHORE_FEATURES>
7
1 1 acceptor
1 1 donor
1 2 donor
5 3 4 7 9 11 rings
6 14 16 17 18 19 20 rings
6 3 4 5 6 8 10 rings
6 5 6 12 14 15 16 rings

> <PUBCHEM_HEAVY_ATOM_COUNT>
20

> <PUBCHEM_ATOM_DEF_STEREO_COUNT>
5

> <PUBCHEM_ATOM_UDEF_STEREO_COUNT>
0

> <PUBCHEM_BOND_DEF_STEREO_COUNT>
0

> <PUBCHEM_BOND_UDEF_STEREO_COUNT>
0

> <PUBCHEM_ISOTOPIC_ATOM_COUNT>
0

> <PUBCHEM_COMPONENT_COUNT>
1

> <PUBCHEM_CACTVS_TAUTO_COUNT>
9

> <PUBCHEM_CONFORMER_ID>
0000167D00000001

> <PUBCHEM_MMFF94_ENERGY>
68.4596

> <PUBCHEM_FEATURE_SELFOVERLAP>
35.62

> <PUBCHEM_SHAPE_FINGERPRINT>
10 15 18262512710780645640
10411042 1 16969703283687688743
10616163 171 18338239395883154686
10967382 1 18410012100429229070
11132069 177 18409162216832884669
11578080 2 17201347718505248258
12011746 2 18410859841042374310
12107183 9 17690845558000159065
12236239 1 13470690338792453460
12251169 10 18335139816864396069
12403259 415 18410852127603240605
12403814 3 17530960289353343621
12500047 106 18271238421624861530
12592029 89 18334859377112304987
12788726 201 17703518696578858128
128620 24 11818992989152349105
13140716 1 18192429898953651512
13533116 47 17846218813073552003
13544592 145 18272379637759764926
13675066 3 18341893012844745609
14178342 30 18123731313450613666
14341114 176 18409738343777605753
14866123 147 17046555868986690930
15042514 8 18263932206156989787
15196674 1 18410012108982090935
15256400 18 18410857620686823693
15295992 7 17845930826899781123
15536298 74 18413671296627645270
1601671 61 18409168826940819996
16945 1 18266170819592368622
17349148 13 18412820287929204701
17804303 29 18410296916890392117
1813 80 16950285091842931756
18186145 218 17417805158171412875
19141452 34 18413108389914235807
192875 21 13830133918406568194
19591789 44 18192993725128068838
200 152 18131627885965453901
20028762 73 18272929458099065015
20261772 1 18410856577167961319
20510252 161 18341895147623301209
20645477 70 18200878374956666302
21033648 29 18271512131406579929
21267235 1 18337399244825179854
21279426 13 18124035632930519374
21421861 104 17895744090149736410
22854114 59 18412546505207311417
22892500 29 17274814788166584896
23184049 59 18410576175690384255
23402539 116 18342170081765240151
23557571 272 17773880972535682807
23558518 356 17682680979747269074
23559900 14 18413389822146813342
2748010 2 18337666399911122230
3004659 81 18260835844047909814
335352 9 18410013195572088855
34934 24 18411133675799850702
350125 39 18409735045496469133
351380 180 18409730664571278687
3545911 37 18411703192367818988
4214541 1 18409167684326479901
465052 167 17967541176940287083
495365 180 17346587600050392546
5104073 3 18409449150412323065
542803 24 17346883342628774985
59755656 215 18335983048405458773
69090 78 18341891905091661271
77779 3 18409450271409361990
7832392 63 18341046427736201710
9709674 26 18410862087368844367
9999458 23 17967819357476725574

> <PUBCHEM_SHAPE_MULTIPOLES>
399.85
9.72
2.11
0.84
3.73
0.39
0.22
-1.2
1.2
-0.24
-0.15
-0.38
-0.13
0.32

> <PUBCHEM_SHAPE_SELFOVERLAP>
871.414

> <PUBCHEM_SHAPE_VOLUME>
217.1

> <PUBCHEM_COORDINATE_TYPE>
2
5
10

> <Energy>
58.4396

> <minimizedAffinity>
17.65428

> <CNNscore>
0.1406126320

> <CNNaffinity>
5.0672836304

> <CNN_VS>
0.7125241160

> <CNNaffinity_variance>
0.6097519398

$$$$
5757


 22 25  0  0  0  0  0  0  0  0999 V2000
   -2.8070   -4.9567   11.0070 O   0  0  0  0  0  0  0  0  0  0  0  0
   -9.6437   -6.9079   19.3525 O   0  0  0  0  0  0  0  0  0  0  0  0
   -4.5761   -5.1506   12.7135 C   0  0  0  0  0  0  0  0  0  0  0  0
   -5.9524   -4.4588   12.7824 C   0  0  0  0  0  0  0  0  0  0  0  0
   -6.8724   -5.1057   13.8175 C   0  0  0  0  0  0  0  0  0  0  0  0
   -6.2138   -4.9710   15.2242 C   0  0  0  0  0  0  0  0  0  0  0  0
   -3.9430   -4.3321   11.5720 C   0  0  0  0  0  0  0  0  0  0  0  0
   -3.8931   -4.9911   14.0773 C   0  0  0  0  0  0  0  0  0  0  0  0
   -6.3937   -4.3999   11.3228 C   0  0  0  0  0  0  0  0  0  0  0  0
   -4.7674   -5.5358   15.2235 C   0  0  0  0  0  0  0  0  0  0  0  0
   -5.0827   -4.1806   10.5457 C   0  0  0  0  0  0  0  0  0  0  0  0
   -8.2603   -4.4631   13.8549 C   0  0  0  0  0  0  0  0  0  0  0  0
   -4.6221   -6.6538   12.3372 C   0  0  0  0  0  0  0  0  0  0  0  0
   -7.1258   -5.5251   16.3175 C   0  0  0  0  0  0  0  0  0  0  0  0
   -9.1695   -5.2437   14.8010 C   0  0  0  0  0  0  0  0  0  0  0  0
   -8.5217   -5.6063   16.1173 C   0  0  0  0  0  0  0  0  0  0  0  0
   -6.6129   -5.8814   17.5778 C   0  0  0  0  0  0  0  0  0  0  0  0
   -9.3508   -6.0868   17.1480 C   0  0  0  0  0  0  0  0  0  0  0  0
   -7.4466   -6.3474   18.5972 C   0  0  0  0  0  0  0  0  0  0  0  0
   -8.8094   -6.4517   18.3738 C   0  0  0  0  0  0  0  0  0  0  0  0
   -2.1127   -5.0348   11.6799 H   0  0  0  0  0  0  0  0  0  0  0  0
  -10.5641   -6.9743   19.1901 H   0  0  0  0  0  0  0  0  0  0  0  0
  1  7  1  0
  1 21  1  0
  2 20  1  0
  2 22  1  0
  3  4  1  0
  3  7  1  0
  3  8  1  0
  3 13  1  0
  4  5  1  0
  4  9  1  0
  5  6  1  0
  5 12  1  0
  6 10  1  0
  6 14  1  0
  7 11  1  0
  8 10  1  0
  9 11  1  0
 12 15  1  0
 14 16  2  0
 14 17  1  0
 15 16  1  0
 16 18  1  0
 17 19  2  0
 18 20  2  0
 19 20  1  0
M  END
> <PUBCHEM_COMPOUND_CID>
5757

> <PUBCHEM_CONFORMER_RMSD>
0.6

> <PUBCHEM_CONFORMER_DIVERSEORDER>
1

> <PUBCHEM_MMFF94_PARTIAL_CHARGES>
16
1 -0.68
14 -0.14
15 0.14
16 -0.14
17 -0.15
18 -0.15
19 -0.15
2 -0.53
20 0.08
40 0.4
41 0.15
42 0.15
43 0.15
44 0.45
6 0.14
7 0.28

> <PUBCHEM_EFFECTIVE_ROTOR_COUNT>
1.4

> <PUBCHEM_PHARMACOPHORE_FEATURES>
7
1 1 acceptor
1 1 donor
1 2 donor
5 3 4 7 9 11 rings
6 14 16 17 18 19 20 rings
6 3 4 5 6 8 10 rings
6 5 6 12 14 15 16 rings

> <PUBCHEM_HEAVY_ATOM_COUNT>
20

> <PUBCHEM_ATOM_DEF_STEREO_COUNT>
5

> <PUBCHEM_ATOM_UDEF_STEREO_COUNT>
0

> <PUBCHEM_BOND_DEF_STEREO_COUNT>
0

> <PUBCHEM_BOND_UDEF_STEREO_COUNT>
0

> <PUBCHEM_ISOTOPIC_ATOM_COUNT>
0

> <PUBCHEM_COMPONENT_COUNT>
1

> <PUBCHEM_CACTVS_TAUTO_COUNT>
9

> <PUBCHEM_CONFORMER_ID>
0000167D00000001

> <PUBCHEM_MMFF94_ENERGY>
68.4596

> <PUBCHEM_FEATURE_SELFOVERLAP>
35.62

> <PUBCHEM_SHAPE_FINGERPRINT>
10 15 18262512710780645640
10411042 1 16969703283687688743
10616163 171 18338239395883154686
10967382 1 18410012100429229070
11132069 177 18409162216832884669
11578080 2 17201347718505248258
12011746 2 18410859841042374310
12107183 9 17690845558000159065
12236239 1 13470690338792453460
12251169 10 18335139816864396069
12403259 415 18410852127603240605
12403814 3 17530960289353343621
12500047 106 18271238421624861530
12592029 89 18334859377112304987
12788726 201 17703518696578858128
128620 24 11818992989152349105
13140716 1 18192429898953651512
13533116 47 17846218813073552003
13544592 145 18272379637759764926
13675066 3 18341893012844745609
14178342 30 18123731313450613666
14341114 176 18409738343777605753
14866123 147 17046555868986690930
15042514 8 18263932206156989787
15196674 1 18410012108982090935
15256400 18 18410857620686823693
15295992 7 17845930826899781123
15536298 74 18413671296627645270
1601671 61 18409168826940819996
16945 1 18266170819592368622
17349148 13 18412820287929204701
17804303 29 18410296916890392117
1813 80 16950285091842931756
18186145 218 17417805158171412875
19141452 34 18413108389914235807
192875 21 13830133918406568194
19591789 44 18192993725128068838
200 152 18131627885965453901
20028762 73 18272929458099065015
20261772 1 18410856577167961319
20510252 161 18341895147623301209
20645477 70 18200878374956666302
21033648 29 18271512131406579929
21267235 1 18337399244825179854
21279426 13 18124035632930519374
21421861 104 17895744090149736410
22854114 59 18412546505207311417
22892500 29 17274814788166584896
23184049 59 18410576175690384255
23402539 116 18342170081765240151
23557571 272 17773880972535682807
23558518 356 17682680979747269074
23559900 14 18413389822146813342
2748010 2 18337666399911122230
3004659 81 18260835844047909814
335352 9 18410013195572088855
34934 24 18411133675799850702
350125 39 18409735045496469133
351380 180 18409730664571278687
3545911 37 18411703192367818988
4214541 1 18409167684326479901
465052 167 17967541176940287083
495365 180 17346587600050392546
5104073 3 18409449150412323065
542803 24 17346883342628774985
59755656 215 18335983048405458773
69090 78 18341891905091661271
77779 3 18409450271409361990
7832392 63 18341046427736201710
9709674 26 18410862087368844367
9999458 23 17967819357476725574

> <PUBCHEM_SHAPE_MULTIPOLES>
399.85
9.72
2.11
0.84
3.73
0.39
0.22
-1.2
1.2
-0.24
-0.15
-0.38
-0.13
0.32

> <PUBCHEM_SHAPE_SELFOVERLAP>
871.414

> <PUBCHEM_SHAPE_VOLUME>
217.1

> <PUBCHEM_COORDINATE_TYPE>
2
5
10

> <Energy>
58.4396

> <minimizedAffinity>
22.69222

> <CNNscore>
0.1192871407

> <CNNaffinity>
4.3378262520

> <CNN_VS>
0.5174468756

> <CNNaffinity_variance>
0.7093943954

$$$$
