896


 19 20  0  0  0  0  0  0  0  0999 V2000
   -3.1836   -1.7710   23.1419 N   0  0  0  0  0  0  0  0  0  0  0  0
   -3.5256   -2.9962   21.3090 C   0  0  0  0  0  0  0  0  0  0  0  0
   -4.7657   -2.8534   22.0107 C   0  0  0  0  0  0  0  0  0  0  0  0
   -4.5196   -2.0973   23.1542 C   0  0  0  0  0  0  0  0  0  0  0  0
   -2.5739   -2.3110   22.0392 C   0  0  0  0  0  0  0  0  0  0  0  0
   -6.0788   -3.3112   21.7680 C   0  0  0  0  0  0  0  0  0  0  0  0
   -5.5215   -1.7788   24.0761 C   0  0  0  0  0  0  0  0  0  0  0  0
   -7.0977   -3.0162   22.6793 C   0  0  0  0  0  0  0  0  0  0  0  0
   -6.8124   -2.2581   23.8152 C   0  0  0  0  0  0  0  0  0  0  0  0
   -2.7304   -1.2278   23.8265 H   0  0  0  0  0  0  0  0  0  0  0  0
   -8.4029   -3.4153   22.5633 O   0  0  0  0  0  0  0  0  0  0  0  0
   -9.1179   -3.6173   23.7774 C   0  0  0  0  0  0  0  0  0  0  0  0
   -3.3149   -3.7479   20.0277 C   0  0  0  0  0  0  0  0  0  0  0  0
   -2.0986   -3.2558   19.2353 C   0  0  0  0  0  0  0  0  0  0  0  0
   -0.2080   -1.1338   19.2619 O   0  0  0  0  0  0  0  0  0  0  0  0
   -0.8731   -3.1992   20.0156 N   0  0  0  0  0  0  0  0  0  0  0  0
   -0.0036   -2.1362   19.9362 C   0  0  0  0  0  0  0  0  0  0  0  0
    1.2258   -2.3022   20.7880 C   0  0  0  0  0  0  0  0  0  0  0  0
   -0.6585   -3.9459   20.6204 H   0  0  0  0  0  0  0  0  0  0  0  0
 11  8  1  0
 11 12  1  0
 15 17  2  0
  1  4  1  0
  1  5  1  0
  1 10  1  0
 16 14  1  0
 16 17  1  0
 16 19  1  0
  2  3  1  0
  2 13  1  0
  2  5  2  0
  3  4  2  0
  3  6  1  0
 13 14  1  0
  4  7  1  0
  6  8  2  0
  7  9  2  0
  8  9  1  0
 17 18  1  0
M  END
> <PUBCHEM_COMPOUND_CID>
896

> <PUBCHEM_CONFORMER_RMSD>
0.6

> <PUBCHEM_CONFORMER_DIVERSEORDER>
1
13
50
55
28
16
42
48
27
15
62
60
65
61
36
4
20
58
41
17
59
21
2
63
47
57
40
56
22
64
54
37
51
7
31
53
26
8
49
39
32
11
5
33
38
52
23
45
43
12
14
9
34
44
35
10
25
29
46
6
30
24
3
19
18

> <PUBCHEM_MMFF94_PARTIAL_CHARGES>
22
1 -0.36
10 0.3
11 -0.15
12 -0.15
13 0.08
14 -0.15
15 0.57
16 0.06
17 0.28
2 -0.57
20 0.15
23 0.27
24 0.15
25 0.15
26 0.15
27 0.37
3 0.03
4 -0.73
5 -0.18
7 0.18
8 -0.15
9 -0.3

> <PUBCHEM_EFFECTIVE_ROTOR_COUNT>
5

> <PUBCHEM_PHARMACOPHORE_FEATURES>
7
1 1 acceptor
1 2 acceptor
1 3 cation
1 3 donor
1 4 donor
5 3 5 6 8 9 rings
6 6 8 11 12 13 14 rings

> <PUBCHEM_HEAVY_ATOM_COUNT>
17

> <PUBCHEM_ATOM_DEF_STEREO_COUNT>
0

> <PUBCHEM_ATOM_UDEF_STEREO_COUNT>
0

> <PUBCHEM_BOND_DEF_STEREO_COUNT>
0

> <PUBCHEM_BOND_UDEF_STEREO_COUNT>
0

> <PUBCHEM_ISOTOPIC_ATOM_COUNT>
0

> <PUBCHEM_COMPONENT_COUNT>
1

> <PUBCHEM_CACTVS_TAUTO_COUNT>
2

> <PUBCHEM_CONFORMER_ID>
0000038000000001

> <PUBCHEM_MMFF94_ENERGY>
32.7119

> <PUBCHEM_FEATURE_SELFOVERLAP>
35.612

> <PUBCHEM_SHAPE_FINGERPRINT>
10967382 1 18410853274190255273
11640471 11 17676780867509025316
13027679 85 18194690495324420133
13140716 1 17978229692519098697
13965767 371 16608554374032828400
1420 336 18266184924512803916
14787075 74 17896612875907719035
14790565 3 18341057316043312793
15006816 218 16754940689043299904
16945 1 18195239147136872059
19591789 44 18120376712306458779
19765921 60 17749382706469569763
20510252 161 18342458093286620745
21141583 151 18124894583888822372
21524375 3 17972887951224859043
2334 1 18410572855759727185
23419403 2 17326855944455494142
23557571 272 18201719608641642450
23559900 14 18342173410755765088
2748010 2 18337115553281152647
353137 74 18409164389875307419
44154327 71 18267028250037128041
526903 126 18410576235872810256
537710 114 18408601466050490037
7832392 63 17187566044572678455
9981440 41 18116712022929254594

> <PUBCHEM_SHAPE_MULTIPOLES>
328.15
4.94
3.77
0.97
2.92
1.2
-0.06
0.99
-1.27
-0.81
0.74
0.39
0.23
-0.66

> <PUBCHEM_SHAPE_SELFOVERLAP>
695.133

> <PUBCHEM_SHAPE_VOLUME>
185.3

> <PUBCHEM_COORDINATE_TYPE>
2
5
10

> <Energy>
0.232708

> <minimizedAffinity>
-5.20914

> <CNNscore>
0.5982220173

> <CNNaffinity>
6.5063452721

> <CNN_VS>
3.8922390938

> <CNNaffinity_variance>
0.2153594941

$$$$
896


 19 20  0  0  0  0  0  0  0  0999 V2000
   -5.6296   -5.7210   20.7167 N   0  0  0  0  0  0  0  0  0  0  0  0
   -4.5038   -3.9003   20.0878 C   0  0  0  0  0  0  0  0  0  0  0  0
   -5.1363   -3.6440   21.3468 C   0  0  0  0  0  0  0  0  0  0  0  0
   -5.8405   -4.7903   21.7070 C   0  0  0  0  0  0  0  0  0  0  0  0
   -4.8311   -5.1950   19.7342 C   0  0  0  0  0  0  0  0  0  0  0  0
   -5.1709   -2.5261   22.2080 C   0  0  0  0  0  0  0  0  0  0  0  0
   -6.5869   -4.8757   22.8863 C   0  0  0  0  0  0  0  0  0  0  0  0
   -5.9185   -2.5806   23.3886 C   0  0  0  0  0  0  0  0  0  0  0  0
   -6.6132   -3.7457   23.7148 C   0  0  0  0  0  0  0  0  0  0  0  0
   -5.9987   -6.6336   20.7137 H   0  0  0  0  0  0  0  0  0  0  0  0
   -6.0426   -1.5606   24.2943 O   0  0  0  0  0  0  0  0  0  0  0  0
   -7.0883   -0.6237   24.0598 C   0  0  0  0  0  0  0  0  0  0  0  0
   -3.6518   -2.9386   19.3131 C   0  0  0  0  0  0  0  0  0  0  0  0
   -2.4343   -3.6043   18.6618 C   0  0  0  0  0  0  0  0  0  0  0  0
   -2.0903   -2.1451   21.0764 O   0  0  0  0  0  0  0  0  0  0  0  0
   -1.1698   -3.2599   19.2913 N   0  0  0  0  0  0  0  0  0  0  0  0
   -1.1067   -2.5205   20.4497 C   0  0  0  0  0  0  0  0  0  0  0  0
    0.2995   -2.2351   20.9029 C   0  0  0  0  0  0  0  0  0  0  0  0
   -0.3316   -3.5656   18.8751 H   0  0  0  0  0  0  0  0  0  0  0  0
 11  8  1  0
 11 12  1  0
 15 17  2  0
  1  4  1  0
  1  5  1  0
  1 10  1  0
 16 14  1  0
 16 17  1  0
 16 19  1  0
  2  3  1  0
  2 13  1  0
  2  5  2  0
  3  4  2  0
  3  6  1  0
 13 14  1  0
  4  7  1  0
  6  8  2  0
  7  9  2  0
  8  9  1  0
 17 18  1  0
M  END
> <PUBCHEM_COMPOUND_CID>
896

> <PUBCHEM_CONFORMER_RMSD>
0.6

> <PUBCHEM_CONFORMER_DIVERSEORDER>
1
13
50
55
28
16
42
48
27
15
62
60
65
61
36
4
20
58
41
17
59
21
2
63
47
57
40
56
22
64
54
37
51
7
31
53
26
8
49
39
32
11
5
33
38
52
23
45
43
12
14
9
34
44
35
10
25
29
46
6
30
24
3
19
18

> <PUBCHEM_MMFF94_PARTIAL_CHARGES>
22
1 -0.36
10 0.3
11 -0.15
12 -0.15
13 0.08
14 -0.15
15 0.57
16 0.06
17 0.28
2 -0.57
20 0.15
23 0.27
24 0.15
25 0.15
26 0.15
27 0.37
3 0.03
4 -0.73
5 -0.18
7 0.18
8 -0.15
9 -0.3

> <PUBCHEM_EFFECTIVE_ROTOR_COUNT>
5

> <PUBCHEM_PHARMACOPHORE_FEATURES>
7
1 1 acceptor
1 2 acceptor
1 3 cation
1 3 donor
1 4 donor
5 3 5 6 8 9 rings
6 6 8 11 12 13 14 rings

> <PUBCHEM_HEAVY_ATOM_COUNT>
17

> <PUBCHEM_ATOM_DEF_STEREO_COUNT>
0

> <PUBCHEM_ATOM_UDEF_STEREO_COUNT>
0

> <PUBCHEM_BOND_DEF_STEREO_COUNT>
0

> <PUBCHEM_BOND_UDEF_STEREO_COUNT>
0

> <PUBCHEM_ISOTOPIC_ATOM_COUNT>
0

> <PUBCHEM_COMPONENT_COUNT>
1

> <PUBCHEM_CACTVS_TAUTO_COUNT>
2

> <PUBCHEM_CONFORMER_ID>
0000038000000001

> <PUBCHEM_MMFF94_ENERGY>
32.7119

> <PUBCHEM_FEATURE_SELFOVERLAP>
35.612

> <PUBCHEM_SHAPE_FINGERPRINT>
10967382 1 18410853274190255273
11640471 11 17676780867509025316
13027679 85 18194690495324420133
13140716 1 17978229692519098697
13965767 371 16608554374032828400
1420 336 18266184924512803916
14787075 74 17896612875907719035
14790565 3 18341057316043312793
15006816 218 16754940689043299904
16945 1 18195239147136872059
19591789 44 18120376712306458779
19765921 60 17749382706469569763
20510252 161 18342458093286620745
21141583 151 18124894583888822372
21524375 3 17972887951224859043
2334 1 18410572855759727185
23419403 2 17326855944455494142
23557571 272 18201719608641642450
23559900 14 18342173410755765088
2748010 2 18337115553281152647
353137 74 18409164389875307419
44154327 71 18267028250037128041
526903 126 18410576235872810256
537710 114 18408601466050490037
7832392 63 17187566044572678455
9981440 41 18116712022929254594

> <PUBCHEM_SHAPE_MULTIPOLES>
328.15
4.94
3.77
0.97
2.92
1.2
-0.06
0.99
-1.27
-0.81
0.74
0.39
0.23
-0.66

> <PUBCHEM_SHAPE_SELFOVERLAP>
695.133

> <PUBCHEM_SHAPE_VOLUME>
185.3

> <PUBCHEM_COORDINATE_TYPE>
2
5
10

> <Energy>
0.232708

> <minimizedAffinity>
-5.40682

> <CNNscore>
0.4979615808

> <CNNaffinity>
6.6383156776

> <CNN_VS>
3.3056261539

> <CNNaffinity_variance>
0.4192239344

$$$$
896


 19 20  0  0  0  0  0  0  0  0999 V2000
   -5.5162   -1.3252   22.8855 N   0  0  0  0  0  0  0  0  0  0  0  0
   -3.7102   -2.6325   22.8005 C   0  0  0  0  0  0  0  0  0  0  0  0
   -4.7224   -3.1820   21.9494 C   0  0  0  0  0  0  0  0  0  0  0  0
   -5.8396   -2.3545   22.0326 C   0  0  0  0  0  0  0  0  0  0  0  0
   -4.2392   -1.4847   23.3581 C   0  0  0  0  0  0  0  0  0  0  0  0
   -4.7806   -4.3211   21.1176 C   0  0  0  0  0  0  0  0  0  0  0  0
   -7.0205   -2.6111   21.3292 C   0  0  0  0  0  0  0  0  0  0  0  0
   -5.9531   -4.6072   20.4113 C   0  0  0  0  0  0  0  0  0  0  0  0
   -7.0530   -3.7561   20.5218 C   0  0  0  0  0  0  0  0  0  0  0  0
   -6.1154   -0.5810   23.1225 H   0  0  0  0  0  0  0  0  0  0  0  0
   -6.1373   -5.6861   19.5877 O   0  0  0  0  0  0  0  0  0  0  0  0
   -6.0167   -6.9723   20.1855 C   0  0  0  0  0  0  0  0  0  0  0  0
   -2.3424   -3.2038   23.0321 C   0  0  0  0  0  0  0  0  0  0  0  0
   -1.2600   -2.5377   22.1751 C   0  0  0  0  0  0  0  0  0  0  0  0
   -1.3087   -4.5104   20.1297 O   0  0  0  0  0  0  0  0  0  0  0  0
   -1.6496   -2.3365   20.7889 N   0  0  0  0  0  0  0  0  0  0  0  0
   -1.6103   -3.3532   19.8630 C   0  0  0  0  0  0  0  0  0  0  0  0
   -2.0064   -2.9183   18.4780 C   0  0  0  0  0  0  0  0  0  0  0  0
   -1.9512   -1.4438   20.5036 H   0  0  0  0  0  0  0  0  0  0  0  0
 11  8  1  0
 11 12  1  0
 15 17  2  0
  1  4  1  0
  1  5  1  0
  1 10  1  0
 16 14  1  0
 16 17  1  0
 16 19  1  0
  2  3  1  0
  2 13  1  0
  2  5  2  0
  3  4  2  0
  3  6  1  0
 13 14  1  0
  4  7  1  0
  6  8  2  0
  7  9  2  0
  8  9  1  0
 17 18  1  0
M  END
> <PUBCHEM_COMPOUND_CID>
896

> <PUBCHEM_CONFORMER_RMSD>
0.6

> <PUBCHEM_CONFORMER_DIVERSEORDER>
1
13
50
55
28
16
42
48
27
15
62
60
65
61
36
4
20
58
41
17
59
21
2
63
47
57
40
56
22
64
54
37
51
7
31
53
26
8
49
39
32
11
5
33
38
52
23
45
43
12
14
9
34
44
35
10
25
29
46
6
30
24
3
19
18

> <PUBCHEM_MMFF94_PARTIAL_CHARGES>
22
1 -0.36
10 0.3
11 -0.15
12 -0.15
13 0.08
14 -0.15
15 0.57
16 0.06
17 0.28
2 -0.57
20 0.15
23 0.27
24 0.15
25 0.15
26 0.15
27 0.37
3 0.03
4 -0.73
5 -0.18
7 0.18
8 -0.15
9 -0.3

> <PUBCHEM_EFFECTIVE_ROTOR_COUNT>
5

> <PUBCHEM_PHARMACOPHORE_FEATURES>
7
1 1 acceptor
1 2 acceptor
1 3 cation
1 3 donor
1 4 donor
5 3 5 6 8 9 rings
6 6 8 11 12 13 14 rings

> <PUBCHEM_HEAVY_ATOM_COUNT>
17

> <PUBCHEM_ATOM_DEF_STEREO_COUNT>
0

> <PUBCHEM_ATOM_UDEF_STEREO_COUNT>
0

> <PUBCHEM_BOND_DEF_STEREO_COUNT>
0

> <PUBCHEM_BOND_UDEF_STEREO_COUNT>
0

> <PUBCHEM_ISOTOPIC_ATOM_COUNT>
0

> <PUBCHEM_COMPONENT_COUNT>
1

> <PUBCHEM_CACTVS_TAUTO_COUNT>
2

> <PUBCHEM_CONFORMER_ID>
0000038000000001

> <PUBCHEM_MMFF94_ENERGY>
32.7119

> <PUBCHEM_FEATURE_SELFOVERLAP>
35.612

> <PUBCHEM_SHAPE_FINGERPRINT>
10967382 1 18410853274190255273
11640471 11 17676780867509025316
13027679 85 18194690495324420133
13140716 1 17978229692519098697
13965767 371 16608554374032828400
1420 336 18266184924512803916
14787075 74 17896612875907719035
14790565 3 18341057316043312793
15006816 218 16754940689043299904
16945 1 18195239147136872059
19591789 44 18120376712306458779
19765921 60 17749382706469569763
20510252 161 18342458093286620745
21141583 151 18124894583888822372
21524375 3 17972887951224859043
2334 1 18410572855759727185
23419403 2 17326855944455494142
23557571 272 18201719608641642450
23559900 14 18342173410755765088
2748010 2 18337115553281152647
353137 74 18409164389875307419
44154327 71 18267028250037128041
526903 126 18410576235872810256
537710 114 18408601466050490037
7832392 63 17187566044572678455
9981440 41 18116712022929254594

> <PUBCHEM_SHAPE_MULTIPOLES>
328.15
4.94
3.77
0.97
2.92
1.2
-0.06
0.99
-1.27
-0.81
0.74
0.39
0.23
-0.66

> <PUBCHEM_SHAPE_SELFOVERLAP>
695.133

> <PUBCHEM_SHAPE_VOLUME>
185.3

> <PUBCHEM_COORDINATE_TYPE>
2
5
10

> <Energy>
0.232708

> <minimizedAffinity>
-6.77540

> <CNNscore>
0.4020274282

> <CNNaffinity>
6.4358515739

> <CNN_VS>
2.5873887539

> <CNNaffinity_variance>
0.3186582923

$$$$
896


 19 20  0  0  0  0  0  0  0  0999 V2000
   -4.7947   -4.9204   20.3819 N   0  0  0  0  0  0  0  0  0  0  0  0
   -4.1388   -3.8487   22.2255 C   0  0  0  0  0  0  0  0  0  0  0  0
   -5.5696   -3.9065   22.2056 C   0  0  0  0  0  0  0  0  0  0  0  0
   -5.9496   -4.5675   21.0400 C   0  0  0  0  0  0  0  0  0  0  0  0
   -3.6987   -4.4884   21.0830 C   0  0  0  0  0  0  0  0  0  0  0  0
   -6.5738   -3.4447   23.0835 C   0  0  0  0  0  0  0  0  0  0  0  0
   -7.2884   -4.7864   20.7012 C   0  0  0  0  0  0  0  0  0  0  0  0
   -7.9210   -3.6406   22.7637 C   0  0  0  0  0  0  0  0  0  0  0  0
   -8.2632   -4.3051   21.5856 C   0  0  0  0  0  0  0  0  0  0  0  0
   -4.7600   -5.4124   19.5300 H   0  0  0  0  0  0  0  0  0  0  0  0
   -8.9829   -3.2268   23.5235 O   0  0  0  0  0  0  0  0  0  0  0  0
   -8.8989   -1.9182   24.0771 C   0  0  0  0  0  0  0  0  0  0  0  0
   -3.2933   -3.2130   23.2895 C   0  0  0  0  0  0  0  0  0  0  0  0
   -1.7916   -3.2974   22.9939 C   0  0  0  0  0  0  0  0  0  0  0  0
   -0.3124   -3.8371   20.6278 O   0  0  0  0  0  0  0  0  0  0  0  0
   -1.3285   -2.3204   22.0218 N   0  0  0  0  0  0  0  0  0  0  0  0
   -0.5896   -2.6796   20.9185 C   0  0  0  0  0  0  0  0  0  0  0  0
   -0.1712   -1.5093   20.0702 C   0  0  0  0  0  0  0  0  0  0  0  0
   -1.5510   -1.3710   22.1576 H   0  0  0  0  0  0  0  0  0  0  0  0
 11  8  1  0
 11 12  1  0
 15 17  2  0
  1  4  1  0
  1  5  1  0
  1 10  1  0
 16 14  1  0
 16 17  1  0
 16 19  1  0
  2  3  1  0
  2 13  1  0
  2  5  2  0
  3  4  2  0
  3  6  1  0
 13 14  1  0
  4  7  1  0
  6  8  2  0
  7  9  2  0
  8  9  1  0
 17 18  1  0
M  END
> <PUBCHEM_COMPOUND_CID>
896

> <PUBCHEM_CONFORMER_RMSD>
0.6

> <PUBCHEM_CONFORMER_DIVERSEORDER>
1
13
50
55
28
16
42
48
27
15
62
60
65
61
36
4
20
58
41
17
59
21
2
63
47
57
40
56
22
64
54
37
51
7
31
53
26
8
49
39
32
11
5
33
38
52
23
45
43
12
14
9
34
44
35
10
25
29
46
6
30
24
3
19
18

> <PUBCHEM_MMFF94_PARTIAL_CHARGES>
22
1 -0.36
10 0.3
11 -0.15
12 -0.15
13 0.08
14 -0.15
15 0.57
16 0.06
17 0.28
2 -0.57
20 0.15
23 0.27
24 0.15
25 0.15
26 0.15
27 0.37
3 0.03
4 -0.73
5 -0.18
7 0.18
8 -0.15
9 -0.3

> <PUBCHEM_EFFECTIVE_ROTOR_COUNT>
5

> <PUBCHEM_PHARMACOPHORE_FEATURES>
7
1 1 acceptor
1 2 acceptor
1 3 cation
1 3 donor
1 4 donor
5 3 5 6 8 9 rings
6 6 8 11 12 13 14 rings

> <PUBCHEM_HEAVY_ATOM_COUNT>
17

> <PUBCHEM_ATOM_DEF_STEREO_COUNT>
0

> <PUBCHEM_ATOM_UDEF_STEREO_COUNT>
0

> <PUBCHEM_BOND_DEF_STEREO_COUNT>
0

> <PUBCHEM_BOND_UDEF_STEREO_COUNT>
0

> <PUBCHEM_ISOTOPIC_ATOM_COUNT>
0

> <PUBCHEM_COMPONENT_COUNT>
1

> <PUBCHEM_CACTVS_TAUTO_COUNT>
2

> <PUBCHEM_CONFORMER_ID>
0000038000000001

> <PUBCHEM_MMFF94_ENERGY>
32.7119

> <PUBCHEM_FEATURE_SELFOVERLAP>
35.612

> <PUBCHEM_SHAPE_FINGERPRINT>
10967382 1 18410853274190255273
11640471 11 17676780867509025316
13027679 85 18194690495324420133
13140716 1 17978229692519098697
13965767 371 16608554374032828400
1420 336 18266184924512803916
14787075 74 17896612875907719035
14790565 3 18341057316043312793
15006816 218 16754940689043299904
16945 1 18195239147136872059
19591789 44 18120376712306458779
19765921 60 17749382706469569763
20510252 161 18342458093286620745
21141583 151 18124894583888822372
21524375 3 17972887951224859043
2334 1 18410572855759727185
23419403 2 17326855944455494142
23557571 272 18201719608641642450
23559900 14 18342173410755765088
2748010 2 18337115553281152647
353137 74 18409164389875307419
44154327 71 18267028250037128041
526903 126 18410576235872810256
537710 114 18408601466050490037
7832392 63 17187566044572678455
9981440 41 18116712022929254594

> <PUBCHEM_SHAPE_MULTIPOLES>
328.15
4.94
3.77
0.97
2.92
1.2
-0.06
0.99
-1.27
-0.81
0.74
0.39
0.23
-0.66

> <PUBCHEM_SHAPE_SELFOVERLAP>
695.133

> <PUBCHEM_SHAPE_VOLUME>
185.3

> <PUBCHEM_COORDINATE_TYPE>
2
5
10

> <Energy>
0.232708

> <minimizedAffinity>
-5.69320

> <CNNscore>
0.3787053823

> <CNNaffinity>
6.4839768410

> <CNN_VS>
2.4555168152

> <CNNaffinity_variance>
0.3690397441

$$$$
896


 19 20  0  0  0  0  0  0  0  0999 V2000
   -4.8019   -4.1108   19.6930 N   0  0  0  0  0  0  0  0  0  0  0  0
   -4.2807   -3.6596   21.8150 C   0  0  0  0  0  0  0  0  0  0  0  0
   -3.2243   -3.1939   20.9676 C   0  0  0  0  0  0  0  0  0  0  0  0
   -3.5703   -3.5002   19.6537 C   0  0  0  0  0  0  0  0  0  0  0  0
   -5.2371   -4.2172   20.9887 C   0  0  0  0  0  0  0  0  0  0  0  0
   -1.9975   -2.5401   21.2128 C   0  0  0  0  0  0  0  0  0  0  0  0
   -2.7465   -3.1913   18.5669 C   0  0  0  0  0  0  0  0  0  0  0  0
   -1.1495   -2.2294   20.1451 C   0  0  0  0  0  0  0  0  0  0  0  0
   -1.5290   -2.5542   18.8424 C   0  0  0  0  0  0  0  0  0  0  0  0
   -5.2995   -4.4261   18.9043 H   0  0  0  0  0  0  0  0  0  0  0  0
    0.0685   -1.6126   20.2556 O   0  0  0  0  0  0  0  0  0  0  0  0
    1.1344   -2.3962   20.7810 C   0  0  0  0  0  0  0  0  0  0  0  0
   -4.3269   -3.5549   23.3109 C   0  0  0  0  0  0  0  0  0  0  0  0
   -4.9486   -2.2428   23.8025 C   0  0  0  0  0  0  0  0  0  0  0  0
   -7.0055   -3.7114   25.1026 O   0  0  0  0  0  0  0  0  0  0  0  0
   -6.3768   -2.1390   23.5506 N   0  0  0  0  0  0  0  0  0  0  0  0
   -7.2953   -2.9189   24.2142 C   0  0  0  0  0  0  0  0  0  0  0  0
   -8.7132   -2.6869   23.7670 C   0  0  0  0  0  0  0  0  0  0  0  0
   -6.6968   -1.4896   22.8834 H   0  0  0  0  0  0  0  0  0  0  0  0
 11  8  1  0
 11 12  1  0
 15 17  2  0
  1  4  1  0
  1  5  1  0
  1 10  1  0
 16 14  1  0
 16 17  1  0
 16 19  1  0
  2  3  1  0
  2 13  1  0
  2  5  2  0
  3  4  2  0
  3  6  1  0
 13 14  1  0
  4  7  1  0
  6  8  2  0
  7  9  2  0
  8  9  1  0
 17 18  1  0
M  END
> <PUBCHEM_COMPOUND_CID>
896

> <PUBCHEM_CONFORMER_RMSD>
0.6

> <PUBCHEM_CONFORMER_DIVERSEORDER>
1
13
50
55
28
16
42
48
27
15
62
60
65
61
36
4
20
58
41
17
59
21
2
63
47
57
40
56
22
64
54
37
51
7
31
53
26
8
49
39
32
11
5
33
38
52
23
45
43
12
14
9
34
44
35
10
25
29
46
6
30
24
3
19
18

> <PUBCHEM_MMFF94_PARTIAL_CHARGES>
22
1 -0.36
10 0.3
11 -0.15
12 -0.15
13 0.08
14 -0.15
15 0.57
16 0.06
17 0.28
2 -0.57
20 0.15
23 0.27
24 0.15
25 0.15
26 0.15
27 0.37
3 0.03
4 -0.73
5 -0.18
7 0.18
8 -0.15
9 -0.3

> <PUBCHEM_EFFECTIVE_ROTOR_COUNT>
5

> <PUBCHEM_PHARMACOPHORE_FEATURES>
7
1 1 acceptor
1 2 acceptor
1 3 cation
1 3 donor
1 4 donor
5 3 5 6 8 9 rings
6 6 8 11 12 13 14 rings

> <PUBCHEM_HEAVY_ATOM_COUNT>
17

> <PUBCHEM_ATOM_DEF_STEREO_COUNT>
0

> <PUBCHEM_ATOM_UDEF_STEREO_COUNT>
0

> <PUBCHEM_BOND_DEF_STEREO_COUNT>
0

> <PUBCHEM_BOND_UDEF_STEREO_COUNT>
0

> <PUBCHEM_ISOTOPIC_ATOM_COUNT>
0

> <PUBCHEM_COMPONENT_COUNT>
1

> <PUBCHEM_CACTVS_TAUTO_COUNT>
2

> <PUBCHEM_CONFORMER_ID>
0000038000000001

> <PUBCHEM_MMFF94_ENERGY>
32.7119

> <PUBCHEM_FEATURE_SELFOVERLAP>
35.612

> <PUBCHEM_SHAPE_FINGERPRINT>
10967382 1 18410853274190255273
11640471 11 17676780867509025316
13027679 85 18194690495324420133
13140716 1 17978229692519098697
13965767 371 16608554374032828400
1420 336 18266184924512803916
14787075 74 17896612875907719035
14790565 3 18341057316043312793
15006816 218 16754940689043299904
16945 1 18195239147136872059
19591789 44 18120376712306458779
19765921 60 17749382706469569763
20510252 161 18342458093286620745
21141583 151 18124894583888822372
21524375 3 17972887951224859043
2334 1 18410572855759727185
23419403 2 17326855944455494142
23557571 272 18201719608641642450
23559900 14 18342173410755765088
2748010 2 18337115553281152647
353137 74 18409164389875307419
44154327 71 18267028250037128041
526903 126 18410576235872810256
537710 114 18408601466050490037
7832392 63 17187566044572678455
9981440 41 18116712022929254594

> <PUBCHEM_SHAPE_MULTIPOLES>
328.15
4.94
3.77
0.97
2.92
1.2
-0.06
0.99
-1.27
-0.81
0.74
0.39
0.23
-0.66

> <PUBCHEM_SHAPE_SELFOVERLAP>
695.133

> <PUBCHEM_SHAPE_VOLUME>
185.3

> <PUBCHEM_COORDINATE_TYPE>
2
5
10

> <Energy>
0.232708

> <minimizedAffinity>
-6.28404

> <CNNscore>
0.3762836158

> <CNNaffinity>
6.2032389641

> <CNN_VS>
2.3341772556

> <CNNaffinity_variance>
0.1998736858

$$$$
896


 19 20  0  0  0  0  0  0  0  0999 V2000
   -5.9380   -1.8093   23.9155 N   0  0  0  0  0  0  0  0  0  0  0  0
   -4.2312   -2.9709   23.0696 C   0  0  0  0  0  0  0  0  0  0  0  0
   -5.4576   -3.5156   22.5694 C   0  0  0  0  0  0  0  0  0  0  0  0
   -6.5032   -2.7810   23.1233 C   0  0  0  0  0  0  0  0  0  0  0  0
   -4.5715   -1.9170   23.8954 C   0  0  0  0  0  0  0  0  0  0  0  0
   -5.7634   -4.5791   21.6930 C   0  0  0  0  0  0  0  0  0  0  0  0
   -7.8460   -3.0597   22.8505 C   0  0  0  0  0  0  0  0  0  0  0  0
   -7.0983   -4.8863   21.4115 C   0  0  0  0  0  0  0  0  0  0  0  0
   -8.1191   -4.1294   21.9873 C   0  0  0  0  0  0  0  0  0  0  0  0
   -6.4421   -1.1336   24.4239 H   0  0  0  0  0  0  0  0  0  0  0  0
   -7.5213   -5.8998   20.5929 O   0  0  0  0  0  0  0  0  0  0  0  0
   -6.6404   -7.0078   20.4431 C   0  0  0  0  0  0  0  0  0  0  0  0
   -2.8496   -3.4602   22.7494 C   0  0  0  0  0  0  0  0  0  0  0  0
   -2.8251   -4.4924   21.6164 C   0  0  0  0  0  0  0  0  0  0  0  0
   -3.9961   -3.0764   19.4481 O   0  0  0  0  0  0  0  0  0  0  0  0
   -2.1452   -4.0317   20.4167 N   0  0  0  0  0  0  0  0  0  0  0  0
   -2.8094   -3.3779   19.4048 C   0  0  0  0  0  0  0  0  0  0  0  0
   -1.9286   -3.0332   18.2344 C   0  0  0  0  0  0  0  0  0  0  0  0
   -1.1783   -4.1927   20.3256 H   0  0  0  0  0  0  0  0  0  0  0  0
 11  8  1  0
 11 12  1  0
 15 17  2  0
  1  4  1  0
  1  5  1  0
  1 10  1  0
 16 14  1  0
 16 17  1  0
 16 19  1  0
  2  3  1  0
  2 13  1  0
  2  5  2  0
  3  4  2  0
  3  6  1  0
 13 14  1  0
  4  7  1  0
  6  8  2  0
  7  9  2  0
  8  9  1  0
 17 18  1  0
M  END
> <PUBCHEM_COMPOUND_CID>
896

> <PUBCHEM_CONFORMER_RMSD>
0.6

> <PUBCHEM_CONFORMER_DIVERSEORDER>
1
13
50
55
28
16
42
48
27
15
62
60
65
61
36
4
20
58
41
17
59
21
2
63
47
57
40
56
22
64
54
37
51
7
31
53
26
8
49
39
32
11
5
33
38
52
23
45
43
12
14
9
34
44
35
10
25
29
46
6
30
24
3
19
18

> <PUBCHEM_MMFF94_PARTIAL_CHARGES>
22
1 -0.36
10 0.3
11 -0.15
12 -0.15
13 0.08
14 -0.15
15 0.57
16 0.06
17 0.28
2 -0.57
20 0.15
23 0.27
24 0.15
25 0.15
26 0.15
27 0.37
3 0.03
4 -0.73
5 -0.18
7 0.18
8 -0.15
9 -0.3

> <PUBCHEM_EFFECTIVE_ROTOR_COUNT>
5

> <PUBCHEM_PHARMACOPHORE_FEATURES>
7
1 1 acceptor
1 2 acceptor
1 3 cation
1 3 donor
1 4 donor
5 3 5 6 8 9 rings
6 6 8 11 12 13 14 rings

> <PUBCHEM_HEAVY_ATOM_COUNT>
17

> <PUBCHEM_ATOM_DEF_STEREO_COUNT>
0

> <PUBCHEM_ATOM_UDEF_STEREO_COUNT>
0

> <PUBCHEM_BOND_DEF_STEREO_COUNT>
0

> <PUBCHEM_BOND_UDEF_STEREO_COUNT>
0

> <PUBCHEM_ISOTOPIC_ATOM_COUNT>
0

> <PUBCHEM_COMPONENT_COUNT>
1

> <PUBCHEM_CACTVS_TAUTO_COUNT>
2

> <PUBCHEM_CONFORMER_ID>
0000038000000001

> <PUBCHEM_MMFF94_ENERGY>
32.7119

> <PUBCHEM_FEATURE_SELFOVERLAP>
35.612

> <PUBCHEM_SHAPE_FINGERPRINT>
10967382 1 18410853274190255273
11640471 11 17676780867509025316
13027679 85 18194690495324420133
13140716 1 17978229692519098697
13965767 371 16608554374032828400
1420 336 18266184924512803916
14787075 74 17896612875907719035
14790565 3 18341057316043312793
15006816 218 16754940689043299904
16945 1 18195239147136872059
19591789 44 18120376712306458779
19765921 60 17749382706469569763
20510252 161 18342458093286620745
21141583 151 18124894583888822372
21524375 3 17972887951224859043
2334 1 18410572855759727185
23419403 2 17326855944455494142
23557571 272 18201719608641642450
23559900 14 18342173410755765088
2748010 2 18337115553281152647
353137 74 18409164389875307419
44154327 71 18267028250037128041
526903 126 18410576235872810256
537710 114 18408601466050490037
7832392 63 17187566044572678455
9981440 41 18116712022929254594

> <PUBCHEM_SHAPE_MULTIPOLES>
328.15
4.94
3.77
0.97
2.92
1.2
-0.06
0.99
-1.27
-0.81
0.74
0.39
0.23
-0.66

> <PUBCHEM_SHAPE_SELFOVERLAP>
695.133

> <PUBCHEM_SHAPE_VOLUME>
185.3

> <PUBCHEM_COORDINATE_TYPE>
2
5
10

> <Energy>
0.232708

> <minimizedAffinity>
-6.31183

> <CNNscore>
0.3372771144

> <CNNaffinity>
6.3539185524

> <CNN_VS>
2.1430313587

> <CNNaffinity_variance>
0.1755280048

$$$$
896


 19 20  0  0  0  0  0  0  0  0999 V2000
   -1.5211   -3.3559   19.3212 N   0  0  0  0  0  0  0  0  0  0  0  0
   -3.7030   -3.6541   19.6795 C   0  0  0  0  0  0  0  0  0  0  0  0
   -3.1133   -3.0813   20.8521 C   0  0  0  0  0  0  0  0  0  0  0  0
   -1.7523   -2.9191   20.6046 C   0  0  0  0  0  0  0  0  0  0  0  0
   -2.6865   -3.8056   18.7563 C   0  0  0  0  0  0  0  0  0  0  0  0
   -3.6271   -2.6917   22.1078 C   0  0  0  0  0  0  0  0  0  0  0  0
   -0.8723   -2.3912   21.5543 C   0  0  0  0  0  0  0  0  0  0  0  0
   -2.7672   -2.1709   23.0798 C   0  0  0  0  0  0  0  0  0  0  0  0
   -1.4089   -2.0256   22.7962 C   0  0  0  0  0  0  0  0  0  0  0  0
   -0.6449   -3.3469   18.8726 H   0  0  0  0  0  0  0  0  0  0  0  0
   -3.1413   -1.7732   24.3361 O   0  0  0  0  0  0  0  0  0  0  0  0
   -4.5199   -1.4740   24.5257 C   0  0  0  0  0  0  0  0  0  0  0  0
   -5.1484   -4.0147   19.5013 C   0  0  0  0  0  0  0  0  0  0  0  0
   -5.5652   -5.2457   20.3142 C   0  0  0  0  0  0  0  0  0  0  0  0
   -6.7439   -2.8502   21.2889 O   0  0  0  0  0  0  0  0  0  0  0  0
   -6.8681   -5.1182   20.9465 N   0  0  0  0  0  0  0  0  0  0  0  0
   -7.3395   -3.9136   21.4145 C   0  0  0  0  0  0  0  0  0  0  0  0
   -8.6867   -4.0137   22.0776 C   0  0  0  0  0  0  0  0  0  0  0  0
   -7.4313   -5.9200   21.0430 H   0  0  0  0  0  0  0  0  0  0  0  0
 11  8  1  0
 11 12  1  0
 15 17  2  0
  1  4  1  0
  1  5  1  0
  1 10  1  0
 16 14  1  0
 16 17  1  0
 16 19  1  0
  2  3  1  0
  2 13  1  0
  2  5  2  0
  3  4  2  0
  3  6  1  0
 13 14  1  0
  4  7  1  0
  6  8  2  0
  7  9  2  0
  8  9  1  0
 17 18  1  0
M  END
> <PUBCHEM_COMPOUND_CID>
896

> <PUBCHEM_CONFORMER_RMSD>
0.6

> <PUBCHEM_CONFORMER_DIVERSEORDER>
1
13
50
55
28
16
42
48
27
15
62
60
65
61
36
4
20
58
41
17
59
21
2
63
47
57
40
56
22
64
54
37
51
7
31
53
26
8
49
39
32
11
5
33
38
52
23
45
43
12
14
9
34
44
35
10
25
29
46
6
30
24
3
19
18

> <PUBCHEM_MMFF94_PARTIAL_CHARGES>
22
1 -0.36
10 0.3
11 -0.15
12 -0.15
13 0.08
14 -0.15
15 0.57
16 0.06
17 0.28
2 -0.57
20 0.15
23 0.27
24 0.15
25 0.15
26 0.15
27 0.37
3 0.03
4 -0.73
5 -0.18
7 0.18
8 -0.15
9 -0.3

> <PUBCHEM_EFFECTIVE_ROTOR_COUNT>
5

> <PUBCHEM_PHARMACOPHORE_FEATURES>
7
1 1 acceptor
1 2 acceptor
1 3 cation
1 3 donor
1 4 donor
5 3 5 6 8 9 rings
6 6 8 11 12 13 14 rings

> <PUBCHEM_HEAVY_ATOM_COUNT>
17

> <PUBCHEM_ATOM_DEF_STEREO_COUNT>
0

> <PUBCHEM_ATOM_UDEF_STEREO_COUNT>
0

> <PUBCHEM_BOND_DEF_STEREO_COUNT>
0

> <PUBCHEM_BOND_UDEF_STEREO_COUNT>
0

> <PUBCHEM_ISOTOPIC_ATOM_COUNT>
0

> <PUBCHEM_COMPONENT_COUNT>
1

> <PUBCHEM_CACTVS_TAUTO_COUNT>
2

> <PUBCHEM_CONFORMER_ID>
0000038000000001

> <PUBCHEM_MMFF94_ENERGY>
32.7119

> <PUBCHEM_FEATURE_SELFOVERLAP>
35.612

> <PUBCHEM_SHAPE_FINGERPRINT>
10967382 1 18410853274190255273
11640471 11 17676780867509025316
13027679 85 18194690495324420133
13140716 1 17978229692519098697
13965767 371 16608554374032828400
1420 336 18266184924512803916
14787075 74 17896612875907719035
14790565 3 18341057316043312793
15006816 218 16754940689043299904
16945 1 18195239147136872059
19591789 44 18120376712306458779
19765921 60 17749382706469569763
20510252 161 18342458093286620745
21141583 151 18124894583888822372
21524375 3 17972887951224859043
2334 1 18410572855759727185
23419403 2 17326855944455494142
23557571 272 18201719608641642450
23559900 14 18342173410755765088
2748010 2 18337115553281152647
353137 74 18409164389875307419
44154327 71 18267028250037128041
526903 126 18410576235872810256
537710 114 18408601466050490037
7832392 63 17187566044572678455
9981440 41 18116712022929254594

> <PUBCHEM_SHAPE_MULTIPOLES>
328.15
4.94
3.77
0.97
2.92
1.2
-0.06
0.99
-1.27
-0.81
0.74
0.39
0.23
-0.66

> <PUBCHEM_SHAPE_SELFOVERLAP>
695.133

> <PUBCHEM_SHAPE_VOLUME>
185.3

> <PUBCHEM_COORDINATE_TYPE>
2
5
10

> <Energy>
0.232708

> <minimizedAffinity>
-5.29532

> <CNNscore>
0.3360783458

> <CNNaffinity>
6.4847126007

> <CNN_VS>
2.1793715954

> <CNNaffinity_variance>
0.3036716878

$$$$
896


 19 20  0  0  0  0  0  0  0  0999 V2000
   -4.0806   -3.5583   24.0582 N   0  0  0  0  0  0  0  0  0  0  0  0
   -5.1800   -4.3976   22.3076 C   0  0  0  0  0  0  0  0  0  0  0  0
   -3.9688   -3.7878   21.8471 C   0  0  0  0  0  0  0  0  0  0  0  0
   -3.3117   -3.2624   22.9571 C   0  0  0  0  0  0  0  0  0  0  0  0
   -5.2102   -4.2365   23.6793 C   0  0  0  0  0  0  0  0  0  0  0  0
   -3.3799   -3.6356   20.5733 C   0  0  0  0  0  0  0  0  0  0  0  0
   -2.0934   -2.5833   22.8588 C   0  0  0  0  0  0  0  0  0  0  0  0
   -2.1672   -2.9512   20.4451 C   0  0  0  0  0  0  0  0  0  0  0  0
   -1.5396   -2.4364   21.5798 C   0  0  0  0  0  0  0  0  0  0  0  0
   -3.8528   -3.3177   24.9852 H   0  0  0  0  0  0  0  0  0  0  0  0
   -1.5067   -2.7256   19.2665 O   0  0  0  0  0  0  0  0  0  0  0  0
   -2.2016   -3.0648   18.0715 C   0  0  0  0  0  0  0  0  0  0  0  0
   -6.2090   -5.0778   21.4535 C   0  0  0  0  0  0  0  0  0  0  0  0
   -7.5580   -4.3498   21.4434 C   0  0  0  0  0  0  0  0  0  0  0  0
   -8.9188   -3.8218   23.8820 O   0  0  0  0  0  0  0  0  0  0  0  0
   -7.5549   -3.0973   22.1816 N   0  0  0  0  0  0  0  0  0  0  0  0
   -8.2736   -2.9307   23.3427 C   0  0  0  0  0  0  0  0  0  0  0  0
   -8.1709   -1.5438   23.9176 C   0  0  0  0  0  0  0  0  0  0  0  0
   -7.0213   -2.3440   21.8395 H   0  0  0  0  0  0  0  0  0  0  0  0
 11  8  1  0
 11 12  1  0
 15 17  2  0
  1  4  1  0
  1  5  1  0
  1 10  1  0
 16 14  1  0
 16 17  1  0
 16 19  1  0
  2  3  1  0
  2 13  1  0
  2  5  2  0
  3  4  2  0
  3  6  1  0
 13 14  1  0
  4  7  1  0
  6  8  2  0
  7  9  2  0
  8  9  1  0
 17 18  1  0
M  END
> <PUBCHEM_COMPOUND_CID>
896

> <PUBCHEM_CONFORMER_RMSD>
0.6

> <PUBCHEM_CONFORMER_DIVERSEORDER>
1
13
50
55
28
16
42
48
27
15
62
60
65
61
36
4
20
58
41
17
59
21
2
63
47
57
40
56
22
64
54
37
51
7
31
53
26
8
49
39
32
11
5
33
38
52
23
45
43
12
14
9
34
44
35
10
25
29
46
6
30
24
3
19
18

> <PUBCHEM_MMFF94_PARTIAL_CHARGES>
22
1 -0.36
10 0.3
11 -0.15
12 -0.15
13 0.08
14 -0.15
15 0.57
16 0.06
17 0.28
2 -0.57
20 0.15
23 0.27
24 0.15
25 0.15
26 0.15
27 0.37
3 0.03
4 -0.73
5 -0.18
7 0.18
8 -0.15
9 -0.3

> <PUBCHEM_EFFECTIVE_ROTOR_COUNT>
5

> <PUBCHEM_PHARMACOPHORE_FEATURES>
7
1 1 acceptor
1 2 acceptor
1 3 cation
1 3 donor
1 4 donor
5 3 5 6 8 9 rings
6 6 8 11 12 13 14 rings

> <PUBCHEM_HEAVY_ATOM_COUNT>
17

> <PUBCHEM_ATOM_DEF_STEREO_COUNT>
0

> <PUBCHEM_ATOM_UDEF_STEREO_COUNT>
0

> <PUBCHEM_BOND_DEF_STEREO_COUNT>
0

> <PUBCHEM_BOND_UDEF_STEREO_COUNT>
0

> <PUBCHEM_ISOTOPIC_ATOM_COUNT>
0

> <PUBCHEM_COMPONENT_COUNT>
1

> <PUBCHEM_CACTVS_TAUTO_COUNT>
2

> <PUBCHEM_CONFORMER_ID>
0000038000000001

> <PUBCHEM_MMFF94_ENERGY>
32.7119

> <PUBCHEM_FEATURE_SELFOVERLAP>
35.612

> <PUBCHEM_SHAPE_FINGERPRINT>
10967382 1 18410853274190255273
11640471 11 17676780867509025316
13027679 85 18194690495324420133
13140716 1 17978229692519098697
13965767 371 16608554374032828400
1420 336 18266184924512803916
14787075 74 17896612875907719035
14790565 3 18341057316043312793
15006816 218 16754940689043299904
16945 1 18195239147136872059
19591789 44 18120376712306458779
19765921 60 17749382706469569763
20510252 161 18342458093286620745
21141583 151 18124894583888822372
21524375 3 17972887951224859043
2334 1 18410572855759727185
23419403 2 17326855944455494142
23557571 272 18201719608641642450
23559900 14 18342173410755765088
2748010 2 18337115553281152647
353137 74 18409164389875307419
44154327 71 18267028250037128041
526903 126 18410576235872810256
537710 114 18408601466050490037
7832392 63 17187566044572678455
9981440 41 18116712022929254594

> <PUBCHEM_SHAPE_MULTIPOLES>
328.15
4.94
3.77
0.97
2.92
1.2
-0.06
0.99
-1.27
-0.81
0.74
0.39
0.23
-0.66

> <PUBCHEM_SHAPE_SELFOVERLAP>
695.133

> <PUBCHEM_SHAPE_VOLUME>
185.3

> <PUBCHEM_COORDINATE_TYPE>
2
5
10

> <Energy>
0.232708

> <minimizedAffinity>
-6.03300

> <CNNscore>
0.3344006538

> <CNNaffinity>
6.0843200684

> <CNN_VS>
2.0346004963

> <CNNaffinity_variance>
0.0351654887

$$$$
896


 19 20  0  0  0  0  0  0  0  0999 V2000
   -8.5116   -3.7412   22.5455 N   0  0  0  0  0  0  0  0  0  0  0  0
   -6.9595   -4.3283   21.0541 C   0  0  0  0  0  0  0  0  0  0  0  0
   -6.3684   -3.4512   22.0196 C   0  0  0  0  0  0  0  0  0  0  0  0
   -7.3612   -3.0917   22.9277 C   0  0  0  0  0  0  0  0  0  0  0  0
   -8.2836   -4.4841   21.4161 C   0  0  0  0  0  0  0  0  0  0  0  0
   -5.0682   -2.9293   22.1918 C   0  0  0  0  0  0  0  0  0  0  0  0
   -7.1226   -2.2277   24.0009 C   0  0  0  0  0  0  0  0  0  0  0  0
   -4.8046   -2.0543   23.2504 C   0  0  0  0  0  0  0  0  0  0  0  0
   -5.8255   -1.7150   24.1386 C   0  0  0  0  0  0  0  0  0  0  0  0
   -9.3747   -3.6813   23.0152 H   0  0  0  0  0  0  0  0  0  0  0  0
   -3.5929   -1.4719   23.5125 O   0  0  0  0  0  0  0  0  0  0  0  0
   -2.4371   -2.2621   23.2558 C   0  0  0  0  0  0  0  0  0  0  0  0
   -6.2628   -4.9514   19.8805 C   0  0  0  0  0  0  0  0  0  0  0  0
   -4.7480   -5.0770   20.0783 C   0  0  0  0  0  0  0  0  0  0  0  0
   -2.0275   -4.3394   20.4425 O   0  0  0  0  0  0  0  0  0  0  0  0
   -3.9691   -4.1958   19.2234 N   0  0  0  0  0  0  0  0  0  0  0  0
   -2.6610   -3.8743   19.5024 C   0  0  0  0  0  0  0  0  0  0  0  0
   -2.0577   -2.9094   18.5179 C   0  0  0  0  0  0  0  0  0  0  0  0
   -4.3916   -3.8170   18.4189 H   0  0  0  0  0  0  0  0  0  0  0  0
 11  8  1  0
 11 12  1  0
 15 17  2  0
  1  4  1  0
  1  5  1  0
  1 10  1  0
 16 14  1  0
 16 17  1  0
 16 19  1  0
  2  3  1  0
  2 13  1  0
  2  5  2  0
  3  4  2  0
  3  6  1  0
 13 14  1  0
  4  7  1  0
  6  8  2  0
  7  9  2  0
  8  9  1  0
 17 18  1  0
M  END
> <PUBCHEM_COMPOUND_CID>
896

> <PUBCHEM_CONFORMER_RMSD>
0.6

> <PUBCHEM_CONFORMER_DIVERSEORDER>
1
13
50
55
28
16
42
48
27
15
62
60
65
61
36
4
20
58
41
17
59
21
2
63
47
57
40
56
22
64
54
37
51
7
31
53
26
8
49
39
32
11
5
33
38
52
23
45
43
12
14
9
34
44
35
10
25
29
46
6
30
24
3
19
18

> <PUBCHEM_MMFF94_PARTIAL_CHARGES>
22
1 -0.36
10 0.3
11 -0.15
12 -0.15
13 0.08
14 -0.15
15 0.57
16 0.06
17 0.28
2 -0.57
20 0.15
23 0.27
24 0.15
25 0.15
26 0.15
27 0.37
3 0.03
4 -0.73
5 -0.18
7 0.18
8 -0.15
9 -0.3

> <PUBCHEM_EFFECTIVE_ROTOR_COUNT>
5

> <PUBCHEM_PHARMACOPHORE_FEATURES>
7
1 1 acceptor
1 2 acceptor
1 3 cation
1 3 donor
1 4 donor
5 3 5 6 8 9 rings
6 6 8 11 12 13 14 rings

> <PUBCHEM_HEAVY_ATOM_COUNT>
17

> <PUBCHEM_ATOM_DEF_STEREO_COUNT>
0

> <PUBCHEM_ATOM_UDEF_STEREO_COUNT>
0

> <PUBCHEM_BOND_DEF_STEREO_COUNT>
0

> <PUBCHEM_BOND_UDEF_STEREO_COUNT>
0

> <PUBCHEM_ISOTOPIC_ATOM_COUNT>
0

> <PUBCHEM_COMPONENT_COUNT>
1

> <PUBCHEM_CACTVS_TAUTO_COUNT>
2

> <PUBCHEM_CONFORMER_ID>
0000038000000001

> <PUBCHEM_MMFF94_ENERGY>
32.7119

> <PUBCHEM_FEATURE_SELFOVERLAP>
35.612

> <PUBCHEM_SHAPE_FINGERPRINT>
10967382 1 18410853274190255273
11640471 11 17676780867509025316
13027679 85 18194690495324420133
13140716 1 17978229692519098697
13965767 371 16608554374032828400
1420 336 18266184924512803916
14787075 74 17896612875907719035
14790565 3 18341057316043312793
15006816 218 16754940689043299904
16945 1 18195239147136872059
19591789 44 18120376712306458779
19765921 60 17749382706469569763
20510252 161 18342458093286620745
21141583 151 18124894583888822372
21524375 3 17972887951224859043
2334 1 18410572855759727185
23419403 2 17326855944455494142
23557571 272 18201719608641642450
23559900 14 18342173410755765088
2748010 2 18337115553281152647
353137 74 18409164389875307419
44154327 71 18267028250037128041
526903 126 18410576235872810256
537710 114 18408601466050490037
7832392 63 17187566044572678455
9981440 41 18116712022929254594

> <PUBCHEM_SHAPE_MULTIPOLES>
328.15
4.94
3.77
0.97
2.92
1.2
-0.06
0.99
-1.27
-0.81
0.74
0.39
0.23
-0.66

> <PUBCHEM_SHAPE_SELFOVERLAP>
695.133

> <PUBCHEM_SHAPE_VOLUME>
185.3

> <PUBCHEM_COORDINATE_TYPE>
2
5
10

> <Energy>
0.232708

> <minimizedAffinity>
-6.19424

> <CNNscore>
0.3323763013

> <CNNaffinity>
6.2505545616

> <CNN_VS>
2.0775361061

> <CNNaffinity_variance>
0.1118096933

$$$$
