2999413


 26 27  0  0  0  0  0  0  0  0999 V2000
  108.0991   10.9507   21.6184 O   0  0  0  0  0  0  0  0  0  0  0  0
  105.6157   15.0577   25.0892 O   0  0  0  0  0  0  0  0  0  0  0  0
  106.1170   16.5816   23.4274 O   0  0  0  0  0  0  0  0  0  0  0  0
  103.9518   17.1911   26.2506 O   0  0  0  0  0  0  0  0  0  0  0  0
   99.7582   16.6969   24.0052 O   0  0  0  0  0  0  0  0  0  0  0  0
  107.1340   11.0614   22.6639 C   0  0  0  0  0  0  0  0  0  0  0  0
  105.7477   11.2531   22.0321 C   0  0  0  0  0  0  0  0  0  0  0  0
  107.5651   12.1787   23.6265 C   0  0  0  0  0  0  0  0  0  0  0  0
  105.6480   12.4549   21.0804 C   0  0  0  0  0  0  0  0  0  0  0  0
  106.6478   12.3157   24.8441 C   0  0  0  0  0  0  0  0  0  0  0  0
  104.2000   12.7576   20.6753 C   0  0  0  0  0  0  0  0  0  0  0  0
  107.1371   13.3664   25.8493 C   0  0  0  0  0  0  0  0  0  0  0  0
  103.4117   13.5187   21.7500 C   0  0  0  0  0  0  0  0  0  0  0  0
  107.0101   14.8092   25.3401 C   0  0  0  0  0  0  0  0  0  0  0  0
  103.7511   15.0165   21.7817 C   0  0  0  0  0  0  0  0  0  0  0  0
  103.1251   15.7152   22.9691 C   0  0  0  0  0  0  0  0  0  0  0  0
  107.5047   15.7930   26.3978 C   0  0  0  0  0  0  0  0  0  0  0  0
  103.8662   16.1442   24.0906 C   0  0  0  0  0  0  0  0  0  0  0  0
  105.3317   15.9887   24.1463 C   0  0  0  0  0  0  0  0  0  0  0  0
  101.7341   15.9232   22.9749 C   0  0  0  0  0  0  0  0  0  0  0  0
  103.2211   16.7605   25.1756 C   0  0  0  0  0  0  0  0  0  0  0  0
  101.1106   16.5299   24.0631 C   0  0  0  0  0  0  0  0  0  0  0  0
  101.8407   16.9505   25.1684 C   0  0  0  0  0  0  0  0  0  0  0  0
  107.8334   10.2467   21.0063 H   0  0  0  0  0  0  0  0  0  0  0  0
  104.8806   17.0680   26.2652 H   0  0  0  0  0  0  0  0  0  0  0  0
   99.2822   16.4070   23.2519 H   0  0  0  0  0  0  0  0  0  0  0  0
  1  6  1  0
  1 24  1  0
  2 14  1  0
  2 19  1  0
  3 19  2  0
  4 21  1  0
  4 25  1  0
  5 22  1  0
  5 26  1  0
  6  7  1  0
  6  8  1  0
  7  9  1  0
  8 10  1  0
  9 11  1  0
 10 12  1  0
 11 13  1  0
 12 14  1  0
 13 15  1  0
 14 17  1  0
 15 16  1  0
 16 18  2  0
 16 20  1  0
 18 19  1  0
 18 21  1  0
 20 22  2  0
 21 23  2  0
 22 23  1  0
M  END
> <PUBCHEM_COMPOUND_CID>
2999413

> <PUBCHEM_CONFORMER_RMSD>
0.6

> <PUBCHEM_CONFORMER_DIVERSEORDER>
1
6
14
27
9
16
11
26
8
2
22
5
20
28
18
17
29
3
24
19
21
13
15
7
23
4
25
12
10

> <PUBCHEM_MMFF94_PARTIAL_CHARGES>
20
1 -0.68
14 0.28
15 0.14
16 -0.14
18 0.09
19 0.63
2 -0.43
20 -0.15
21 0.08
22 0.08
23 -0.15
3 -0.57
4 -0.53
45 0.4
46 0.15
47 0.15
48 0.45
49 0.45
5 -0.53
6 0.28

> <PUBCHEM_EFFECTIVE_ROTOR_COUNT>
2.2

> <PUBCHEM_PHARMACOPHORE_FEATURES>
6
1 1 acceptor
1 1 donor
1 3 acceptor
1 4 donor
1 5 donor
6 16 18 20 21 22 23 rings

> <PUBCHEM_HEAVY_ATOM_COUNT>
23

> <PUBCHEM_ATOM_DEF_STEREO_COUNT>
2

> <PUBCHEM_ATOM_UDEF_STEREO_COUNT>
0

> <PUBCHEM_BOND_DEF_STEREO_COUNT>
0

> <PUBCHEM_BOND_UDEF_STEREO_COUNT>
0

> <PUBCHEM_ISOTOPIC_ATOM_COUNT>
0

> <PUBCHEM_COMPONENT_COUNT>
1

> <PUBCHEM_CACTVS_TAUTO_COUNT>
25

> <PUBCHEM_CONFORMER_ID>
002DC47500000001

> <PUBCHEM_MMFF94_ENERGY>
51.6521

> <PUBCHEM_FEATURE_SELFOVERLAP>
30.446

> <PUBCHEM_SHAPE_FINGERPRINT>
104564 63 18340206271993051459
10498660 4 18187631549186102207
10577160 183 17606693423048979742
10616163 171 18266175029013727061
10759866 29 17750229218859711762
108634 29 18411143511243732574
1100329 8 17185877190433830119
11578080 2 17058915861662947194
116883 192 18412832382636582198
12011746 2 18335696144590423807
12054548 360 18337387261554875763
12156800 1 11695045847065978403
12553582 1 18337941355723699521
12788726 201 18339079272527017530
12954195 1 18196384628153038830
13402501 40 18410292523613913767
13533116 47 17911794988931237615
13941206 138 17823424798885047762
14178342 30 17618481208803059632
14251740 79 18268155262187636390
14251745 187 18265888240930317283
14251751 93 18337386020182837502
14251757 17 18340208496912958262
14251757 5 18336274478600052878
14289585 56 17025448677686211638
14363568 33 17831602116089395611
14790565 3 18338242566191680045
14931854 50 18192983829844991199
15081414 286 18267592488269592273
15210252 30 18041841838786063412
17093844 170 18338788043621724272
17357779 13 18338788026679147463
19591789 44 18410009931708134251
20775438 99 17121094438368206175
21141583 151 18411697703262438637
21634736 98 18410570674064001468
221357 26 18411697699342485711
221490 88 18411139126039522364
22393880 68 18190738627232927852
22907989 373 17973200346140242700
23379529 103 18202007594804787190
23419403 2 17703496796872386008
23559900 14 18341611543049219120
23566358 2 18411982468764321124
238 59 17976219553578124023
2871803 45 18335692832737868381
3014063 31 18410290320121227783
6287921 2 17544481216121896507

> <PUBCHEM_SHAPE_MULTIPOLES>
443.98
8.13
4.23
1.13
0.08
1.63
0.2
-3.4
-2.74
-1.52
0.36
0
0.19
0.73

> <PUBCHEM_SHAPE_SELFOVERLAP>
910.639

> <PUBCHEM_SHAPE_VOLUME>
254.2

> <PUBCHEM_COORDINATE_TYPE>
2
5
10

> <Energy>
43.3336

> <minimizedAffinity>
-9.30888

> <CNNscore>
0.3598149419

> <CNNaffinity>
6.4037156105

> <CNN_VS>
2.3041524887

> <CNNaffinity_variance>
0.0117693199

$$$$
2999413


 26 27  0  0  0  0  0  0  0  0999 V2000
  109.9810   13.2673   23.1588 O   0  0  0  0  0  0  0  0  0  0  0  0
  104.4407   14.6957   21.6267 O   0  0  0  0  0  0  0  0  0  0  0  0
  103.7737   12.7976   22.7613 O   0  0  0  0  0  0  0  0  0  0  0  0
  101.5851   15.4104   21.5726 O   0  0  0  0  0  0  0  0  0  0  0  0
  100.9111   17.6720   25.7324 O   0  0  0  0  0  0  0  0  0  0  0  0
  109.2037   14.4111   22.8064 C   0  0  0  0  0  0  0  0  0  0  0  0
  108.6416   15.0359   24.0915 C   0  0  0  0  0  0  0  0  0  0  0  0
  108.1448   13.9974   21.7728 C   0  0  0  0  0  0  0  0  0  0  0  0
  107.8148   14.0702   24.9540 C   0  0  0  0  0  0  0  0  0  0  0  0
  107.3172   15.1741   21.2502 C   0  0  0  0  0  0  0  0  0  0  0  0
  107.0689   14.7920   26.0833 C   0  0  0  0  0  0  0  0  0  0  0  0
  106.3284   14.7706   20.1487 C   0  0  0  0  0  0  0  0  0  0  0  0
  105.7900   15.4999   25.6154 C   0  0  0  0  0  0  0  0  0  0  0  0
  105.1596   13.9142   20.6565 C   0  0  0  0  0  0  0  0  0  0  0  0
  104.6166   14.5287   25.4161 C   0  0  0  0  0  0  0  0  0  0  0  0
  103.4276   15.2013   24.7650 C   0  0  0  0  0  0  0  0  0  0  0  0
  104.2169   13.5643   19.5076 C   0  0  0  0  0  0  0  0  0  0  0  0
  103.0514   14.9738   23.4242 C   0  0  0  0  0  0  0  0  0  0  0  0
  103.7717   14.0026   22.5799 C   0  0  0  0  0  0  0  0  0  0  0  0
  102.6754   16.1209   25.5175 C   0  0  0  0  0  0  0  0  0  0  0  0
  101.9543   15.6529   22.8687 C   0  0  0  0  0  0  0  0  0  0  0  0
  101.5946   16.7903   24.9475 C   0  0  0  0  0  0  0  0  0  0  0  0
  101.2255   16.5675   23.6263 C   0  0  0  0  0  0  0  0  0  0  0  0
  110.6521   13.5211   23.8115 H   0  0  0  0  0  0  0  0  0  0  0  0
  102.0686   14.7973   21.0547 H   0  0  0  0  0  0  0  0  0  0  0  0
  101.1743   17.8096   26.6211 H   0  0  0  0  0  0  0  0  0  0  0  0
  1  6  1  0
  1 24  1  0
  2 14  1  0
  2 19  1  0
  3 19  2  0
  4 21  1  0
  4 25  1  0
  5 22  1  0
  5 26  1  0
  6  7  1  0
  6  8  1  0
  7  9  1  0
  8 10  1  0
  9 11  1  0
 10 12  1  0
 11 13  1  0
 12 14  1  0
 13 15  1  0
 14 17  1  0
 15 16  1  0
 16 18  2  0
 16 20  1  0
 18 19  1  0
 18 21  1  0
 20 22  2  0
 21 23  2  0
 22 23  1  0
M  END
> <PUBCHEM_COMPOUND_CID>
2999413

> <PUBCHEM_CONFORMER_RMSD>
0.6

> <PUBCHEM_CONFORMER_DIVERSEORDER>
1
6
14
27
9
16
11
26
8
2
22
5
20
28
18
17
29
3
24
19
21
13
15
7
23
4
25
12
10

> <PUBCHEM_MMFF94_PARTIAL_CHARGES>
20
1 -0.68
14 0.28
15 0.14
16 -0.14
18 0.09
19 0.63
2 -0.43
20 -0.15
21 0.08
22 0.08
23 -0.15
3 -0.57
4 -0.53
45 0.4
46 0.15
47 0.15
48 0.45
49 0.45
5 -0.53
6 0.28

> <PUBCHEM_EFFECTIVE_ROTOR_COUNT>
2.2

> <PUBCHEM_PHARMACOPHORE_FEATURES>
6
1 1 acceptor
1 1 donor
1 3 acceptor
1 4 donor
1 5 donor
6 16 18 20 21 22 23 rings

> <PUBCHEM_HEAVY_ATOM_COUNT>
23

> <PUBCHEM_ATOM_DEF_STEREO_COUNT>
2

> <PUBCHEM_ATOM_UDEF_STEREO_COUNT>
0

> <PUBCHEM_BOND_DEF_STEREO_COUNT>
0

> <PUBCHEM_BOND_UDEF_STEREO_COUNT>
0

> <PUBCHEM_ISOTOPIC_ATOM_COUNT>
0

> <PUBCHEM_COMPONENT_COUNT>
1

> <PUBCHEM_CACTVS_TAUTO_COUNT>
25

> <PUBCHEM_CONFORMER_ID>
002DC47500000001

> <PUBCHEM_MMFF94_ENERGY>
51.6521

> <PUBCHEM_FEATURE_SELFOVERLAP>
30.446

> <PUBCHEM_SHAPE_FINGERPRINT>
104564 63 18340206271993051459
10498660 4 18187631549186102207
10577160 183 17606693423048979742
10616163 171 18266175029013727061
10759866 29 17750229218859711762
108634 29 18411143511243732574
1100329 8 17185877190433830119
11578080 2 17058915861662947194
116883 192 18412832382636582198
12011746 2 18335696144590423807
12054548 360 18337387261554875763
12156800 1 11695045847065978403
12553582 1 18337941355723699521
12788726 201 18339079272527017530
12954195 1 18196384628153038830
13402501 40 18410292523613913767
13533116 47 17911794988931237615
13941206 138 17823424798885047762
14178342 30 17618481208803059632
14251740 79 18268155262187636390
14251745 187 18265888240930317283
14251751 93 18337386020182837502
14251757 17 18340208496912958262
14251757 5 18336274478600052878
14289585 56 17025448677686211638
14363568 33 17831602116089395611
14790565 3 18338242566191680045
14931854 50 18192983829844991199
15081414 286 18267592488269592273
15210252 30 18041841838786063412
17093844 170 18338788043621724272
17357779 13 18338788026679147463
19591789 44 18410009931708134251
20775438 99 17121094438368206175
21141583 151 18411697703262438637
21634736 98 18410570674064001468
221357 26 18411697699342485711
221490 88 18411139126039522364
22393880 68 18190738627232927852
22907989 373 17973200346140242700
23379529 103 18202007594804787190
23419403 2 17703496796872386008
23559900 14 18341611543049219120
23566358 2 18411982468764321124
238 59 17976219553578124023
2871803 45 18335692832737868381
3014063 31 18410290320121227783
6287921 2 17544481216121896507

> <PUBCHEM_SHAPE_MULTIPOLES>
443.98
8.13
4.23
1.13
0.08
1.63
0.2
-3.4
-2.74
-1.52
0.36
0
0.19
0.73

> <PUBCHEM_SHAPE_SELFOVERLAP>
910.639

> <PUBCHEM_SHAPE_VOLUME>
254.2

> <PUBCHEM_COORDINATE_TYPE>
2
5
10

> <Energy>
43.3336

> <minimizedAffinity>
-9.60670

> <CNNscore>
0.3308736086

> <CNNaffinity>
6.8043136597

> <CNN_VS>
2.2513678074

> <CNNaffinity_variance>
0.1068663821

$$$$
2999413


 26 27  0  0  0  0  0  0  0  0999 V2000
   98.1031    8.5822   23.3636 O   0  0  0  0  0  0  0  0  0  0  0  0
  101.3224   13.1038   21.2967 O   0  0  0  0  0  0  0  0  0  0  0  0
  101.7761   13.6219   23.5014 O   0  0  0  0  0  0  0  0  0  0  0  0
  103.4490   15.0271   20.6280 O   0  0  0  0  0  0  0  0  0  0  0  0
  107.4424   12.4026   20.8206 O   0  0  0  0  0  0  0  0  0  0  0  0
   98.8243    8.9671   22.1938 C   0  0  0  0  0  0  0  0  0  0  0  0
  100.2642    8.4471   22.3133 C   0  0  0  0  0  0  0  0  0  0  0  0
   98.7000   10.4871   22.0070 C   0  0  0  0  0  0  0  0  0  0  0  0
  101.0019    8.9152   23.5768 C   0  0  0  0  0  0  0  0  0  0  0  0
   99.3571   10.9942   20.7209 C   0  0  0  0  0  0  0  0  0  0  0  0
  102.4996    8.5873   23.5311 C   0  0  0  0  0  0  0  0  0  0  0  0
   99.1463   12.4965   20.4910 C   0  0  0  0  0  0  0  0  0  0  0  0
  103.3125    9.5644   22.6710 C   0  0  0  0  0  0  0  0  0  0  0  0
   99.9227   13.3830   21.4752 C   0  0  0  0  0  0  0  0  0  0  0  0
  103.5914   10.8930   23.3899 C   0  0  0  0  0  0  0  0  0  0  0  0
  104.2131   11.9182   22.4667 C   0  0  0  0  0  0  0  0  0  0  0  0
   99.6713   14.8588   21.1753 C   0  0  0  0  0  0  0  0  0  0  0  0
  103.5092   13.0352   21.9688 C   0  0  0  0  0  0  0  0  0  0  0  0
  102.1179   13.3080   22.3746 C   0  0  0  0  0  0  0  0  0  0  0  0
  105.5467   11.7390   22.0576 C   0  0  0  0  0  0  0  0  0  0  0  0
  104.1343   13.9354   21.0900 C   0  0  0  0  0  0  0  0  0  0  0  0
  106.1479   12.6385   21.1798 C   0  0  0  0  0  0  0  0  0  0  0  0
  105.4537   13.7374   20.6880 C   0  0  0  0  0  0  0  0  0  0  0  0
   98.1770    7.6231   23.4881 H   0  0  0  0  0  0  0  0  0  0  0  0
  102.5614   15.1693   20.8923 H   0  0  0  0  0  0  0  0  0  0  0  0
  107.8948   11.6565   21.1620 H   0  0  0  0  0  0  0  0  0  0  0  0
  1  6  1  0
  1 24  1  0
  2 14  1  0
  2 19  1  0
  3 19  2  0
  4 21  1  0
  4 25  1  0
  5 22  1  0
  5 26  1  0
  6  7  1  0
  6  8  1  0
  7  9  1  0
  8 10  1  0
  9 11  1  0
 10 12  1  0
 11 13  1  0
 12 14  1  0
 13 15  1  0
 14 17  1  0
 15 16  1  0
 16 18  2  0
 16 20  1  0
 18 19  1  0
 18 21  1  0
 20 22  2  0
 21 23  2  0
 22 23  1  0
M  END
> <PUBCHEM_COMPOUND_CID>
2999413

> <PUBCHEM_CONFORMER_RMSD>
0.6

> <PUBCHEM_CONFORMER_DIVERSEORDER>
1
6
14
27
9
16
11
26
8
2
22
5
20
28
18
17
29
3
24
19
21
13
15
7
23
4
25
12
10

> <PUBCHEM_MMFF94_PARTIAL_CHARGES>
20
1 -0.68
14 0.28
15 0.14
16 -0.14
18 0.09
19 0.63
2 -0.43
20 -0.15
21 0.08
22 0.08
23 -0.15
3 -0.57
4 -0.53
45 0.4
46 0.15
47 0.15
48 0.45
49 0.45
5 -0.53
6 0.28

> <PUBCHEM_EFFECTIVE_ROTOR_COUNT>
2.2

> <PUBCHEM_PHARMACOPHORE_FEATURES>
6
1 1 acceptor
1 1 donor
1 3 acceptor
1 4 donor
1 5 donor
6 16 18 20 21 22 23 rings

> <PUBCHEM_HEAVY_ATOM_COUNT>
23

> <PUBCHEM_ATOM_DEF_STEREO_COUNT>
2

> <PUBCHEM_ATOM_UDEF_STEREO_COUNT>
0

> <PUBCHEM_BOND_DEF_STEREO_COUNT>
0

> <PUBCHEM_BOND_UDEF_STEREO_COUNT>
0

> <PUBCHEM_ISOTOPIC_ATOM_COUNT>
0

> <PUBCHEM_COMPONENT_COUNT>
1

> <PUBCHEM_CACTVS_TAUTO_COUNT>
25

> <PUBCHEM_CONFORMER_ID>
002DC47500000001

> <PUBCHEM_MMFF94_ENERGY>
51.6521

> <PUBCHEM_FEATURE_SELFOVERLAP>
30.446

> <PUBCHEM_SHAPE_FINGERPRINT>
104564 63 18340206271993051459
10498660 4 18187631549186102207
10577160 183 17606693423048979742
10616163 171 18266175029013727061
10759866 29 17750229218859711762
108634 29 18411143511243732574
1100329 8 17185877190433830119
11578080 2 17058915861662947194
116883 192 18412832382636582198
12011746 2 18335696144590423807
12054548 360 18337387261554875763
12156800 1 11695045847065978403
12553582 1 18337941355723699521
12788726 201 18339079272527017530
12954195 1 18196384628153038830
13402501 40 18410292523613913767
13533116 47 17911794988931237615
13941206 138 17823424798885047762
14178342 30 17618481208803059632
14251740 79 18268155262187636390
14251745 187 18265888240930317283
14251751 93 18337386020182837502
14251757 17 18340208496912958262
14251757 5 18336274478600052878
14289585 56 17025448677686211638
14363568 33 17831602116089395611
14790565 3 18338242566191680045
14931854 50 18192983829844991199
15081414 286 18267592488269592273
15210252 30 18041841838786063412
17093844 170 18338788043621724272
17357779 13 18338788026679147463
19591789 44 18410009931708134251
20775438 99 17121094438368206175
21141583 151 18411697703262438637
21634736 98 18410570674064001468
221357 26 18411697699342485711
221490 88 18411139126039522364
22393880 68 18190738627232927852
22907989 373 17973200346140242700
23379529 103 18202007594804787190
23419403 2 17703496796872386008
23559900 14 18341611543049219120
23566358 2 18411982468764321124
238 59 17976219553578124023
2871803 45 18335692832737868381
3014063 31 18410290320121227783
6287921 2 17544481216121896507

> <PUBCHEM_SHAPE_MULTIPOLES>
443.98
8.13
4.23
1.13
0.08
1.63
0.2
-3.4
-2.74
-1.52
0.36
0
0.19
0.73

> <PUBCHEM_SHAPE_SELFOVERLAP>
910.639

> <PUBCHEM_SHAPE_VOLUME>
254.2

> <PUBCHEM_COORDINATE_TYPE>
2
5
10

> <Energy>
43.3336

> <minimizedAffinity>
74.68167

> <CNNscore>
0.1740373969

> <CNNaffinity>
5.3564658165

> <CNN_VS>
0.9322253466

> <CNNaffinity_variance>
0.4989769757

$$$$
2999413


 26 27  0  0  0  0  0  0  0  0999 V2000
  103.7334   18.1607   26.0737 O   0  0  0  0  0  0  0  0  0  0  0  0
  107.1631   14.2564   23.2319 O   0  0  0  0  0  0  0  0  0  0  0  0
  106.9147   12.8887   25.0765 O   0  0  0  0  0  0  0  0  0  0  0  0
  108.2978   11.8914   21.8950 O   0  0  0  0  0  0  0  0  0  0  0  0
  104.4575    9.6220   20.1701 O   0  0  0  0  0  0  0  0  0  0  0  0
  104.1138   17.8015   24.7460 C   0  0  0  0  0  0  0  0  0  0  0  0
  103.1000   16.7829   24.2050 C   0  0  0  0  0  0  0  0  0  0  0  0
  105.5721   17.3179   24.7567 C   0  0  0  0  0  0  0  0  0  0  0  0
  102.9403   15.5274   25.0756 C   0  0  0  0  0  0  0  0  0  0  0  0
  106.1145   17.0002   23.3611 C   0  0  0  0  0  0  0  0  0  0  0  0
  102.1199   14.4356   24.3772 C   0  0  0  0  0  0  0  0  0  0  0  0
  107.5986   16.6113   23.3679 C   0  0  0  0  0  0  0  0  0  0  0  0
  102.9225   13.6381   23.3403 C   0  0  0  0  0  0  0  0  0  0  0  0
  107.8713   15.2412   24.0050 C   0  0  0  0  0  0  0  0  0  0  0  0
  103.8374   12.5853   23.9839 C   0  0  0  0  0  0  0  0  0  0  0  0
  104.7677   11.9485   22.9744 C   0  0  0  0  0  0  0  0  0  0  0  0
  109.3638   14.9219   23.9634 C   0  0  0  0  0  0  0  0  0  0  0  0
  106.1492   12.2293   22.9140 C   0  0  0  0  0  0  0  0  0  0  0  0
  106.7918   13.1306   23.8885 C   0  0  0  0  0  0  0  0  0  0  0  0
  104.2307   11.0563   22.0291 C   0  0  0  0  0  0  0  0  0  0  0  0
  106.9546   11.6278   21.9328 C   0  0  0  0  0  0  0  0  0  0  0  0
  105.0438   10.4747   21.0587 C   0  0  0  0  0  0  0  0  0  0  0  0
  106.4041   10.7529   20.9983 C   0  0  0  0  0  0  0  0  0  0  0  0
  102.8131   18.4672   26.0747 H   0  0  0  0  0  0  0  0  0  0  0  0
  108.6777   12.4782   22.5188 H   0  0  0  0  0  0  0  0  0  0  0  0
  103.5388    9.4462   20.2259 H   0  0  0  0  0  0  0  0  0  0  0  0
  1  6  1  0
  1 24  1  0
  2 14  1  0
  2 19  1  0
  3 19  2  0
  4 21  1  0
  4 25  1  0
  5 22  1  0
  5 26  1  0
  6  7  1  0
  6  8  1  0
  7  9  1  0
  8 10  1  0
  9 11  1  0
 10 12  1  0
 11 13  1  0
 12 14  1  0
 13 15  1  0
 14 17  1  0
 15 16  1  0
 16 18  2  0
 16 20  1  0
 18 19  1  0
 18 21  1  0
 20 22  2  0
 21 23  2  0
 22 23  1  0
M  END
> <PUBCHEM_COMPOUND_CID>
2999413

> <PUBCHEM_CONFORMER_RMSD>
0.6

> <PUBCHEM_CONFORMER_DIVERSEORDER>
1
6
14
27
9
16
11
26
8
2
22
5
20
28
18
17
29
3
24
19
21
13
15
7
23
4
25
12
10

> <PUBCHEM_MMFF94_PARTIAL_CHARGES>
20
1 -0.68
14 0.28
15 0.14
16 -0.14
18 0.09
19 0.63
2 -0.43
20 -0.15
21 0.08
22 0.08
23 -0.15
3 -0.57
4 -0.53
45 0.4
46 0.15
47 0.15
48 0.45
49 0.45
5 -0.53
6 0.28

> <PUBCHEM_EFFECTIVE_ROTOR_COUNT>
2.2

> <PUBCHEM_PHARMACOPHORE_FEATURES>
6
1 1 acceptor
1 1 donor
1 3 acceptor
1 4 donor
1 5 donor
6 16 18 20 21 22 23 rings

> <PUBCHEM_HEAVY_ATOM_COUNT>
23

> <PUBCHEM_ATOM_DEF_STEREO_COUNT>
2

> <PUBCHEM_ATOM_UDEF_STEREO_COUNT>
0

> <PUBCHEM_BOND_DEF_STEREO_COUNT>
0

> <PUBCHEM_BOND_UDEF_STEREO_COUNT>
0

> <PUBCHEM_ISOTOPIC_ATOM_COUNT>
0

> <PUBCHEM_COMPONENT_COUNT>
1

> <PUBCHEM_CACTVS_TAUTO_COUNT>
25

> <PUBCHEM_CONFORMER_ID>
002DC47500000001

> <PUBCHEM_MMFF94_ENERGY>
51.6521

> <PUBCHEM_FEATURE_SELFOVERLAP>
30.446

> <PUBCHEM_SHAPE_FINGERPRINT>
104564 63 18340206271993051459
10498660 4 18187631549186102207
10577160 183 17606693423048979742
10616163 171 18266175029013727061
10759866 29 17750229218859711762
108634 29 18411143511243732574
1100329 8 17185877190433830119
11578080 2 17058915861662947194
116883 192 18412832382636582198
12011746 2 18335696144590423807
12054548 360 18337387261554875763
12156800 1 11695045847065978403
12553582 1 18337941355723699521
12788726 201 18339079272527017530
12954195 1 18196384628153038830
13402501 40 18410292523613913767
13533116 47 17911794988931237615
13941206 138 17823424798885047762
14178342 30 17618481208803059632
14251740 79 18268155262187636390
14251745 187 18265888240930317283
14251751 93 18337386020182837502
14251757 17 18340208496912958262
14251757 5 18336274478600052878
14289585 56 17025448677686211638
14363568 33 17831602116089395611
14790565 3 18338242566191680045
14931854 50 18192983829844991199
15081414 286 18267592488269592273
15210252 30 18041841838786063412
17093844 170 18338788043621724272
17357779 13 18338788026679147463
19591789 44 18410009931708134251
20775438 99 17121094438368206175
21141583 151 18411697703262438637
21634736 98 18410570674064001468
221357 26 18411697699342485711
221490 88 18411139126039522364
22393880 68 18190738627232927852
22907989 373 17973200346140242700
23379529 103 18202007594804787190
23419403 2 17703496796872386008
23559900 14 18341611543049219120
23566358 2 18411982468764321124
238 59 17976219553578124023
2871803 45 18335692832737868381
3014063 31 18410290320121227783
6287921 2 17544481216121896507

> <PUBCHEM_SHAPE_MULTIPOLES>
443.98
8.13
4.23
1.13
0.08
1.63
0.2
-3.4
-2.74
-1.52
0.36
0
0.19
0.73

> <PUBCHEM_SHAPE_SELFOVERLAP>
910.639

> <PUBCHEM_SHAPE_VOLUME>
254.2

> <PUBCHEM_COORDINATE_TYPE>
2
5
10

> <Energy>
43.3336

> <minimizedAffinity>
0.55962

> <CNNscore>
0.1346118152

> <CNNaffinity>
5.3830599785

> <CNN_VS>
0.7246235013

> <CNNaffinity_variance>
0.2842921913

$$$$
2999413


 26 27  0  0  0  0  0  0  0  0999 V2000
  101.1299   17.3513   25.2378 O   0  0  0  0  0  0  0  0  0  0  0  0
  106.4058   14.7317   24.6180 O   0  0  0  0  0  0  0  0  0  0  0  0
  105.4802   12.9032   25.6835 O   0  0  0  0  0  0  0  0  0  0  0  0
  108.6471   12.9425   23.9518 O   0  0  0  0  0  0  0  0  0  0  0  0
  107.2311   10.8223   19.9055 O   0  0  0  0  0  0  0  0  0  0  0  0
  102.2848   17.4015   24.4009 C   0  0  0  0  0  0  0  0  0  0  0  0
  102.0645   16.4628   23.2058 C   0  0  0  0  0  0  0  0  0  0  0  0
  103.5292   17.0896   25.2462 C   0  0  0  0  0  0  0  0  0  0  0  0
  101.7454   15.0110   23.5936 C   0  0  0  0  0  0  0  0  0  0  0  0
  104.8389   17.2147   24.4640 C   0  0  0  0  0  0  0  0  0  0  0  0
  101.7846   14.0646   22.3871 C   0  0  0  0  0  0  0  0  0  0  0  0
  106.0824   16.9973   25.3362 C   0  0  0  0  0  0  0  0  0  0  0  0
  103.2065   13.6619   21.9729 C   0  0  0  0  0  0  0  0  0  0  0  0
  106.2627   15.5438   25.7966 C   0  0  0  0  0  0  0  0  0  0  0  0
  103.8027   12.5786   22.8842 C   0  0  0  0  0  0  0  0  0  0  0  0
  105.2680   12.3361   22.5939 C   0  0  0  0  0  0  0  0  0  0  0  0
  107.5234   15.4068   26.6469 C   0  0  0  0  0  0  0  0  0  0  0  0
  106.3052   12.7672   23.4479 C   0  0  0  0  0  0  0  0  0  0  0  0
  106.0149   13.4388   24.7284 C   0  0  0  0  0  0  0  0  0  0  0  0
  105.6211   11.6767   21.4029 C   0  0  0  0  0  0  0  0  0  0  0  0
  107.6485   12.5378   23.1068 C   0  0  0  0  0  0  0  0  0  0  0  0
  106.9591   11.4642   21.0778 C   0  0  0  0  0  0  0  0  0  0  0  0
  107.9805   11.8907   21.9182 C   0  0  0  0  0  0  0  0  0  0  0  0
  100.3397   17.5474   24.7105 H   0  0  0  0  0  0  0  0  0  0  0  0
  108.4344   13.3785   24.7534 H   0  0  0  0  0  0  0  0  0  0  0  0
  106.5296   10.5419   19.3512 H   0  0  0  0  0  0  0  0  0  0  0  0
  1  6  1  0
  1 24  1  0
  2 14  1  0
  2 19  1  0
  3 19  2  0
  4 21  1  0
  4 25  1  0
  5 22  1  0
  5 26  1  0
  6  7  1  0
  6  8  1  0
  7  9  1  0
  8 10  1  0
  9 11  1  0
 10 12  1  0
 11 13  1  0
 12 14  1  0
 13 15  1  0
 14 17  1  0
 15 16  1  0
 16 18  2  0
 16 20  1  0
 18 19  1  0
 18 21  1  0
 20 22  2  0
 21 23  2  0
 22 23  1  0
M  END
> <PUBCHEM_COMPOUND_CID>
2999413

> <PUBCHEM_CONFORMER_RMSD>
0.6

> <PUBCHEM_CONFORMER_DIVERSEORDER>
1
6
14
27
9
16
11
26
8
2
22
5
20
28
18
17
29
3
24
19
21
13
15
7
23
4
25
12
10

> <PUBCHEM_MMFF94_PARTIAL_CHARGES>
20
1 -0.68
14 0.28
15 0.14
16 -0.14
18 0.09
19 0.63
2 -0.43
20 -0.15
21 0.08
22 0.08
23 -0.15
3 -0.57
4 -0.53
45 0.4
46 0.15
47 0.15
48 0.45
49 0.45
5 -0.53
6 0.28

> <PUBCHEM_EFFECTIVE_ROTOR_COUNT>
2.2

> <PUBCHEM_PHARMACOPHORE_FEATURES>
6
1 1 acceptor
1 1 donor
1 3 acceptor
1 4 donor
1 5 donor
6 16 18 20 21 22 23 rings

> <PUBCHEM_HEAVY_ATOM_COUNT>
23

> <PUBCHEM_ATOM_DEF_STEREO_COUNT>
2

> <PUBCHEM_ATOM_UDEF_STEREO_COUNT>
0

> <PUBCHEM_BOND_DEF_STEREO_COUNT>
0

> <PUBCHEM_BOND_UDEF_STEREO_COUNT>
0

> <PUBCHEM_ISOTOPIC_ATOM_COUNT>
0

> <PUBCHEM_COMPONENT_COUNT>
1

> <PUBCHEM_CACTVS_TAUTO_COUNT>
25

> <PUBCHEM_CONFORMER_ID>
002DC47500000001

> <PUBCHEM_MMFF94_ENERGY>
51.6521

> <PUBCHEM_FEATURE_SELFOVERLAP>
30.446

> <PUBCHEM_SHAPE_FINGERPRINT>
104564 63 18340206271993051459
10498660 4 18187631549186102207
10577160 183 17606693423048979742
10616163 171 18266175029013727061
10759866 29 17750229218859711762
108634 29 18411143511243732574
1100329 8 17185877190433830119
11578080 2 17058915861662947194
116883 192 18412832382636582198
12011746 2 18335696144590423807
12054548 360 18337387261554875763
12156800 1 11695045847065978403
12553582 1 18337941355723699521
12788726 201 18339079272527017530
12954195 1 18196384628153038830
13402501 40 18410292523613913767
13533116 47 17911794988931237615
13941206 138 17823424798885047762
14178342 30 17618481208803059632
14251740 79 18268155262187636390
14251745 187 18265888240930317283
14251751 93 18337386020182837502
14251757 17 18340208496912958262
14251757 5 18336274478600052878
14289585 56 17025448677686211638
14363568 33 17831602116089395611
14790565 3 18338242566191680045
14931854 50 18192983829844991199
15081414 286 18267592488269592273
15210252 30 18041841838786063412
17093844 170 18338788043621724272
17357779 13 18338788026679147463
19591789 44 18410009931708134251
20775438 99 17121094438368206175
21141583 151 18411697703262438637
21634736 98 18410570674064001468
221357 26 18411697699342485711
221490 88 18411139126039522364
22393880 68 18190738627232927852
22907989 373 17973200346140242700
23379529 103 18202007594804787190
23419403 2 17703496796872386008
23559900 14 18341611543049219120
23566358 2 18411982468764321124
238 59 17976219553578124023
2871803 45 18335692832737868381
3014063 31 18410290320121227783
6287921 2 17544481216121896507

> <PUBCHEM_SHAPE_MULTIPOLES>
443.98
8.13
4.23
1.13
0.08
1.63
0.2
-3.4
-2.74
-1.52
0.36
0
0.19
0.73

> <PUBCHEM_SHAPE_SELFOVERLAP>
910.639

> <PUBCHEM_SHAPE_VOLUME>
254.2

> <PUBCHEM_COORDINATE_TYPE>
2
5
10

> <Energy>
43.3336

> <minimizedAffinity>
-5.46760

> <CNNscore>
0.1113702208

> <CNNaffinity>
5.7173914909

> <CNN_VS>
0.6367471814

> <CNNaffinity_variance>
0.0205513965

$$$$
2999413


 26 27  0  0  0  0  0  0  0  0999 V2000
  110.5339   13.6575   22.6039 O   0  0  0  0  0  0  0  0  0  0  0  0
  105.1757   14.1524   25.0793 O   0  0  0  0  0  0  0  0  0  0  0  0
  105.3618   16.4269   24.7227 O   0  0  0  0  0  0  0  0  0  0  0  0
  102.3445   14.6923   25.6802 O   0  0  0  0  0  0  0  0  0  0  0  0
  100.2401   14.5765   21.3871 O   0  0  0  0  0  0  0  0  0  0  0  0
  109.3531   12.8857   22.8204 C   0  0  0  0  0  0  0  0  0  0  0  0
  108.4279   13.0555   21.6067 C   0  0  0  0  0  0  0  0  0  0  0  0
  108.7323   13.2879   24.1670 C   0  0  0  0  0  0  0  0  0  0  0  0
  108.0648   14.5139   21.2886 C   0  0  0  0  0  0  0  0  0  0  0  0
  107.5105   12.4471   24.5452 C   0  0  0  0  0  0  0  0  0  0  0  0
  106.9497   14.6205   20.2408 C   0  0  0  0  0  0  0  0  0  0  0  0
  106.9536   12.7877   25.9337 C   0  0  0  0  0  0  0  0  0  0  0  0
  105.5474   14.3762   20.8145 C   0  0  0  0  0  0  0  0  0  0  0  0
  106.2780   14.1646   26.0033 C   0  0  0  0  0  0  0  0  0  0  0  0
  104.9982   15.5949   21.5713 C   0  0  0  0  0  0  0  0  0  0  0  0
  103.7110   15.2772   22.3008 C   0  0  0  0  0  0  0  0  0  0  0  0
  105.7413   14.4243   27.4090 C   0  0  0  0  0  0  0  0  0  0  0  0
  103.6336   15.1347   23.7025 C   0  0  0  0  0  0  0  0  0  0  0  0
  104.8127   15.3510   24.5614 C   0  0  0  0  0  0  0  0  0  0  0  0
  102.5381   15.0838   21.5492 C   0  0  0  0  0  0  0  0  0  0  0  0
  102.4135   14.8089   24.3176 C   0  0  0  0  0  0  0  0  0  0  0  0
  101.3384   14.7542   22.1762 C   0  0  0  0  0  0  0  0  0  0  0  0
  101.2629   14.6120   23.5566 C   0  0  0  0  0  0  0  0  0  0  0  0
  110.9316   13.4088   21.7549 H   0  0  0  0  0  0  0  0  0  0  0  0
  103.1124   14.8227   26.2010 H   0  0  0  0  0  0  0  0  0  0  0  0
  100.3096   14.6765   20.4580 H   0  0  0  0  0  0  0  0  0  0  0  0
  1  6  1  0
  1 24  1  0
  2 14  1  0
  2 19  1  0
  3 19  2  0
  4 21  1  0
  4 25  1  0
  5 22  1  0
  5 26  1  0
  6  7  1  0
  6  8  1  0
  7  9  1  0
  8 10  1  0
  9 11  1  0
 10 12  1  0
 11 13  1  0
 12 14  1  0
 13 15  1  0
 14 17  1  0
 15 16  1  0
 16 18  2  0
 16 20  1  0
 18 19  1  0
 18 21  1  0
 20 22  2  0
 21 23  2  0
 22 23  1  0
M  END
> <PUBCHEM_COMPOUND_CID>
2999413

> <PUBCHEM_CONFORMER_RMSD>
0.6

> <PUBCHEM_CONFORMER_DIVERSEORDER>
1
6
14
27
9
16
11
26
8
2
22
5
20
28
18
17
29
3
24
19
21
13
15
7
23
4
25
12
10

> <PUBCHEM_MMFF94_PARTIAL_CHARGES>
20
1 -0.68
14 0.28
15 0.14
16 -0.14
18 0.09
19 0.63
2 -0.43
20 -0.15
21 0.08
22 0.08
23 -0.15
3 -0.57
4 -0.53
45 0.4
46 0.15
47 0.15
48 0.45
49 0.45
5 -0.53
6 0.28

> <PUBCHEM_EFFECTIVE_ROTOR_COUNT>
2.2

> <PUBCHEM_PHARMACOPHORE_FEATURES>
6
1 1 acceptor
1 1 donor
1 3 acceptor
1 4 donor
1 5 donor
6 16 18 20 21 22 23 rings

> <PUBCHEM_HEAVY_ATOM_COUNT>
23

> <PUBCHEM_ATOM_DEF_STEREO_COUNT>
2

> <PUBCHEM_ATOM_UDEF_STEREO_COUNT>
0

> <PUBCHEM_BOND_DEF_STEREO_COUNT>
0

> <PUBCHEM_BOND_UDEF_STEREO_COUNT>
0

> <PUBCHEM_ISOTOPIC_ATOM_COUNT>
0

> <PUBCHEM_COMPONENT_COUNT>
1

> <PUBCHEM_CACTVS_TAUTO_COUNT>
25

> <PUBCHEM_CONFORMER_ID>
002DC47500000001

> <PUBCHEM_MMFF94_ENERGY>
51.6521

> <PUBCHEM_FEATURE_SELFOVERLAP>
30.446

> <PUBCHEM_SHAPE_FINGERPRINT>
104564 63 18340206271993051459
10498660 4 18187631549186102207
10577160 183 17606693423048979742
10616163 171 18266175029013727061
10759866 29 17750229218859711762
108634 29 18411143511243732574
1100329 8 17185877190433830119
11578080 2 17058915861662947194
116883 192 18412832382636582198
12011746 2 18335696144590423807
12054548 360 18337387261554875763
12156800 1 11695045847065978403
12553582 1 18337941355723699521
12788726 201 18339079272527017530
12954195 1 18196384628153038830
13402501 40 18410292523613913767
13533116 47 17911794988931237615
13941206 138 17823424798885047762
14178342 30 17618481208803059632
14251740 79 18268155262187636390
14251745 187 18265888240930317283
14251751 93 18337386020182837502
14251757 17 18340208496912958262
14251757 5 18336274478600052878
14289585 56 17025448677686211638
14363568 33 17831602116089395611
14790565 3 18338242566191680045
14931854 50 18192983829844991199
15081414 286 18267592488269592273
15210252 30 18041841838786063412
17093844 170 18338788043621724272
17357779 13 18338788026679147463
19591789 44 18410009931708134251
20775438 99 17121094438368206175
21141583 151 18411697703262438637
21634736 98 18410570674064001468
221357 26 18411697699342485711
221490 88 18411139126039522364
22393880 68 18190738627232927852
22907989 373 17973200346140242700
23379529 103 18202007594804787190
23419403 2 17703496796872386008
23559900 14 18341611543049219120
23566358 2 18411982468764321124
238 59 17976219553578124023
2871803 45 18335692832737868381
3014063 31 18410290320121227783
6287921 2 17544481216121896507

> <PUBCHEM_SHAPE_MULTIPOLES>
443.98
8.13
4.23
1.13
0.08
1.63
0.2
-3.4
-2.74
-1.52
0.36
0
0.19
0.73

> <PUBCHEM_SHAPE_SELFOVERLAP>
910.639

> <PUBCHEM_SHAPE_VOLUME>
254.2

> <PUBCHEM_COORDINATE_TYPE>
2
5
10

> <Energy>
43.3336

> <minimizedAffinity>
-0.32721

> <CNNscore>
0.0992619172

> <CNNaffinity>
4.9651618004

> <CNN_VS>
0.4928514659

> <CNNaffinity_variance>
0.2964912355

$$$$
2999413


 26 27  0  0  0  0  0  0  0  0999 V2000
  100.3300   16.6111   23.4038 O   0  0  0  0  0  0  0  0  0  0  0  0
  105.3341   14.0136   21.5889 O   0  0  0  0  0  0  0  0  0  0  0  0
  105.9635   16.0828   20.7782 O   0  0  0  0  0  0  0  0  0  0  0  0
  108.1262   13.2117   21.1094 O   0  0  0  0  0  0  0  0  0  0  0  0
  110.3786   14.5213   25.1199 O   0  0  0  0  0  0  0  0  0  0  0  0
  101.1563   15.4901   23.7158 C   0  0  0  0  0  0  0  0  0  0  0  0
  102.1718   15.9136   24.7870 C   0  0  0  0  0  0  0  0  0  0  0  0
  101.7748   14.9478   22.4182 C   0  0  0  0  0  0  0  0  0  0  0  0
  103.0339   17.1237   24.3966 C   0  0  0  0  0  0  0  0  0  0  0  0
  102.6040   13.6784   22.6276 C   0  0  0  0  0  0  0  0  0  0  0  0
  104.1932   17.3518   25.3747 C   0  0  0  0  0  0  0  0  0  0  0  0
  103.1384   13.0872   21.3165 C   0  0  0  0  0  0  0  0  0  0  0  0
  105.3807   16.4070   25.1450 C   0  0  0  0  0  0  0  0  0  0  0  0
  104.2366   13.9376   20.6623 C   0  0  0  0  0  0  0  0  0  0  0  0
  106.2551   16.8354   23.9569 C   0  0  0  0  0  0  0  0  0  0  0  0
  107.2980   15.7935   23.6151 C   0  0  0  0  0  0  0  0  0  0  0  0
  104.7232   13.2795   19.3733 C   0  0  0  0  0  0  0  0  0  0  0  0
  107.2172   14.9662   22.4749 C   0  0  0  0  0  0  0  0  0  0  0  0
  106.1223   15.1121   21.4977 C   0  0  0  0  0  0  0  0  0  0  0  0
  108.3869   15.6155   24.4872 C   0  0  0  0  0  0  0  0  0  0  0  0
  108.2031   13.9962   22.2291 C   0  0  0  0  0  0  0  0  0  0  0  0
  109.3515   14.6435   24.2308 C   0  0  0  0  0  0  0  0  0  0  0  0
  109.2705   13.8275   23.1087 C   0  0  0  0  0  0  0  0  0  0  0  0
   99.9358   16.9591   24.2189 H   0  0  0  0  0  0  0  0  0  0  0  0
  107.4124   13.3172   20.5116 H   0  0  0  0  0  0  0  0  0  0  0  0
  110.4170   15.0801   25.8710 H   0  0  0  0  0  0  0  0  0  0  0  0
  1  6  1  0
  1 24  1  0
  2 14  1  0
  2 19  1  0
  3 19  2  0
  4 21  1  0
  4 25  1  0
  5 22  1  0
  5 26  1  0
  6  7  1  0
  6  8  1  0
  7  9  1  0
  8 10  1  0
  9 11  1  0
 10 12  1  0
 11 13  1  0
 12 14  1  0
 13 15  1  0
 14 17  1  0
 15 16  1  0
 16 18  2  0
 16 20  1  0
 18 19  1  0
 18 21  1  0
 20 22  2  0
 21 23  2  0
 22 23  1  0
M  END
> <PUBCHEM_COMPOUND_CID>
2999413

> <PUBCHEM_CONFORMER_RMSD>
0.6

> <PUBCHEM_CONFORMER_DIVERSEORDER>
1
6
14
27
9
16
11
26
8
2
22
5
20
28
18
17
29
3
24
19
21
13
15
7
23
4
25
12
10

> <PUBCHEM_MMFF94_PARTIAL_CHARGES>
20
1 -0.68
14 0.28
15 0.14
16 -0.14
18 0.09
19 0.63
2 -0.43
20 -0.15
21 0.08
22 0.08
23 -0.15
3 -0.57
4 -0.53
45 0.4
46 0.15
47 0.15
48 0.45
49 0.45
5 -0.53
6 0.28

> <PUBCHEM_EFFECTIVE_ROTOR_COUNT>
2.2

> <PUBCHEM_PHARMACOPHORE_FEATURES>
6
1 1 acceptor
1 1 donor
1 3 acceptor
1 4 donor
1 5 donor
6 16 18 20 21 22 23 rings

> <PUBCHEM_HEAVY_ATOM_COUNT>
23

> <PUBCHEM_ATOM_DEF_STEREO_COUNT>
2

> <PUBCHEM_ATOM_UDEF_STEREO_COUNT>
0

> <PUBCHEM_BOND_DEF_STEREO_COUNT>
0

> <PUBCHEM_BOND_UDEF_STEREO_COUNT>
0

> <PUBCHEM_ISOTOPIC_ATOM_COUNT>
0

> <PUBCHEM_COMPONENT_COUNT>
1

> <PUBCHEM_CACTVS_TAUTO_COUNT>
25

> <PUBCHEM_CONFORMER_ID>
002DC47500000001

> <PUBCHEM_MMFF94_ENERGY>
51.6521

> <PUBCHEM_FEATURE_SELFOVERLAP>
30.446

> <PUBCHEM_SHAPE_FINGERPRINT>
104564 63 18340206271993051459
10498660 4 18187631549186102207
10577160 183 17606693423048979742
10616163 171 18266175029013727061
10759866 29 17750229218859711762
108634 29 18411143511243732574
1100329 8 17185877190433830119
11578080 2 17058915861662947194
116883 192 18412832382636582198
12011746 2 18335696144590423807
12054548 360 18337387261554875763
12156800 1 11695045847065978403
12553582 1 18337941355723699521
12788726 201 18339079272527017530
12954195 1 18196384628153038830
13402501 40 18410292523613913767
13533116 47 17911794988931237615
13941206 138 17823424798885047762
14178342 30 17618481208803059632
14251740 79 18268155262187636390
14251745 187 18265888240930317283
14251751 93 18337386020182837502
14251757 17 18340208496912958262
14251757 5 18336274478600052878
14289585 56 17025448677686211638
14363568 33 17831602116089395611
14790565 3 18338242566191680045
14931854 50 18192983829844991199
15081414 286 18267592488269592273
15210252 30 18041841838786063412
17093844 170 18338788043621724272
17357779 13 18338788026679147463
19591789 44 18410009931708134251
20775438 99 17121094438368206175
21141583 151 18411697703262438637
21634736 98 18410570674064001468
221357 26 18411697699342485711
221490 88 18411139126039522364
22393880 68 18190738627232927852
22907989 373 17973200346140242700
23379529 103 18202007594804787190
23419403 2 17703496796872386008
23559900 14 18341611543049219120
23566358 2 18411982468764321124
238 59 17976219553578124023
2871803 45 18335692832737868381
3014063 31 18410290320121227783
6287921 2 17544481216121896507

> <PUBCHEM_SHAPE_MULTIPOLES>
443.98
8.13
4.23
1.13
0.08
1.63
0.2
-3.4
-2.74
-1.52
0.36
0
0.19
0.73

> <PUBCHEM_SHAPE_SELFOVERLAP>
910.639

> <PUBCHEM_SHAPE_VOLUME>
254.2

> <PUBCHEM_COORDINATE_TYPE>
2
5
10

> <Energy>
43.3336

> <minimizedAffinity>
-5.60357

> <CNNscore>
0.0911005139

> <CNNaffinity>
5.4741969109

> <CNN_VS>
0.4987021387

> <CNNaffinity_variance>
0.4833247364

$$$$
2999413


 26 27  0  0  0  0  0  0  0  0999 V2000
  103.9994    8.5792   23.1617 O   0  0  0  0  0  0  0  0  0  0  0  0
  104.5368   14.4758   23.0085 O   0  0  0  0  0  0  0  0  0  0  0  0
  106.3743   14.2162   24.3838 O   0  0  0  0  0  0  0  0  0  0  0  0
  105.4499   17.2540   22.6672 O   0  0  0  0  0  0  0  0  0  0  0  0
  108.5835   16.9751   19.0650 O   0  0  0  0  0  0  0  0  0  0  0  0
  103.6636    9.6872   22.3272 C   0  0  0  0  0  0  0  0  0  0  0  0
  104.8011    9.9028   21.3185 C   0  0  0  0  0  0  0  0  0  0  0  0
  103.3464   10.9023   23.2123 C   0  0  0  0  0  0  0  0  0  0  0  0
  106.1817   10.1124   21.9589 C   0  0  0  0  0  0  0  0  0  0  0  0
  102.8755   12.1230   22.4180 C   0  0  0  0  0  0  0  0  0  0  0  0
  107.2318   10.5725   20.9400 C   0  0  0  0  0  0  0  0  0  0  0  0
  102.4679   13.3009   23.3127 C   0  0  0  0  0  0  0  0  0  0  0  0
  107.1405   12.0667   20.6014 C   0  0  0  0  0  0  0  0  0  0  0  0
  103.6526   13.9701   24.0240 C   0  0  0  0  0  0  0  0  0  0  0  0
  107.7578   12.9577   21.6899 C   0  0  0  0  0  0  0  0  0  0  0  0
  107.4835   14.4256   21.4448 C   0  0  0  0  0  0  0  0  0  0  0  0
  103.1687   15.1361   24.8829 C   0  0  0  0  0  0  0  0  0  0  0  0
  106.5630   15.1761   22.2066 C   0  0  0  0  0  0  0  0  0  0  0  0
  105.8449   14.5785   23.3477 C   0  0  0  0  0  0  0  0  0  0  0  0
  108.1524   15.0713   20.3894 C   0  0  0  0  0  0  0  0  0  0  0  0
  106.3304   16.5292   21.9094 C   0  0  0  0  0  0  0  0  0  0  0  0
  107.9036   16.4123   20.1049 C   0  0  0  0  0  0  0  0  0  0  0  0
  106.9954   17.1506   20.8543 C   0  0  0  0  0  0  0  0  0  0  0  0
  104.2010    7.8078   22.6093 H   0  0  0  0  0  0  0  0  0  0  0  0
  104.9976   16.8455   23.3788 H   0  0  0  0  0  0  0  0  0  0  0  0
  109.1920   16.4620   18.5707 H   0  0  0  0  0  0  0  0  0  0  0  0
  1  6  1  0
  1 24  1  0
  2 14  1  0
  2 19  1  0
  3 19  2  0
  4 21  1  0
  4 25  1  0
  5 22  1  0
  5 26  1  0
  6  7  1  0
  6  8  1  0
  7  9  1  0
  8 10  1  0
  9 11  1  0
 10 12  1  0
 11 13  1  0
 12 14  1  0
 13 15  1  0
 14 17  1  0
 15 16  1  0
 16 18  2  0
 16 20  1  0
 18 19  1  0
 18 21  1  0
 20 22  2  0
 21 23  2  0
 22 23  1  0
M  END
> <PUBCHEM_COMPOUND_CID>
2999413

> <PUBCHEM_CONFORMER_RMSD>
0.6

> <PUBCHEM_CONFORMER_DIVERSEORDER>
1
6
14
27
9
16
11
26
8
2
22
5
20
28
18
17
29
3
24
19
21
13
15
7
23
4
25
12
10

> <PUBCHEM_MMFF94_PARTIAL_CHARGES>
20
1 -0.68
14 0.28
15 0.14
16 -0.14
18 0.09
19 0.63
2 -0.43
20 -0.15
21 0.08
22 0.08
23 -0.15
3 -0.57
4 -0.53
45 0.4
46 0.15
47 0.15
48 0.45
49 0.45
5 -0.53
6 0.28

> <PUBCHEM_EFFECTIVE_ROTOR_COUNT>
2.2

> <PUBCHEM_PHARMACOPHORE_FEATURES>
6
1 1 acceptor
1 1 donor
1 3 acceptor
1 4 donor
1 5 donor
6 16 18 20 21 22 23 rings

> <PUBCHEM_HEAVY_ATOM_COUNT>
23

> <PUBCHEM_ATOM_DEF_STEREO_COUNT>
2

> <PUBCHEM_ATOM_UDEF_STEREO_COUNT>
0

> <PUBCHEM_BOND_DEF_STEREO_COUNT>
0

> <PUBCHEM_BOND_UDEF_STEREO_COUNT>
0

> <PUBCHEM_ISOTOPIC_ATOM_COUNT>
0

> <PUBCHEM_COMPONENT_COUNT>
1

> <PUBCHEM_CACTVS_TAUTO_COUNT>
25

> <PUBCHEM_CONFORMER_ID>
002DC47500000001

> <PUBCHEM_MMFF94_ENERGY>
51.6521

> <PUBCHEM_FEATURE_SELFOVERLAP>
30.446

> <PUBCHEM_SHAPE_FINGERPRINT>
104564 63 18340206271993051459
10498660 4 18187631549186102207
10577160 183 17606693423048979742
10616163 171 18266175029013727061
10759866 29 17750229218859711762
108634 29 18411143511243732574
1100329 8 17185877190433830119
11578080 2 17058915861662947194
116883 192 18412832382636582198
12011746 2 18335696144590423807
12054548 360 18337387261554875763
12156800 1 11695045847065978403
12553582 1 18337941355723699521
12788726 201 18339079272527017530
12954195 1 18196384628153038830
13402501 40 18410292523613913767
13533116 47 17911794988931237615
13941206 138 17823424798885047762
14178342 30 17618481208803059632
14251740 79 18268155262187636390
14251745 187 18265888240930317283
14251751 93 18337386020182837502
14251757 17 18340208496912958262
14251757 5 18336274478600052878
14289585 56 17025448677686211638
14363568 33 17831602116089395611
14790565 3 18338242566191680045
14931854 50 18192983829844991199
15081414 286 18267592488269592273
15210252 30 18041841838786063412
17093844 170 18338788043621724272
17357779 13 18338788026679147463
19591789 44 18410009931708134251
20775438 99 17121094438368206175
21141583 151 18411697703262438637
21634736 98 18410570674064001468
221357 26 18411697699342485711
221490 88 18411139126039522364
22393880 68 18190738627232927852
22907989 373 17973200346140242700
23379529 103 18202007594804787190
23419403 2 17703496796872386008
23559900 14 18341611543049219120
23566358 2 18411982468764321124
238 59 17976219553578124023
2871803 45 18335692832737868381
3014063 31 18410290320121227783
6287921 2 17544481216121896507

> <PUBCHEM_SHAPE_MULTIPOLES>
443.98
8.13
4.23
1.13
0.08
1.63
0.2
-3.4
-2.74
-1.52
0.36
0
0.19
0.73

> <PUBCHEM_SHAPE_SELFOVERLAP>
910.639

> <PUBCHEM_SHAPE_VOLUME>
254.2

> <PUBCHEM_COORDINATE_TYPE>
2
5
10

> <Energy>
43.3336

> <minimizedAffinity>
27.73789

> <CNNscore>
0.0903197303

> <CNNaffinity>
4.4879035950

> <CNN_VS>
0.4053462446

> <CNNaffinity_variance>
2.2919657230

$$$$
2999413


 26 27  0  0  0  0  0  0  0  0999 V2000
  101.6151   18.4916   24.4345 O   0  0  0  0  0  0  0  0  0  0  0  0
  104.2703   13.9480   21.7164 O   0  0  0  0  0  0  0  0  0  0  0  0
  106.1760   15.2524   21.6750 O   0  0  0  0  0  0  0  0  0  0  0  0
  106.0308   11.7241   20.9270 O   0  0  0  0  0  0  0  0  0  0  0  0
  107.7061   10.0802   25.0939 O   0  0  0  0  0  0  0  0  0  0  0  0
  101.5059   17.0738   24.3137 C   0  0  0  0  0  0  0  0  0  0  0  0
  102.3158   16.4224   25.4441 C   0  0  0  0  0  0  0  0  0  0  0  0
  101.9268   16.6585   22.8957 C   0  0  0  0  0  0  0  0  0  0  0  0
  103.7920   16.8452   25.4879 C   0  0  0  0  0  0  0  0  0  0  0  0
  101.7518   15.1619   22.6265 C   0  0  0  0  0  0  0  0  0  0  0  0
  104.6139   15.9886   26.4593 C   0  0  0  0  0  0  0  0  0  0  0  0
  102.0813   14.7694   21.1803 C   0  0  0  0  0  0  0  0  0  0  0  0
  105.0030   14.6190   25.8865 C   0  0  0  0  0  0  0  0  0  0  0  0
  103.5770   14.8590   20.8455 C   0  0  0  0  0  0  0  0  0  0  0  0
  106.1842   14.7019   24.9080 C   0  0  0  0  0  0  0  0  0  0  0  0
  106.4273   13.3873   24.1990 C   0  0  0  0  0  0  0  0  0  0  0  0
  103.8247   14.4431   19.3975 C   0  0  0  0  0  0  0  0  0  0  0  0
  106.1055   13.1716   22.8422 C   0  0  0  0  0  0  0  0  0  0  0  0
  105.5592   14.2537   22.0023 C   0  0  0  0  0  0  0  0  0  0  0  0
  106.9718   12.3159   24.9295 C   0  0  0  0  0  0  0  0  0  0  0  0
  106.3279   11.9175   22.2496 C   0  0  0  0  0  0  0  0  0  0  0  0
  107.1788   11.0770   24.3266 C   0  0  0  0  0  0  0  0  0  0  0  0
  106.8600   10.8644   22.9907 C   0  0  0  0  0  0  0  0  0  0  0  0
  101.3508   18.7613   25.3279 H   0  0  0  0  0  0  0  0  0  0  0  0
  105.6726   12.4258   20.4198 H   0  0  0  0  0  0  0  0  0  0  0  0
  107.9150   10.2417   25.9929 H   0  0  0  0  0  0  0  0  0  0  0  0
  1  6  1  0
  1 24  1  0
  2 14  1  0
  2 19  1  0
  3 19  2  0
  4 21  1  0
  4 25  1  0
  5 22  1  0
  5 26  1  0
  6  7  1  0
  6  8  1  0
  7  9  1  0
  8 10  1  0
  9 11  1  0
 10 12  1  0
 11 13  1  0
 12 14  1  0
 13 15  1  0
 14 17  1  0
 15 16  1  0
 16 18  2  0
 16 20  1  0
 18 19  1  0
 18 21  1  0
 20 22  2  0
 21 23  2  0
 22 23  1  0
M  END
> <PUBCHEM_COMPOUND_CID>
2999413

> <PUBCHEM_CONFORMER_RMSD>
0.6

> <PUBCHEM_CONFORMER_DIVERSEORDER>
1
6
14
27
9
16
11
26
8
2
22
5
20
28
18
17
29
3
24
19
21
13
15
7
23
4
25
12
10

> <PUBCHEM_MMFF94_PARTIAL_CHARGES>
20
1 -0.68
14 0.28
15 0.14
16 -0.14
18 0.09
19 0.63
2 -0.43
20 -0.15
21 0.08
22 0.08
23 -0.15
3 -0.57
4 -0.53
45 0.4
46 0.15
47 0.15
48 0.45
49 0.45
5 -0.53
6 0.28

> <PUBCHEM_EFFECTIVE_ROTOR_COUNT>
2.2

> <PUBCHEM_PHARMACOPHORE_FEATURES>
6
1 1 acceptor
1 1 donor
1 3 acceptor
1 4 donor
1 5 donor
6 16 18 20 21 22 23 rings

> <PUBCHEM_HEAVY_ATOM_COUNT>
23

> <PUBCHEM_ATOM_DEF_STEREO_COUNT>
2

> <PUBCHEM_ATOM_UDEF_STEREO_COUNT>
0

> <PUBCHEM_BOND_DEF_STEREO_COUNT>
0

> <PUBCHEM_BOND_UDEF_STEREO_COUNT>
0

> <PUBCHEM_ISOTOPIC_ATOM_COUNT>
0

> <PUBCHEM_COMPONENT_COUNT>
1

> <PUBCHEM_CACTVS_TAUTO_COUNT>
25

> <PUBCHEM_CONFORMER_ID>
002DC47500000001

> <PUBCHEM_MMFF94_ENERGY>
51.6521

> <PUBCHEM_FEATURE_SELFOVERLAP>
30.446

> <PUBCHEM_SHAPE_FINGERPRINT>
104564 63 18340206271993051459
10498660 4 18187631549186102207
10577160 183 17606693423048979742
10616163 171 18266175029013727061
10759866 29 17750229218859711762
108634 29 18411143511243732574
1100329 8 17185877190433830119
11578080 2 17058915861662947194
116883 192 18412832382636582198
12011746 2 18335696144590423807
12054548 360 18337387261554875763
12156800 1 11695045847065978403
12553582 1 18337941355723699521
12788726 201 18339079272527017530
12954195 1 18196384628153038830
13402501 40 18410292523613913767
13533116 47 17911794988931237615
13941206 138 17823424798885047762
14178342 30 17618481208803059632
14251740 79 18268155262187636390
14251745 187 18265888240930317283
14251751 93 18337386020182837502
14251757 17 18340208496912958262
14251757 5 18336274478600052878
14289585 56 17025448677686211638
14363568 33 17831602116089395611
14790565 3 18338242566191680045
14931854 50 18192983829844991199
15081414 286 18267592488269592273
15210252 30 18041841838786063412
17093844 170 18338788043621724272
17357779 13 18338788026679147463
19591789 44 18410009931708134251
20775438 99 17121094438368206175
21141583 151 18411697703262438637
21634736 98 18410570674064001468
221357 26 18411697699342485711
221490 88 18411139126039522364
22393880 68 18190738627232927852
22907989 373 17973200346140242700
23379529 103 18202007594804787190
23419403 2 17703496796872386008
23559900 14 18341611543049219120
23566358 2 18411982468764321124
238 59 17976219553578124023
2871803 45 18335692832737868381
3014063 31 18410290320121227783
6287921 2 17544481216121896507

> <PUBCHEM_SHAPE_MULTIPOLES>
443.98
8.13
4.23
1.13
0.08
1.63
0.2
-3.4
-2.74
-1.52
0.36
0
0.19
0.73

> <PUBCHEM_SHAPE_SELFOVERLAP>
910.639

> <PUBCHEM_SHAPE_VOLUME>
254.2

> <PUBCHEM_COORDINATE_TYPE>
2
5
10

> <Energy>
43.3336

> <minimizedAffinity>
-6.57866

> <CNNscore>
0.0844588056

> <CNNaffinity>
5.2185001373

> <CNN_VS>
0.4407482743

> <CNNaffinity_variance>
0.2588581741

$$$$
