5284645


 26 27  0  0  0  0  0  0  0  0999 V2000
   26.9431    4.1629   11.1015 O   0  0  0  0  0  0  0  0  0  0  0  0
   22.6988    2.1317    7.3602 O   0  0  0  0  0  0  0  0  0  0  0  0
   21.0957    3.7477    7.7133 O   0  0  0  0  0  0  0  0  0  0  0  0
   19.9532    3.5400    5.1135 O   0  0  0  0  0  0  0  0  0  0  0  0
   22.9856    4.8837    1.7706 O   0  0  0  0  0  0  0  0  0  0  0  0
   24.5887    3.6712   11.0353 C   0  0  0  0  0  0  0  0  0  0  0  0
   25.8309    4.0520   10.2116 C   0  0  0  0  0  0  0  0  0  0  0  0
   23.3834    3.2449   10.1928 C   0  0  0  0  0  0  0  0  0  0  0  0
   25.6656    5.3857    9.4669 C   0  0  0  0  0  0  0  0  0  0  0  0
   23.5419    1.8404    9.6011 C   0  0  0  0  0  0  0  0  0  0  0  0
   26.8118    5.6912    8.4910 C   0  0  0  0  0  0  0  0  0  0  0  0
   22.4172    1.4897    8.6214 C   0  0  0  0  0  0  0  0  0  0  0  0
   26.8715    4.7698    7.2670 C   0  0  0  0  0  0  0  0  0  0  0  0
   22.3884   -0.0102    8.3424 C   0  0  0  0  0  0  0  0  0  0  0  0
   25.6510    4.8715    6.3930 C   0  0  0  0  0  0  0  0  0  0  0  0
   22.3248    3.6730    5.6861 C   0  0  0  0  0  0  0  0  0  0  0  0
   23.6418    3.9614    5.2759 C   0  0  0  0  0  0  0  0  0  0  0  0
   21.9945    3.2403    7.0599 C   0  0  0  0  0  0  0  0  0  0  0  0
   24.8131    3.8485    6.1598 C   0  0  0  0  0  0  0  0  0  0  0  0
   21.2580    3.8147    4.7842 C   0  0  0  0  0  0  0  0  0  0  0  0
   23.8569    4.3623    3.9426 C   0  0  0  0  0  0  0  0  0  0  0  0
   22.7861    4.4930    3.0613 C   0  0  0  0  0  0  0  0  0  0  0  0
   21.4861    4.2256    3.4739 C   0  0  0  0  0  0  0  0  0  0  0  0
   27.0596    3.3269   11.5791 H   0  0  0  0  0  0  0  0  0  0  0  0
   19.7382    3.2592    5.9812 H   0  0  0  0  0  0  0  0  0  0  0  0
   23.8519    5.0702    1.4662 H   0  0  0  0  0  0  0  0  0  0  0  0
  1  7  1  0
  1 24  1  0
  2 12  1  0
  2 18  1  0
  3 18  2  0
  4 20  1  0
  4 25  1  0
  5 22  1  0
  5 26  1  0
  6  7  1  0
  6  8  1  0
  7  9  1  0
  8 10  1  0
  9 11  1  0
 10 12  1  0
 11 13  1  0
 12 14  1  0
 13 15  1  0
 15 19  2  0
 16 17  2  0
 16 18  1  0
 16 20  1  0
 17 19  1  0
 17 21  1  0
 20 23  2  0
 21 22  2  0
 22 23  1  0
M  END
> <PUBCHEM_COMPOUND_CID>
5284645

> <PUBCHEM_CONFORMER_RMSD>
0.6

> <PUBCHEM_CONFORMER_DIVERSEORDER>
1

> <PUBCHEM_MMFF94_PARTIAL_CHARGES>
24
1 -0.68
12 0.28
13 0.14
15 -0.29
16 0.09
17 0.03
18 0.63
19 -0.18
2 -0.43
20 0.08
21 -0.15
22 0.08
23 -0.15
3 -0.57
4 -0.53
41 0.4
42 0.15
43 0.15
44 0.15
45 0.15
46 0.45
47 0.45
5 -0.53
7 0.28

> <PUBCHEM_EFFECTIVE_ROTOR_COUNT>
1.8

> <PUBCHEM_PHARMACOPHORE_FEATURES>
6
1 1 acceptor
1 1 donor
1 3 acceptor
1 4 donor
1 5 donor
6 16 17 20 21 22 23 rings

> <PUBCHEM_HEAVY_ATOM_COUNT>
23

> <PUBCHEM_ATOM_DEF_STEREO_COUNT>
2

> <PUBCHEM_ATOM_UDEF_STEREO_COUNT>
0

> <PUBCHEM_BOND_DEF_STEREO_COUNT>
1

> <PUBCHEM_BOND_UDEF_STEREO_COUNT>
0

> <PUBCHEM_ISOTOPIC_ATOM_COUNT>
0

> <PUBCHEM_COMPONENT_COUNT>
1

> <PUBCHEM_CACTVS_TAUTO_COUNT>
12

> <PUBCHEM_CONFORMER_ID>
0050A32500000001

> <PUBCHEM_MMFF94_ENERGY>
56.9454

> <PUBCHEM_FEATURE_SELFOVERLAP>
30.446

> <PUBCHEM_SHAPE_FINGERPRINT>
1100329 8 17836085568009856625
11112241 14 16986289841619931392
11578080 2 16734366241365874279
12166972 35 17967822613537111974
12403259 226 18337670931286267939
12506688 2 18412827975731104564
12596599 1 17914633677902020662
12788726 201 17627507133988941776
13140716 1 18267582403486064363
13402501 40 18336828697047978282
13533116 47 18056766653224983451
14251757 17 18262232209996353437
14787075 74 18336834185758012246
14790565 3 17545883724776523813
14866123 147 17767415573386001256
14931854 50 18336551491284682350
15196674 1 18334859415888043750
15322687 12 17104511174142344237
19591789 44 18337109089556020683
19930381 70 18413393137471364090
20028762 73 17044582808783771111
20691752 17 17022900138402631537
20715895 44 17609482839964013085
20832881 197 18343306989256920753
20905425 154 18409167675446349782
22182313 1 18041826412212926463
23227448 37 18189331260828617463
23352939 185 18342462530415398027
23557571 272 17910374109985112994
23559900 14 18335978778501818797
238 59 18196346307921625956
2748010 2 18117544331403189953
3323516 105 18411138077713944259
350125 39 18336268960321048513
3524813 1 18334011700965522918
3680242 22 18116995477305685354
463206 1 18269557311053435927
5265222 85 17471861776259798556
57527585 103 17390829632986241626
59755656 215 18188762977069237031
6443956 14 18340493347406701473
81228 2 17476913559209296171

> <PUBCHEM_SHAPE_MULTIPOLES>
443.98
8.21
4.09
1.18
1.54
0.84
-0.09
-3.84
1.51
-1.8
-1.33
-0.11
0.8
1.1

> <PUBCHEM_SHAPE_SELFOVERLAP>
916.908

> <PUBCHEM_SHAPE_VOLUME>
252.3

> <PUBCHEM_COORDINATE_TYPE>
2
5
10

> <Energy>
40.5071

> <minimizedAffinity>
-12.03919

> <CNNscore>
0.9037448764

> <CNNaffinity>
6.9351773262

> <CNN_VS>
6.2676310539

> <CNNaffinity_variance>
0.1580443084

$$$$
5284645


 26 27  0  0  0  0  0  0  0  0999 V2000
   25.2620    3.5816   12.0545 O   0  0  0  0  0  0  0  0  0  0  0  0
   24.7230    5.7801    6.4856 O   0  0  0  0  0  0  0  0  0  0  0  0
   25.7508    4.0798    5.3197 O   0  0  0  0  0  0  0  0  0  0  0  0
   24.2576    4.4773    2.9281 O   0  0  0  0  0  0  0  0  0  0  0  0
   19.6835    3.5542    3.5618 O   0  0  0  0  0  0  0  0  0  0  0  0
   26.5620    3.9885   10.0711 C   0  0  0  0  0  0  0  0  0  0  0  0
   25.1553    3.7302   10.6376 C   0  0  0  0  0  0  0  0  0  0  0  0
   26.5763    4.4433    8.6092 C   0  0  0  0  0  0  0  0  0  0  0  0
   24.5046    2.4636   10.0607 C   0  0  0  0  0  0  0  0  0  0  0  0
   26.1337    5.9002    8.4382 C   0  0  0  0  0  0  0  0  0  0  0  0
   23.0326    2.2902   10.4642 C   0  0  0  0  0  0  0  0  0  0  0  0
   25.9826    6.2951    6.9655 C   0  0  0  0  0  0  0  0  0  0  0  0
   22.0764    3.3195    9.8501 C   0  0  0  0  0  0  0  0  0  0  0  0
   25.9114    7.8118    6.8147 C   0  0  0  0  0  0  0  0  0  0  0  0
   22.0225    3.2510    8.3480 C   0  0  0  0  0  0  0  0  0  0  0  0
   23.4006    4.3825    5.2143 C   0  0  0  0  0  0  0  0  0  0  0  0
   22.3027    4.1817    6.0747 C   0  0  0  0  0  0  0  0  0  0  0  0
   24.7602    4.6773    5.7124 C   0  0  0  0  0  0  0  0  0  0  0  0
   22.3931    4.2587    7.5416 C   0  0  0  0  0  0  0  0  0  0  0  0
   23.2346    4.2824    3.8236 C   0  0  0  0  0  0  0  0  0  0  0  0
   21.0436    3.9107    5.5039 C   0  0  0  0  0  0  0  0  0  0  0  0
   20.8978    3.8196    4.1216 C   0  0  0  0  0  0  0  0  0  0  0  0
   21.9863    3.9998    3.2763 C   0  0  0  0  0  0  0  0  0  0  0  0
   25.6717    4.3751   12.4329 H   0  0  0  0  0  0  0  0  0  0  0  0
   25.1206    4.6707    3.2375 H   0  0  0  0  0  0  0  0  0  0  0  0
   18.9331    3.4285    4.1085 H   0  0  0  0  0  0  0  0  0  0  0  0
  1  7  1  0
  1 24  1  0
  2 12  1  0
  2 18  1  0
  3 18  2  0
  4 20  1  0
  4 25  1  0
  5 22  1  0
  5 26  1  0
  6  7  1  0
  6  8  1  0
  7  9  1  0
  8 10  1  0
  9 11  1  0
 10 12  1  0
 11 13  1  0
 12 14  1  0
 13 15  1  0
 15 19  2  0
 16 17  2  0
 16 18  1  0
 16 20  1  0
 17 19  1  0
 17 21  1  0
 20 23  2  0
 21 22  2  0
 22 23  1  0
M  END
> <PUBCHEM_COMPOUND_CID>
5284645

> <PUBCHEM_CONFORMER_RMSD>
0.6

> <PUBCHEM_CONFORMER_DIVERSEORDER>
1

> <PUBCHEM_MMFF94_PARTIAL_CHARGES>
24
1 -0.68
12 0.28
13 0.14
15 -0.29
16 0.09
17 0.03
18 0.63
19 -0.18
2 -0.43
20 0.08
21 -0.15
22 0.08
23 -0.15
3 -0.57
4 -0.53
41 0.4
42 0.15
43 0.15
44 0.15
45 0.15
46 0.45
47 0.45
5 -0.53
7 0.28

> <PUBCHEM_EFFECTIVE_ROTOR_COUNT>
1.8

> <PUBCHEM_PHARMACOPHORE_FEATURES>
6
1 1 acceptor
1 1 donor
1 3 acceptor
1 4 donor
1 5 donor
6 16 17 20 21 22 23 rings

> <PUBCHEM_HEAVY_ATOM_COUNT>
23

> <PUBCHEM_ATOM_DEF_STEREO_COUNT>
2

> <PUBCHEM_ATOM_UDEF_STEREO_COUNT>
0

> <PUBCHEM_BOND_DEF_STEREO_COUNT>
1

> <PUBCHEM_BOND_UDEF_STEREO_COUNT>
0

> <PUBCHEM_ISOTOPIC_ATOM_COUNT>
0

> <PUBCHEM_COMPONENT_COUNT>
1

> <PUBCHEM_CACTVS_TAUTO_COUNT>
12

> <PUBCHEM_CONFORMER_ID>
0050A32500000001

> <PUBCHEM_MMFF94_ENERGY>
56.9454

> <PUBCHEM_FEATURE_SELFOVERLAP>
30.446

> <PUBCHEM_SHAPE_FINGERPRINT>
1100329 8 17836085568009856625
11112241 14 16986289841619931392
11578080 2 16734366241365874279
12166972 35 17967822613537111974
12403259 226 18337670931286267939
12506688 2 18412827975731104564
12596599 1 17914633677902020662
12788726 201 17627507133988941776
13140716 1 18267582403486064363
13402501 40 18336828697047978282
13533116 47 18056766653224983451
14251757 17 18262232209996353437
14787075 74 18336834185758012246
14790565 3 17545883724776523813
14866123 147 17767415573386001256
14931854 50 18336551491284682350
15196674 1 18334859415888043750
15322687 12 17104511174142344237
19591789 44 18337109089556020683
19930381 70 18413393137471364090
20028762 73 17044582808783771111
20691752 17 17022900138402631537
20715895 44 17609482839964013085
20832881 197 18343306989256920753
20905425 154 18409167675446349782
22182313 1 18041826412212926463
23227448 37 18189331260828617463
23352939 185 18342462530415398027
23557571 272 17910374109985112994
23559900 14 18335978778501818797
238 59 18196346307921625956
2748010 2 18117544331403189953
3323516 105 18411138077713944259
350125 39 18336268960321048513
3524813 1 18334011700965522918
3680242 22 18116995477305685354
463206 1 18269557311053435927
5265222 85 17471861776259798556
57527585 103 17390829632986241626
59755656 215 18188762977069237031
6443956 14 18340493347406701473
81228 2 17476913559209296171

> <PUBCHEM_SHAPE_MULTIPOLES>
443.98
8.21
4.09
1.18
1.54
0.84
-0.09
-3.84
1.51
-1.8
-1.33
-0.11
0.8
1.1

> <PUBCHEM_SHAPE_SELFOVERLAP>
916.908

> <PUBCHEM_SHAPE_VOLUME>
252.3

> <PUBCHEM_COORDINATE_TYPE>
2
5
10

> <Energy>
40.5071

> <minimizedAffinity>
-9.79009

> <CNNscore>
0.6144340634

> <CNNaffinity>
6.6182003021

> <CNN_VS>
4.0664477348

> <CNNaffinity_variance>
0.2229503989

$$$$
5284645


 26 27  0  0  0  0  0  0  0  0999 V2000
   25.6760    5.9435    9.9616 O   0  0  0  0  0  0  0  0  0  0  0  0
   21.7506    2.4588    7.0316 O   0  0  0  0  0  0  0  0  0  0  0  0
   19.9776    3.9247    6.9124 O   0  0  0  0  0  0  0  0  0  0  0  0
   18.9180    2.8414    4.5017 O   0  0  0  0  0  0  0  0  0  0  0  0
   21.8593    3.4634    0.8771 O   0  0  0  0  0  0  0  0  0  0  0  0
   23.3891    5.2033   10.0698 C   0  0  0  0  0  0  0  0  0  0  0  0
   24.6007    5.4571    9.1565 C   0  0  0  0  0  0  0  0  0  0  0  0
   22.2538    4.4212    9.4038 C   0  0  0  0  0  0  0  0  0  0  0  0
   24.3100    6.4876    8.0546 C   0  0  0  0  0  0  0  0  0  0  0  0
   22.5730    2.9306    9.2494 C   0  0  0  0  0  0  0  0  0  0  0  0
   25.4373    6.6150    7.0189 C   0  0  0  0  0  0  0  0  0  0  0  0
   21.5126    2.1888    8.4290 C   0  0  0  0  0  0  0  0  0  0  0  0
   25.6200    5.3869    6.1192 C   0  0  0  0  0  0  0  0  0  0  0  0
   21.6493    0.6791    8.6036 C   0  0  0  0  0  0  0  0  0  0  0  0
   24.4141    5.0955    5.2680 C   0  0  0  0  0  0  0  0  0  0  0  0
   21.2497    3.3913    4.9828 C   0  0  0  0  0  0  0  0  0  0  0  0
   22.5368    3.6868    4.4909 C   0  0  0  0  0  0  0  0  0  0  0  0
   20.9388    3.3478    6.4267 C   0  0  0  0  0  0  0  0  0  0  0  0
   23.6948    3.9651    5.3555 C   0  0  0  0  0  0  0  0  0  0  0  0
   20.1928    3.1463    4.0913 C   0  0  0  0  0  0  0  0  0  0  0  0
   22.7357    3.6994    3.0963 C   0  0  0  0  0  0  0  0  0  0  0  0
   21.6757    3.4495    2.2278 C   0  0  0  0  0  0  0  0  0  0  0  0
   20.4032    3.1766    2.7156 C   0  0  0  0  0  0  0  0  0  0  0  0
   25.8708    5.3021   10.6626 H   0  0  0  0  0  0  0  0  0  0  0  0
   18.7161    2.8061    5.4161 H   0  0  0  0  0  0  0  0  0  0  0  0
   22.7070    3.6446    0.5214 H   0  0  0  0  0  0  0  0  0  0  0  0
  1  7  1  0
  1 24  1  0
  2 12  1  0
  2 18  1  0
  3 18  2  0
  4 20  1  0
  4 25  1  0
  5 22  1  0
  5 26  1  0
  6  7  1  0
  6  8  1  0
  7  9  1  0
  8 10  1  0
  9 11  1  0
 10 12  1  0
 11 13  1  0
 12 14  1  0
 13 15  1  0
 15 19  2  0
 16 17  2  0
 16 18  1  0
 16 20  1  0
 17 19  1  0
 17 21  1  0
 20 23  2  0
 21 22  2  0
 22 23  1  0
M  END
> <PUBCHEM_COMPOUND_CID>
5284645

> <PUBCHEM_CONFORMER_RMSD>
0.6

> <PUBCHEM_CONFORMER_DIVERSEORDER>
1

> <PUBCHEM_MMFF94_PARTIAL_CHARGES>
24
1 -0.68
12 0.28
13 0.14
15 -0.29
16 0.09
17 0.03
18 0.63
19 -0.18
2 -0.43
20 0.08
21 -0.15
22 0.08
23 -0.15
3 -0.57
4 -0.53
41 0.4
42 0.15
43 0.15
44 0.15
45 0.15
46 0.45
47 0.45
5 -0.53
7 0.28

> <PUBCHEM_EFFECTIVE_ROTOR_COUNT>
1.8

> <PUBCHEM_PHARMACOPHORE_FEATURES>
6
1 1 acceptor
1 1 donor
1 3 acceptor
1 4 donor
1 5 donor
6 16 17 20 21 22 23 rings

> <PUBCHEM_HEAVY_ATOM_COUNT>
23

> <PUBCHEM_ATOM_DEF_STEREO_COUNT>
2

> <PUBCHEM_ATOM_UDEF_STEREO_COUNT>
0

> <PUBCHEM_BOND_DEF_STEREO_COUNT>
1

> <PUBCHEM_BOND_UDEF_STEREO_COUNT>
0

> <PUBCHEM_ISOTOPIC_ATOM_COUNT>
0

> <PUBCHEM_COMPONENT_COUNT>
1

> <PUBCHEM_CACTVS_TAUTO_COUNT>
12

> <PUBCHEM_CONFORMER_ID>
0050A32500000001

> <PUBCHEM_MMFF94_ENERGY>
56.9454

> <PUBCHEM_FEATURE_SELFOVERLAP>
30.446

> <PUBCHEM_SHAPE_FINGERPRINT>
1100329 8 17836085568009856625
11112241 14 16986289841619931392
11578080 2 16734366241365874279
12166972 35 17967822613537111974
12403259 226 18337670931286267939
12506688 2 18412827975731104564
12596599 1 17914633677902020662
12788726 201 17627507133988941776
13140716 1 18267582403486064363
13402501 40 18336828697047978282
13533116 47 18056766653224983451
14251757 17 18262232209996353437
14787075 74 18336834185758012246
14790565 3 17545883724776523813
14866123 147 17767415573386001256
14931854 50 18336551491284682350
15196674 1 18334859415888043750
15322687 12 17104511174142344237
19591789 44 18337109089556020683
19930381 70 18413393137471364090
20028762 73 17044582808783771111
20691752 17 17022900138402631537
20715895 44 17609482839964013085
20832881 197 18343306989256920753
20905425 154 18409167675446349782
22182313 1 18041826412212926463
23227448 37 18189331260828617463
23352939 185 18342462530415398027
23557571 272 17910374109985112994
23559900 14 18335978778501818797
238 59 18196346307921625956
2748010 2 18117544331403189953
3323516 105 18411138077713944259
350125 39 18336268960321048513
3524813 1 18334011700965522918
3680242 22 18116995477305685354
463206 1 18269557311053435927
5265222 85 17471861776259798556
57527585 103 17390829632986241626
59755656 215 18188762977069237031
6443956 14 18340493347406701473
81228 2 17476913559209296171

> <PUBCHEM_SHAPE_MULTIPOLES>
443.98
8.21
4.09
1.18
1.54
0.84
-0.09
-3.84
1.51
-1.8
-1.33
-0.11
0.8
1.1

> <PUBCHEM_SHAPE_SELFOVERLAP>
916.908

> <PUBCHEM_SHAPE_VOLUME>
252.3

> <PUBCHEM_COORDINATE_TYPE>
2
5
10

> <Energy>
40.5071

> <minimizedAffinity>
-4.56820

> <CNNscore>
0.5766136050

> <CNNaffinity>
6.5074863434

> <CNN_VS>
3.7523052692

> <CNNaffinity_variance>
0.2821415961

$$$$
5284645


 26 27  0  0  0  0  0  0  0  0999 V2000
   19.8630    3.2632    3.5794 O   0  0  0  0  0  0  0  0  0  0  0  0
   23.1960    3.7992    8.5534 O   0  0  0  0  0  0  0  0  0  0  0  0
   24.6931    2.0894    8.1768 O   0  0  0  0  0  0  0  0  0  0  0  0
   26.8210    3.2931    9.6364 O   0  0  0  0  0  0  0  0  0  0  0  0
   28.2816    7.2830    7.6059 O   0  0  0  0  0  0  0  0  0  0  0  0
   20.7768    1.9400    5.3692 C   0  0  0  0  0  0  0  0  0  0  0  0
   20.9223    3.2257    4.5371 C   0  0  0  0  0  0  0  0  0  0  0  0
   21.6679    1.8932    6.6133 C   0  0  0  0  0  0  0  0  0  0  0  0
   22.2617    3.3015    3.7881 C   0  0  0  0  0  0  0  0  0  0  0  0
   21.1582    2.7968    7.7409 C   0  0  0  0  0  0  0  0  0  0  0  0
   22.5095    4.6560    3.1072 C   0  0  0  0  0  0  0  0  0  0  0  0
   22.1428    2.8802    8.9119 C   0  0  0  0  0  0  0  0  0  0  0  0
   22.7394    5.8242    4.0734 C   0  0  0  0  0  0  0  0  0  0  0  0
   21.4667    3.4641   10.1490 C   0  0  0  0  0  0  0  0  0  0  0  0
   23.9653    5.6493    4.9281 C   0  0  0  0  0  0  0  0  0  0  0  0
   25.3616    4.3575    7.9909 C   0  0  0  0  0  0  0  0  0  0  0  0
   25.1485    5.4170    7.0865 C   0  0  0  0  0  0  0  0  0  0  0  0
   24.3809    3.2704    8.1905 C   0  0  0  0  0  0  0  0  0  0  0  0
   23.9338    5.5564    6.2673 C   0  0  0  0  0  0  0  0  0  0  0  0
   26.5534    4.2901    8.7304 C   0  0  0  0  0  0  0  0  0  0  0  0
   26.1411    6.4099    6.9701 C   0  0  0  0  0  0  0  0  0  0  0  0
   27.3150    6.3281    7.7155 C   0  0  0  0  0  0  0  0  0  0  0  0
   27.5304    5.2720    8.5930 C   0  0  0  0  0  0  0  0  0  0  0  0
   19.0100    3.2160    4.0387 H   0  0  0  0  0  0  0  0  0  0  0  0
   26.2003    2.6044    9.7721 H   0  0  0  0  0  0  0  0  0  0  0  0
   28.1620    8.0058    7.0218 H   0  0  0  0  0  0  0  0  0  0  0  0
  1  7  1  0
  1 24  1  0
  2 12  1  0
  2 18  1  0
  3 18  2  0
  4 20  1  0
  4 25  1  0
  5 22  1  0
  5 26  1  0
  6  7  1  0
  6  8  1  0
  7  9  1  0
  8 10  1  0
  9 11  1  0
 10 12  1  0
 11 13  1  0
 12 14  1  0
 13 15  1  0
 15 19  2  0
 16 17  2  0
 16 18  1  0
 16 20  1  0
 17 19  1  0
 17 21  1  0
 20 23  2  0
 21 22  2  0
 22 23  1  0
M  END
> <PUBCHEM_COMPOUND_CID>
5284645

> <PUBCHEM_CONFORMER_RMSD>
0.6

> <PUBCHEM_CONFORMER_DIVERSEORDER>
1

> <PUBCHEM_MMFF94_PARTIAL_CHARGES>
24
1 -0.68
12 0.28
13 0.14
15 -0.29
16 0.09
17 0.03
18 0.63
19 -0.18
2 -0.43
20 0.08
21 -0.15
22 0.08
23 -0.15
3 -0.57
4 -0.53
41 0.4
42 0.15
43 0.15
44 0.15
45 0.15
46 0.45
47 0.45
5 -0.53
7 0.28

> <PUBCHEM_EFFECTIVE_ROTOR_COUNT>
1.8

> <PUBCHEM_PHARMACOPHORE_FEATURES>
6
1 1 acceptor
1 1 donor
1 3 acceptor
1 4 donor
1 5 donor
6 16 17 20 21 22 23 rings

> <PUBCHEM_HEAVY_ATOM_COUNT>
23

> <PUBCHEM_ATOM_DEF_STEREO_COUNT>
2

> <PUBCHEM_ATOM_UDEF_STEREO_COUNT>
0

> <PUBCHEM_BOND_DEF_STEREO_COUNT>
1

> <PUBCHEM_BOND_UDEF_STEREO_COUNT>
0

> <PUBCHEM_ISOTOPIC_ATOM_COUNT>
0

> <PUBCHEM_COMPONENT_COUNT>
1

> <PUBCHEM_CACTVS_TAUTO_COUNT>
12

> <PUBCHEM_CONFORMER_ID>
0050A32500000001

> <PUBCHEM_MMFF94_ENERGY>
56.9454

> <PUBCHEM_FEATURE_SELFOVERLAP>
30.446

> <PUBCHEM_SHAPE_FINGERPRINT>
1100329 8 17836085568009856625
11112241 14 16986289841619931392
11578080 2 16734366241365874279
12166972 35 17967822613537111974
12403259 226 18337670931286267939
12506688 2 18412827975731104564
12596599 1 17914633677902020662
12788726 201 17627507133988941776
13140716 1 18267582403486064363
13402501 40 18336828697047978282
13533116 47 18056766653224983451
14251757 17 18262232209996353437
14787075 74 18336834185758012246
14790565 3 17545883724776523813
14866123 147 17767415573386001256
14931854 50 18336551491284682350
15196674 1 18334859415888043750
15322687 12 17104511174142344237
19591789 44 18337109089556020683
19930381 70 18413393137471364090
20028762 73 17044582808783771111
20691752 17 17022900138402631537
20715895 44 17609482839964013085
20832881 197 18343306989256920753
20905425 154 18409167675446349782
22182313 1 18041826412212926463
23227448 37 18189331260828617463
23352939 185 18342462530415398027
23557571 272 17910374109985112994
23559900 14 18335978778501818797
238 59 18196346307921625956
2748010 2 18117544331403189953
3323516 105 18411138077713944259
350125 39 18336268960321048513
3524813 1 18334011700965522918
3680242 22 18116995477305685354
463206 1 18269557311053435927
5265222 85 17471861776259798556
57527585 103 17390829632986241626
59755656 215 18188762977069237031
6443956 14 18340493347406701473
81228 2 17476913559209296171

> <PUBCHEM_SHAPE_MULTIPOLES>
443.98
8.21
4.09
1.18
1.54
0.84
-0.09
-3.84
1.51
-1.8
-1.33
-0.11
0.8
1.1

> <PUBCHEM_SHAPE_SELFOVERLAP>
916.908

> <PUBCHEM_SHAPE_VOLUME>
252.3

> <PUBCHEM_COORDINATE_TYPE>
2
5
10

> <Energy>
40.5071

> <minimizedAffinity>
-2.87335

> <CNNscore>
0.5034405589

> <CNNaffinity>
5.7971692085

> <CNN_VS>
2.9185299873

> <CNNaffinity_variance>
0.0137385419

$$$$
5284645


 26 27  0  0  0  0  0  0  0  0999 V2000
   21.9639   -0.3953   10.6969 O   0  0  0  0  0  0  0  0  0  0  0  0
   23.9716    4.7773    8.3838 O   0  0  0  0  0  0  0  0  0  0  0  0
   25.8572    3.9939    7.3173 O   0  0  0  0  0  0  0  0  0  0  0  0
   25.8447    5.9903    5.2871 O   0  0  0  0  0  0  0  0  0  0  0  0
   22.0632    5.6163    2.5057 O   0  0  0  0  0  0  0  0  0  0  0  0
   23.9732    0.9158   10.5139 C   0  0  0  0  0  0  0  0  0  0  0  0
   22.6035    0.5957    9.8908 C   0  0  0  0  0  0  0  0  0  0  0  0
   24.6564    2.1535    9.9260 C   0  0  0  0  0  0  0  0  0  0  0  0
   22.7133    0.0614    8.4544 C   0  0  0  0  0  0  0  0  0  0  0  0
   24.0228    3.4635   10.4059 C   0  0  0  0  0  0  0  0  0  0  0  0
   21.3575   -0.0834    7.7470 C   0  0  0  0  0  0  0  0  0  0  0  0
   24.5943    4.6873    9.6825 C   0  0  0  0  0  0  0  0  0  0  0  0
   20.6585    1.2434    7.4278 C   0  0  0  0  0  0  0  0  0  0  0  0
   24.2329    5.9725   10.4215 C   0  0  0  0  0  0  0  0  0  0  0  0
   21.4417    2.1083    6.4778 C   0  0  0  0  0  0  0  0  0  0  0  0
   23.9490    4.6685    6.0805 C   0  0  0  0  0  0  0  0  0  0  0  0
   22.6546    4.1660    5.8396 C   0  0  0  0  0  0  0  0  0  0  0  0
   24.6981    4.3799    7.3210 C   0  0  0  0  0  0  0  0  0  0  0  0
   21.9176    3.3232    6.7949 C   0  0  0  0  0  0  0  0  0  0  0  0
   24.5901    5.4592    5.1132 C   0  0  0  0  0  0  0  0  0  0  0  0
   22.0194    4.5011    4.6277 C   0  0  0  0  0  0  0  0  0  0  0  0
   22.6698    5.2906    3.6822 C   0  0  0  0  0  0  0  0  0  0  0  0
   23.9537    5.7694    3.9147 C   0  0  0  0  0  0  0  0  0  0  0  0
   21.8878   -0.0711   11.6079 H   0  0  0  0  0  0  0  0  0  0  0  0
   26.3222    5.8161    6.0743 H   0  0  0  0  0  0  0  0  0  0  0  0
   21.1978    5.3068    2.3234 H   0  0  0  0  0  0  0  0  0  0  0  0
  1  7  1  0
  1 24  1  0
  2 12  1  0
  2 18  1  0
  3 18  2  0
  4 20  1  0
  4 25  1  0
  5 22  1  0
  5 26  1  0
  6  7  1  0
  6  8  1  0
  7  9  1  0
  8 10  1  0
  9 11  1  0
 10 12  1  0
 11 13  1  0
 12 14  1  0
 13 15  1  0
 15 19  2  0
 16 17  2  0
 16 18  1  0
 16 20  1  0
 17 19  1  0
 17 21  1  0
 20 23  2  0
 21 22  2  0
 22 23  1  0
M  END
> <PUBCHEM_COMPOUND_CID>
5284645

> <PUBCHEM_CONFORMER_RMSD>
0.6

> <PUBCHEM_CONFORMER_DIVERSEORDER>
1

> <PUBCHEM_MMFF94_PARTIAL_CHARGES>
24
1 -0.68
12 0.28
13 0.14
15 -0.29
16 0.09
17 0.03
18 0.63
19 -0.18
2 -0.43
20 0.08
21 -0.15
22 0.08
23 -0.15
3 -0.57
4 -0.53
41 0.4
42 0.15
43 0.15
44 0.15
45 0.15
46 0.45
47 0.45
5 -0.53
7 0.28

> <PUBCHEM_EFFECTIVE_ROTOR_COUNT>
1.8

> <PUBCHEM_PHARMACOPHORE_FEATURES>
6
1 1 acceptor
1 1 donor
1 3 acceptor
1 4 donor
1 5 donor
6 16 17 20 21 22 23 rings

> <PUBCHEM_HEAVY_ATOM_COUNT>
23

> <PUBCHEM_ATOM_DEF_STEREO_COUNT>
2

> <PUBCHEM_ATOM_UDEF_STEREO_COUNT>
0

> <PUBCHEM_BOND_DEF_STEREO_COUNT>
1

> <PUBCHEM_BOND_UDEF_STEREO_COUNT>
0

> <PUBCHEM_ISOTOPIC_ATOM_COUNT>
0

> <PUBCHEM_COMPONENT_COUNT>
1

> <PUBCHEM_CACTVS_TAUTO_COUNT>
12

> <PUBCHEM_CONFORMER_ID>
0050A32500000001

> <PUBCHEM_MMFF94_ENERGY>
56.9454

> <PUBCHEM_FEATURE_SELFOVERLAP>
30.446

> <PUBCHEM_SHAPE_FINGERPRINT>
1100329 8 17836085568009856625
11112241 14 16986289841619931392
11578080 2 16734366241365874279
12166972 35 17967822613537111974
12403259 226 18337670931286267939
12506688 2 18412827975731104564
12596599 1 17914633677902020662
12788726 201 17627507133988941776
13140716 1 18267582403486064363
13402501 40 18336828697047978282
13533116 47 18056766653224983451
14251757 17 18262232209996353437
14787075 74 18336834185758012246
14790565 3 17545883724776523813
14866123 147 17767415573386001256
14931854 50 18336551491284682350
15196674 1 18334859415888043750
15322687 12 17104511174142344237
19591789 44 18337109089556020683
19930381 70 18413393137471364090
20028762 73 17044582808783771111
20691752 17 17022900138402631537
20715895 44 17609482839964013085
20832881 197 18343306989256920753
20905425 154 18409167675446349782
22182313 1 18041826412212926463
23227448 37 18189331260828617463
23352939 185 18342462530415398027
23557571 272 17910374109985112994
23559900 14 18335978778501818797
238 59 18196346307921625956
2748010 2 18117544331403189953
3323516 105 18411138077713944259
350125 39 18336268960321048513
3524813 1 18334011700965522918
3680242 22 18116995477305685354
463206 1 18269557311053435927
5265222 85 17471861776259798556
57527585 103 17390829632986241626
59755656 215 18188762977069237031
6443956 14 18340493347406701473
81228 2 17476913559209296171

> <PUBCHEM_SHAPE_MULTIPOLES>
443.98
8.21
4.09
1.18
1.54
0.84
-0.09
-3.84
1.51
-1.8
-1.33
-0.11
0.8
1.1

> <PUBCHEM_SHAPE_SELFOVERLAP>
916.908

> <PUBCHEM_SHAPE_VOLUME>
252.3

> <PUBCHEM_COORDINATE_TYPE>
2
5
10

> <Energy>
40.5071

> <minimizedAffinity>
2.44911

> <CNNscore>
0.3155075610

> <CNNaffinity>
5.7974410057

> <CNN_VS>
1.8291364908

> <CNNaffinity_variance>
0.0126687540

$$$$
5284645


 26 27  0  0  0  0  0  0  0  0999 V2000
   21.0494    0.7539    5.2542 O   0  0  0  0  0  0  0  0  0  0  0  0
   24.7769    3.3297    9.2050 O   0  0  0  0  0  0  0  0  0  0  0  0
   26.7831    2.5746    8.3614 O   0  0  0  0  0  0  0  0  0  0  0  0
   28.2956    4.8074    9.2748 O   0  0  0  0  0  0  0  0  0  0  0  0
   26.9702    8.7924    7.1443 O   0  0  0  0  0  0  0  0  0  0  0  0
   22.9229    0.2327    6.6713 C   0  0  0  0  0  0  0  0  0  0  0  0
   22.1829    1.3381    5.8984 C   0  0  0  0  0  0  0  0  0  0  0  0
   23.9942    0.7501    7.6350 C   0  0  0  0  0  0  0  0  0  0  0  0
   23.0612    2.0077    4.8303 C   0  0  0  0  0  0  0  0  0  0  0  0
   23.3994    1.3731    8.9022 C   0  0  0  0  0  0  0  0  0  0  0  0
   22.4088    3.2370    4.1801 C   0  0  0  0  0  0  0  0  0  0  0  0
   24.4635    2.0429    9.7779 C   0  0  0  0  0  0  0  0  0  0  0  0
   22.2496    4.4439    5.1122 C   0  0  0  0  0  0  0  0  0  0  0  0
   23.9208    2.3170   11.1774 C   0  0  0  0  0  0  0  0  0  0  0  0
   23.5641    4.9840    5.6064 C   0  0  0  0  0  0  0  0  0  0  0  0
   26.1394    4.8453    8.1259 C   0  0  0  0  0  0  0  0  0  0  0  0
   25.1999    5.5697    7.3653 C   0  0  0  0  0  0  0  0  0  0  0  0
   25.9310    3.4359    8.5179 C   0  0  0  0  0  0  0  0  0  0  0  0
   23.9216    5.0078    6.9005 C   0  0  0  0  0  0  0  0  0  0  0  0
   27.3424    5.4506    8.5236 C   0  0  0  0  0  0  0  0  0  0  0  0
   25.4868    6.9114    7.0455 C   0  0  0  0  0  0  0  0  0  0  0  0
   26.6838    7.4959    7.4528 C   0  0  0  0  0  0  0  0  0  0  0  0
   27.6167    6.7731    8.1870 C   0  0  0  0  0  0  0  0  0  0  0  0
   20.4851    0.3269    5.9174 H   0  0  0  0  0  0  0  0  0  0  0  0
   28.1663    3.9157    9.5318 H   0  0  0  0  0  0  0  0  0  0  0  0
   26.3588    9.3025    6.6503 H   0  0  0  0  0  0  0  0  0  0  0  0
  1  7  1  0
  1 24  1  0
  2 12  1  0
  2 18  1  0
  3 18  2  0
  4 20  1  0
  4 25  1  0
  5 22  1  0
  5 26  1  0
  6  7  1  0
  6  8  1  0
  7  9  1  0
  8 10  1  0
  9 11  1  0
 10 12  1  0
 11 13  1  0
 12 14  1  0
 13 15  1  0
 15 19  2  0
 16 17  2  0
 16 18  1  0
 16 20  1  0
 17 19  1  0
 17 21  1  0
 20 23  2  0
 21 22  2  0
 22 23  1  0
M  END
> <PUBCHEM_COMPOUND_CID>
5284645

> <PUBCHEM_CONFORMER_RMSD>
0.6

> <PUBCHEM_CONFORMER_DIVERSEORDER>
1

> <PUBCHEM_MMFF94_PARTIAL_CHARGES>
24
1 -0.68
12 0.28
13 0.14
15 -0.29
16 0.09
17 0.03
18 0.63
19 -0.18
2 -0.43
20 0.08
21 -0.15
22 0.08
23 -0.15
3 -0.57
4 -0.53
41 0.4
42 0.15
43 0.15
44 0.15
45 0.15
46 0.45
47 0.45
5 -0.53
7 0.28

> <PUBCHEM_EFFECTIVE_ROTOR_COUNT>
1.8

> <PUBCHEM_PHARMACOPHORE_FEATURES>
6
1 1 acceptor
1 1 donor
1 3 acceptor
1 4 donor
1 5 donor
6 16 17 20 21 22 23 rings

> <PUBCHEM_HEAVY_ATOM_COUNT>
23

> <PUBCHEM_ATOM_DEF_STEREO_COUNT>
2

> <PUBCHEM_ATOM_UDEF_STEREO_COUNT>
0

> <PUBCHEM_BOND_DEF_STEREO_COUNT>
1

> <PUBCHEM_BOND_UDEF_STEREO_COUNT>
0

> <PUBCHEM_ISOTOPIC_ATOM_COUNT>
0

> <PUBCHEM_COMPONENT_COUNT>
1

> <PUBCHEM_CACTVS_TAUTO_COUNT>
12

> <PUBCHEM_CONFORMER_ID>
0050A32500000001

> <PUBCHEM_MMFF94_ENERGY>
56.9454

> <PUBCHEM_FEATURE_SELFOVERLAP>
30.446

> <PUBCHEM_SHAPE_FINGERPRINT>
1100329 8 17836085568009856625
11112241 14 16986289841619931392
11578080 2 16734366241365874279
12166972 35 17967822613537111974
12403259 226 18337670931286267939
12506688 2 18412827975731104564
12596599 1 17914633677902020662
12788726 201 17627507133988941776
13140716 1 18267582403486064363
13402501 40 18336828697047978282
13533116 47 18056766653224983451
14251757 17 18262232209996353437
14787075 74 18336834185758012246
14790565 3 17545883724776523813
14866123 147 17767415573386001256
14931854 50 18336551491284682350
15196674 1 18334859415888043750
15322687 12 17104511174142344237
19591789 44 18337109089556020683
19930381 70 18413393137471364090
20028762 73 17044582808783771111
20691752 17 17022900138402631537
20715895 44 17609482839964013085
20832881 197 18343306989256920753
20905425 154 18409167675446349782
22182313 1 18041826412212926463
23227448 37 18189331260828617463
23352939 185 18342462530415398027
23557571 272 17910374109985112994
23559900 14 18335978778501818797
238 59 18196346307921625956
2748010 2 18117544331403189953
3323516 105 18411138077713944259
350125 39 18336268960321048513
3524813 1 18334011700965522918
3680242 22 18116995477305685354
463206 1 18269557311053435927
5265222 85 17471861776259798556
57527585 103 17390829632986241626
59755656 215 18188762977069237031
6443956 14 18340493347406701473
81228 2 17476913559209296171

> <PUBCHEM_SHAPE_MULTIPOLES>
443.98
8.21
4.09
1.18
1.54
0.84
-0.09
-3.84
1.51
-1.8
-1.33
-0.11
0.8
1.1

> <PUBCHEM_SHAPE_SELFOVERLAP>
916.908

> <PUBCHEM_SHAPE_VOLUME>
252.3

> <PUBCHEM_COORDINATE_TYPE>
2
5
10

> <Energy>
40.5071

> <minimizedAffinity>
10.09306

> <CNNscore>
0.2338039130

> <CNNaffinity>
5.6022477150

> <CNN_VS>
1.3098274469

> <CNNaffinity_variance>
0.0581238978

$$$$
5284645


 26 27  0  0  0  0  0  0  0  0999 V2000
   20.2023    2.1640    4.9233 O   0  0  0  0  0  0  0  0  0  0  0  0
   24.4933    5.6623    7.2656 O   0  0  0  0  0  0  0  0  0  0  0  0
   23.4939    6.1696    9.2781 O   0  0  0  0  0  0  0  0  0  0  0  0
   25.9405    6.5071   10.6951 O   0  0  0  0  0  0  0  0  0  0  0  0
   28.3506    2.4719   10.9860 O   0  0  0  0  0  0  0  0  0  0  0  0
   20.4958    4.2952    6.0009 C   0  0  0  0  0  0  0  0  0  0  0  0
   21.0636    2.8780    5.8117 C   0  0  0  0  0  0  0  0  0  0  0  0
   21.4511    5.2660    6.7004 C   0  0  0  0  0  0  0  0  0  0  0  0
   21.1631    2.0957    7.1303 C   0  0  0  0  0  0  0  0  0  0  0  0
   22.5882    5.7379    5.7883 C   0  0  0  0  0  0  0  0  0  0  0  0
   21.9016    0.7555    6.9959 C   0  0  0  0  0  0  0  0  0  0  0  0
   23.6340    6.5671    6.5410 C   0  0  0  0  0  0  0  0  0  0  0  0
   23.4025    0.8792    6.7079 C   0  0  0  0  0  0  0  0  0  0  0  0
   24.5318    7.3230    5.5658 C   0  0  0  0  0  0  0  0  0  0  0  0
   24.1590    1.5697    7.8100 C   0  0  0  0  0  0  0  0  0  0  0  0
   25.3441    4.6891    9.1753 C   0  0  0  0  0  0  0  0  0  0  0  0
   25.5778    3.3713    8.7341 C   0  0  0  0  0  0  0  0  0  0  0  0
   24.2937    5.5501    8.5933 C   0  0  0  0  0  0  0  0  0  0  0  0
   24.8177    2.7288    7.6499 C   0  0  0  0  0  0  0  0  0  0  0  0
   26.1072    5.2278   10.2238 C   0  0  0  0  0  0  0  0  0  0  0  0
   26.6066    2.6304    9.3484 C   0  0  0  0  0  0  0  0  0  0  0  0
   27.3558    3.1836   10.3842 C   0  0  0  0  0  0  0  0  0  0  0  0
   27.1107    4.4771   10.8297 C   0  0  0  0  0  0  0  0  0  0  0  0
   20.1301    2.6469    4.0853 H   0  0  0  0  0  0  0  0  0  0  0  0
   25.2803    7.0600   10.3259 H   0  0  0  0  0  0  0  0  0  0  0  0
   28.5370    1.5977   10.7052 H   0  0  0  0  0  0  0  0  0  0  0  0
  1  7  1  0
  1 24  1  0
  2 12  1  0
  2 18  1  0
  3 18  2  0
  4 20  1  0
  4 25  1  0
  5 22  1  0
  5 26  1  0
  6  7  1  0
  6  8  1  0
  7  9  1  0
  8 10  1  0
  9 11  1  0
 10 12  1  0
 11 13  1  0
 12 14  1  0
 13 15  1  0
 15 19  2  0
 16 17  2  0
 16 18  1  0
 16 20  1  0
 17 19  1  0
 17 21  1  0
 20 23  2  0
 21 22  2  0
 22 23  1  0
M  END
> <PUBCHEM_COMPOUND_CID>
5284645

> <PUBCHEM_CONFORMER_RMSD>
0.6

> <PUBCHEM_CONFORMER_DIVERSEORDER>
1

> <PUBCHEM_MMFF94_PARTIAL_CHARGES>
24
1 -0.68
12 0.28
13 0.14
15 -0.29
16 0.09
17 0.03
18 0.63
19 -0.18
2 -0.43
20 0.08
21 -0.15
22 0.08
23 -0.15
3 -0.57
4 -0.53
41 0.4
42 0.15
43 0.15
44 0.15
45 0.15
46 0.45
47 0.45
5 -0.53
7 0.28

> <PUBCHEM_EFFECTIVE_ROTOR_COUNT>
1.8

> <PUBCHEM_PHARMACOPHORE_FEATURES>
6
1 1 acceptor
1 1 donor
1 3 acceptor
1 4 donor
1 5 donor
6 16 17 20 21 22 23 rings

> <PUBCHEM_HEAVY_ATOM_COUNT>
23

> <PUBCHEM_ATOM_DEF_STEREO_COUNT>
2

> <PUBCHEM_ATOM_UDEF_STEREO_COUNT>
0

> <PUBCHEM_BOND_DEF_STEREO_COUNT>
1

> <PUBCHEM_BOND_UDEF_STEREO_COUNT>
0

> <PUBCHEM_ISOTOPIC_ATOM_COUNT>
0

> <PUBCHEM_COMPONENT_COUNT>
1

> <PUBCHEM_CACTVS_TAUTO_COUNT>
12

> <PUBCHEM_CONFORMER_ID>
0050A32500000001

> <PUBCHEM_MMFF94_ENERGY>
56.9454

> <PUBCHEM_FEATURE_SELFOVERLAP>
30.446

> <PUBCHEM_SHAPE_FINGERPRINT>
1100329 8 17836085568009856625
11112241 14 16986289841619931392
11578080 2 16734366241365874279
12166972 35 17967822613537111974
12403259 226 18337670931286267939
12506688 2 18412827975731104564
12596599 1 17914633677902020662
12788726 201 17627507133988941776
13140716 1 18267582403486064363
13402501 40 18336828697047978282
13533116 47 18056766653224983451
14251757 17 18262232209996353437
14787075 74 18336834185758012246
14790565 3 17545883724776523813
14866123 147 17767415573386001256
14931854 50 18336551491284682350
15196674 1 18334859415888043750
15322687 12 17104511174142344237
19591789 44 18337109089556020683
19930381 70 18413393137471364090
20028762 73 17044582808783771111
20691752 17 17022900138402631537
20715895 44 17609482839964013085
20832881 197 18343306989256920753
20905425 154 18409167675446349782
22182313 1 18041826412212926463
23227448 37 18189331260828617463
23352939 185 18342462530415398027
23557571 272 17910374109985112994
23559900 14 18335978778501818797
238 59 18196346307921625956
2748010 2 18117544331403189953
3323516 105 18411138077713944259
350125 39 18336268960321048513
3524813 1 18334011700965522918
3680242 22 18116995477305685354
463206 1 18269557311053435927
5265222 85 17471861776259798556
57527585 103 17390829632986241626
59755656 215 18188762977069237031
6443956 14 18340493347406701473
81228 2 17476913559209296171

> <PUBCHEM_SHAPE_MULTIPOLES>
443.98
8.21
4.09
1.18
1.54
0.84
-0.09
-3.84
1.51
-1.8
-1.33
-0.11
0.8
1.1

> <PUBCHEM_SHAPE_SELFOVERLAP>
916.908

> <PUBCHEM_SHAPE_VOLUME>
252.3

> <PUBCHEM_COORDINATE_TYPE>
2
5
10

> <Energy>
40.5071

> <minimizedAffinity>
7.38750

> <CNNscore>
0.2273994386

> <CNNaffinity>
5.3363337517

> <CNN_VS>
1.2134792805

> <CNNaffinity_variance>
0.0335529931

$$$$
5284645


 26 27  0  0  0  0  0  0  0  0999 V2000
   22.2722    5.7099    2.6275 O   0  0  0  0  0  0  0  0  0  0  0  0
   21.3087    2.7492    7.7698 O   0  0  0  0  0  0  0  0  0  0  0  0
   22.6847    0.9367    7.4120 O   0  0  0  0  0  0  0  0  0  0  0  0
   23.2276    0.4855   10.1705 O   0  0  0  0  0  0  0  0  0  0  0  0
   25.6231    4.0632   12.0777 O   0  0  0  0  0  0  0  0  0  0  0  0
   21.7385    3.5116    3.4475 C   0  0  0  0  0  0  0  0  0  0  0  0
   22.3940    4.8648    3.7729 C   0  0  0  0  0  0  0  0  0  0  0  0
   21.5421    2.6009    4.6625 C   0  0  0  0  0  0  0  0  0  0  0  0
   23.8830    4.7347    4.1285 C   0  0  0  0  0  0  0  0  0  0  0  0
   20.3874    3.0544    5.5617 C   0  0  0  0  0  0  0  0  0  0  0  0
   24.5092    6.0405    4.6409 C   0  0  0  0  0  0  0  0  0  0  0  0
   20.3073    2.2459    6.8608 C   0  0  0  0  0  0  0  0  0  0  0  0
   24.0014    6.4968    6.0138 C   0  0  0  0  0  0  0  0  0  0  0  0
   18.9608    2.4544    7.5477 C   0  0  0  0  0  0  0  0  0  0  0  0
   24.3172    5.5196    7.1134 C   0  0  0  0  0  0  0  0  0  0  0  0
   23.2676    2.6187    8.9795 C   0  0  0  0  0  0  0  0  0  0  0  0
   23.7134    3.9546    8.9297 C   0  0  0  0  0  0  0  0  0  0  0  0
   22.4301    2.0179    7.9207 C   0  0  0  0  0  0  0  0  0  0  0  0
   23.3821    4.8834    7.8371 C   0  0  0  0  0  0  0  0  0  0  0  0
   23.6355    1.7918   10.0531 C   0  0  0  0  0  0  0  0  0  0  0  0
   24.5043    4.4382    9.9905 C   0  0  0  0  0  0  0  0  0  0  0  0
   24.8553    3.6038   11.0493 C   0  0  0  0  0  0  0  0  0  0  0  0
   24.4295    2.2813   11.0864 C   0  0  0  0  0  0  0  0  0  0  0  0
   21.3359    5.8012    2.3912 H   0  0  0  0  0  0  0  0  0  0  0  0
   22.6911    0.1007    9.5055 H   0  0  0  0  0  0  0  0  0  0  0  0
   25.9237    4.9507   12.0777 H   0  0  0  0  0  0  0  0  0  0  0  0
  1  7  1  0
  1 24  1  0
  2 12  1  0
  2 18  1  0
  3 18  2  0
  4 20  1  0
  4 25  1  0
  5 22  1  0
  5 26  1  0
  6  7  1  0
  6  8  1  0
  7  9  1  0
  8 10  1  0
  9 11  1  0
 10 12  1  0
 11 13  1  0
 12 14  1  0
 13 15  1  0
 15 19  2  0
 16 17  2  0
 16 18  1  0
 16 20  1  0
 17 19  1  0
 17 21  1  0
 20 23  2  0
 21 22  2  0
 22 23  1  0
M  END
> <PUBCHEM_COMPOUND_CID>
5284645

> <PUBCHEM_CONFORMER_RMSD>
0.6

> <PUBCHEM_CONFORMER_DIVERSEORDER>
1

> <PUBCHEM_MMFF94_PARTIAL_CHARGES>
24
1 -0.68
12 0.28
13 0.14
15 -0.29
16 0.09
17 0.03
18 0.63
19 -0.18
2 -0.43
20 0.08
21 -0.15
22 0.08
23 -0.15
3 -0.57
4 -0.53
41 0.4
42 0.15
43 0.15
44 0.15
45 0.15
46 0.45
47 0.45
5 -0.53
7 0.28

> <PUBCHEM_EFFECTIVE_ROTOR_COUNT>
1.8

> <PUBCHEM_PHARMACOPHORE_FEATURES>
6
1 1 acceptor
1 1 donor
1 3 acceptor
1 4 donor
1 5 donor
6 16 17 20 21 22 23 rings

> <PUBCHEM_HEAVY_ATOM_COUNT>
23

> <PUBCHEM_ATOM_DEF_STEREO_COUNT>
2

> <PUBCHEM_ATOM_UDEF_STEREO_COUNT>
0

> <PUBCHEM_BOND_DEF_STEREO_COUNT>
1

> <PUBCHEM_BOND_UDEF_STEREO_COUNT>
0

> <PUBCHEM_ISOTOPIC_ATOM_COUNT>
0

> <PUBCHEM_COMPONENT_COUNT>
1

> <PUBCHEM_CACTVS_TAUTO_COUNT>
12

> <PUBCHEM_CONFORMER_ID>
0050A32500000001

> <PUBCHEM_MMFF94_ENERGY>
56.9454

> <PUBCHEM_FEATURE_SELFOVERLAP>
30.446

> <PUBCHEM_SHAPE_FINGERPRINT>
1100329 8 17836085568009856625
11112241 14 16986289841619931392
11578080 2 16734366241365874279
12166972 35 17967822613537111974
12403259 226 18337670931286267939
12506688 2 18412827975731104564
12596599 1 17914633677902020662
12788726 201 17627507133988941776
13140716 1 18267582403486064363
13402501 40 18336828697047978282
13533116 47 18056766653224983451
14251757 17 18262232209996353437
14787075 74 18336834185758012246
14790565 3 17545883724776523813
14866123 147 17767415573386001256
14931854 50 18336551491284682350
15196674 1 18334859415888043750
15322687 12 17104511174142344237
19591789 44 18337109089556020683
19930381 70 18413393137471364090
20028762 73 17044582808783771111
20691752 17 17022900138402631537
20715895 44 17609482839964013085
20832881 197 18343306989256920753
20905425 154 18409167675446349782
22182313 1 18041826412212926463
23227448 37 18189331260828617463
23352939 185 18342462530415398027
23557571 272 17910374109985112994
23559900 14 18335978778501818797
238 59 18196346307921625956
2748010 2 18117544331403189953
3323516 105 18411138077713944259
350125 39 18336268960321048513
3524813 1 18334011700965522918
3680242 22 18116995477305685354
463206 1 18269557311053435927
5265222 85 17471861776259798556
57527585 103 17390829632986241626
59755656 215 18188762977069237031
6443956 14 18340493347406701473
81228 2 17476913559209296171

> <PUBCHEM_SHAPE_MULTIPOLES>
443.98
8.21
4.09
1.18
1.54
0.84
-0.09
-3.84
1.51
-1.8
-1.33
-0.11
0.8
1.1

> <PUBCHEM_SHAPE_SELFOVERLAP>
916.908

> <PUBCHEM_SHAPE_VOLUME>
252.3

> <PUBCHEM_COORDINATE_TYPE>
2
5
10

> <Energy>
40.5071

> <minimizedAffinity>
-2.76636

> <CNNscore>
0.2201584131

> <CNNaffinity>
5.8513221741

> <CNN_VS>
1.2882177830

> <CNNaffinity_variance>
0.0313941576

$$$$
5284645


 26 27  0  0  0  0  0  0  0  0999 V2000
   20.1618    3.1923    3.5906 O   0  0  0  0  0  0  0  0  0  0  0  0
   24.8521    4.4855    7.1214 O   0  0  0  0  0  0  0  0  0  0  0  0
   23.9243    6.1996    8.3492 O   0  0  0  0  0  0  0  0  0  0  0  0
   25.5040    5.7287   10.6709 O   0  0  0  0  0  0  0  0  0  0  0  0
   24.5322    1.5515   12.6158 O   0  0  0  0  0  0  0  0  0  0  0  0
   21.4593    5.0651    4.3644 C   0  0  0  0  0  0  0  0  0  0  0  0
   20.9980    3.6284    4.6638 C   0  0  0  0  0  0  0  0  0  0  0  0
   22.5795    5.5681    5.2788 C   0  0  0  0  0  0  0  0  0  0  0  0
   20.2064    3.5186    5.9761 C   0  0  0  0  0  0  0  0  0  0  0  0
   23.9420    4.9556    4.9378 C   0  0  0  0  0  0  0  0  0  0  0  0
   19.9018    2.0714    6.3912 C   0  0  0  0  0  0  0  0  0  0  0  0
   25.0208    5.3262    5.9608 C   0  0  0  0  0  0  0  0  0  0  0  0
   21.1297    1.2562    6.8142 C   0  0  0  0  0  0  0  0  0  0  0  0
   26.4134    5.0274    5.4134 C   0  0  0  0  0  0  0  0  0  0  0  0
   21.8181    1.8157    8.0295 C   0  0  0  0  0  0  0  0  0  0  0  0
   24.3130    4.0731    9.3253 C   0  0  0  0  0  0  0  0  0  0  0  0
   23.7459    2.7861    9.2355 C   0  0  0  0  0  0  0  0  0  0  0  0
   24.2785    5.0391    8.2076 C   0  0  0  0  0  0  0  0  0  0  0  0
   23.0811    2.2717    8.0275 C   0  0  0  0  0  0  0  0  0  0  0  0
   24.9223    4.4939   10.5184 C   0  0  0  0  0  0  0  0  0  0  0  0
   23.8339    1.9345   10.3543 C   0  0  0  0  0  0  0  0  0  0  0  0
   24.4462    2.3684   11.5279 C   0  0  0  0  0  0  0  0  0  0  0  0
   24.9882    3.6449   11.6195 C   0  0  0  0  0  0  0  0  0  0  0  0
   20.6492    3.2562    2.7545 H   0  0  0  0  0  0  0  0  0  0  0  0
   25.4910    6.3433    9.9637 H   0  0  0  0  0  0  0  0  0  0  0  0
   24.1751    0.6860   12.5811 H   0  0  0  0  0  0  0  0  0  0  0  0
  1  7  1  0
  1 24  1  0
  2 12  1  0
  2 18  1  0
  3 18  2  0
  4 20  1  0
  4 25  1  0
  5 22  1  0
  5 26  1  0
  6  7  1  0
  6  8  1  0
  7  9  1  0
  8 10  1  0
  9 11  1  0
 10 12  1  0
 11 13  1  0
 12 14  1  0
 13 15  1  0
 15 19  2  0
 16 17  2  0
 16 18  1  0
 16 20  1  0
 17 19  1  0
 17 21  1  0
 20 23  2  0
 21 22  2  0
 22 23  1  0
M  END
> <PUBCHEM_COMPOUND_CID>
5284645

> <PUBCHEM_CONFORMER_RMSD>
0.6

> <PUBCHEM_CONFORMER_DIVERSEORDER>
1

> <PUBCHEM_MMFF94_PARTIAL_CHARGES>
24
1 -0.68
12 0.28
13 0.14
15 -0.29
16 0.09
17 0.03
18 0.63
19 -0.18
2 -0.43
20 0.08
21 -0.15
22 0.08
23 -0.15
3 -0.57
4 -0.53
41 0.4
42 0.15
43 0.15
44 0.15
45 0.15
46 0.45
47 0.45
5 -0.53
7 0.28

> <PUBCHEM_EFFECTIVE_ROTOR_COUNT>
1.8

> <PUBCHEM_PHARMACOPHORE_FEATURES>
6
1 1 acceptor
1 1 donor
1 3 acceptor
1 4 donor
1 5 donor
6 16 17 20 21 22 23 rings

> <PUBCHEM_HEAVY_ATOM_COUNT>
23

> <PUBCHEM_ATOM_DEF_STEREO_COUNT>
2

> <PUBCHEM_ATOM_UDEF_STEREO_COUNT>
0

> <PUBCHEM_BOND_DEF_STEREO_COUNT>
1

> <PUBCHEM_BOND_UDEF_STEREO_COUNT>
0

> <PUBCHEM_ISOTOPIC_ATOM_COUNT>
0

> <PUBCHEM_COMPONENT_COUNT>
1

> <PUBCHEM_CACTVS_TAUTO_COUNT>
12

> <PUBCHEM_CONFORMER_ID>
0050A32500000001

> <PUBCHEM_MMFF94_ENERGY>
56.9454

> <PUBCHEM_FEATURE_SELFOVERLAP>
30.446

> <PUBCHEM_SHAPE_FINGERPRINT>
1100329 8 17836085568009856625
11112241 14 16986289841619931392
11578080 2 16734366241365874279
12166972 35 17967822613537111974
12403259 226 18337670931286267939
12506688 2 18412827975731104564
12596599 1 17914633677902020662
12788726 201 17627507133988941776
13140716 1 18267582403486064363
13402501 40 18336828697047978282
13533116 47 18056766653224983451
14251757 17 18262232209996353437
14787075 74 18336834185758012246
14790565 3 17545883724776523813
14866123 147 17767415573386001256
14931854 50 18336551491284682350
15196674 1 18334859415888043750
15322687 12 17104511174142344237
19591789 44 18337109089556020683
19930381 70 18413393137471364090
20028762 73 17044582808783771111
20691752 17 17022900138402631537
20715895 44 17609482839964013085
20832881 197 18343306989256920753
20905425 154 18409167675446349782
22182313 1 18041826412212926463
23227448 37 18189331260828617463
23352939 185 18342462530415398027
23557571 272 17910374109985112994
23559900 14 18335978778501818797
238 59 18196346307921625956
2748010 2 18117544331403189953
3323516 105 18411138077713944259
350125 39 18336268960321048513
3524813 1 18334011700965522918
3680242 22 18116995477305685354
463206 1 18269557311053435927
5265222 85 17471861776259798556
57527585 103 17390829632986241626
59755656 215 18188762977069237031
6443956 14 18340493347406701473
81228 2 17476913559209296171

> <PUBCHEM_SHAPE_MULTIPOLES>
443.98
8.21
4.09
1.18
1.54
0.84
-0.09
-3.84
1.51
-1.8
-1.33
-0.11
0.8
1.1

> <PUBCHEM_SHAPE_SELFOVERLAP>
916.908

> <PUBCHEM_SHAPE_VOLUME>
252.3

> <PUBCHEM_COORDINATE_TYPE>
2
5
10

> <Energy>
40.5071

> <minimizedAffinity>
-2.49045

> <CNNscore>
0.1612119377

> <CNNaffinity>
5.5686287880

> <CNN_VS>
0.8977294564

> <CNNaffinity_variance>
0.0109038241

$$$$
