5284645


 26 27  0  0  0  0  0  0  0  0999 V2000
   -8.8874   -6.4428   23.0635 O   0  0  0  0  0  0  0  0  0  0  0  0
   -4.4467   -2.4259   22.5333 O   0  0  0  0  0  0  0  0  0  0  0  0
   -2.9631   -3.3176   24.0532 O   0  0  0  0  0  0  0  0  0  0  0  0
   -0.6367   -2.3289   22.7426 O   0  0  0  0  0  0  0  0  0  0  0  0
   -0.0711   -4.2846   18.4963 O   0  0  0  0  0  0  0  0  0  0  0  0
   -7.4423   -5.0653   24.4064 C   0  0  0  0  0  0  0  0  0  0  0  0
   -7.6187   -5.7860   23.0588 C   0  0  0  0  0  0  0  0  0  0  0  0
   -6.2616   -4.0913   24.4475 C   0  0  0  0  0  0  0  0  0  0  0  0
   -6.5264   -6.8343   22.7970 C   0  0  0  0  0  0  0  0  0  0  0  0
   -6.5369   -2.7946   23.6791 C   0  0  0  0  0  0  0  0  0  0  0  0
   -6.5711   -7.4284   21.3811 C   0  0  0  0  0  0  0  0  0  0  0  0
   -5.2954   -1.9025   23.5764 C   0  0  0  0  0  0  0  0  0  0  0  0
   -6.1966   -6.4469   20.2643 C   0  0  0  0  0  0  0  0  0  0  0  0
   -5.6772   -0.4881   23.1497 C   0  0  0  0  0  0  0  0  0  0  0  0
   -4.7828   -5.9434   20.3720 C   0  0  0  0  0  0  0  0  0  0  0  0
   -2.5496   -3.4554   21.7217 C   0  0  0  0  0  0  0  0  0  0  0  0
   -3.0718   -4.1775   20.6300 C   0  0  0  0  0  0  0  0  0  0  0  0
   -3.3555   -3.1187   22.9135 C   0  0  0  0  0  0  0  0  0  0  0  0
   -4.4628   -4.6528   20.5588 C   0  0  0  0  0  0  0  0  0  0  0  0
   -1.2067   -3.0447   21.7184 C   0  0  0  0  0  0  0  0  0  0  0  0
   -2.2254   -4.4455   19.5362 C   0  0  0  0  0  0  0  0  0  0  0  0
   -0.8972   -4.0260   19.5493 C   0  0  0  0  0  0  0  0  0  0  0  0
   -0.3799   -3.3301   20.6355 C   0  0  0  0  0  0  0  0  0  0  0  0
   -9.5877   -5.7922   23.2280 H   0  0  0  0  0  0  0  0  0  0  0  0
   -1.1444   -2.1068   23.4982 H   0  0  0  0  0  0  0  0  0  0  0  0
   -0.3941   -4.7519   17.7512 H   0  0  0  0  0  0  0  0  0  0  0  0
  1  7  1  0
  1 24  1  0
  2 12  1  0
  2 18  1  0
  3 18  2  0
  4 20  1  0
  4 25  1  0
  5 22  1  0
  5 26  1  0
  6  7  1  0
  6  8  1  0
  7  9  1  0
  8 10  1  0
  9 11  1  0
 10 12  1  0
 11 13  1  0
 12 14  1  0
 13 15  1  0
 15 19  2  0
 16 17  2  0
 16 18  1  0
 16 20  1  0
 17 19  1  0
 17 21  1  0
 20 23  2  0
 21 22  2  0
 22 23  1  0
M  END
> <PUBCHEM_COMPOUND_CID>
5284645

> <PUBCHEM_CONFORMER_RMSD>
0.6

> <PUBCHEM_CONFORMER_DIVERSEORDER>
1

> <PUBCHEM_MMFF94_PARTIAL_CHARGES>
24
1 -0.68
12 0.28
13 0.14
15 -0.29
16 0.09
17 0.03
18 0.63
19 -0.18
2 -0.43
20 0.08
21 -0.15
22 0.08
23 -0.15
3 -0.57
4 -0.53
41 0.4
42 0.15
43 0.15
44 0.15
45 0.15
46 0.45
47 0.45
5 -0.53
7 0.28

> <PUBCHEM_EFFECTIVE_ROTOR_COUNT>
1.8

> <PUBCHEM_PHARMACOPHORE_FEATURES>
6
1 1 acceptor
1 1 donor
1 3 acceptor
1 4 donor
1 5 donor
6 16 17 20 21 22 23 rings

> <PUBCHEM_HEAVY_ATOM_COUNT>
23

> <PUBCHEM_ATOM_DEF_STEREO_COUNT>
2

> <PUBCHEM_ATOM_UDEF_STEREO_COUNT>
0

> <PUBCHEM_BOND_DEF_STEREO_COUNT>
1

> <PUBCHEM_BOND_UDEF_STEREO_COUNT>
0

> <PUBCHEM_ISOTOPIC_ATOM_COUNT>
0

> <PUBCHEM_COMPONENT_COUNT>
1

> <PUBCHEM_CACTVS_TAUTO_COUNT>
12

> <PUBCHEM_CONFORMER_ID>
0050A32500000001

> <PUBCHEM_MMFF94_ENERGY>
56.9454

> <PUBCHEM_FEATURE_SELFOVERLAP>
30.446

> <PUBCHEM_SHAPE_FINGERPRINT>
1100329 8 17836085568009856625
11112241 14 16986289841619931392
11578080 2 16734366241365874279
12166972 35 17967822613537111974
12403259 226 18337670931286267939
12506688 2 18412827975731104564
12596599 1 17914633677902020662
12788726 201 17627507133988941776
13140716 1 18267582403486064363
13402501 40 18336828697047978282
13533116 47 18056766653224983451
14251757 17 18262232209996353437
14787075 74 18336834185758012246
14790565 3 17545883724776523813
14866123 147 17767415573386001256
14931854 50 18336551491284682350
15196674 1 18334859415888043750
15322687 12 17104511174142344237
19591789 44 18337109089556020683
19930381 70 18413393137471364090
20028762 73 17044582808783771111
20691752 17 17022900138402631537
20715895 44 17609482839964013085
20832881 197 18343306989256920753
20905425 154 18409167675446349782
22182313 1 18041826412212926463
23227448 37 18189331260828617463
23352939 185 18342462530415398027
23557571 272 17910374109985112994
23559900 14 18335978778501818797
238 59 18196346307921625956
2748010 2 18117544331403189953
3323516 105 18411138077713944259
350125 39 18336268960321048513
3524813 1 18334011700965522918
3680242 22 18116995477305685354
463206 1 18269557311053435927
5265222 85 17471861776259798556
57527585 103 17390829632986241626
59755656 215 18188762977069237031
6443956 14 18340493347406701473
81228 2 17476913559209296171

> <PUBCHEM_SHAPE_MULTIPOLES>
443.98
8.21
4.09
1.18
1.54
0.84
-0.09
-3.84
1.51
-1.8
-1.33
-0.11
0.8
1.1

> <PUBCHEM_SHAPE_SELFOVERLAP>
916.908

> <PUBCHEM_SHAPE_VOLUME>
252.3

> <PUBCHEM_COORDINATE_TYPE>
2
5
10

> <Energy>
40.5071

> <minimizedAffinity>
-11.65341

> <CNNscore>
0.9334928989

> <CNNaffinity>
6.9572277069

> <CNN_VS>
6.4945225716

> <CNNaffinity_variance>
0.3066199720

$$$$
5284645


 26 27  0  0  0  0  0  0  0  0999 V2000
   -7.9719   -3.4530   24.8392 O   0  0  0  0  0  0  0  0  0  0  0  0
   -3.7016   -5.6768   21.2396 O   0  0  0  0  0  0  0  0  0  0  0  0
   -4.1414   -4.4432   19.3445 O   0  0  0  0  0  0  0  0  0  0  0  0
   -1.4601   -4.4894   18.3874 O   0  0  0  0  0  0  0  0  0  0  0  0
    1.4528   -2.1653   21.2666 O   0  0  0  0  0  0  0  0  0  0  0  0
   -7.6717   -4.3489   22.6263 C   0  0  0  0  0  0  0  0  0  0  0  0
   -6.9965   -3.6382   23.8119 C   0  0  0  0  0  0  0  0  0  0  0  0
   -6.6959   -4.8646   21.5651 C   0  0  0  0  0  0  0  0  0  0  0  0
   -6.4190   -2.2658   23.4327 C   0  0  0  0  0  0  0  0  0  0  0  0
   -5.9421   -6.1206   22.0147 C   0  0  0  0  0  0  0  0  0  0  0  0
   -5.5765   -1.6245   24.5456 C   0  0  0  0  0  0  0  0  0  0  0  0
   -4.8462   -6.5289   21.0247 C   0  0  0  0  0  0  0  0  0  0  0  0
   -4.2520   -2.3398   24.8369 C   0  0  0  0  0  0  0  0  0  0  0  0
   -4.3757   -7.9553   21.2938 C   0  0  0  0  0  0  0  0  0  0  0  0
   -3.3116   -2.3398   23.6624 C   0  0  0  0  0  0  0  0  0  0  0  0
   -2.2164   -4.0104   20.6609 C   0  0  0  0  0  0  0  0  0  0  0  0
   -1.9437   -3.4337   21.9175 C   0  0  0  0  0  0  0  0  0  0  0  0
   -3.4955   -4.6832   20.3533 C   0  0  0  0  0  0  0  0  0  0  0  0
   -2.8887   -3.4550   23.0455 C   0  0  0  0  0  0  0  0  0  0  0  0
   -1.2647   -3.9396   19.6307 C   0  0  0  0  0  0  0  0  0  0  0  0
   -0.6920   -2.8184   22.1161 C   0  0  0  0  0  0  0  0  0  0  0  0
    0.2409   -2.7620   21.0833 C   0  0  0  0  0  0  0  0  0  0  0  0
   -0.0382   -3.3154   19.8392 C   0  0  0  0  0  0  0  0  0  0  0  0
   -8.3455   -4.3125   25.0889 H   0  0  0  0  0  0  0  0  0  0  0  0
   -2.2666   -4.9229   18.1883 H   0  0  0  0  0  0  0  0  0  0  0  0
    1.6668   -1.7844   22.0954 H   0  0  0  0  0  0  0  0  0  0  0  0
  1  7  1  0
  1 24  1  0
  2 12  1  0
  2 18  1  0
  3 18  2  0
  4 20  1  0
  4 25  1  0
  5 22  1  0
  5 26  1  0
  6  7  1  0
  6  8  1  0
  7  9  1  0
  8 10  1  0
  9 11  1  0
 10 12  1  0
 11 13  1  0
 12 14  1  0
 13 15  1  0
 15 19  2  0
 16 17  2  0
 16 18  1  0
 16 20  1  0
 17 19  1  0
 17 21  1  0
 20 23  2  0
 21 22  2  0
 22 23  1  0
M  END
> <PUBCHEM_COMPOUND_CID>
5284645

> <PUBCHEM_CONFORMER_RMSD>
0.6

> <PUBCHEM_CONFORMER_DIVERSEORDER>
1

> <PUBCHEM_MMFF94_PARTIAL_CHARGES>
24
1 -0.68
12 0.28
13 0.14
15 -0.29
16 0.09
17 0.03
18 0.63
19 -0.18
2 -0.43
20 0.08
21 -0.15
22 0.08
23 -0.15
3 -0.57
4 -0.53
41 0.4
42 0.15
43 0.15
44 0.15
45 0.15
46 0.45
47 0.45
5 -0.53
7 0.28

> <PUBCHEM_EFFECTIVE_ROTOR_COUNT>
1.8

> <PUBCHEM_PHARMACOPHORE_FEATURES>
6
1 1 acceptor
1 1 donor
1 3 acceptor
1 4 donor
1 5 donor
6 16 17 20 21 22 23 rings

> <PUBCHEM_HEAVY_ATOM_COUNT>
23

> <PUBCHEM_ATOM_DEF_STEREO_COUNT>
2

> <PUBCHEM_ATOM_UDEF_STEREO_COUNT>
0

> <PUBCHEM_BOND_DEF_STEREO_COUNT>
1

> <PUBCHEM_BOND_UDEF_STEREO_COUNT>
0

> <PUBCHEM_ISOTOPIC_ATOM_COUNT>
0

> <PUBCHEM_COMPONENT_COUNT>
1

> <PUBCHEM_CACTVS_TAUTO_COUNT>
12

> <PUBCHEM_CONFORMER_ID>
0050A32500000001

> <PUBCHEM_MMFF94_ENERGY>
56.9454

> <PUBCHEM_FEATURE_SELFOVERLAP>
30.446

> <PUBCHEM_SHAPE_FINGERPRINT>
1100329 8 17836085568009856625
11112241 14 16986289841619931392
11578080 2 16734366241365874279
12166972 35 17967822613537111974
12403259 226 18337670931286267939
12506688 2 18412827975731104564
12596599 1 17914633677902020662
12788726 201 17627507133988941776
13140716 1 18267582403486064363
13402501 40 18336828697047978282
13533116 47 18056766653224983451
14251757 17 18262232209996353437
14787075 74 18336834185758012246
14790565 3 17545883724776523813
14866123 147 17767415573386001256
14931854 50 18336551491284682350
15196674 1 18334859415888043750
15322687 12 17104511174142344237
19591789 44 18337109089556020683
19930381 70 18413393137471364090
20028762 73 17044582808783771111
20691752 17 17022900138402631537
20715895 44 17609482839964013085
20832881 197 18343306989256920753
20905425 154 18409167675446349782
22182313 1 18041826412212926463
23227448 37 18189331260828617463
23352939 185 18342462530415398027
23557571 272 17910374109985112994
23559900 14 18335978778501818797
238 59 18196346307921625956
2748010 2 18117544331403189953
3323516 105 18411138077713944259
350125 39 18336268960321048513
3524813 1 18334011700965522918
3680242 22 18116995477305685354
463206 1 18269557311053435927
5265222 85 17471861776259798556
57527585 103 17390829632986241626
59755656 215 18188762977069237031
6443956 14 18340493347406701473
81228 2 17476913559209296171

> <PUBCHEM_SHAPE_MULTIPOLES>
443.98
8.21
4.09
1.18
1.54
0.84
-0.09
-3.84
1.51
-1.8
-1.33
-0.11
0.8
1.1

> <PUBCHEM_SHAPE_SELFOVERLAP>
916.908

> <PUBCHEM_SHAPE_VOLUME>
252.3

> <PUBCHEM_COORDINATE_TYPE>
2
5
10

> <Energy>
40.5071

> <minimizedAffinity>
-9.39966

> <CNNscore>
0.7695846558

> <CNNaffinity>
6.6613364220

> <CNN_VS>
5.1264624596

> <CNNaffinity_variance>
0.1911842227

$$$$
5284645


 26 27  0  0  0  0  0  0  0  0999 V2000
   -0.0905   -4.7803   19.7734 O   0  0  0  0  0  0  0  0  0  0  0  0
   -3.8345   -2.6126   23.9472 O   0  0  0  0  0  0  0  0  0  0  0  0
   -5.2455   -1.4071   22.5826 O   0  0  0  0  0  0  0  0  0  0  0  0
   -7.5199   -1.6746   24.2747 O   0  0  0  0  0  0  0  0  0  0  0  0
   -8.9239   -6.1576   24.6024 O   0  0  0  0  0  0  0  0  0  0  0  0
   -1.1094   -2.7188   20.4816 C   0  0  0  0  0  0  0  0  0  0  0  0
   -1.2234   -4.2528   20.4658 C   0  0  0  0  0  0  0  0  0  0  0  0
   -2.0979   -2.0255   21.4231 C   0  0  0  0  0  0  0  0  0  0  0  0
   -2.4984   -4.7479   19.7658 C   0  0  0  0  0  0  0  0  0  0  0  0
   -1.7087   -2.1670   22.8984 C   0  0  0  0  0  0  0  0  0  0  0  0
   -2.7286   -6.2602   19.9052 C   0  0  0  0  0  0  0  0  0  0  0  0
   -2.7881   -1.6247   23.8410 C   0  0  0  0  0  0  0  0  0  0  0  0
   -3.0707   -6.7262   21.3253 C   0  0  0  0  0  0  0  0  0  0  0  0
   -2.2329   -1.4346   25.2496 C   0  0  0  0  0  0  0  0  0  0  0  0
   -4.3570   -6.1421   21.8432 C   0  0  0  0  0  0  0  0  0  0  0  0
   -5.9619   -3.4294   23.5939 C   0  0  0  0  0  0  0  0  0  0  0  0
   -5.7060   -4.8050   23.4259 C   0  0  0  0  0  0  0  0  0  0  0  0
   -4.9698   -2.3873   23.2577 C   0  0  0  0  0  0  0  0  0  0  0  0
   -4.4328   -5.3403   22.9176 C   0  0  0  0  0  0  0  0  0  0  0  0
   -7.2079   -2.9973   24.0762 C   0  0  0  0  0  0  0  0  0  0  0  0
   -6.7141   -5.7233   23.7800 C   0  0  0  0  0  0  0  0  0  0  0  0
   -7.9423   -5.2755   24.2609 C   0  0  0  0  0  0  0  0  0  0  0  0
   -8.1983   -3.9174   24.4081 C   0  0  0  0  0  0  0  0  0  0  0  0
    0.7228   -4.4755   20.2049 H   0  0  0  0  0  0  0  0  0  0  0  0
   -6.8928   -1.0094   24.0693 H   0  0  0  0  0  0  0  0  0  0  0  0
   -8.7778   -7.0788   24.5131 H   0  0  0  0  0  0  0  0  0  0  0  0
  1  7  1  0
  1 24  1  0
  2 12  1  0
  2 18  1  0
  3 18  2  0
  4 20  1  0
  4 25  1  0
  5 22  1  0
  5 26  1  0
  6  7  1  0
  6  8  1  0
  7  9  1  0
  8 10  1  0
  9 11  1  0
 10 12  1  0
 11 13  1  0
 12 14  1  0
 13 15  1  0
 15 19  2  0
 16 17  2  0
 16 18  1  0
 16 20  1  0
 17 19  1  0
 17 21  1  0
 20 23  2  0
 21 22  2  0
 22 23  1  0
M  END
> <PUBCHEM_COMPOUND_CID>
5284645

> <PUBCHEM_CONFORMER_RMSD>
0.6

> <PUBCHEM_CONFORMER_DIVERSEORDER>
1

> <PUBCHEM_MMFF94_PARTIAL_CHARGES>
24
1 -0.68
12 0.28
13 0.14
15 -0.29
16 0.09
17 0.03
18 0.63
19 -0.18
2 -0.43
20 0.08
21 -0.15
22 0.08
23 -0.15
3 -0.57
4 -0.53
41 0.4
42 0.15
43 0.15
44 0.15
45 0.15
46 0.45
47 0.45
5 -0.53
7 0.28

> <PUBCHEM_EFFECTIVE_ROTOR_COUNT>
1.8

> <PUBCHEM_PHARMACOPHORE_FEATURES>
6
1 1 acceptor
1 1 donor
1 3 acceptor
1 4 donor
1 5 donor
6 16 17 20 21 22 23 rings

> <PUBCHEM_HEAVY_ATOM_COUNT>
23

> <PUBCHEM_ATOM_DEF_STEREO_COUNT>
2

> <PUBCHEM_ATOM_UDEF_STEREO_COUNT>
0

> <PUBCHEM_BOND_DEF_STEREO_COUNT>
1

> <PUBCHEM_BOND_UDEF_STEREO_COUNT>
0

> <PUBCHEM_ISOTOPIC_ATOM_COUNT>
0

> <PUBCHEM_COMPONENT_COUNT>
1

> <PUBCHEM_CACTVS_TAUTO_COUNT>
12

> <PUBCHEM_CONFORMER_ID>
0050A32500000001

> <PUBCHEM_MMFF94_ENERGY>
56.9454

> <PUBCHEM_FEATURE_SELFOVERLAP>
30.446

> <PUBCHEM_SHAPE_FINGERPRINT>
1100329 8 17836085568009856625
11112241 14 16986289841619931392
11578080 2 16734366241365874279
12166972 35 17967822613537111974
12403259 226 18337670931286267939
12506688 2 18412827975731104564
12596599 1 17914633677902020662
12788726 201 17627507133988941776
13140716 1 18267582403486064363
13402501 40 18336828697047978282
13533116 47 18056766653224983451
14251757 17 18262232209996353437
14787075 74 18336834185758012246
14790565 3 17545883724776523813
14866123 147 17767415573386001256
14931854 50 18336551491284682350
15196674 1 18334859415888043750
15322687 12 17104511174142344237
19591789 44 18337109089556020683
19930381 70 18413393137471364090
20028762 73 17044582808783771111
20691752 17 17022900138402631537
20715895 44 17609482839964013085
20832881 197 18343306989256920753
20905425 154 18409167675446349782
22182313 1 18041826412212926463
23227448 37 18189331260828617463
23352939 185 18342462530415398027
23557571 272 17910374109985112994
23559900 14 18335978778501818797
238 59 18196346307921625956
2748010 2 18117544331403189953
3323516 105 18411138077713944259
350125 39 18336268960321048513
3524813 1 18334011700965522918
3680242 22 18116995477305685354
463206 1 18269557311053435927
5265222 85 17471861776259798556
57527585 103 17390829632986241626
59755656 215 18188762977069237031
6443956 14 18340493347406701473
81228 2 17476913559209296171

> <PUBCHEM_SHAPE_MULTIPOLES>
443.98
8.21
4.09
1.18
1.54
0.84
-0.09
-3.84
1.51
-1.8
-1.33
-0.11
0.8
1.1

> <PUBCHEM_SHAPE_SELFOVERLAP>
916.908

> <PUBCHEM_SHAPE_VOLUME>
252.3

> <PUBCHEM_COORDINATE_TYPE>
2
5
10

> <Energy>
40.5071

> <minimizedAffinity>
-0.90061

> <CNNscore>
0.2692089081

> <CNNaffinity>
5.8874764442

> <CNN_VS>
1.5849610567

> <CNNaffinity_variance>
0.1541332155

$$$$
5284645


 26 27  0  0  0  0  0  0  0  0999 V2000
   -9.0210   -6.1349   24.5286 O   0  0  0  0  0  0  0  0  0  0  0  0
   -4.1152   -6.4811   21.0717 O   0  0  0  0  0  0  0  0  0  0  0  0
   -4.7122   -4.9720   19.4368 O   0  0  0  0  0  0  0  0  0  0  0  0
   -2.0410   -4.2086   18.8127 O   0  0  0  0  0  0  0  0  0  0  0  0
    0.0344   -2.0288   22.4344 O   0  0  0  0  0  0  0  0  0  0  0  0
   -8.3701   -6.4100   22.2285 C   0  0  0  0  0  0  0  0  0  0  0  0
   -7.9643   -5.8608   23.6070 C   0  0  0  0  0  0  0  0  0  0  0  0
   -7.2316   -6.4415   21.2053 C   0  0  0  0  0  0  0  0  0  0  0  0
   -7.7089   -4.3458   23.5925 C   0  0  0  0  0  0  0  0  0  0  0  0
   -6.2300   -7.5707   21.4687 C   0  0  0  0  0  0  0  0  0  0  0  0
   -7.1196   -3.8090   24.9056 C   0  0  0  0  0  0  0  0  0  0  0  0
   -5.0055   -7.4903   20.5512 C   0  0  0  0  0  0  0  0  0  0  0  0
   -5.6844   -4.2643   25.1951 C   0  0  0  0  0  0  0  0  0  0  0  0
   -4.2257   -8.8018   20.5706 C   0  0  0  0  0  0  0  0  0  0  0  0
   -4.6963   -3.7883   24.1650 C   0  0  0  0  0  0  0  0  0  0  0  0
   -3.0378   -4.4426   21.0312 C   0  0  0  0  0  0  0  0  0  0  0  0
   -2.9944   -4.1250   22.4035 C   0  0  0  0  0  0  0  0  0  0  0  0
   -4.0954   -5.2900   20.4422 C   0  0  0  0  0  0  0  0  0  0  0  0
   -3.9789   -4.6114   23.3834 C   0  0  0  0  0  0  0  0  0  0  0  0
   -2.0652   -3.9303   20.1574 C   0  0  0  0  0  0  0  0  0  0  0  0
   -1.9426   -3.3130   22.8715 C   0  0  0  0  0  0  0  0  0  0  0  0
   -0.9844   -2.8179   21.9899 C   0  0  0  0  0  0  0  0  0  0  0  0
   -1.0404   -3.1177   20.6339 C   0  0  0  0  0  0  0  0  0  0  0  0
   -9.1934   -7.0892   24.5482 H   0  0  0  0  0  0  0  0  0  0  0  0
   -2.7052   -4.7505   18.4344 H   0  0  0  0  0  0  0  0  0  0  0  0
    0.0959   -1.8112   23.3437 H   0  0  0  0  0  0  0  0  0  0  0  0
  1  7  1  0
  1 24  1  0
  2 12  1  0
  2 18  1  0
  3 18  2  0
  4 20  1  0
  4 25  1  0
  5 22  1  0
  5 26  1  0
  6  7  1  0
  6  8  1  0
  7  9  1  0
  8 10  1  0
  9 11  1  0
 10 12  1  0
 11 13  1  0
 12 14  1  0
 13 15  1  0
 15 19  2  0
 16 17  2  0
 16 18  1  0
 16 20  1  0
 17 19  1  0
 17 21  1  0
 20 23  2  0
 21 22  2  0
 22 23  1  0
M  END
> <PUBCHEM_COMPOUND_CID>
5284645

> <PUBCHEM_CONFORMER_RMSD>
0.6

> <PUBCHEM_CONFORMER_DIVERSEORDER>
1

> <PUBCHEM_MMFF94_PARTIAL_CHARGES>
24
1 -0.68
12 0.28
13 0.14
15 -0.29
16 0.09
17 0.03
18 0.63
19 -0.18
2 -0.43
20 0.08
21 -0.15
22 0.08
23 -0.15
3 -0.57
4 -0.53
41 0.4
42 0.15
43 0.15
44 0.15
45 0.15
46 0.45
47 0.45
5 -0.53
7 0.28

> <PUBCHEM_EFFECTIVE_ROTOR_COUNT>
1.8

> <PUBCHEM_PHARMACOPHORE_FEATURES>
6
1 1 acceptor
1 1 donor
1 3 acceptor
1 4 donor
1 5 donor
6 16 17 20 21 22 23 rings

> <PUBCHEM_HEAVY_ATOM_COUNT>
23

> <PUBCHEM_ATOM_DEF_STEREO_COUNT>
2

> <PUBCHEM_ATOM_UDEF_STEREO_COUNT>
0

> <PUBCHEM_BOND_DEF_STEREO_COUNT>
1

> <PUBCHEM_BOND_UDEF_STEREO_COUNT>
0

> <PUBCHEM_ISOTOPIC_ATOM_COUNT>
0

> <PUBCHEM_COMPONENT_COUNT>
1

> <PUBCHEM_CACTVS_TAUTO_COUNT>
12

> <PUBCHEM_CONFORMER_ID>
0050A32500000001

> <PUBCHEM_MMFF94_ENERGY>
56.9454

> <PUBCHEM_FEATURE_SELFOVERLAP>
30.446

> <PUBCHEM_SHAPE_FINGERPRINT>
1100329 8 17836085568009856625
11112241 14 16986289841619931392
11578080 2 16734366241365874279
12166972 35 17967822613537111974
12403259 226 18337670931286267939
12506688 2 18412827975731104564
12596599 1 17914633677902020662
12788726 201 17627507133988941776
13140716 1 18267582403486064363
13402501 40 18336828697047978282
13533116 47 18056766653224983451
14251757 17 18262232209996353437
14787075 74 18336834185758012246
14790565 3 17545883724776523813
14866123 147 17767415573386001256
14931854 50 18336551491284682350
15196674 1 18334859415888043750
15322687 12 17104511174142344237
19591789 44 18337109089556020683
19930381 70 18413393137471364090
20028762 73 17044582808783771111
20691752 17 17022900138402631537
20715895 44 17609482839964013085
20832881 197 18343306989256920753
20905425 154 18409167675446349782
22182313 1 18041826412212926463
23227448 37 18189331260828617463
23352939 185 18342462530415398027
23557571 272 17910374109985112994
23559900 14 18335978778501818797
238 59 18196346307921625956
2748010 2 18117544331403189953
3323516 105 18411138077713944259
350125 39 18336268960321048513
3524813 1 18334011700965522918
3680242 22 18116995477305685354
463206 1 18269557311053435927
5265222 85 17471861776259798556
57527585 103 17390829632986241626
59755656 215 18188762977069237031
6443956 14 18340493347406701473
81228 2 17476913559209296171

> <PUBCHEM_SHAPE_MULTIPOLES>
443.98
8.21
4.09
1.18
1.54
0.84
-0.09
-3.84
1.51
-1.8
-1.33
-0.11
0.8
1.1

> <PUBCHEM_SHAPE_SELFOVERLAP>
916.908

> <PUBCHEM_SHAPE_VOLUME>
252.3

> <PUBCHEM_COORDINATE_TYPE>
2
5
10

> <Energy>
40.5071

> <minimizedAffinity>
-8.25758

> <CNNscore>
0.2444971651

> <CNNaffinity>
5.9465737343

> <CNN_VS>
1.4539203644

> <CNNaffinity_variance>
0.0603451245

$$$$
5284645


 26 27  0  0  0  0  0  0  0  0999 V2000
   -4.8872   -8.0517   18.7929 O   0  0  0  0  0  0  0  0  0  0  0  0
   -6.4974   -6.9121   24.4714 O   0  0  0  0  0  0  0  0  0  0  0  0
   -4.9216   -5.3121   24.9846 O   0  0  0  0  0  0  0  0  0  0  0  0
   -6.5467   -3.9629   26.8942 O   0  0  0  0  0  0  0  0  0  0  0  0
  -10.3312   -2.0100   24.8844 O   0  0  0  0  0  0  0  0  0  0  0  0
   -3.9450   -7.8387   20.9966 C   0  0  0  0  0  0  0  0  0  0  0  0
   -5.1037   -7.4410   20.0661 C   0  0  0  0  0  0  0  0  0  0  0  0
   -4.1760   -7.4928   22.4700 C   0  0  0  0  0  0  0  0  0  0  0  0
   -5.2128   -5.9214   19.8674 C   0  0  0  0  0  0  0  0  0  0  0  0
   -5.1744   -8.4355   23.1499 C   0  0  0  0  0  0  0  0  0  0  0  0
   -6.4722   -5.4904   19.1007 C   0  0  0  0  0  0  0  0  0  0  0  0
   -5.5329   -7.9810   24.5686 C   0  0  0  0  0  0  0  0  0  0  0  0
   -7.7866   -5.7006   19.8617 C   0  0  0  0  0  0  0  0  0  0  0  0
   -6.2150   -9.1052   25.3426 C   0  0  0  0  0  0  0  0  0  0  0  0
   -7.8708   -4.8907   21.1270 C   0  0  0  0  0  0  0  0  0  0  0  0
   -7.1969   -4.7232   24.6649 C   0  0  0  0  0  0  0  0  0  0  0  0
   -8.0841   -4.6186   23.5751 C   0  0  0  0  0  0  0  0  0  0  0  0
   -6.0516   -5.6568   24.6736 C   0  0  0  0  0  0  0  0  0  0  0  0
   -7.9713   -5.4301   22.3525 C   0  0  0  0  0  0  0  0  0  0  0  0
   -7.3663   -3.9052   25.7937 C   0  0  0  0  0  0  0  0  0  0  0  0
   -9.1501   -3.7018   23.6632 C   0  0  0  0  0  0  0  0  0  0  0  0
   -9.3044   -2.9019   24.7931 C   0  0  0  0  0  0  0  0  0  0  0  0
   -8.4168   -2.9942   25.8587 C   0  0  0  0  0  0  0  0  0  0  0  0
   -4.8163   -9.0127   18.9031 H   0  0  0  0  0  0  0  0  0  0  0  0
   -5.8225   -4.5574   26.9083 H   0  0  0  0  0  0  0  0  0  0  0  0
  -10.9440   -1.9275   24.1805 H   0  0  0  0  0  0  0  0  0  0  0  0
  1  7  1  0
  1 24  1  0
  2 12  1  0
  2 18  1  0
  3 18  2  0
  4 20  1  0
  4 25  1  0
  5 22  1  0
  5 26  1  0
  6  7  1  0
  6  8  1  0
  7  9  1  0
  8 10  1  0
  9 11  1  0
 10 12  1  0
 11 13  1  0
 12 14  1  0
 13 15  1  0
 15 19  2  0
 16 17  2  0
 16 18  1  0
 16 20  1  0
 17 19  1  0
 17 21  1  0
 20 23  2  0
 21 22  2  0
 22 23  1  0
M  END
> <PUBCHEM_COMPOUND_CID>
5284645

> <PUBCHEM_CONFORMER_RMSD>
0.6

> <PUBCHEM_CONFORMER_DIVERSEORDER>
1

> <PUBCHEM_MMFF94_PARTIAL_CHARGES>
24
1 -0.68
12 0.28
13 0.14
15 -0.29
16 0.09
17 0.03
18 0.63
19 -0.18
2 -0.43
20 0.08
21 -0.15
22 0.08
23 -0.15
3 -0.57
4 -0.53
41 0.4
42 0.15
43 0.15
44 0.15
45 0.15
46 0.45
47 0.45
5 -0.53
7 0.28

> <PUBCHEM_EFFECTIVE_ROTOR_COUNT>
1.8

> <PUBCHEM_PHARMACOPHORE_FEATURES>
6
1 1 acceptor
1 1 donor
1 3 acceptor
1 4 donor
1 5 donor
6 16 17 20 21 22 23 rings

> <PUBCHEM_HEAVY_ATOM_COUNT>
23

> <PUBCHEM_ATOM_DEF_STEREO_COUNT>
2

> <PUBCHEM_ATOM_UDEF_STEREO_COUNT>
0

> <PUBCHEM_BOND_DEF_STEREO_COUNT>
1

> <PUBCHEM_BOND_UDEF_STEREO_COUNT>
0

> <PUBCHEM_ISOTOPIC_ATOM_COUNT>
0

> <PUBCHEM_COMPONENT_COUNT>
1

> <PUBCHEM_CACTVS_TAUTO_COUNT>
12

> <PUBCHEM_CONFORMER_ID>
0050A32500000001

> <PUBCHEM_MMFF94_ENERGY>
56.9454

> <PUBCHEM_FEATURE_SELFOVERLAP>
30.446

> <PUBCHEM_SHAPE_FINGERPRINT>
1100329 8 17836085568009856625
11112241 14 16986289841619931392
11578080 2 16734366241365874279
12166972 35 17967822613537111974
12403259 226 18337670931286267939
12506688 2 18412827975731104564
12596599 1 17914633677902020662
12788726 201 17627507133988941776
13140716 1 18267582403486064363
13402501 40 18336828697047978282
13533116 47 18056766653224983451
14251757 17 18262232209996353437
14787075 74 18336834185758012246
14790565 3 17545883724776523813
14866123 147 17767415573386001256
14931854 50 18336551491284682350
15196674 1 18334859415888043750
15322687 12 17104511174142344237
19591789 44 18337109089556020683
19930381 70 18413393137471364090
20028762 73 17044582808783771111
20691752 17 17022900138402631537
20715895 44 17609482839964013085
20832881 197 18343306989256920753
20905425 154 18409167675446349782
22182313 1 18041826412212926463
23227448 37 18189331260828617463
23352939 185 18342462530415398027
23557571 272 17910374109985112994
23559900 14 18335978778501818797
238 59 18196346307921625956
2748010 2 18117544331403189953
3323516 105 18411138077713944259
350125 39 18336268960321048513
3524813 1 18334011700965522918
3680242 22 18116995477305685354
463206 1 18269557311053435927
5265222 85 17471861776259798556
57527585 103 17390829632986241626
59755656 215 18188762977069237031
6443956 14 18340493347406701473
81228 2 17476913559209296171

> <PUBCHEM_SHAPE_MULTIPOLES>
443.98
8.21
4.09
1.18
1.54
0.84
-0.09
-3.84
1.51
-1.8
-1.33
-0.11
0.8
1.1

> <PUBCHEM_SHAPE_SELFOVERLAP>
916.908

> <PUBCHEM_SHAPE_VOLUME>
252.3

> <PUBCHEM_COORDINATE_TYPE>
2
5
10

> <Energy>
40.5071

> <minimizedAffinity>
12.39130

> <CNNscore>
0.1542285085

> <CNNaffinity>
4.2777266502

> <CNN_VS>
0.6597474217

> <CNNaffinity_variance>
1.2530975342

$$$$
5284645


 26 27  0  0  0  0  0  0  0  0999 V2000
   -7.5543   -0.4281   20.0154 O   0  0  0  0  0  0  0  0  0  0  0  0
   -7.7896   -5.7895   22.7243 O   0  0  0  0  0  0  0  0  0  0  0  0
   -5.6762   -6.5506   22.2138 O   0  0  0  0  0  0  0  0  0  0  0  0
   -5.4330   -8.1881   24.5304 O   0  0  0  0  0  0  0  0  0  0  0  0
   -5.3860   -5.6193   28.4768 O   0  0  0  0  0  0  0  0  0  0  0  0
   -7.0923   -2.7532   19.6029 C   0  0  0  0  0  0  0  0  0  0  0  0
   -7.2275   -1.6546   20.6712 C   0  0  0  0  0  0  0  0  0  0  0  0
   -7.0198   -4.1739   20.1691 C   0  0  0  0  0  0  0  0  0  0  0  0
   -5.9371   -1.4482   21.4793 C   0  0  0  0  0  0  0  0  0  0  0  0
   -8.3775   -4.6846   20.6625 C   0  0  0  0  0  0  0  0  0  0  0  0
   -6.1047   -0.4957   22.6727 C   0  0  0  0  0  0  0  0  0  0  0  0
   -8.2670   -6.0316   21.3843 C   0  0  0  0  0  0  0  0  0  0  0  0
   -6.9813   -1.0403   23.8066 C   0  0  0  0  0  0  0  0  0  0  0  0
   -9.6388   -6.6841   21.5288 C   0  0  0  0  0  0  0  0  0  0  0  0
   -6.4164   -2.2805   24.4444 C   0  0  0  0  0  0  0  0  0  0  0  0
   -6.2303   -5.8811   24.4207 C   0  0  0  0  0  0  0  0  0  0  0  0
   -6.4780   -4.6661   25.0905 C   0  0  0  0  0  0  0  0  0  0  0  0
   -6.4955   -6.0648   22.9787 C   0  0  0  0  0  0  0  0  0  0  0  0
   -7.0341   -3.4727   24.4331 C   0  0  0  0  0  0  0  0  0  0  0  0
   -5.6883   -6.9731   25.1176 C   0  0  0  0  0  0  0  0  0  0  0  0
   -6.1971   -4.5904   26.4689 C   0  0  0  0  0  0  0  0  0  0  0  0
   -5.6637   -5.6859   27.1439 C   0  0  0  0  0  0  0  0  0  0  0  0
   -5.4032   -6.8769   26.4767 C   0  0  0  0  0  0  0  0  0  0  0  0
   -8.3682   -0.5437   19.5006 H   0  0  0  0  0  0  0  0  0  0  0  0
   -5.6050   -8.3128   23.6178 H   0  0  0  0  0  0  0  0  0  0  0  0
   -5.5520   -4.8284   28.9510 H   0  0  0  0  0  0  0  0  0  0  0  0
  1  7  1  0
  1 24  1  0
  2 12  1  0
  2 18  1  0
  3 18  2  0
  4 20  1  0
  4 25  1  0
  5 22  1  0
  5 26  1  0
  6  7  1  0
  6  8  1  0
  7  9  1  0
  8 10  1  0
  9 11  1  0
 10 12  1  0
 11 13  1  0
 12 14  1  0
 13 15  1  0
 15 19  2  0
 16 17  2  0
 16 18  1  0
 16 20  1  0
 17 19  1  0
 17 21  1  0
 20 23  2  0
 21 22  2  0
 22 23  1  0
M  END
> <PUBCHEM_COMPOUND_CID>
5284645

> <PUBCHEM_CONFORMER_RMSD>
0.6

> <PUBCHEM_CONFORMER_DIVERSEORDER>
1

> <PUBCHEM_MMFF94_PARTIAL_CHARGES>
24
1 -0.68
12 0.28
13 0.14
15 -0.29
16 0.09
17 0.03
18 0.63
19 -0.18
2 -0.43
20 0.08
21 -0.15
22 0.08
23 -0.15
3 -0.57
4 -0.53
41 0.4
42 0.15
43 0.15
44 0.15
45 0.15
46 0.45
47 0.45
5 -0.53
7 0.28

> <PUBCHEM_EFFECTIVE_ROTOR_COUNT>
1.8

> <PUBCHEM_PHARMACOPHORE_FEATURES>
6
1 1 acceptor
1 1 donor
1 3 acceptor
1 4 donor
1 5 donor
6 16 17 20 21 22 23 rings

> <PUBCHEM_HEAVY_ATOM_COUNT>
23

> <PUBCHEM_ATOM_DEF_STEREO_COUNT>
2

> <PUBCHEM_ATOM_UDEF_STEREO_COUNT>
0

> <PUBCHEM_BOND_DEF_STEREO_COUNT>
1

> <PUBCHEM_BOND_UDEF_STEREO_COUNT>
0

> <PUBCHEM_ISOTOPIC_ATOM_COUNT>
0

> <PUBCHEM_COMPONENT_COUNT>
1

> <PUBCHEM_CACTVS_TAUTO_COUNT>
12

> <PUBCHEM_CONFORMER_ID>
0050A32500000001

> <PUBCHEM_MMFF94_ENERGY>
56.9454

> <PUBCHEM_FEATURE_SELFOVERLAP>
30.446

> <PUBCHEM_SHAPE_FINGERPRINT>
1100329 8 17836085568009856625
11112241 14 16986289841619931392
11578080 2 16734366241365874279
12166972 35 17967822613537111974
12403259 226 18337670931286267939
12506688 2 18412827975731104564
12596599 1 17914633677902020662
12788726 201 17627507133988941776
13140716 1 18267582403486064363
13402501 40 18336828697047978282
13533116 47 18056766653224983451
14251757 17 18262232209996353437
14787075 74 18336834185758012246
14790565 3 17545883724776523813
14866123 147 17767415573386001256
14931854 50 18336551491284682350
15196674 1 18334859415888043750
15322687 12 17104511174142344237
19591789 44 18337109089556020683
19930381 70 18413393137471364090
20028762 73 17044582808783771111
20691752 17 17022900138402631537
20715895 44 17609482839964013085
20832881 197 18343306989256920753
20905425 154 18409167675446349782
22182313 1 18041826412212926463
23227448 37 18189331260828617463
23352939 185 18342462530415398027
23557571 272 17910374109985112994
23559900 14 18335978778501818797
238 59 18196346307921625956
2748010 2 18117544331403189953
3323516 105 18411138077713944259
350125 39 18336268960321048513
3524813 1 18334011700965522918
3680242 22 18116995477305685354
463206 1 18269557311053435927
5265222 85 17471861776259798556
57527585 103 17390829632986241626
59755656 215 18188762977069237031
6443956 14 18340493347406701473
81228 2 17476913559209296171

> <PUBCHEM_SHAPE_MULTIPOLES>
443.98
8.21
4.09
1.18
1.54
0.84
-0.09
-3.84
1.51
-1.8
-1.33
-0.11
0.8
1.1

> <PUBCHEM_SHAPE_SELFOVERLAP>
916.908

> <PUBCHEM_SHAPE_VOLUME>
252.3

> <PUBCHEM_COORDINATE_TYPE>
2
5
10

> <Energy>
40.5071

> <minimizedAffinity>
31.90398

> <CNNscore>
0.1320947409

> <CNNaffinity>
4.8427567482

> <CNN_VS>
0.6397026777

> <CNNaffinity_variance>
0.2967524230

$$$$
5284645


 26 27  0  0  0  0  0  0  0  0999 V2000
   -1.5807   -0.6506   24.3026 O   0  0  0  0  0  0  0  0  0  0  0  0
   -3.8190   -4.5281   20.2910 O   0  0  0  0  0  0  0  0  0  0  0  0
   -3.2244   -6.5021   21.3187 O   0  0  0  0  0  0  0  0  0  0  0  0
   -5.3886   -8.0071   20.2423 O   0  0  0  0  0  0  0  0  0  0  0  0
   -9.5414   -6.4652   21.8401 O   0  0  0  0  0  0  0  0  0  0  0  0
   -0.9647   -2.6130   23.0539 C   0  0  0  0  0  0  0  0  0  0  0  0
   -2.1251   -1.8035   23.6579 C   0  0  0  0  0  0  0  0  0  0  0  0
   -1.4055   -3.7233   22.0963 C   0  0  0  0  0  0  0  0  0  0  0  0
   -2.9356   -2.6036   24.6892 C   0  0  0  0  0  0  0  0  0  0  0  0
   -1.8660   -3.1851   20.7376 C   0  0  0  0  0  0  0  0  0  0  0  0
   -4.2083   -1.8852   25.1623 C   0  0  0  0  0  0  0  0  0  0  0  0
   -2.4677   -4.2795   19.8500 C   0  0  0  0  0  0  0  0  0  0  0  0
   -5.2993   -1.7484   24.0938 C   0  0  0  0  0  0  0  0  0  0  0  0
   -2.5686   -3.8094   18.4018 C   0  0  0  0  0  0  0  0  0  0  0  0
   -5.8222   -3.0746   23.6124 C   0  0  0  0  0  0  0  0  0  0  0  0
   -5.4861   -5.7897   21.2641 C   0  0  0  0  0  0  0  0  0  0  0  0
   -6.2606   -4.7912   21.8880 C   0  0  0  0  0  0  0  0  0  0  0  0
   -4.0363   -5.6388   21.0219 C   0  0  0  0  0  0  0  0  0  0  0  0
   -5.7140   -3.5033   22.3446 C   0  0  0  0  0  0  0  0  0  0  0  0
   -6.0809   -6.9976   20.8653 C   0  0  0  0  0  0  0  0  0  0  0  0
   -7.6376   -5.0261   22.0703 C   0  0  0  0  0  0  0  0  0  0  0  0
   -8.2105   -6.2291   21.6640 C   0  0  0  0  0  0  0  0  0  0  0  0
   -7.4404   -7.2194   21.0657 C   0  0  0  0  0  0  0  0  0  0  0  0
   -1.0657   -0.1352   23.6624 H   0  0  0  0  0  0  0  0  0  0  0  0
   -4.4703   -7.9148   20.0803 H   0  0  0  0  0  0  0  0  0  0  0  0
  -10.0837   -5.8146   22.2408 H   0  0  0  0  0  0  0  0  0  0  0  0
  1  7  1  0
  1 24  1  0
  2 12  1  0
  2 18  1  0
  3 18  2  0
  4 20  1  0
  4 25  1  0
  5 22  1  0
  5 26  1  0
  6  7  1  0
  6  8  1  0
  7  9  1  0
  8 10  1  0
  9 11  1  0
 10 12  1  0
 11 13  1  0
 12 14  1  0
 13 15  1  0
 15 19  2  0
 16 17  2  0
 16 18  1  0
 16 20  1  0
 17 19  1  0
 17 21  1  0
 20 23  2  0
 21 22  2  0
 22 23  1  0
M  END
> <PUBCHEM_COMPOUND_CID>
5284645

> <PUBCHEM_CONFORMER_RMSD>
0.6

> <PUBCHEM_CONFORMER_DIVERSEORDER>
1

> <PUBCHEM_MMFF94_PARTIAL_CHARGES>
24
1 -0.68
12 0.28
13 0.14
15 -0.29
16 0.09
17 0.03
18 0.63
19 -0.18
2 -0.43
20 0.08
21 -0.15
22 0.08
23 -0.15
3 -0.57
4 -0.53
41 0.4
42 0.15
43 0.15
44 0.15
45 0.15
46 0.45
47 0.45
5 -0.53
7 0.28

> <PUBCHEM_EFFECTIVE_ROTOR_COUNT>
1.8

> <PUBCHEM_PHARMACOPHORE_FEATURES>
6
1 1 acceptor
1 1 donor
1 3 acceptor
1 4 donor
1 5 donor
6 16 17 20 21 22 23 rings

> <PUBCHEM_HEAVY_ATOM_COUNT>
23

> <PUBCHEM_ATOM_DEF_STEREO_COUNT>
2

> <PUBCHEM_ATOM_UDEF_STEREO_COUNT>
0

> <PUBCHEM_BOND_DEF_STEREO_COUNT>
1

> <PUBCHEM_BOND_UDEF_STEREO_COUNT>
0

> <PUBCHEM_ISOTOPIC_ATOM_COUNT>
0

> <PUBCHEM_COMPONENT_COUNT>
1

> <PUBCHEM_CACTVS_TAUTO_COUNT>
12

> <PUBCHEM_CONFORMER_ID>
0050A32500000001

> <PUBCHEM_MMFF94_ENERGY>
56.9454

> <PUBCHEM_FEATURE_SELFOVERLAP>
30.446

> <PUBCHEM_SHAPE_FINGERPRINT>
1100329 8 17836085568009856625
11112241 14 16986289841619931392
11578080 2 16734366241365874279
12166972 35 17967822613537111974
12403259 226 18337670931286267939
12506688 2 18412827975731104564
12596599 1 17914633677902020662
12788726 201 17627507133988941776
13140716 1 18267582403486064363
13402501 40 18336828697047978282
13533116 47 18056766653224983451
14251757 17 18262232209996353437
14787075 74 18336834185758012246
14790565 3 17545883724776523813
14866123 147 17767415573386001256
14931854 50 18336551491284682350
15196674 1 18334859415888043750
15322687 12 17104511174142344237
19591789 44 18337109089556020683
19930381 70 18413393137471364090
20028762 73 17044582808783771111
20691752 17 17022900138402631537
20715895 44 17609482839964013085
20832881 197 18343306989256920753
20905425 154 18409167675446349782
22182313 1 18041826412212926463
23227448 37 18189331260828617463
23352939 185 18342462530415398027
23557571 272 17910374109985112994
23559900 14 18335978778501818797
238 59 18196346307921625956
2748010 2 18117544331403189953
3323516 105 18411138077713944259
350125 39 18336268960321048513
3524813 1 18334011700965522918
3680242 22 18116995477305685354
463206 1 18269557311053435927
5265222 85 17471861776259798556
57527585 103 17390829632986241626
59755656 215 18188762977069237031
6443956 14 18340493347406701473
81228 2 17476913559209296171

> <PUBCHEM_SHAPE_MULTIPOLES>
443.98
8.21
4.09
1.18
1.54
0.84
-0.09
-3.84
1.51
-1.8
-1.33
-0.11
0.8
1.1

> <PUBCHEM_SHAPE_SELFOVERLAP>
916.908

> <PUBCHEM_SHAPE_VOLUME>
252.3

> <PUBCHEM_COORDINATE_TYPE>
2
5
10

> <Energy>
40.5071

> <minimizedAffinity>
-4.98865

> <CNNscore>
0.1185605600

> <CNNaffinity>
5.3760190010

> <CNN_VS>
0.6373838186

> <CNNaffinity_variance>
0.2430753261

$$$$
5284645


 26 27  0  0  0  0  0  0  0  0999 V2000
    0.4294   -2.8847   18.6476 O   0  0  0  0  0  0  0  0  0  0  0  0
   -3.0073   -3.8439   23.4856 O   0  0  0  0  0  0  0  0  0  0  0  0
   -3.9445   -1.7496   23.6899 O   0  0  0  0  0  0  0  0  0  0  0  0
   -6.3543   -2.6697   24.8957 O   0  0  0  0  0  0  0  0  0  0  0  0
   -8.8598   -5.3512   21.9448 O   0  0  0  0  0  0  0  0  0  0  0  0
   -0.0993   -1.9183   20.7868 C   0  0  0  0  0  0  0  0  0  0  0  0
   -0.5920   -2.8234   19.6446 C   0  0  0  0  0  0  0  0  0  0  0  0
   -0.9621   -1.9761   22.0503 C   0  0  0  0  0  0  0  0  0  0  0  0
   -1.8831   -2.3072   18.9908 C   0  0  0  0  0  0  0  0  0  0  0  0
   -0.7533   -3.2656   22.8512 C   0  0  0  0  0  0  0  0  0  0  0  0
   -2.4962   -3.2894   17.9813 C   0  0  0  0  0  0  0  0  0  0  0  0
   -1.7416   -3.3963   24.0147 C   0  0  0  0  0  0  0  0  0  0  0  0
   -3.0687   -4.5692   18.6021 C   0  0  0  0  0  0  0  0  0  0  0  0
   -1.2837   -4.4696   24.9978 C   0  0  0  0  0  0  0  0  0  0  0  0
   -4.2084   -4.3062   19.5485 C   0  0  0  0  0  0  0  0  0  0  0  0
   -5.2314   -3.5919   22.9312 C   0  0  0  0  0  0  0  0  0  0  0  0
   -5.3144   -4.3694   21.7588 C   0  0  0  0  0  0  0  0  0  0  0  0
   -3.9841   -2.9248   23.3586 C   0  0  0  0  0  0  0  0  0  0  0  0
   -4.1760   -4.6066   20.8568 C   0  0  0  0  0  0  0  0  0  0  0  0
   -6.3672   -3.4046   23.7354 C   0  0  0  0  0  0  0  0  0  0  0  0
   -6.5477   -4.9700   21.4378 C   0  0  0  0  0  0  0  0  0  0  0  0
   -7.6623   -4.7762   22.2505 C   0  0  0  0  0  0  0  0  0  0  0  0
   -7.5819   -3.9936   23.3963 C   0  0  0  0  0  0  0  0  0  0  0  0
    1.2516   -3.2095   19.0467 H   0  0  0  0  0  0  0  0  0  0  0  0
   -5.5648   -2.2495   25.1753 H   0  0  0  0  0  0  0  0  0  0  0  0
   -8.9418   -5.8836   21.1782 H   0  0  0  0  0  0  0  0  0  0  0  0
  1  7  1  0
  1 24  1  0
  2 12  1  0
  2 18  1  0
  3 18  2  0
  4 20  1  0
  4 25  1  0
  5 22  1  0
  5 26  1  0
  6  7  1  0
  6  8  1  0
  7  9  1  0
  8 10  1  0
  9 11  1  0
 10 12  1  0
 11 13  1  0
 12 14  1  0
 13 15  1  0
 15 19  2  0
 16 17  2  0
 16 18  1  0
 16 20  1  0
 17 19  1  0
 17 21  1  0
 20 23  2  0
 21 22  2  0
 22 23  1  0
M  END
> <PUBCHEM_COMPOUND_CID>
5284645

> <PUBCHEM_CONFORMER_RMSD>
0.6

> <PUBCHEM_CONFORMER_DIVERSEORDER>
1

> <PUBCHEM_MMFF94_PARTIAL_CHARGES>
24
1 -0.68
12 0.28
13 0.14
15 -0.29
16 0.09
17 0.03
18 0.63
19 -0.18
2 -0.43
20 0.08
21 -0.15
22 0.08
23 -0.15
3 -0.57
4 -0.53
41 0.4
42 0.15
43 0.15
44 0.15
45 0.15
46 0.45
47 0.45
5 -0.53
7 0.28

> <PUBCHEM_EFFECTIVE_ROTOR_COUNT>
1.8

> <PUBCHEM_PHARMACOPHORE_FEATURES>
6
1 1 acceptor
1 1 donor
1 3 acceptor
1 4 donor
1 5 donor
6 16 17 20 21 22 23 rings

> <PUBCHEM_HEAVY_ATOM_COUNT>
23

> <PUBCHEM_ATOM_DEF_STEREO_COUNT>
2

> <PUBCHEM_ATOM_UDEF_STEREO_COUNT>
0

> <PUBCHEM_BOND_DEF_STEREO_COUNT>
1

> <PUBCHEM_BOND_UDEF_STEREO_COUNT>
0

> <PUBCHEM_ISOTOPIC_ATOM_COUNT>
0

> <PUBCHEM_COMPONENT_COUNT>
1

> <PUBCHEM_CACTVS_TAUTO_COUNT>
12

> <PUBCHEM_CONFORMER_ID>
0050A32500000001

> <PUBCHEM_MMFF94_ENERGY>
56.9454

> <PUBCHEM_FEATURE_SELFOVERLAP>
30.446

> <PUBCHEM_SHAPE_FINGERPRINT>
1100329 8 17836085568009856625
11112241 14 16986289841619931392
11578080 2 16734366241365874279
12166972 35 17967822613537111974
12403259 226 18337670931286267939
12506688 2 18412827975731104564
12596599 1 17914633677902020662
12788726 201 17627507133988941776
13140716 1 18267582403486064363
13402501 40 18336828697047978282
13533116 47 18056766653224983451
14251757 17 18262232209996353437
14787075 74 18336834185758012246
14790565 3 17545883724776523813
14866123 147 17767415573386001256
14931854 50 18336551491284682350
15196674 1 18334859415888043750
15322687 12 17104511174142344237
19591789 44 18337109089556020683
19930381 70 18413393137471364090
20028762 73 17044582808783771111
20691752 17 17022900138402631537
20715895 44 17609482839964013085
20832881 197 18343306989256920753
20905425 154 18409167675446349782
22182313 1 18041826412212926463
23227448 37 18189331260828617463
23352939 185 18342462530415398027
23557571 272 17910374109985112994
23559900 14 18335978778501818797
238 59 18196346307921625956
2748010 2 18117544331403189953
3323516 105 18411138077713944259
350125 39 18336268960321048513
3524813 1 18334011700965522918
3680242 22 18116995477305685354
463206 1 18269557311053435927
5265222 85 17471861776259798556
57527585 103 17390829632986241626
59755656 215 18188762977069237031
6443956 14 18340493347406701473
81228 2 17476913559209296171

> <PUBCHEM_SHAPE_MULTIPOLES>
443.98
8.21
4.09
1.18
1.54
0.84
-0.09
-3.84
1.51
-1.8
-1.33
-0.11
0.8
1.1

> <PUBCHEM_SHAPE_SELFOVERLAP>
916.908

> <PUBCHEM_SHAPE_VOLUME>
252.3

> <PUBCHEM_COORDINATE_TYPE>
2
5
10

> <Energy>
40.5071

> <minimizedAffinity>
0.08901

> <CNNscore>
0.1171082705

> <CNNaffinity>
5.0853500366

> <CNN_VS>
0.5955365300

> <CNNaffinity_variance>
0.1228493676

$$$$
5284645


 26 27  0  0  0  0  0  0  0  0999 V2000
   -0.2730   -2.0202   21.3915 O   0  0  0  0  0  0  0  0  0  0  0  0
   -5.2444   -5.3984   21.4883 O   0  0  0  0  0  0  0  0  0  0  0  0
   -4.7214   -6.7685   23.2648 O   0  0  0  0  0  0  0  0  0  0  0  0
   -7.4238   -7.2087   24.0462 O   0  0  0  0  0  0  0  0  0  0  0  0
   -9.4713   -3.2373   25.5332 O   0  0  0  0  0  0  0  0  0  0  0  0
   -0.9678   -4.3219   21.4851 C   0  0  0  0  0  0  0  0  0  0  0  0
   -1.3563   -2.8640   21.7855 C   0  0  0  0  0  0  0  0  0  0  0  0
   -2.1277   -5.3155   21.5926 C   0  0  0  0  0  0  0  0  0  0  0  0
   -1.6494   -2.6206   23.2740 C   0  0  0  0  0  0  0  0  0  0  0  0
   -3.0950   -5.2267   20.4076 C   0  0  0  0  0  0  0  0  0  0  0  0
   -2.2224   -1.2260   23.5678 C   0  0  0  0  0  0  0  0  0  0  0  0
   -4.3412   -6.0960   20.6053 C   0  0  0  0  0  0  0  0  0  0  0  0
   -3.6391   -0.9912   23.0306 C   0  0  0  0  0  0  0  0  0  0  0  0
   -5.0878   -6.2821   19.2876 C   0  0  0  0  0  0  0  0  0  0  0  0
   -4.6613   -1.9095   23.6435 C   0  0  0  0  0  0  0  0  0  0  0  0
   -6.3725   -5.0785   23.4740 C   0  0  0  0  0  0  0  0  0  0  0  0
   -6.3931   -3.6719   23.5573 C   0  0  0  0  0  0  0  0  0  0  0  0
   -5.3077   -5.8196   22.7666 C   0  0  0  0  0  0  0  0  0  0  0  0
   -5.3754   -2.8048   22.9424 C   0  0  0  0  0  0  0  0  0  0  0  0
   -7.3766   -5.8370   24.0972 C   0  0  0  0  0  0  0  0  0  0  0  0
   -7.4541   -3.0562   24.2502 C   0  0  0  0  0  0  0  0  0  0  0  0
   -8.4435   -3.8255   24.8581 C   0  0  0  0  0  0  0  0  0  0  0  0
   -8.4103   -5.2133   24.7900 C   0  0  0  0  0  0  0  0  0  0  0  0
   -0.0767   -2.1633   20.4525 H   0  0  0  0  0  0  0  0  0  0  0  0
   -6.7550   -7.6840   23.5937 H   0  0  0  0  0  0  0  0  0  0  0  0
   -9.5180   -2.3035   25.5945 H   0  0  0  0  0  0  0  0  0  0  0  0
  1  7  1  0
  1 24  1  0
  2 12  1  0
  2 18  1  0
  3 18  2  0
  4 20  1  0
  4 25  1  0
  5 22  1  0
  5 26  1  0
  6  7  1  0
  6  8  1  0
  7  9  1  0
  8 10  1  0
  9 11  1  0
 10 12  1  0
 11 13  1  0
 12 14  1  0
 13 15  1  0
 15 19  2  0
 16 17  2  0
 16 18  1  0
 16 20  1  0
 17 19  1  0
 17 21  1  0
 20 23  2  0
 21 22  2  0
 22 23  1  0
M  END
> <PUBCHEM_COMPOUND_CID>
5284645

> <PUBCHEM_CONFORMER_RMSD>
0.6

> <PUBCHEM_CONFORMER_DIVERSEORDER>
1

> <PUBCHEM_MMFF94_PARTIAL_CHARGES>
24
1 -0.68
12 0.28
13 0.14
15 -0.29
16 0.09
17 0.03
18 0.63
19 -0.18
2 -0.43
20 0.08
21 -0.15
22 0.08
23 -0.15
3 -0.57
4 -0.53
41 0.4
42 0.15
43 0.15
44 0.15
45 0.15
46 0.45
47 0.45
5 -0.53
7 0.28

> <PUBCHEM_EFFECTIVE_ROTOR_COUNT>
1.8

> <PUBCHEM_PHARMACOPHORE_FEATURES>
6
1 1 acceptor
1 1 donor
1 3 acceptor
1 4 donor
1 5 donor
6 16 17 20 21 22 23 rings

> <PUBCHEM_HEAVY_ATOM_COUNT>
23

> <PUBCHEM_ATOM_DEF_STEREO_COUNT>
2

> <PUBCHEM_ATOM_UDEF_STEREO_COUNT>
0

> <PUBCHEM_BOND_DEF_STEREO_COUNT>
1

> <PUBCHEM_BOND_UDEF_STEREO_COUNT>
0

> <PUBCHEM_ISOTOPIC_ATOM_COUNT>
0

> <PUBCHEM_COMPONENT_COUNT>
1

> <PUBCHEM_CACTVS_TAUTO_COUNT>
12

> <PUBCHEM_CONFORMER_ID>
0050A32500000001

> <PUBCHEM_MMFF94_ENERGY>
56.9454

> <PUBCHEM_FEATURE_SELFOVERLAP>
30.446

> <PUBCHEM_SHAPE_FINGERPRINT>
1100329 8 17836085568009856625
11112241 14 16986289841619931392
11578080 2 16734366241365874279
12166972 35 17967822613537111974
12403259 226 18337670931286267939
12506688 2 18412827975731104564
12596599 1 17914633677902020662
12788726 201 17627507133988941776
13140716 1 18267582403486064363
13402501 40 18336828697047978282
13533116 47 18056766653224983451
14251757 17 18262232209996353437
14787075 74 18336834185758012246
14790565 3 17545883724776523813
14866123 147 17767415573386001256
14931854 50 18336551491284682350
15196674 1 18334859415888043750
15322687 12 17104511174142344237
19591789 44 18337109089556020683
19930381 70 18413393137471364090
20028762 73 17044582808783771111
20691752 17 17022900138402631537
20715895 44 17609482839964013085
20832881 197 18343306989256920753
20905425 154 18409167675446349782
22182313 1 18041826412212926463
23227448 37 18189331260828617463
23352939 185 18342462530415398027
23557571 272 17910374109985112994
23559900 14 18335978778501818797
238 59 18196346307921625956
2748010 2 18117544331403189953
3323516 105 18411138077713944259
350125 39 18336268960321048513
3524813 1 18334011700965522918
3680242 22 18116995477305685354
463206 1 18269557311053435927
5265222 85 17471861776259798556
57527585 103 17390829632986241626
59755656 215 18188762977069237031
6443956 14 18340493347406701473
81228 2 17476913559209296171

> <PUBCHEM_SHAPE_MULTIPOLES>
443.98
8.21
4.09
1.18
1.54
0.84
-0.09
-3.84
1.51
-1.8
-1.33
-0.11
0.8
1.1

> <PUBCHEM_SHAPE_SELFOVERLAP>
916.908

> <PUBCHEM_SHAPE_VOLUME>
252.3

> <PUBCHEM_COORDINATE_TYPE>
2
5
10

> <Energy>
40.5071

> <minimizedAffinity>
-2.44220

> <CNNscore>
0.0998823494

> <CNNaffinity>
5.2923254967

> <CNN_VS>
0.5286099315

> <CNNaffinity_variance>
0.1671823263

$$$$
