5284645


 26 27  0  0  0  0  0  0  0  0999 V2000
   25.4149   -4.8975   11.5836 O   0  0  0  0  0  0  0  0  0  0  0  0
   24.5707   -1.3225    6.8250 O   0  0  0  0  0  0  0  0  0  0  0  0
   25.7308   -2.5343    5.2463 O   0  0  0  0  0  0  0  0  0  0  0  0
   24.1632   -1.6419    3.0432 O   0  0  0  0  0  0  0  0  0  0  0  0
   19.7076   -3.1318    3.3644 O   0  0  0  0  0  0  0  0  0  0  0  0
   26.6346   -3.8430    9.7975 C   0  0  0  0  0  0  0  0  0  0  0  0
   25.2687   -4.3782   10.2607 C   0  0  0  0  0  0  0  0  0  0  0  0
   26.5794   -3.0068    8.5161 C   0  0  0  0  0  0  0  0  0  0  0  0
   24.7284   -5.4948    9.3540 C   0  0  0  0  0  0  0  0  0  0  0  0
   25.9998   -1.6073    8.7469 C   0  0  0  0  0  0  0  0  0  0  0  0
   23.2866   -5.9104    9.6831 C   0  0  0  0  0  0  0  0  0  0  0  0
   25.7854   -0.8413    7.4374 C   0  0  0  0  0  0  0  0  0  0  0  0
   22.2275   -4.8478    9.3668 C   0  0  0  0  0  0  0  0  0  0  0  0
   25.5704    0.6451    7.7070 C   0  0  0  0  0  0  0  0  0  0  0  0
   22.1525   -4.5081    7.9029 C   0  0  0  0  0  0  0  0  0  0  0  0
   23.3611   -2.4383    5.2095 C   0  0  0  0  0  0  0  0  0  0  0  0
   22.3028   -2.9696    5.9735 C   0  0  0  0  0  0  0  0  0  0  0  0
   24.6963   -2.1635    5.7799 C   0  0  0  0  0  0  0  0  0  0  0  0
   22.4126   -3.2881    7.4061 C   0  0  0  0  0  0  0  0  0  0  0  0
   23.1795   -2.1699    3.8432 C   0  0  0  0  0  0  0  0  0  0  0  0
   21.0641   -3.1924    5.3404 C   0  0  0  0  0  0  0  0  0  0  0  0
   20.9019   -2.9157    3.9849 C   0  0  0  0  0  0  0  0  0  0  0  0
   21.9531   -2.4092    3.2298 C   0  0  0  0  0  0  0  0  0  0  0  0
   25.7558   -4.2024   12.1678 H   0  0  0  0  0  0  0  0  0  0  0  0
   25.0100   -1.4595    3.4006 H   0  0  0  0  0  0  0  0  0  0  0  0
   18.9823   -3.4726    3.8500 H   0  0  0  0  0  0  0  0  0  0  0  0
  1  7  1  0
  1 24  1  0
  2 12  1  0
  2 18  1  0
  3 18  2  0
  4 20  1  0
  4 25  1  0
  5 22  1  0
  5 26  1  0
  6  7  1  0
  6  8  1  0
  7  9  1  0
  8 10  1  0
  9 11  1  0
 10 12  1  0
 11 13  1  0
 12 14  1  0
 13 15  1  0
 15 19  2  0
 16 17  2  0
 16 18  1  0
 16 20  1  0
 17 19  1  0
 17 21  1  0
 20 23  2  0
 21 22  2  0
 22 23  1  0
M  END
> <PUBCHEM_COMPOUND_CID>
5284645

> <PUBCHEM_CONFORMER_RMSD>
0.6

> <PUBCHEM_CONFORMER_DIVERSEORDER>
1

> <PUBCHEM_MMFF94_PARTIAL_CHARGES>
24
1 -0.68
12 0.28
13 0.14
15 -0.29
16 0.09
17 0.03
18 0.63
19 -0.18
2 -0.43
20 0.08
21 -0.15
22 0.08
23 -0.15
3 -0.57
4 -0.53
41 0.4
42 0.15
43 0.15
44 0.15
45 0.15
46 0.45
47 0.45
5 -0.53
7 0.28

> <PUBCHEM_EFFECTIVE_ROTOR_COUNT>
1.8

> <PUBCHEM_PHARMACOPHORE_FEATURES>
6
1 1 acceptor
1 1 donor
1 3 acceptor
1 4 donor
1 5 donor
6 16 17 20 21 22 23 rings

> <PUBCHEM_HEAVY_ATOM_COUNT>
23

> <PUBCHEM_ATOM_DEF_STEREO_COUNT>
2

> <PUBCHEM_ATOM_UDEF_STEREO_COUNT>
0

> <PUBCHEM_BOND_DEF_STEREO_COUNT>
1

> <PUBCHEM_BOND_UDEF_STEREO_COUNT>
0

> <PUBCHEM_ISOTOPIC_ATOM_COUNT>
0

> <PUBCHEM_COMPONENT_COUNT>
1

> <PUBCHEM_CACTVS_TAUTO_COUNT>
12

> <PUBCHEM_CONFORMER_ID>
0050A32500000001

> <PUBCHEM_MMFF94_ENERGY>
56.9454

> <PUBCHEM_FEATURE_SELFOVERLAP>
30.446

> <PUBCHEM_SHAPE_FINGERPRINT>
1100329 8 17836085568009856625
11112241 14 16986289841619931392
11578080 2 16734366241365874279
12166972 35 17967822613537111974
12403259 226 18337670931286267939
12506688 2 18412827975731104564
12596599 1 17914633677902020662
12788726 201 17627507133988941776
13140716 1 18267582403486064363
13402501 40 18336828697047978282
13533116 47 18056766653224983451
14251757 17 18262232209996353437
14787075 74 18336834185758012246
14790565 3 17545883724776523813
14866123 147 17767415573386001256
14931854 50 18336551491284682350
15196674 1 18334859415888043750
15322687 12 17104511174142344237
19591789 44 18337109089556020683
19930381 70 18413393137471364090
20028762 73 17044582808783771111
20691752 17 17022900138402631537
20715895 44 17609482839964013085
20832881 197 18343306989256920753
20905425 154 18409167675446349782
22182313 1 18041826412212926463
23227448 37 18189331260828617463
23352939 185 18342462530415398027
23557571 272 17910374109985112994
23559900 14 18335978778501818797
238 59 18196346307921625956
2748010 2 18117544331403189953
3323516 105 18411138077713944259
350125 39 18336268960321048513
3524813 1 18334011700965522918
3680242 22 18116995477305685354
463206 1 18269557311053435927
5265222 85 17471861776259798556
57527585 103 17390829632986241626
59755656 215 18188762977069237031
6443956 14 18340493347406701473
81228 2 17476913559209296171

> <PUBCHEM_SHAPE_MULTIPOLES>
443.98
8.21
4.09
1.18
1.54
0.84
-0.09
-3.84
1.51
-1.8
-1.33
-0.11
0.8
1.1

> <PUBCHEM_SHAPE_SELFOVERLAP>
916.908

> <PUBCHEM_SHAPE_VOLUME>
252.3

> <PUBCHEM_COORDINATE_TYPE>
2
5
10

> <Energy>
40.5071

> <minimizedAffinity>
-10.97453

> <CNNscore>
0.7976048589

> <CNNaffinity>
7.0223307610

> <CNN_VS>
5.6010451317

> <CNNaffinity_variance>
0.3062620163

$$$$
5284645


 26 27  0  0  0  0  0  0  0  0999 V2000
   27.7427   -2.5583   11.2303 O   0  0  0  0  0  0  0  0  0  0  0  0
   23.1079   -4.7415    8.0854 O   0  0  0  0  0  0  0  0  0  0  0  0
   21.5809   -3.0599    8.4688 O   0  0  0  0  0  0  0  0  0  0  0  0
   20.1823   -3.4271    6.0159 O   0  0  0  0  0  0  0  0  0  0  0  0
   22.8952   -2.4185    2.3012 O   0  0  0  0  0  0  0  0  0  0  0  0
   25.3838   -2.9880   11.4312 C   0  0  0  0  0  0  0  0  0  0  0  0
   26.5458   -2.7037   10.4640 C   0  0  0  0  0  0  0  0  0  0  0  0
   24.0925   -3.4417   10.7449 C   0  0  0  0  0  0  0  0  0  0  0  0
   26.3346   -1.4245    9.6395 C   0  0  0  0  0  0  0  0  0  0  0  0
   24.1629   -4.8899   10.2494 C   0  0  0  0  0  0  0  0  0  0  0  0
   27.3845   -1.2238    8.5362 C   0  0  0  0  0  0  0  0  0  0  0  0
   22.9397   -5.2806    9.4133 C   0  0  0  0  0  0  0  0  0  0  0  0
   27.3036   -2.2343    7.3859 C   0  0  0  0  0  0  0  0  0  0  0  0
   22.8529   -6.7956    9.2535 C   0  0  0  0  0  0  0  0  0  0  0  0
   26.0049   -2.1635    6.6296 C   0  0  0  0  0  0  0  0  0  0  0  0
   22.6013   -3.3181    6.3432 C   0  0  0  0  0  0  0  0  0  0  0  0
   23.8768   -3.0974    5.7861 C   0  0  0  0  0  0  0  0  0  0  0  0
   22.4001   -3.6389    7.7715 C   0  0  0  0  0  0  0  0  0  0  0  0
   25.1274   -3.1773    6.5578 C   0  0  0  0  0  0  0  0  0  0  0  0
   21.4534   -3.2137    5.5412 C   0  0  0  0  0  0  0  0  0  0  0  0
   23.9667   -2.8022    4.4115 C   0  0  0  0  0  0  0  0  0  0  0  0
   22.8167   -2.7072    3.6311 C   0  0  0  0  0  0  0  0  0  0  0  0
   21.5588   -2.9071    4.1875 C   0  0  0  0  0  0  0  0  0  0  0  0
   27.8889   -3.3598   11.7566 H   0  0  0  0  0  0  0  0  0  0  0  0
   20.0487   -3.6370    6.9193 H   0  0  0  0  0  0  0  0  0  0  0  0
   23.7306   -2.2791    1.9006 H   0  0  0  0  0  0  0  0  0  0  0  0
  1  7  1  0
  1 24  1  0
  2 12  1  0
  2 18  1  0
  3 18  2  0
  4 20  1  0
  4 25  1  0
  5 22  1  0
  5 26  1  0
  6  7  1  0
  6  8  1  0
  7  9  1  0
  8 10  1  0
  9 11  1  0
 10 12  1  0
 11 13  1  0
 12 14  1  0
 13 15  1  0
 15 19  2  0
 16 17  2  0
 16 18  1  0
 16 20  1  0
 17 19  1  0
 17 21  1  0
 20 23  2  0
 21 22  2  0
 22 23  1  0
M  END
> <PUBCHEM_COMPOUND_CID>
5284645

> <PUBCHEM_CONFORMER_RMSD>
0.6

> <PUBCHEM_CONFORMER_DIVERSEORDER>
1

> <PUBCHEM_MMFF94_PARTIAL_CHARGES>
24
1 -0.68
12 0.28
13 0.14
15 -0.29
16 0.09
17 0.03
18 0.63
19 -0.18
2 -0.43
20 0.08
21 -0.15
22 0.08
23 -0.15
3 -0.57
4 -0.53
41 0.4
42 0.15
43 0.15
44 0.15
45 0.15
46 0.45
47 0.45
5 -0.53
7 0.28

> <PUBCHEM_EFFECTIVE_ROTOR_COUNT>
1.8

> <PUBCHEM_PHARMACOPHORE_FEATURES>
6
1 1 acceptor
1 1 donor
1 3 acceptor
1 4 donor
1 5 donor
6 16 17 20 21 22 23 rings

> <PUBCHEM_HEAVY_ATOM_COUNT>
23

> <PUBCHEM_ATOM_DEF_STEREO_COUNT>
2

> <PUBCHEM_ATOM_UDEF_STEREO_COUNT>
0

> <PUBCHEM_BOND_DEF_STEREO_COUNT>
1

> <PUBCHEM_BOND_UDEF_STEREO_COUNT>
0

> <PUBCHEM_ISOTOPIC_ATOM_COUNT>
0

> <PUBCHEM_COMPONENT_COUNT>
1

> <PUBCHEM_CACTVS_TAUTO_COUNT>
12

> <PUBCHEM_CONFORMER_ID>
0050A32500000001

> <PUBCHEM_MMFF94_ENERGY>
56.9454

> <PUBCHEM_FEATURE_SELFOVERLAP>
30.446

> <PUBCHEM_SHAPE_FINGERPRINT>
1100329 8 17836085568009856625
11112241 14 16986289841619931392
11578080 2 16734366241365874279
12166972 35 17967822613537111974
12403259 226 18337670931286267939
12506688 2 18412827975731104564
12596599 1 17914633677902020662
12788726 201 17627507133988941776
13140716 1 18267582403486064363
13402501 40 18336828697047978282
13533116 47 18056766653224983451
14251757 17 18262232209996353437
14787075 74 18336834185758012246
14790565 3 17545883724776523813
14866123 147 17767415573386001256
14931854 50 18336551491284682350
15196674 1 18334859415888043750
15322687 12 17104511174142344237
19591789 44 18337109089556020683
19930381 70 18413393137471364090
20028762 73 17044582808783771111
20691752 17 17022900138402631537
20715895 44 17609482839964013085
20832881 197 18343306989256920753
20905425 154 18409167675446349782
22182313 1 18041826412212926463
23227448 37 18189331260828617463
23352939 185 18342462530415398027
23557571 272 17910374109985112994
23559900 14 18335978778501818797
238 59 18196346307921625956
2748010 2 18117544331403189953
3323516 105 18411138077713944259
350125 39 18336268960321048513
3524813 1 18334011700965522918
3680242 22 18116995477305685354
463206 1 18269557311053435927
5265222 85 17471861776259798556
57527585 103 17390829632986241626
59755656 215 18188762977069237031
6443956 14 18340493347406701473
81228 2 17476913559209296171

> <PUBCHEM_SHAPE_MULTIPOLES>
443.98
8.21
4.09
1.18
1.54
0.84
-0.09
-3.84
1.51
-1.8
-1.33
-0.11
0.8
1.1

> <PUBCHEM_SHAPE_SELFOVERLAP>
916.908

> <PUBCHEM_SHAPE_VOLUME>
252.3

> <PUBCHEM_COORDINATE_TYPE>
2
5
10

> <Energy>
40.5071

> <minimizedAffinity>
-10.88867

> <CNNscore>
0.7249203324

> <CNNaffinity>
6.7315506935

> <CNN_VS>
4.8798379898

> <CNNaffinity_variance>
0.2255794853

$$$$
5284645


 26 27  0  0  0  0  0  0  0  0999 V2000
   27.7527   -4.7959    9.8187 O   0  0  0  0  0  0  0  0  0  0  0  0
   24.1200   -1.2755    6.5710 O   0  0  0  0  0  0  0  0  0  0  0  0
   24.7351   -1.9630    4.4602 O   0  0  0  0  0  0  0  0  0  0  0  0
   22.2089   -1.4080    3.2695 O   0  0  0  0  0  0  0  0  0  0  0  0
   18.8201   -4.1724    5.0159 O   0  0  0  0  0  0  0  0  0  0  0  0
   27.7948   -3.2924    7.9406 C   0  0  0  0  0  0  0  0  0  0  0  0
   26.9319   -4.2428    8.7884 C   0  0  0  0  0  0  0  0  0  0  0  0
   26.9964   -2.4138    6.9738 C   0  0  0  0  0  0  0  0  0  0  0  0
   26.3340   -5.3957    7.9676 C   0  0  0  0  0  0  0  0  0  0  0  0
   26.2608   -1.2714    7.6820 C   0  0  0  0  0  0  0  0  0  0  0  0
   25.3189   -6.2443    8.7481 C   0  0  0  0  0  0  0  0  0  0  0  0
   25.3282   -0.5046    6.7386 C   0  0  0  0  0  0  0  0  0  0  0  0
   24.0093   -5.5225    9.0869 C   0  0  0  0  0  0  0  0  0  0  0  0
   24.9062    0.8257    7.3556 C   0  0  0  0  0  0  0  0  0  0  0  0
   23.2322   -5.1083    7.8669 C   0  0  0  0  0  0  0  0  0  0  0  0
   22.6334   -2.5715    5.3758 C   0  0  0  0  0  0  0  0  0  0  0  0
   22.1671   -3.4500    6.3741 C   0  0  0  0  0  0  0  0  0  0  0  0
   23.9770   -1.9580    5.4182 C   0  0  0  0  0  0  0  0  0  0  0  0
   22.9561   -3.8314    7.5565 C   0  0  0  0  0  0  0  0  0  0  0  0
   21.8223   -2.2642    4.2715 C   0  0  0  0  0  0  0  0  0  0  0  0
   20.8681   -3.9805    6.2478 C   0  0  0  0  0  0  0  0  0  0  0  0
   20.0767   -3.6604    5.1471 C   0  0  0  0  0  0  0  0  0  0  0  0
   20.5464   -2.8082    4.1547 C   0  0  0  0  0  0  0  0  0  0  0  0
   28.1374   -4.0784   10.3457 H   0  0  0  0  0  0  0  0  0  0  0  0
   23.0573   -1.0109    3.2940 H   0  0  0  0  0  0  0  0  0  0  0  0
   18.4787   -4.7494    5.6704 H   0  0  0  0  0  0  0  0  0  0  0  0
  1  7  1  0
  1 24  1  0
  2 12  1  0
  2 18  1  0
  3 18  2  0
  4 20  1  0
  4 25  1  0
  5 22  1  0
  5 26  1  0
  6  7  1  0
  6  8  1  0
  7  9  1  0
  8 10  1  0
  9 11  1  0
 10 12  1  0
 11 13  1  0
 12 14  1  0
 13 15  1  0
 15 19  2  0
 16 17  2  0
 16 18  1  0
 16 20  1  0
 17 19  1  0
 17 21  1  0
 20 23  2  0
 21 22  2  0
 22 23  1  0
M  END
> <PUBCHEM_COMPOUND_CID>
5284645

> <PUBCHEM_CONFORMER_RMSD>
0.6

> <PUBCHEM_CONFORMER_DIVERSEORDER>
1

> <PUBCHEM_MMFF94_PARTIAL_CHARGES>
24
1 -0.68
12 0.28
13 0.14
15 -0.29
16 0.09
17 0.03
18 0.63
19 -0.18
2 -0.43
20 0.08
21 -0.15
22 0.08
23 -0.15
3 -0.57
4 -0.53
41 0.4
42 0.15
43 0.15
44 0.15
45 0.15
46 0.45
47 0.45
5 -0.53
7 0.28

> <PUBCHEM_EFFECTIVE_ROTOR_COUNT>
1.8

> <PUBCHEM_PHARMACOPHORE_FEATURES>
6
1 1 acceptor
1 1 donor
1 3 acceptor
1 4 donor
1 5 donor
6 16 17 20 21 22 23 rings

> <PUBCHEM_HEAVY_ATOM_COUNT>
23

> <PUBCHEM_ATOM_DEF_STEREO_COUNT>
2

> <PUBCHEM_ATOM_UDEF_STEREO_COUNT>
0

> <PUBCHEM_BOND_DEF_STEREO_COUNT>
1

> <PUBCHEM_BOND_UDEF_STEREO_COUNT>
0

> <PUBCHEM_ISOTOPIC_ATOM_COUNT>
0

> <PUBCHEM_COMPONENT_COUNT>
1

> <PUBCHEM_CACTVS_TAUTO_COUNT>
12

> <PUBCHEM_CONFORMER_ID>
0050A32500000001

> <PUBCHEM_MMFF94_ENERGY>
56.9454

> <PUBCHEM_FEATURE_SELFOVERLAP>
30.446

> <PUBCHEM_SHAPE_FINGERPRINT>
1100329 8 17836085568009856625
11112241 14 16986289841619931392
11578080 2 16734366241365874279
12166972 35 17967822613537111974
12403259 226 18337670931286267939
12506688 2 18412827975731104564
12596599 1 17914633677902020662
12788726 201 17627507133988941776
13140716 1 18267582403486064363
13402501 40 18336828697047978282
13533116 47 18056766653224983451
14251757 17 18262232209996353437
14787075 74 18336834185758012246
14790565 3 17545883724776523813
14866123 147 17767415573386001256
14931854 50 18336551491284682350
15196674 1 18334859415888043750
15322687 12 17104511174142344237
19591789 44 18337109089556020683
19930381 70 18413393137471364090
20028762 73 17044582808783771111
20691752 17 17022900138402631537
20715895 44 17609482839964013085
20832881 197 18343306989256920753
20905425 154 18409167675446349782
22182313 1 18041826412212926463
23227448 37 18189331260828617463
23352939 185 18342462530415398027
23557571 272 17910374109985112994
23559900 14 18335978778501818797
238 59 18196346307921625956
2748010 2 18117544331403189953
3323516 105 18411138077713944259
350125 39 18336268960321048513
3524813 1 18334011700965522918
3680242 22 18116995477305685354
463206 1 18269557311053435927
5265222 85 17471861776259798556
57527585 103 17390829632986241626
59755656 215 18188762977069237031
6443956 14 18340493347406701473
81228 2 17476913559209296171

> <PUBCHEM_SHAPE_MULTIPOLES>
443.98
8.21
4.09
1.18
1.54
0.84
-0.09
-3.84
1.51
-1.8
-1.33
-0.11
0.8
1.1

> <PUBCHEM_SHAPE_SELFOVERLAP>
916.908

> <PUBCHEM_SHAPE_VOLUME>
252.3

> <PUBCHEM_COORDINATE_TYPE>
2
5
10

> <Energy>
40.5071

> <minimizedAffinity>
2.31280

> <CNNscore>
0.4943337440

> <CNNaffinity>
6.4798817635

> <CNN_VS>
3.2032241821

> <CNNaffinity_variance>
0.2966571152

$$$$
5284645


 26 27  0  0  0  0  0  0  0  0999 V2000
   28.5285   -2.2428   10.4118 O   0  0  0  0  0  0  0  0  0  0  0  0
   24.2456   -0.5970    6.5278 O   0  0  0  0  0  0  0  0  0  0  0  0
   24.7411   -2.0412    4.8029 O   0  0  0  0  0  0  0  0  0  0  0  0
   22.0716   -2.1873    3.8233 O   0  0  0  0  0  0  0  0  0  0  0  0
   19.1859   -4.2202    6.9403 O   0  0  0  0  0  0  0  0  0  0  0  0
   28.2321   -1.6340    8.1029 C   0  0  0  0  0  0  0  0  0  0  0  0
   27.5613   -2.2122    9.3608 C   0  0  0  0  0  0  0  0  0  0  0  0
   27.2561   -1.2797    6.9777 C   0  0  0  0  0  0  0  0  0  0  0  0
   27.0250   -3.6362    9.1482 C   0  0  0  0  0  0  0  0  0  0  0  0
   26.4639    0.0006    7.2625 C   0  0  0  0  0  0  0  0  0  0  0  0
   26.1861   -4.1592   10.3240 C   0  0  0  0  0  0  0  0  0  0  0  0
   25.3698    0.2537    6.2200 C   0  0  0  0  0  0  0  0  0  0  0  0
   24.8397   -3.4506   10.5132 C   0  0  0  0  0  0  0  0  0  0  0  0
   24.8585    1.6887    6.3073 C   0  0  0  0  0  0  0  0  0  0  0  0
   23.9142   -3.6209    9.3392 C   0  0  0  0  0  0  0  0  0  0  0  0
   22.8122   -2.3624    6.1452 C   0  0  0  0  0  0  0  0  0  0  0  0
   22.5394   -2.7878    7.4607 C   0  0  0  0  0  0  0  0  0  0  0  0
   24.0768   -1.6972    5.7687 C   0  0  0  0  0  0  0  0  0  0  0  0
   23.4696   -2.6021    8.5860 C   0  0  0  0  0  0  0  0  0  0  0  0
   21.8755   -2.5854    5.1231 C   0  0  0  0  0  0  0  0  0  0  0  0
   21.3021   -3.4086    7.7223 C   0  0  0  0  0  0  0  0  0  0  0  0
   20.3837   -3.6172    6.6959 C   0  0  0  0  0  0  0  0  0  0  0  0
   20.6634   -3.2132    5.3958 C   0  0  0  0  0  0  0  0  0  0  0  0
   28.8762   -1.3491   10.5573 H   0  0  0  0  0  0  0  0  0  0  0  0
   22.8687   -1.7593    3.5796 H   0  0  0  0  0  0  0  0  0  0  0  0
   18.9718   -4.5024    7.8078 H   0  0  0  0  0  0  0  0  0  0  0  0
  1  7  1  0
  1 24  1  0
  2 12  1  0
  2 18  1  0
  3 18  2  0
  4 20  1  0
  4 25  1  0
  5 22  1  0
  5 26  1  0
  6  7  1  0
  6  8  1  0
  7  9  1  0
  8 10  1  0
  9 11  1  0
 10 12  1  0
 11 13  1  0
 12 14  1  0
 13 15  1  0
 15 19  2  0
 16 17  2  0
 16 18  1  0
 16 20  1  0
 17 19  1  0
 17 21  1  0
 20 23  2  0
 21 22  2  0
 22 23  1  0
M  END
> <PUBCHEM_COMPOUND_CID>
5284645

> <PUBCHEM_CONFORMER_RMSD>
0.6

> <PUBCHEM_CONFORMER_DIVERSEORDER>
1

> <PUBCHEM_MMFF94_PARTIAL_CHARGES>
24
1 -0.68
12 0.28
13 0.14
15 -0.29
16 0.09
17 0.03
18 0.63
19 -0.18
2 -0.43
20 0.08
21 -0.15
22 0.08
23 -0.15
3 -0.57
4 -0.53
41 0.4
42 0.15
43 0.15
44 0.15
45 0.15
46 0.45
47 0.45
5 -0.53
7 0.28

> <PUBCHEM_EFFECTIVE_ROTOR_COUNT>
1.8

> <PUBCHEM_PHARMACOPHORE_FEATURES>
6
1 1 acceptor
1 1 donor
1 3 acceptor
1 4 donor
1 5 donor
6 16 17 20 21 22 23 rings

> <PUBCHEM_HEAVY_ATOM_COUNT>
23

> <PUBCHEM_ATOM_DEF_STEREO_COUNT>
2

> <PUBCHEM_ATOM_UDEF_STEREO_COUNT>
0

> <PUBCHEM_BOND_DEF_STEREO_COUNT>
1

> <PUBCHEM_BOND_UDEF_STEREO_COUNT>
0

> <PUBCHEM_ISOTOPIC_ATOM_COUNT>
0

> <PUBCHEM_COMPONENT_COUNT>
1

> <PUBCHEM_CACTVS_TAUTO_COUNT>
12

> <PUBCHEM_CONFORMER_ID>
0050A32500000001

> <PUBCHEM_MMFF94_ENERGY>
56.9454

> <PUBCHEM_FEATURE_SELFOVERLAP>
30.446

> <PUBCHEM_SHAPE_FINGERPRINT>
1100329 8 17836085568009856625
11112241 14 16986289841619931392
11578080 2 16734366241365874279
12166972 35 17967822613537111974
12403259 226 18337670931286267939
12506688 2 18412827975731104564
12596599 1 17914633677902020662
12788726 201 17627507133988941776
13140716 1 18267582403486064363
13402501 40 18336828697047978282
13533116 47 18056766653224983451
14251757 17 18262232209996353437
14787075 74 18336834185758012246
14790565 3 17545883724776523813
14866123 147 17767415573386001256
14931854 50 18336551491284682350
15196674 1 18334859415888043750
15322687 12 17104511174142344237
19591789 44 18337109089556020683
19930381 70 18413393137471364090
20028762 73 17044582808783771111
20691752 17 17022900138402631537
20715895 44 17609482839964013085
20832881 197 18343306989256920753
20905425 154 18409167675446349782
22182313 1 18041826412212926463
23227448 37 18189331260828617463
23352939 185 18342462530415398027
23557571 272 17910374109985112994
23559900 14 18335978778501818797
238 59 18196346307921625956
2748010 2 18117544331403189953
3323516 105 18411138077713944259
350125 39 18336268960321048513
3524813 1 18334011700965522918
3680242 22 18116995477305685354
463206 1 18269557311053435927
5265222 85 17471861776259798556
57527585 103 17390829632986241626
59755656 215 18188762977069237031
6443956 14 18340493347406701473
81228 2 17476913559209296171

> <PUBCHEM_SHAPE_MULTIPOLES>
443.98
8.21
4.09
1.18
1.54
0.84
-0.09
-3.84
1.51
-1.8
-1.33
-0.11
0.8
1.1

> <PUBCHEM_SHAPE_SELFOVERLAP>
916.908

> <PUBCHEM_SHAPE_VOLUME>
252.3

> <PUBCHEM_COORDINATE_TYPE>
2
5
10

> <Energy>
40.5071

> <minimizedAffinity>
-2.26431

> <CNNscore>
0.4308579564

> <CNNaffinity>
6.1443328857

> <CNN_VS>
2.6473348141

> <CNNaffinity_variance>
0.0262820050

$$$$
5284645


 26 27  0  0  0  0  0  0  0  0999 V2000
   22.9467   -0.7778    3.0239 O   0  0  0  0  0  0  0  0  0  0  0  0
   21.4909   -3.9778    7.9001 O   0  0  0  0  0  0  0  0  0  0  0  0
   22.7376   -5.8693    7.4823 O   0  0  0  0  0  0  0  0  0  0  0  0
   23.1007   -6.5414   10.2253 O   0  0  0  0  0  0  0  0  0  0  0  0
   25.6671   -3.3021   12.4829 O   0  0  0  0  0  0  0  0  0  0  0  0
   22.2013   -2.9739    3.6651 C   0  0  0  0  0  0  0  0  0  0  0  0
   22.9429   -1.7026    4.1128 C   0  0  0  0  0  0  0  0  0  0  0  0
   21.8719   -3.9425    4.8041 C   0  0  0  0  0  0  0  0  0  0  0  0
   24.3969   -1.9763    4.5270 C   0  0  0  0  0  0  0  0  0  0  0  0
   20.7113   -3.4558    5.6781 C   0  0  0  0  0  0  0  0  0  0  0  0
   25.0959   -0.7619    5.1565 C   0  0  0  0  0  0  0  0  0  0  0  0
   20.5015   -4.3377    6.9134 C   0  0  0  0  0  0  0  0  0  0  0  0
   24.5553   -0.3559    6.5326 C   0  0  0  0  0  0  0  0  0  0  0  0
   19.1418   -4.0654    7.5501 C   0  0  0  0  0  0  0  0  0  0  0  0
   24.7367   -1.4249    7.5757 C   0  0  0  0  0  0  0  0  0  0  0  0
   23.3687   -4.3457    9.1872 C   0  0  0  0  0  0  0  0  0  0  0  0
   23.9196   -3.0501    9.2501 C   0  0  0  0  0  0  0  0  0  0  0  0
   22.5425   -4.8063    8.0520 C   0  0  0  0  0  0  0  0  0  0  0  0
   23.7187   -2.0285    8.2100 C   0  0  0  0  0  0  0  0  0  0  0  0
   23.6150   -5.2679   10.2171 C   0  0  0  0  0  0  0  0  0  0  0  0
   24.6901   -2.7025   10.3771 C   0  0  0  0  0  0  0  0  0  0  0  0
   24.9198   -3.6297   11.3910 C   0  0  0  0  0  0  0  0  0  0  0  0
   24.3905   -4.9128   11.3172 C   0  0  0  0  0  0  0  0  0  0  0  0
   22.0339   -0.5954    2.7515 H   0  0  0  0  0  0  0  0  0  0  0  0
   22.5708   -6.8372    9.5114 H   0  0  0  0  0  0  0  0  0  0  0  0
   26.0357   -2.4440   12.5580 H   0  0  0  0  0  0  0  0  0  0  0  0
  1  7  1  0
  1 24  1  0
  2 12  1  0
  2 18  1  0
  3 18  2  0
  4 20  1  0
  4 25  1  0
  5 22  1  0
  5 26  1  0
  6  7  1  0
  6  8  1  0
  7  9  1  0
  8 10  1  0
  9 11  1  0
 10 12  1  0
 11 13  1  0
 12 14  1  0
 13 15  1  0
 15 19  2  0
 16 17  2  0
 16 18  1  0
 16 20  1  0
 17 19  1  0
 17 21  1  0
 20 23  2  0
 21 22  2  0
 22 23  1  0
M  END
> <PUBCHEM_COMPOUND_CID>
5284645

> <PUBCHEM_CONFORMER_RMSD>
0.6

> <PUBCHEM_CONFORMER_DIVERSEORDER>
1

> <PUBCHEM_MMFF94_PARTIAL_CHARGES>
24
1 -0.68
12 0.28
13 0.14
15 -0.29
16 0.09
17 0.03
18 0.63
19 -0.18
2 -0.43
20 0.08
21 -0.15
22 0.08
23 -0.15
3 -0.57
4 -0.53
41 0.4
42 0.15
43 0.15
44 0.15
45 0.15
46 0.45
47 0.45
5 -0.53
7 0.28

> <PUBCHEM_EFFECTIVE_ROTOR_COUNT>
1.8

> <PUBCHEM_PHARMACOPHORE_FEATURES>
6
1 1 acceptor
1 1 donor
1 3 acceptor
1 4 donor
1 5 donor
6 16 17 20 21 22 23 rings

> <PUBCHEM_HEAVY_ATOM_COUNT>
23

> <PUBCHEM_ATOM_DEF_STEREO_COUNT>
2

> <PUBCHEM_ATOM_UDEF_STEREO_COUNT>
0

> <PUBCHEM_BOND_DEF_STEREO_COUNT>
1

> <PUBCHEM_BOND_UDEF_STEREO_COUNT>
0

> <PUBCHEM_ISOTOPIC_ATOM_COUNT>
0

> <PUBCHEM_COMPONENT_COUNT>
1

> <PUBCHEM_CACTVS_TAUTO_COUNT>
12

> <PUBCHEM_CONFORMER_ID>
0050A32500000001

> <PUBCHEM_MMFF94_ENERGY>
56.9454

> <PUBCHEM_FEATURE_SELFOVERLAP>
30.446

> <PUBCHEM_SHAPE_FINGERPRINT>
1100329 8 17836085568009856625
11112241 14 16986289841619931392
11578080 2 16734366241365874279
12166972 35 17967822613537111974
12403259 226 18337670931286267939
12506688 2 18412827975731104564
12596599 1 17914633677902020662
12788726 201 17627507133988941776
13140716 1 18267582403486064363
13402501 40 18336828697047978282
13533116 47 18056766653224983451
14251757 17 18262232209996353437
14787075 74 18336834185758012246
14790565 3 17545883724776523813
14866123 147 17767415573386001256
14931854 50 18336551491284682350
15196674 1 18334859415888043750
15322687 12 17104511174142344237
19591789 44 18337109089556020683
19930381 70 18413393137471364090
20028762 73 17044582808783771111
20691752 17 17022900138402631537
20715895 44 17609482839964013085
20832881 197 18343306989256920753
20905425 154 18409167675446349782
22182313 1 18041826412212926463
23227448 37 18189331260828617463
23352939 185 18342462530415398027
23557571 272 17910374109985112994
23559900 14 18335978778501818797
238 59 18196346307921625956
2748010 2 18117544331403189953
3323516 105 18411138077713944259
350125 39 18336268960321048513
3524813 1 18334011700965522918
3680242 22 18116995477305685354
463206 1 18269557311053435927
5265222 85 17471861776259798556
57527585 103 17390829632986241626
59755656 215 18188762977069237031
6443956 14 18340493347406701473
81228 2 17476913559209296171

> <PUBCHEM_SHAPE_MULTIPOLES>
443.98
8.21
4.09
1.18
1.54
0.84
-0.09
-3.84
1.51
-1.8
-1.33
-0.11
0.8
1.1

> <PUBCHEM_SHAPE_SELFOVERLAP>
916.908

> <PUBCHEM_SHAPE_VOLUME>
252.3

> <PUBCHEM_COORDINATE_TYPE>
2
5
10

> <Energy>
40.5071

> <minimizedAffinity>
-2.07489

> <CNNscore>
0.2520619035

> <CNNaffinity>
5.5356278419

> <CNN_VS>
1.3953208923

> <CNNaffinity_variance>
0.0145667298

$$$$
5284645


 26 27  0  0  0  0  0  0  0  0999 V2000
   22.0056   -1.1709    3.8635 O   0  0  0  0  0  0  0  0  0  0  0  0
   25.9120   -2.6378    8.1909 O   0  0  0  0  0  0  0  0  0  0  0  0
   24.9959   -1.4400    9.9323 O   0  0  0  0  0  0  0  0  0  0  0  0
   25.9197   -3.2067   11.9653 O   0  0  0  0  0  0  0  0  0  0  0  0
   23.9212   -7.4562   11.6141 O   0  0  0  0  0  0  0  0  0  0  0  0
   23.3579   -0.1653    5.5810 C   0  0  0  0  0  0  0  0  0  0  0  0
   22.6320   -1.4405    5.1189 C   0  0  0  0  0  0  0  0  0  0  0  0
   24.3037   -0.3759    6.7664 C   0  0  0  0  0  0  0  0  0  0  0  0
   21.5562   -1.9061    6.1121 C   0  0  0  0  0  0  0  0  0  0  0  0
   25.6012   -1.0877    6.3693 C   0  0  0  0  0  0  0  0  0  0  0  0
   20.9534   -3.2764    5.7679 C   0  0  0  0  0  0  0  0  0  0  0  0
   26.4627   -1.4505    7.5833 C   0  0  0  0  0  0  0  0  0  0  0  0
   21.9178   -4.4574    5.9293 C   0  0  0  0  0  0  0  0  0  0  0  0
   27.8828   -1.8075    7.1539 C   0  0  0  0  0  0  0  0  0  0  0  0
   22.3882   -4.6446    7.3462 C   0  0  0  0  0  0  0  0  0  0  0  0
   24.8319   -3.8051    9.8608 C   0  0  0  0  0  0  0  0  0  0  0  0
   24.1147   -4.7597    9.1121 C   0  0  0  0  0  0  0  0  0  0  0  0
   25.1960   -2.4786    9.3211 C   0  0  0  0  0  0  0  0  0  0  0  0
   23.6722   -4.5418    7.7255 C   0  0  0  0  0  0  0  0  0  0  0  0
   25.2105   -4.0855   11.1836 C   0  0  0  0  0  0  0  0  0  0  0  0
   23.8189   -5.9992    9.7127 C   0  0  0  0  0  0  0  0  0  0  0  0
   24.2068   -6.2606   11.0248 C   0  0  0  0  0  0  0  0  0  0  0  0
   24.8978   -5.3101   11.7669 C   0  0  0  0  0  0  0  0  0  0  0  0
   22.6739   -0.8755    3.2256 H   0  0  0  0  0  0  0  0  0  0  0  0
   26.1591   -2.3664   11.6265 H   0  0  0  0  0  0  0  0  0  0  0  0
   23.4564   -8.1148   11.1364 H   0  0  0  0  0  0  0  0  0  0  0  0
  1  7  1  0
  1 24  1  0
  2 12  1  0
  2 18  1  0
  3 18  2  0
  4 20  1  0
  4 25  1  0
  5 22  1  0
  5 26  1  0
  6  7  1  0
  6  8  1  0
  7  9  1  0
  8 10  1  0
  9 11  1  0
 10 12  1  0
 11 13  1  0
 12 14  1  0
 13 15  1  0
 15 19  2  0
 16 17  2  0
 16 18  1  0
 16 20  1  0
 17 19  1  0
 17 21  1  0
 20 23  2  0
 21 22  2  0
 22 23  1  0
M  END
> <PUBCHEM_COMPOUND_CID>
5284645

> <PUBCHEM_CONFORMER_RMSD>
0.6

> <PUBCHEM_CONFORMER_DIVERSEORDER>
1

> <PUBCHEM_MMFF94_PARTIAL_CHARGES>
24
1 -0.68
12 0.28
13 0.14
15 -0.29
16 0.09
17 0.03
18 0.63
19 -0.18
2 -0.43
20 0.08
21 -0.15
22 0.08
23 -0.15
3 -0.57
4 -0.53
41 0.4
42 0.15
43 0.15
44 0.15
45 0.15
46 0.45
47 0.45
5 -0.53
7 0.28

> <PUBCHEM_EFFECTIVE_ROTOR_COUNT>
1.8

> <PUBCHEM_PHARMACOPHORE_FEATURES>
6
1 1 acceptor
1 1 donor
1 3 acceptor
1 4 donor
1 5 donor
6 16 17 20 21 22 23 rings

> <PUBCHEM_HEAVY_ATOM_COUNT>
23

> <PUBCHEM_ATOM_DEF_STEREO_COUNT>
2

> <PUBCHEM_ATOM_UDEF_STEREO_COUNT>
0

> <PUBCHEM_BOND_DEF_STEREO_COUNT>
1

> <PUBCHEM_BOND_UDEF_STEREO_COUNT>
0

> <PUBCHEM_ISOTOPIC_ATOM_COUNT>
0

> <PUBCHEM_COMPONENT_COUNT>
1

> <PUBCHEM_CACTVS_TAUTO_COUNT>
12

> <PUBCHEM_CONFORMER_ID>
0050A32500000001

> <PUBCHEM_MMFF94_ENERGY>
56.9454

> <PUBCHEM_FEATURE_SELFOVERLAP>
30.446

> <PUBCHEM_SHAPE_FINGERPRINT>
1100329 8 17836085568009856625
11112241 14 16986289841619931392
11578080 2 16734366241365874279
12166972 35 17967822613537111974
12403259 226 18337670931286267939
12506688 2 18412827975731104564
12596599 1 17914633677902020662
12788726 201 17627507133988941776
13140716 1 18267582403486064363
13402501 40 18336828697047978282
13533116 47 18056766653224983451
14251757 17 18262232209996353437
14787075 74 18336834185758012246
14790565 3 17545883724776523813
14866123 147 17767415573386001256
14931854 50 18336551491284682350
15196674 1 18334859415888043750
15322687 12 17104511174142344237
19591789 44 18337109089556020683
19930381 70 18413393137471364090
20028762 73 17044582808783771111
20691752 17 17022900138402631537
20715895 44 17609482839964013085
20832881 197 18343306989256920753
20905425 154 18409167675446349782
22182313 1 18041826412212926463
23227448 37 18189331260828617463
23352939 185 18342462530415398027
23557571 272 17910374109985112994
23559900 14 18335978778501818797
238 59 18196346307921625956
2748010 2 18117544331403189953
3323516 105 18411138077713944259
350125 39 18336268960321048513
3524813 1 18334011700965522918
3680242 22 18116995477305685354
463206 1 18269557311053435927
5265222 85 17471861776259798556
57527585 103 17390829632986241626
59755656 215 18188762977069237031
6443956 14 18340493347406701473
81228 2 17476913559209296171

> <PUBCHEM_SHAPE_MULTIPOLES>
443.98
8.21
4.09
1.18
1.54
0.84
-0.09
-3.84
1.51
-1.8
-1.33
-0.11
0.8
1.1

> <PUBCHEM_SHAPE_SELFOVERLAP>
916.908

> <PUBCHEM_SHAPE_VOLUME>
252.3

> <PUBCHEM_COORDINATE_TYPE>
2
5
10

> <Energy>
40.5071

> <minimizedAffinity>
-3.11912

> <CNNscore>
0.1482127011

> <CNNaffinity>
5.4391236305

> <CNN_VS>
0.8061472178

> <CNNaffinity_variance>
0.1301607043

$$$$
5284645


 26 27  0  0  0  0  0  0  0  0999 V2000
   27.5286   -4.1329    6.3367 O   0  0  0  0  0  0  0  0  0  0  0  0
   24.7701   -3.0874   11.5745 O   0  0  0  0  0  0  0  0  0  0  0  0
   23.4660   -1.2943   10.9499 O   0  0  0  0  0  0  0  0  0  0  0  0
   21.3924   -1.8261   12.8273 O   0  0  0  0  0  0  0  0  0  0  0  0
   19.2103   -5.8947   11.8997 O   0  0  0  0  0  0  0  0  0  0  0  0
   27.0079   -2.3358    7.8496 C   0  0  0  0  0  0  0  0  0  0  0  0
   26.6039   -3.7335    7.3498 C   0  0  0  0  0  0  0  0  0  0  0  0
   26.2841   -1.8911    9.1234 C   0  0  0  0  0  0  0  0  0  0  0  0
   25.1861   -3.7674    6.7586 C   0  0  0  0  0  0  0  0  0  0  0  0
   26.8066   -2.5979   10.3785 C   0  0  0  0  0  0  0  0  0  0  0  0
   24.6906   -5.1838    6.4301 C   0  0  0  0  0  0  0  0  0  0  0  0
   25.9656   -2.2807   11.6194 C   0  0  0  0  0  0  0  0  0  0  0  0
   24.4322   -6.0701    7.6543 C   0  0  0  0  0  0  0  0  0  0  0  0
   26.7052   -2.6801   12.8929 C   0  0  0  0  0  0  0  0  0  0  0  0
   23.3485   -5.5353    8.5506 C   0  0  0  0  0  0  0  0  0  0  0  0
   22.5001   -3.4238   11.3472 C   0  0  0  0  0  0  0  0  0  0  0  0
   22.4691   -4.6721   10.6940 C   0  0  0  0  0  0  0  0  0  0  0  0
   23.6265   -2.4779   11.2059 C   0  0  0  0  0  0  0  0  0  0  0  0
   23.5504   -5.1634    9.8249 C   0  0  0  0  0  0  0  0  0  0  0  0
   21.4227   -3.0225   12.1535 C   0  0  0  0  0  0  0  0  0  0  0  0
   21.3527   -5.5074   10.8955 C   0  0  0  0  0  0  0  0  0  0  0  0
   20.2955   -5.0937   11.7026 C   0  0  0  0  0  0  0  0  0  0  0  0
   20.3206   -3.8541   12.3307 C   0  0  0  0  0  0  0  0  0  0  0  0
   28.4292   -4.1162    6.6963 H   0  0  0  0  0  0  0  0  0  0  0  0
   22.1065   -1.2248   12.7467 H   0  0  0  0  0  0  0  0  0  0  0  0
   19.1676   -6.7354   11.4882 H   0  0  0  0  0  0  0  0  0  0  0  0
  1  7  1  0
  1 24  1  0
  2 12  1  0
  2 18  1  0
  3 18  2  0
  4 20  1  0
  4 25  1  0
  5 22  1  0
  5 26  1  0
  6  7  1  0
  6  8  1  0
  7  9  1  0
  8 10  1  0
  9 11  1  0
 10 12  1  0
 11 13  1  0
 12 14  1  0
 13 15  1  0
 15 19  2  0
 16 17  2  0
 16 18  1  0
 16 20  1  0
 17 19  1  0
 17 21  1  0
 20 23  2  0
 21 22  2  0
 22 23  1  0
M  END
> <PUBCHEM_COMPOUND_CID>
5284645

> <PUBCHEM_CONFORMER_RMSD>
0.6

> <PUBCHEM_CONFORMER_DIVERSEORDER>
1

> <PUBCHEM_MMFF94_PARTIAL_CHARGES>
24
1 -0.68
12 0.28
13 0.14
15 -0.29
16 0.09
17 0.03
18 0.63
19 -0.18
2 -0.43
20 0.08
21 -0.15
22 0.08
23 -0.15
3 -0.57
4 -0.53
41 0.4
42 0.15
43 0.15
44 0.15
45 0.15
46 0.45
47 0.45
5 -0.53
7 0.28

> <PUBCHEM_EFFECTIVE_ROTOR_COUNT>
1.8

> <PUBCHEM_PHARMACOPHORE_FEATURES>
6
1 1 acceptor
1 1 donor
1 3 acceptor
1 4 donor
1 5 donor
6 16 17 20 21 22 23 rings

> <PUBCHEM_HEAVY_ATOM_COUNT>
23

> <PUBCHEM_ATOM_DEF_STEREO_COUNT>
2

> <PUBCHEM_ATOM_UDEF_STEREO_COUNT>
0

> <PUBCHEM_BOND_DEF_STEREO_COUNT>
1

> <PUBCHEM_BOND_UDEF_STEREO_COUNT>
0

> <PUBCHEM_ISOTOPIC_ATOM_COUNT>
0

> <PUBCHEM_COMPONENT_COUNT>
1

> <PUBCHEM_CACTVS_TAUTO_COUNT>
12

> <PUBCHEM_CONFORMER_ID>
0050A32500000001

> <PUBCHEM_MMFF94_ENERGY>
56.9454

> <PUBCHEM_FEATURE_SELFOVERLAP>
30.446

> <PUBCHEM_SHAPE_FINGERPRINT>
1100329 8 17836085568009856625
11112241 14 16986289841619931392
11578080 2 16734366241365874279
12166972 35 17967822613537111974
12403259 226 18337670931286267939
12506688 2 18412827975731104564
12596599 1 17914633677902020662
12788726 201 17627507133988941776
13140716 1 18267582403486064363
13402501 40 18336828697047978282
13533116 47 18056766653224983451
14251757 17 18262232209996353437
14787075 74 18336834185758012246
14790565 3 17545883724776523813
14866123 147 17767415573386001256
14931854 50 18336551491284682350
15196674 1 18334859415888043750
15322687 12 17104511174142344237
19591789 44 18337109089556020683
19930381 70 18413393137471364090
20028762 73 17044582808783771111
20691752 17 17022900138402631537
20715895 44 17609482839964013085
20832881 197 18343306989256920753
20905425 154 18409167675446349782
22182313 1 18041826412212926463
23227448 37 18189331260828617463
23352939 185 18342462530415398027
23557571 272 17910374109985112994
23559900 14 18335978778501818797
238 59 18196346307921625956
2748010 2 18117544331403189953
3323516 105 18411138077713944259
350125 39 18336268960321048513
3524813 1 18334011700965522918
3680242 22 18116995477305685354
463206 1 18269557311053435927
5265222 85 17471861776259798556
57527585 103 17390829632986241626
59755656 215 18188762977069237031
6443956 14 18340493347406701473
81228 2 17476913559209296171

> <PUBCHEM_SHAPE_MULTIPOLES>
443.98
8.21
4.09
1.18
1.54
0.84
-0.09
-3.84
1.51
-1.8
-1.33
-0.11
0.8
1.1

> <PUBCHEM_SHAPE_SELFOVERLAP>
916.908

> <PUBCHEM_SHAPE_VOLUME>
252.3

> <PUBCHEM_COORDINATE_TYPE>
2
5
10

> <Energy>
40.5071

> <minimizedAffinity>
33.31101

> <CNNscore>
0.1458819956

> <CNNaffinity>
5.4961190224

> <CNN_VS>
0.8017848134

> <CNNaffinity_variance>
0.8526391983

$$$$
5284645


 26 27  0  0  0  0  0  0  0  0999 V2000
   27.5225    0.3412    5.4556 O   0  0  0  0  0  0  0  0  0  0  0  0
   24.8986   -0.7726   10.7483 O   0  0  0  0  0  0  0  0  0  0  0  0
   22.8890   -1.6068    9.9922 O   0  0  0  0  0  0  0  0  0  0  0  0
   22.4446   -3.2788   12.2537 O   0  0  0  0  0  0  0  0  0  0  0  0
   25.6751   -6.6921   12.5525 O   0  0  0  0  0  0  0  0  0  0  0  0
   25.4560    0.7089    6.6321 C   0  0  0  0  0  0  0  0  0  0  0  0
   26.7038   -0.1817    6.5032 C   0  0  0  0  0  0  0  0  0  0  0  0
   24.6227    0.4437    7.8889 C   0  0  0  0  0  0  0  0  0  0  0  0
   26.3609   -1.6425    6.1729 C   0  0  0  0  0  0  0  0  0  0  0  0
   25.2727    1.0027    9.1589 C   0  0  0  0  0  0  0  0  0  0  0  0
   27.5719   -2.5859    6.2282 C   0  0  0  0  0  0  0  0  0  0  0  0
   24.5253    0.5843   10.4294 C   0  0  0  0  0  0  0  0  0  0  0  0
   28.1411   -2.8132    7.6336 C   0  0  0  0  0  0  0  0  0  0  0  0
   24.9556    1.4384   11.6184 C   0  0  0  0  0  0  0  0  0  0  0  0
   27.1611   -3.4708    8.5669 C   0  0  0  0  0  0  0  0  0  0  0  0
   24.5101   -3.0347   10.9714 C   0  0  0  0  0  0  0  0  0  0  0  0
   25.7612   -3.5683   10.6024 C   0  0  0  0  0  0  0  0  0  0  0  0
   24.0110   -1.7430   10.4556 C   0  0  0  0  0  0  0  0  0  0  0  0
   26.6958   -2.8944    9.6868 C   0  0  0  0  0  0  0  0  0  0  0  0
   23.6700   -3.7448   11.8441 C   0  0  0  0  0  0  0  0  0  0  0  0
   26.1515   -4.8054   11.1518 C   0  0  0  0  0  0  0  0  0  0  0  0
   25.3061   -5.4929   12.0195 C   0  0  0  0  0  0  0  0  0  0  0  0
   24.0649   -4.9729   12.3670 C   0  0  0  0  0  0  0  0  0  0  0  0
   27.7471    1.2643    5.6510 H   0  0  0  0  0  0  0  0  0  0  0  0
   22.1254   -2.4574   11.9352 H   0  0  0  0  0  0  0  0  0  0  0  0
   26.5064   -7.0655   12.3350 H   0  0  0  0  0  0  0  0  0  0  0  0
  1  7  1  0
  1 24  1  0
  2 12  1  0
  2 18  1  0
  3 18  2  0
  4 20  1  0
  4 25  1  0
  5 22  1  0
  5 26  1  0
  6  7  1  0
  6  8  1  0
  7  9  1  0
  8 10  1  0
  9 11  1  0
 10 12  1  0
 11 13  1  0
 12 14  1  0
 13 15  1  0
 15 19  2  0
 16 17  2  0
 16 18  1  0
 16 20  1  0
 17 19  1  0
 17 21  1  0
 20 23  2  0
 21 22  2  0
 22 23  1  0
M  END
> <PUBCHEM_COMPOUND_CID>
5284645

> <PUBCHEM_CONFORMER_RMSD>
0.6

> <PUBCHEM_CONFORMER_DIVERSEORDER>
1

> <PUBCHEM_MMFF94_PARTIAL_CHARGES>
24
1 -0.68
12 0.28
13 0.14
15 -0.29
16 0.09
17 0.03
18 0.63
19 -0.18
2 -0.43
20 0.08
21 -0.15
22 0.08
23 -0.15
3 -0.57
4 -0.53
41 0.4
42 0.15
43 0.15
44 0.15
45 0.15
46 0.45
47 0.45
5 -0.53
7 0.28

> <PUBCHEM_EFFECTIVE_ROTOR_COUNT>
1.8

> <PUBCHEM_PHARMACOPHORE_FEATURES>
6
1 1 acceptor
1 1 donor
1 3 acceptor
1 4 donor
1 5 donor
6 16 17 20 21 22 23 rings

> <PUBCHEM_HEAVY_ATOM_COUNT>
23

> <PUBCHEM_ATOM_DEF_STEREO_COUNT>
2

> <PUBCHEM_ATOM_UDEF_STEREO_COUNT>
0

> <PUBCHEM_BOND_DEF_STEREO_COUNT>
1

> <PUBCHEM_BOND_UDEF_STEREO_COUNT>
0

> <PUBCHEM_ISOTOPIC_ATOM_COUNT>
0

> <PUBCHEM_COMPONENT_COUNT>
1

> <PUBCHEM_CACTVS_TAUTO_COUNT>
12

> <PUBCHEM_CONFORMER_ID>
0050A32500000001

> <PUBCHEM_MMFF94_ENERGY>
56.9454

> <PUBCHEM_FEATURE_SELFOVERLAP>
30.446

> <PUBCHEM_SHAPE_FINGERPRINT>
1100329 8 17836085568009856625
11112241 14 16986289841619931392
11578080 2 16734366241365874279
12166972 35 17967822613537111974
12403259 226 18337670931286267939
12506688 2 18412827975731104564
12596599 1 17914633677902020662
12788726 201 17627507133988941776
13140716 1 18267582403486064363
13402501 40 18336828697047978282
13533116 47 18056766653224983451
14251757 17 18262232209996353437
14787075 74 18336834185758012246
14790565 3 17545883724776523813
14866123 147 17767415573386001256
14931854 50 18336551491284682350
15196674 1 18334859415888043750
15322687 12 17104511174142344237
19591789 44 18337109089556020683
19930381 70 18413393137471364090
20028762 73 17044582808783771111
20691752 17 17022900138402631537
20715895 44 17609482839964013085
20832881 197 18343306989256920753
20905425 154 18409167675446349782
22182313 1 18041826412212926463
23227448 37 18189331260828617463
23352939 185 18342462530415398027
23557571 272 17910374109985112994
23559900 14 18335978778501818797
238 59 18196346307921625956
2748010 2 18117544331403189953
3323516 105 18411138077713944259
350125 39 18336268960321048513
3524813 1 18334011700965522918
3680242 22 18116995477305685354
463206 1 18269557311053435927
5265222 85 17471861776259798556
57527585 103 17390829632986241626
59755656 215 18188762977069237031
6443956 14 18340493347406701473
81228 2 17476913559209296171

> <PUBCHEM_SHAPE_MULTIPOLES>
443.98
8.21
4.09
1.18
1.54
0.84
-0.09
-3.84
1.51
-1.8
-1.33
-0.11
0.8
1.1

> <PUBCHEM_SHAPE_SELFOVERLAP>
916.908

> <PUBCHEM_SHAPE_VOLUME>
252.3

> <PUBCHEM_COORDINATE_TYPE>
2
5
10

> <Energy>
40.5071

> <minimizedAffinity>
10.76827

> <CNNscore>
0.1406769603

> <CNNaffinity>
4.5300445557

> <CNN_VS>
0.6372728944

> <CNNaffinity_variance>
1.0359066725

$$$$
5284645


 26 27  0  0  0  0  0  0  0  0999 V2000
   22.7431   -1.3988    3.0040 O   0  0  0  0  0  0  0  0  0  0  0  0
   25.8414   -0.5173    8.0795 O   0  0  0  0  0  0  0  0  0  0  0  0
   24.1157    0.1540    9.4499 O   0  0  0  0  0  0  0  0  0  0  0  0
   25.3062   -0.8179   11.8469 O   0  0  0  0  0  0  0  0  0  0  0  0
   25.6972   -5.5107   11.8137 O   0  0  0  0  0  0  0  0  0  0  0  0
   23.0489    0.2295    4.7490 C   0  0  0  0  0  0  0  0  0  0  0  0
   23.1354   -1.2591    4.3706 C   0  0  0  0  0  0  0  0  0  0  0  0
   23.7008    0.5751    6.0906 C   0  0  0  0  0  0  0  0  0  0  0  0
   22.2254   -2.1466    5.2337 C   0  0  0  0  0  0  0  0  0  0  0  0
   25.2314    0.5814    6.0208 C   0  0  0  0  0  0  0  0  0  0  0  0
   22.4367   -3.6507    5.0045 C   0  0  0  0  0  0  0  0  0  0  0  0
   25.8775    0.7548    7.3993 C   0  0  0  0  0  0  0  0  0  0  0  0
   23.7861   -4.1884    5.4954 C   0  0  0  0  0  0  0  0  0  0  0  0
   27.3510    1.1278    7.2650 C   0  0  0  0  0  0  0  0  0  0  0  0
   23.9714   -4.0465    6.9818 C   0  0  0  0  0  0  0  0  0  0  0  0
   25.1157   -1.9814    9.7067 C   0  0  0  0  0  0  0  0  0  0  0  0
   25.1188   -3.2020    9.0023 C   0  0  0  0  0  0  0  0  0  0  0  0
   24.9118   -0.6778    9.0415 C   0  0  0  0  0  0  0  0  0  0  0  0
   24.9361   -3.3018    7.5454 C   0  0  0  0  0  0  0  0  0  0  0  0
   25.2873   -1.9706   11.1003 C   0  0  0  0  0  0  0  0  0  0  0  0
   25.3265   -4.3933    9.7251 C   0  0  0  0  0  0  0  0  0  0  0  0
   25.4993   -4.3620   11.1069 C   0  0  0  0  0  0  0  0  0  0  0  0
   25.4772   -3.1582   11.8013 C   0  0  0  0  0  0  0  0  0  0  0  0
   23.3100   -0.8432    2.4466 H   0  0  0  0  0  0  0  0  0  0  0  0
   25.1838    0.0123   11.4300 H   0  0  0  0  0  0  0  0  0  0  0  0
   25.7167   -6.3360   11.3706 H   0  0  0  0  0  0  0  0  0  0  0  0
  1  7  1  0
  1 24  1  0
  2 12  1  0
  2 18  1  0
  3 18  2  0
  4 20  1  0
  4 25  1  0
  5 22  1  0
  5 26  1  0
  6  7  1  0
  6  8  1  0
  7  9  1  0
  8 10  1  0
  9 11  1  0
 10 12  1  0
 11 13  1  0
 12 14  1  0
 13 15  1  0
 15 19  2  0
 16 17  2  0
 16 18  1  0
 16 20  1  0
 17 19  1  0
 17 21  1  0
 20 23  2  0
 21 22  2  0
 22 23  1  0
M  END
> <PUBCHEM_COMPOUND_CID>
5284645

> <PUBCHEM_CONFORMER_RMSD>
0.6

> <PUBCHEM_CONFORMER_DIVERSEORDER>
1

> <PUBCHEM_MMFF94_PARTIAL_CHARGES>
24
1 -0.68
12 0.28
13 0.14
15 -0.29
16 0.09
17 0.03
18 0.63
19 -0.18
2 -0.43
20 0.08
21 -0.15
22 0.08
23 -0.15
3 -0.57
4 -0.53
41 0.4
42 0.15
43 0.15
44 0.15
45 0.15
46 0.45
47 0.45
5 -0.53
7 0.28

> <PUBCHEM_EFFECTIVE_ROTOR_COUNT>
1.8

> <PUBCHEM_PHARMACOPHORE_FEATURES>
6
1 1 acceptor
1 1 donor
1 3 acceptor
1 4 donor
1 5 donor
6 16 17 20 21 22 23 rings

> <PUBCHEM_HEAVY_ATOM_COUNT>
23

> <PUBCHEM_ATOM_DEF_STEREO_COUNT>
2

> <PUBCHEM_ATOM_UDEF_STEREO_COUNT>
0

> <PUBCHEM_BOND_DEF_STEREO_COUNT>
1

> <PUBCHEM_BOND_UDEF_STEREO_COUNT>
0

> <PUBCHEM_ISOTOPIC_ATOM_COUNT>
0

> <PUBCHEM_COMPONENT_COUNT>
1

> <PUBCHEM_CACTVS_TAUTO_COUNT>
12

> <PUBCHEM_CONFORMER_ID>
0050A32500000001

> <PUBCHEM_MMFF94_ENERGY>
56.9454

> <PUBCHEM_FEATURE_SELFOVERLAP>
30.446

> <PUBCHEM_SHAPE_FINGERPRINT>
1100329 8 17836085568009856625
11112241 14 16986289841619931392
11578080 2 16734366241365874279
12166972 35 17967822613537111974
12403259 226 18337670931286267939
12506688 2 18412827975731104564
12596599 1 17914633677902020662
12788726 201 17627507133988941776
13140716 1 18267582403486064363
13402501 40 18336828697047978282
13533116 47 18056766653224983451
14251757 17 18262232209996353437
14787075 74 18336834185758012246
14790565 3 17545883724776523813
14866123 147 17767415573386001256
14931854 50 18336551491284682350
15196674 1 18334859415888043750
15322687 12 17104511174142344237
19591789 44 18337109089556020683
19930381 70 18413393137471364090
20028762 73 17044582808783771111
20691752 17 17022900138402631537
20715895 44 17609482839964013085
20832881 197 18343306989256920753
20905425 154 18409167675446349782
22182313 1 18041826412212926463
23227448 37 18189331260828617463
23352939 185 18342462530415398027
23557571 272 17910374109985112994
23559900 14 18335978778501818797
238 59 18196346307921625956
2748010 2 18117544331403189953
3323516 105 18411138077713944259
350125 39 18336268960321048513
3524813 1 18334011700965522918
3680242 22 18116995477305685354
463206 1 18269557311053435927
5265222 85 17471861776259798556
57527585 103 17390829632986241626
59755656 215 18188762977069237031
6443956 14 18340493347406701473
81228 2 17476913559209296171

> <PUBCHEM_SHAPE_MULTIPOLES>
443.98
8.21
4.09
1.18
1.54
0.84
-0.09
-3.84
1.51
-1.8
-1.33
-0.11
0.8
1.1

> <PUBCHEM_SHAPE_SELFOVERLAP>
916.908

> <PUBCHEM_SHAPE_VOLUME>
252.3

> <PUBCHEM_COORDINATE_TYPE>
2
5
10

> <Energy>
40.5071

> <minimizedAffinity>
3.72371

> <CNNscore>
0.1366724819

> <CNNaffinity>
5.7439656258

> <CNN_VS>
0.7850420475

> <CNNaffinity_variance>
0.0130088432

$$$$
