5991


 24 27  0  0  0  0  0  0  0  0999 V2000
  108.3396   11.0625   22.9920 O   0  0  0  0  0  0  0  0  0  0  0  0
   99.9823   17.6510   25.6919 O   0  0  0  0  0  0  0  0  0  0  0  0
  106.4907   12.6894   23.2130 C   0  0  0  0  0  0  0  0  0  0  0  0
  105.6146   13.3531   22.1256 C   0  0  0  0  0  0  0  0  0  0  0  0
  104.3123   13.9278   22.6884 C   0  0  0  0  0  0  0  0  0  0  0  0
  107.6439   12.1135   22.3329 C   0  0  0  0  0  0  0  0  0  0  0  0
  104.6581   15.0215   23.7431 C   0  0  0  0  0  0  0  0  0  0  0  0
  106.8613   13.7673   24.2492 C   0  0  0  0  0  0  0  0  0  0  0  0
  105.5348   12.2895   21.0335 C   0  0  0  0  0  0  0  0  0  0  0  0
  105.6178   14.4700   24.8294 C   0  0  0  0  0  0  0  0  0  0  0  0
  106.8900   11.5586   21.0952 C   0  0  0  0  0  0  0  0  0  0  0  0
  103.4282   14.5458   21.6025 C   0  0  0  0  0  0  0  0  0  0  0  0
  105.7802   11.5227   23.9611 C   0  0  0  0  0  0  0  0  0  0  0  0
  103.3941   15.6929   24.2790 C   0  0  0  0  0  0  0  0  0  0  0  0
  102.0885   14.9625   22.2012 C   0  0  0  0  0  0  0  0  0  0  0  0
  102.2048   15.6909   23.5170 C   0  0  0  0  0  0  0  0  0  0  0  0
  103.4058   16.4045   25.4909 C   0  0  0  0  0  0  0  0  0  0  0  0
  101.0558   16.3412   24.0065 C   0  0  0  0  0  0  0  0  0  0  0  0
  102.2582   17.0564   25.9621 C   0  0  0  0  0  0  0  0  0  0  0  0
  101.0903   17.0147   25.2166 C   0  0  0  0  0  0  0  0  0  0  0  0
  107.7069   10.3848   23.2770 H   0  0  0  0  0  0  0  0  0  0  0  0
   99.1846   17.6326   25.2007 H   0  0  0  0  0  0  0  0  0  0  0  0
  108.6336   13.1239   21.9140 C   0  0  0  0  0  0  0  0  0  0  0  0
  109.4325   13.9591   21.5789 C   0  0  0  0  0  0  0  0  0  0  0  0
  1  6  1  0
  1 21  1  0
  2 20  1  0
  2 22  1  0
  3  4  1  0
  3  6  1  0
  3  8  1  0
  3 13  1  0
  4  5  1  0
  4  9  1  0
  5  7  1  0
  5 12  1  0
  6 11  1  0
  6 23  1  0
  7 10  1  0
  7 14  1  0
  8 10  1  0
  9 11  1  0
 12 15  1  0
 14 16  2  0
 14 17  1  0
 15 16  1  0
 16 18  1  0
 23 24  3  0
 17 19  2  0
 18 20  2  0
 19 20  1  0
M  END
> <PUBCHEM_COMPOUND_CID>
5991

> <PUBCHEM_CONFORMER_RMSD>
0.6

> <PUBCHEM_CONFORMER_DIVERSEORDER>
1

> <PUBCHEM_MMFF94_PARTIAL_CHARGES>
19
1 -0.68
14 -0.14
15 0.14
16 -0.14
17 -0.2
18 -0.15
19 -0.15
2 -0.53
20 -0.15
21 0.08
22 -0.18
41 0.4
42 0.15
43 0.15
44 0.15
45 0.18
46 0.45
6 0.48
7 0.14

> <PUBCHEM_EFFECTIVE_ROTOR_COUNT>
1.4

> <PUBCHEM_PHARMACOPHORE_FEATURES>
8
1 1 acceptor
1 1 donor
1 2 donor
1 22 hydrophobe
5 3 4 6 9 11 rings
6 14 16 18 19 20 21 rings
6 3 4 5 7 8 10 rings
6 5 7 12 14 15 16 rings

> <PUBCHEM_HEAVY_ATOM_COUNT>
22

> <PUBCHEM_ATOM_DEF_STEREO_COUNT>
5

> <PUBCHEM_ATOM_UDEF_STEREO_COUNT>
0

> <PUBCHEM_BOND_DEF_STEREO_COUNT>
0

> <PUBCHEM_BOND_UDEF_STEREO_COUNT>
0

> <PUBCHEM_ISOTOPIC_ATOM_COUNT>
0

> <PUBCHEM_COMPONENT_COUNT>
1

> <PUBCHEM_CACTVS_TAUTO_COUNT>
9

> <PUBCHEM_CONFORMER_ID>
0000176700000001

> <PUBCHEM_MMFF94_ENERGY>
75.3654

> <PUBCHEM_FEATURE_SELFOVERLAP>
40.689

> <PUBCHEM_SHAPE_FINGERPRINT>
10498660 4 18334565854482978588
10616163 171 18412261769892000550
10906281 52 18268729332496851400
10967382 1 18409163299196382730
11132069 177 18260823830106114581
11315181 36 17846777438100329984
11552529 35 18058445585631877095
11578080 2 16952518088400902894
11796584 16 15123796154675551020
12107183 9 17697047933183828707
12236239 1 17917992754997443209
12403259 415 18260540148118003532
12403814 3 17531241756051219503
12633257 1 18411416168188185458
12644460 14 18260827060354363322
12788726 201 17059505002047033793
128620 24 17385724690407290772
13140716 1 18264499557760559337
13224815 77 18408318891198213202
13675066 3 17749393654488776519
14790565 3 18338806709892665688
15163728 17 15481289097577292713
15183329 4 18408605830407435614
15196674 1 18337388339818468438
15209289 33 18341332270467662817
15209294 21 18059584555192331817
15309172 13 18409451371427638915
15536298 74 18341610425830279326
15788980 27 17749105603943632888
16945 1 18265320738190372627
17349148 13 18114176445825312880
1813 80 17530976782159466655
18186145 218 18409161126111612646
19489759 90 15410896249631894657
19591789 44 18193273216009210722
200 152 17918273168974754922
21033648 29 17968079933063946356
21267235 1 18338240469814837151
21623110 236 18263368155990106261
23402539 116 18410566319162361766
23402655 69 18201721773563375622
23559900 14 18341325700027887232
335352 9 18410007719541319564
34934 24 18335695014618288215
350125 39 18408603674022772468
3545911 37 18408602569419241710
3680242 22 18335416829913620042
4214541 1 18412824715549947695
474 4 18408605889666299408
5104073 3 18339077194179428906
542803 24 17561084709247609168
59755656 215 18335983078396721054
633830 44 18202282537272954908
9709674 26 18410014338397756278

> <PUBCHEM_SHAPE_MULTIPOLES>
441.01
10.64
2.03
1.22
7.18
0.55
-0.05
-1.94
-1.01
0.21
-0.15
-1.94
-0.33
-0.49

> <PUBCHEM_SHAPE_SELFOVERLAP>
961.464

> <PUBCHEM_SHAPE_VOLUME>
238.8

> <PUBCHEM_COORDINATE_TYPE>
2
5
10

> <Energy>
61.5647

> <minimizedAffinity>
-10.24434

> <CNNscore>
0.8578957319

> <CNNaffinity>
8.2950239182

> <CNN_VS>
7.1162657738

> <CNNaffinity_variance>
1.0530387163

$$$$
5991


 24 27  0  0  0  0  0  0  0  0999 V2000
  109.7312   12.9371   23.4985 O   0  0  0  0  0  0  0  0  0  0  0  0
  100.0952   17.6973   25.7413 O   0  0  0  0  0  0  0  0  0  0  0  0
  107.4580   13.9030   23.6169 C   0  0  0  0  0  0  0  0  0  0  0  0
  106.1967   13.5831   22.7820 C   0  0  0  0  0  0  0  0  0  0  0  0
  104.9074   14.0555   23.4584 C   0  0  0  0  0  0  0  0  0  0  0  0
  108.5541   13.2102   22.7482 C   0  0  0  0  0  0  0  0  0  0  0  0
  104.9698   15.6020   23.6384 C   0  0  0  0  0  0  0  0  0  0  0  0
  107.5456   15.4322   23.7802 C   0  0  0  0  0  0  0  0  0  0  0  0
  106.3520   12.1001   22.4551 C   0  0  0  0  0  0  0  0  0  0  0  0
  106.2596   16.0282   24.3868 C   0  0  0  0  0  0  0  0  0  0  0  0
  107.8720   11.8818   22.3258 C   0  0  0  0  0  0  0  0  0  0  0  0
  103.6579   13.6990   22.6494 C   0  0  0  0  0  0  0  0  0  0  0  0
  107.4451   13.2645   25.0374 C   0  0  0  0  0  0  0  0  0  0  0  0
  103.6699   16.1430   24.2328 C   0  0  0  0  0  0  0  0  0  0  0  0
  102.4068   14.0604   23.4437 C   0  0  0  0  0  0  0  0  0  0  0  0
  102.4641   15.4211   24.0924 C   0  0  0  0  0  0  0  0  0  0  0  0
  103.6210   17.4058   24.8479 C   0  0  0  0  0  0  0  0  0  0  0  0
  101.2665   15.9453   24.6156 C   0  0  0  0  0  0  0  0  0  0  0  0
  102.4205   17.9210   25.3552 C   0  0  0  0  0  0  0  0  0  0  0  0
  101.2531   17.1826   25.2386 C   0  0  0  0  0  0  0  0  0  0  0  0
  109.4988   12.4280   24.2908 H   0  0  0  0  0  0  0  0  0  0  0  0
   99.2971   17.2114   25.6709 H   0  0  0  0  0  0  0  0  0  0  0  0
  108.9431   13.9837   21.5538 C   0  0  0  0  0  0  0  0  0  0  0  0
  109.2587   14.6020   20.5710 C   0  0  0  0  0  0  0  0  0  0  0  0
  1  6  1  0
  1 21  1  0
  2 20  1  0
  2 22  1  0
  3  4  1  0
  3  6  1  0
  3  8  1  0
  3 13  1  0
  4  5  1  0
  4  9  1  0
  5  7  1  0
  5 12  1  0
  6 11  1  0
  6 23  1  0
  7 10  1  0
  7 14  1  0
  8 10  1  0
  9 11  1  0
 12 15  1  0
 14 16  2  0
 14 17  1  0
 15 16  1  0
 16 18  1  0
 23 24  3  0
 17 19  2  0
 18 20  2  0
 19 20  1  0
M  END
> <PUBCHEM_COMPOUND_CID>
5991

> <PUBCHEM_CONFORMER_RMSD>
0.6

> <PUBCHEM_CONFORMER_DIVERSEORDER>
1

> <PUBCHEM_MMFF94_PARTIAL_CHARGES>
19
1 -0.68
14 -0.14
15 0.14
16 -0.14
17 -0.2
18 -0.15
19 -0.15
2 -0.53
20 -0.15
21 0.08
22 -0.18
41 0.4
42 0.15
43 0.15
44 0.15
45 0.18
46 0.45
6 0.48
7 0.14

> <PUBCHEM_EFFECTIVE_ROTOR_COUNT>
1.4

> <PUBCHEM_PHARMACOPHORE_FEATURES>
8
1 1 acceptor
1 1 donor
1 2 donor
1 22 hydrophobe
5 3 4 6 9 11 rings
6 14 16 18 19 20 21 rings
6 3 4 5 7 8 10 rings
6 5 7 12 14 15 16 rings

> <PUBCHEM_HEAVY_ATOM_COUNT>
22

> <PUBCHEM_ATOM_DEF_STEREO_COUNT>
5

> <PUBCHEM_ATOM_UDEF_STEREO_COUNT>
0

> <PUBCHEM_BOND_DEF_STEREO_COUNT>
0

> <PUBCHEM_BOND_UDEF_STEREO_COUNT>
0

> <PUBCHEM_ISOTOPIC_ATOM_COUNT>
0

> <PUBCHEM_COMPONENT_COUNT>
1

> <PUBCHEM_CACTVS_TAUTO_COUNT>
9

> <PUBCHEM_CONFORMER_ID>
0000176700000001

> <PUBCHEM_MMFF94_ENERGY>
75.3654

> <PUBCHEM_FEATURE_SELFOVERLAP>
40.689

> <PUBCHEM_SHAPE_FINGERPRINT>
10498660 4 18334565854482978588
10616163 171 18412261769892000550
10906281 52 18268729332496851400
10967382 1 18409163299196382730
11132069 177 18260823830106114581
11315181 36 17846777438100329984
11552529 35 18058445585631877095
11578080 2 16952518088400902894
11796584 16 15123796154675551020
12107183 9 17697047933183828707
12236239 1 17917992754997443209
12403259 415 18260540148118003532
12403814 3 17531241756051219503
12633257 1 18411416168188185458
12644460 14 18260827060354363322
12788726 201 17059505002047033793
128620 24 17385724690407290772
13140716 1 18264499557760559337
13224815 77 18408318891198213202
13675066 3 17749393654488776519
14790565 3 18338806709892665688
15163728 17 15481289097577292713
15183329 4 18408605830407435614
15196674 1 18337388339818468438
15209289 33 18341332270467662817
15209294 21 18059584555192331817
15309172 13 18409451371427638915
15536298 74 18341610425830279326
15788980 27 17749105603943632888
16945 1 18265320738190372627
17349148 13 18114176445825312880
1813 80 17530976782159466655
18186145 218 18409161126111612646
19489759 90 15410896249631894657
19591789 44 18193273216009210722
200 152 17918273168974754922
21033648 29 17968079933063946356
21267235 1 18338240469814837151
21623110 236 18263368155990106261
23402539 116 18410566319162361766
23402655 69 18201721773563375622
23559900 14 18341325700027887232
335352 9 18410007719541319564
34934 24 18335695014618288215
350125 39 18408603674022772468
3545911 37 18408602569419241710
3680242 22 18335416829913620042
4214541 1 18412824715549947695
474 4 18408605889666299408
5104073 3 18339077194179428906
542803 24 17561084709247609168
59755656 215 18335983078396721054
633830 44 18202282537272954908
9709674 26 18410014338397756278

> <PUBCHEM_SHAPE_MULTIPOLES>
441.01
10.64
2.03
1.22
7.18
0.55
-0.05
-1.94
-1.01
0.21
-0.15
-1.94
-0.33
-0.49

> <PUBCHEM_SHAPE_SELFOVERLAP>
961.464

> <PUBCHEM_SHAPE_VOLUME>
238.8

> <PUBCHEM_COORDINATE_TYPE>
2
5
10

> <Energy>
61.5647

> <minimizedAffinity>
-5.96663

> <CNNscore>
0.7618554831

> <CNNaffinity>
8.4632816315

> <CNN_VS>
6.4477972984

> <CNNaffinity_variance>
2.0850660801

$$$$
5991


 24 27  0  0  0  0  0  0  0  0999 V2000
  108.9129   13.4581   20.9134 O   0  0  0  0  0  0  0  0  0  0  0  0
   99.8083   17.7040   25.3428 O   0  0  0  0  0  0  0  0  0  0  0  0
  107.0188   14.2840   22.2715 C   0  0  0  0  0  0  0  0  0  0  0  0
  106.9510   14.6312   23.7766 C   0  0  0  0  0  0  0  0  0  0  0  0
  105.7577   15.5258   24.1213 C   0  0  0  0  0  0  0  0  0  0  0  0
  108.3640   13.4937   22.2251 C   0  0  0  0  0  0  0  0  0  0  0  0
  104.4423   14.7754   23.7542 C   0  0  0  0  0  0  0  0  0  0  0  0
  105.7345   13.5183   21.9012 C   0  0  0  0  0  0  0  0  0  0  0  0
  108.3580   15.1330   24.0907 C   0  0  0  0  0  0  0  0  0  0  0  0
  104.4605   14.3005   22.2778 C   0  0  0  0  0  0  0  0  0  0  0  0
  109.2827   14.3197   23.1643 C   0  0  0  0  0  0  0  0  0  0  0  0
  105.7181   15.9025   25.6042 C   0  0  0  0  0  0  0  0  0  0  0  0
  107.1215   15.5328   21.3466 C   0  0  0  0  0  0  0  0  0  0  0  0
  103.2113   15.5871   24.1560 C   0  0  0  0  0  0  0  0  0  0  0  0
  104.5998   16.9098   25.8525 C   0  0  0  0  0  0  0  0  0  0  0  0
  103.2972   16.5587   25.1776 C   0  0  0  0  0  0  0  0  0  0  0  0
  101.9513   15.3266   23.5907 C   0  0  0  0  0  0  0  0  0  0  0  0
  102.1489   17.2772   25.5620 C   0  0  0  0  0  0  0  0  0  0  0  0
  100.8139   16.0415   23.9895 C   0  0  0  0  0  0  0  0  0  0  0  0
  100.9242   17.0154   24.9699 C   0  0  0  0  0  0  0  0  0  0  0  0
  108.9936   14.3624   20.5719 H   0  0  0  0  0  0  0  0  0  0  0  0
   99.8652   18.3656   26.0039 H   0  0  0  0  0  0  0  0  0  0  0  0
  108.2554   12.1057   22.7125 C   0  0  0  0  0  0  0  0  0  0  0  0
  108.1528   10.9766   23.1158 C   0  0  0  0  0  0  0  0  0  0  0  0
  1  6  1  0
  1 21  1  0
  2 20  1  0
  2 22  1  0
  3  4  1  0
  3  6  1  0
  3  8  1  0
  3 13  1  0
  4  5  1  0
  4  9  1  0
  5  7  1  0
  5 12  1  0
  6 11  1  0
  6 23  1  0
  7 10  1  0
  7 14  1  0
  8 10  1  0
  9 11  1  0
 12 15  1  0
 14 16  2  0
 14 17  1  0
 15 16  1  0
 16 18  1  0
 23 24  3  0
 17 19  2  0
 18 20  2  0
 19 20  1  0
M  END
> <PUBCHEM_COMPOUND_CID>
5991

> <PUBCHEM_CONFORMER_RMSD>
0.6

> <PUBCHEM_CONFORMER_DIVERSEORDER>
1

> <PUBCHEM_MMFF94_PARTIAL_CHARGES>
19
1 -0.68
14 -0.14
15 0.14
16 -0.14
17 -0.2
18 -0.15
19 -0.15
2 -0.53
20 -0.15
21 0.08
22 -0.18
41 0.4
42 0.15
43 0.15
44 0.15
45 0.18
46 0.45
6 0.48
7 0.14

> <PUBCHEM_EFFECTIVE_ROTOR_COUNT>
1.4

> <PUBCHEM_PHARMACOPHORE_FEATURES>
8
1 1 acceptor
1 1 donor
1 2 donor
1 22 hydrophobe
5 3 4 6 9 11 rings
6 14 16 18 19 20 21 rings
6 3 4 5 7 8 10 rings
6 5 7 12 14 15 16 rings

> <PUBCHEM_HEAVY_ATOM_COUNT>
22

> <PUBCHEM_ATOM_DEF_STEREO_COUNT>
5

> <PUBCHEM_ATOM_UDEF_STEREO_COUNT>
0

> <PUBCHEM_BOND_DEF_STEREO_COUNT>
0

> <PUBCHEM_BOND_UDEF_STEREO_COUNT>
0

> <PUBCHEM_ISOTOPIC_ATOM_COUNT>
0

> <PUBCHEM_COMPONENT_COUNT>
1

> <PUBCHEM_CACTVS_TAUTO_COUNT>
9

> <PUBCHEM_CONFORMER_ID>
0000176700000001

> <PUBCHEM_MMFF94_ENERGY>
75.3654

> <PUBCHEM_FEATURE_SELFOVERLAP>
40.689

> <PUBCHEM_SHAPE_FINGERPRINT>
10498660 4 18334565854482978588
10616163 171 18412261769892000550
10906281 52 18268729332496851400
10967382 1 18409163299196382730
11132069 177 18260823830106114581
11315181 36 17846777438100329984
11552529 35 18058445585631877095
11578080 2 16952518088400902894
11796584 16 15123796154675551020
12107183 9 17697047933183828707
12236239 1 17917992754997443209
12403259 415 18260540148118003532
12403814 3 17531241756051219503
12633257 1 18411416168188185458
12644460 14 18260827060354363322
12788726 201 17059505002047033793
128620 24 17385724690407290772
13140716 1 18264499557760559337
13224815 77 18408318891198213202
13675066 3 17749393654488776519
14790565 3 18338806709892665688
15163728 17 15481289097577292713
15183329 4 18408605830407435614
15196674 1 18337388339818468438
15209289 33 18341332270467662817
15209294 21 18059584555192331817
15309172 13 18409451371427638915
15536298 74 18341610425830279326
15788980 27 17749105603943632888
16945 1 18265320738190372627
17349148 13 18114176445825312880
1813 80 17530976782159466655
18186145 218 18409161126111612646
19489759 90 15410896249631894657
19591789 44 18193273216009210722
200 152 17918273168974754922
21033648 29 17968079933063946356
21267235 1 18338240469814837151
21623110 236 18263368155990106261
23402539 116 18410566319162361766
23402655 69 18201721773563375622
23559900 14 18341325700027887232
335352 9 18410007719541319564
34934 24 18335695014618288215
350125 39 18408603674022772468
3545911 37 18408602569419241710
3680242 22 18335416829913620042
4214541 1 18412824715549947695
474 4 18408605889666299408
5104073 3 18339077194179428906
542803 24 17561084709247609168
59755656 215 18335983078396721054
633830 44 18202282537272954908
9709674 26 18410014338397756278

> <PUBCHEM_SHAPE_MULTIPOLES>
441.01
10.64
2.03
1.22
7.18
0.55
-0.05
-1.94
-1.01
0.21
-0.15
-1.94
-0.33
-0.49

> <PUBCHEM_SHAPE_SELFOVERLAP>
961.464

> <PUBCHEM_SHAPE_VOLUME>
238.8

> <PUBCHEM_COORDINATE_TYPE>
2
5
10

> <Energy>
61.5647

> <minimizedAffinity>
-8.20472

> <CNNscore>
0.6615136862

> <CNNaffinity>
7.9738354683

> <CNN_VS>
5.2748012543

> <CNNaffinity_variance>
0.8933954239

$$$$
5991


 24 27  0  0  0  0  0  0  0  0999 V2000
  106.2485   11.3304   20.0414 O   0  0  0  0  0  0  0  0  0  0  0  0
  101.2821   19.7958   24.9622 O   0  0  0  0  0  0  0  0  0  0  0  0
  105.2612   13.0641   21.5022 C   0  0  0  0  0  0  0  0  0  0  0  0
  105.6281   13.4741   22.9472 C   0  0  0  0  0  0  0  0  0  0  0  0
  105.1024   14.8634   23.3165 C   0  0  0  0  0  0  0  0  0  0  0  0
  106.0185   11.7036   21.3946 C   0  0  0  0  0  0  0  0  0  0  0  0
  103.5477   14.8585   23.2117 C   0  0  0  0  0  0  0  0  0  0  0  0
  103.7251   13.0302   21.3925 C   0  0  0  0  0  0  0  0  0  0  0  0
  107.1308   13.2156   23.0206 C   0  0  0  0  0  0  0  0  0  0  0  0
  103.0809   14.3648   21.8175 C   0  0  0  0  0  0  0  0  0  0  0  0
  107.3676   12.0021   22.1010 C   0  0  0  0  0  0  0  0  0  0  0  0
  105.5041   15.2835   24.7324 C   0  0  0  0  0  0  0  0  0  0  0  0
  105.8025   14.0434   20.4189 C   0  0  0  0  0  0  0  0  0  0  0  0
  102.9590   16.1982   23.6525 C   0  0  0  0  0  0  0  0  0  0  0  0
  105.0813   16.7275   24.9832 C   0  0  0  0  0  0  0  0  0  0  0  0
  103.6805   17.0452   24.5226 C   0  0  0  0  0  0  0  0  0  0  0  0
  101.6573   16.5782   23.2828 C   0  0  0  0  0  0  0  0  0  0  0  0
  103.1139   18.2620   24.9482 C   0  0  0  0  0  0  0  0  0  0  0  0
  101.1009   17.7871   23.7218 C   0  0  0  0  0  0  0  0  0  0  0  0
  101.8374   18.6217   24.5480 C   0  0  0  0  0  0  0  0  0  0  0  0
  106.7015   12.0529   19.5792 H   0  0  0  0  0  0  0  0  0  0  0  0
  101.7661   20.3716   25.5208 H   0  0  0  0  0  0  0  0  0  0  0  0
  105.3300   10.5850   22.0660 C   0  0  0  0  0  0  0  0  0  0  0  0
  104.7805    9.6708   22.6230 C   0  0  0  0  0  0  0  0  0  0  0  0
  1  6  1  0
  1 21  1  0
  2 20  1  0
  2 22  1  0
  3  4  1  0
  3  6  1  0
  3  8  1  0
  3 13  1  0
  4  5  1  0
  4  9  1  0
  5  7  1  0
  5 12  1  0
  6 11  1  0
  6 23  1  0
  7 10  1  0
  7 14  1  0
  8 10  1  0
  9 11  1  0
 12 15  1  0
 14 16  2  0
 14 17  1  0
 15 16  1  0
 16 18  1  0
 23 24  3  0
 17 19  2  0
 18 20  2  0
 19 20  1  0
M  END
> <PUBCHEM_COMPOUND_CID>
5991

> <PUBCHEM_CONFORMER_RMSD>
0.6

> <PUBCHEM_CONFORMER_DIVERSEORDER>
1

> <PUBCHEM_MMFF94_PARTIAL_CHARGES>
19
1 -0.68
14 -0.14
15 0.14
16 -0.14
17 -0.2
18 -0.15
19 -0.15
2 -0.53
20 -0.15
21 0.08
22 -0.18
41 0.4
42 0.15
43 0.15
44 0.15
45 0.18
46 0.45
6 0.48
7 0.14

> <PUBCHEM_EFFECTIVE_ROTOR_COUNT>
1.4

> <PUBCHEM_PHARMACOPHORE_FEATURES>
8
1 1 acceptor
1 1 donor
1 2 donor
1 22 hydrophobe
5 3 4 6 9 11 rings
6 14 16 18 19 20 21 rings
6 3 4 5 7 8 10 rings
6 5 7 12 14 15 16 rings

> <PUBCHEM_HEAVY_ATOM_COUNT>
22

> <PUBCHEM_ATOM_DEF_STEREO_COUNT>
5

> <PUBCHEM_ATOM_UDEF_STEREO_COUNT>
0

> <PUBCHEM_BOND_DEF_STEREO_COUNT>
0

> <PUBCHEM_BOND_UDEF_STEREO_COUNT>
0

> <PUBCHEM_ISOTOPIC_ATOM_COUNT>
0

> <PUBCHEM_COMPONENT_COUNT>
1

> <PUBCHEM_CACTVS_TAUTO_COUNT>
9

> <PUBCHEM_CONFORMER_ID>
0000176700000001

> <PUBCHEM_MMFF94_ENERGY>
75.3654

> <PUBCHEM_FEATURE_SELFOVERLAP>
40.689

> <PUBCHEM_SHAPE_FINGERPRINT>
10498660 4 18334565854482978588
10616163 171 18412261769892000550
10906281 52 18268729332496851400
10967382 1 18409163299196382730
11132069 177 18260823830106114581
11315181 36 17846777438100329984
11552529 35 18058445585631877095
11578080 2 16952518088400902894
11796584 16 15123796154675551020
12107183 9 17697047933183828707
12236239 1 17917992754997443209
12403259 415 18260540148118003532
12403814 3 17531241756051219503
12633257 1 18411416168188185458
12644460 14 18260827060354363322
12788726 201 17059505002047033793
128620 24 17385724690407290772
13140716 1 18264499557760559337
13224815 77 18408318891198213202
13675066 3 17749393654488776519
14790565 3 18338806709892665688
15163728 17 15481289097577292713
15183329 4 18408605830407435614
15196674 1 18337388339818468438
15209289 33 18341332270467662817
15209294 21 18059584555192331817
15309172 13 18409451371427638915
15536298 74 18341610425830279326
15788980 27 17749105603943632888
16945 1 18265320738190372627
17349148 13 18114176445825312880
1813 80 17530976782159466655
18186145 218 18409161126111612646
19489759 90 15410896249631894657
19591789 44 18193273216009210722
200 152 17918273168974754922
21033648 29 17968079933063946356
21267235 1 18338240469814837151
21623110 236 18263368155990106261
23402539 116 18410566319162361766
23402655 69 18201721773563375622
23559900 14 18341325700027887232
335352 9 18410007719541319564
34934 24 18335695014618288215
350125 39 18408603674022772468
3545911 37 18408602569419241710
3680242 22 18335416829913620042
4214541 1 18412824715549947695
474 4 18408605889666299408
5104073 3 18339077194179428906
542803 24 17561084709247609168
59755656 215 18335983078396721054
633830 44 18202282537272954908
9709674 26 18410014338397756278

> <PUBCHEM_SHAPE_MULTIPOLES>
441.01
10.64
2.03
1.22
7.18
0.55
-0.05
-1.94
-1.01
0.21
-0.15
-1.94
-0.33
-0.49

> <PUBCHEM_SHAPE_SELFOVERLAP>
961.464

> <PUBCHEM_SHAPE_VOLUME>
238.8

> <PUBCHEM_COORDINATE_TYPE>
2
5
10

> <Energy>
61.5647

> <minimizedAffinity>
-3.21461

> <CNNscore>
0.5598335266

> <CNNaffinity>
7.9164214134

> <CNN_VS>
4.4318780899

> <CNNaffinity_variance>
1.7146762609

$$$$
5991


 24 27  0  0  0  0  0  0  0  0999 V2000
  107.7951   11.1014   21.3529 O   0  0  0  0  0  0  0  0  0  0  0  0
  102.7653   19.1761   26.8338 O   0  0  0  0  0  0  0  0  0  0  0  0
  106.3281   12.8141   22.3670 C   0  0  0  0  0  0  0  0  0  0  0  0
  104.7864   12.8682   22.4706 C   0  0  0  0  0  0  0  0  0  0  0  0
  104.3025   13.8381   23.5514 C   0  0  0  0  0  0  0  0  0  0  0  0
  106.4995   11.6860   21.3021 C   0  0  0  0  0  0  0  0  0  0  0  0
  104.7987   15.2729   23.2001 C   0  0  0  0  0  0  0  0  0  0  0  0
  106.8298   14.2220   21.9943 C   0  0  0  0  0  0  0  0  0  0  0  0
  104.3839   11.3991   22.5708 C   0  0  0  0  0  0  0  0  0  0  0  0
  106.3339   15.2977   22.9811 C   0  0  0  0  0  0  0  0  0  0  0  0
  105.4289   10.6454   21.7255 C   0  0  0  0  0  0  0  0  0  0  0  0
  102.7775   13.8569   23.6802 C   0  0  0  0  0  0  0  0  0  0  0  0
  107.0282   12.3854   23.6905 C   0  0  0  0  0  0  0  0  0  0  0  0
  104.2727   16.3010   24.2010 C   0  0  0  0  0  0  0  0  0  0  0  0
  102.3692   14.7236   24.8672 C   0  0  0  0  0  0  0  0  0  0  0  0
  103.1012   16.0402   24.9458 C   0  0  0  0  0  0  0  0  0  0  0  0
  104.8812   17.5604   24.3386 C   0  0  0  0  0  0  0  0  0  0  0  0
  102.6077   17.0087   25.8408 C   0  0  0  0  0  0  0  0  0  0  0  0
  104.3740   18.5197   25.2253 C   0  0  0  0  0  0  0  0  0  0  0  0
  103.2427   18.2328   25.9732 C   0  0  0  0  0  0  0  0  0  0  0  0
  107.9785   10.7996   22.2563 H   0  0  0  0  0  0  0  0  0  0  0  0
  102.0016   18.9985   27.3470 H   0  0  0  0  0  0  0  0  0  0  0  0
  106.2541   12.1328   19.9178 C   0  0  0  0  0  0  0  0  0  0  0  0
  106.0461   12.5093   18.7940 C   0  0  0  0  0  0  0  0  0  0  0  0
  1  6  1  0
  1 21  1  0
  2 20  1  0
  2 22  1  0
  3  4  1  0
  3  6  1  0
  3  8  1  0
  3 13  1  0
  4  5  1  0
  4  9  1  0
  5  7  1  0
  5 12  1  0
  6 11  1  0
  6 23  1  0
  7 10  1  0
  7 14  1  0
  8 10  1  0
  9 11  1  0
 12 15  1  0
 14 16  2  0
 14 17  1  0
 15 16  1  0
 16 18  1  0
 23 24  3  0
 17 19  2  0
 18 20  2  0
 19 20  1  0
M  END
> <PUBCHEM_COMPOUND_CID>
5991

> <PUBCHEM_CONFORMER_RMSD>
0.6

> <PUBCHEM_CONFORMER_DIVERSEORDER>
1

> <PUBCHEM_MMFF94_PARTIAL_CHARGES>
19
1 -0.68
14 -0.14
15 0.14
16 -0.14
17 -0.2
18 -0.15
19 -0.15
2 -0.53
20 -0.15
21 0.08
22 -0.18
41 0.4
42 0.15
43 0.15
44 0.15
45 0.18
46 0.45
6 0.48
7 0.14

> <PUBCHEM_EFFECTIVE_ROTOR_COUNT>
1.4

> <PUBCHEM_PHARMACOPHORE_FEATURES>
8
1 1 acceptor
1 1 donor
1 2 donor
1 22 hydrophobe
5 3 4 6 9 11 rings
6 14 16 18 19 20 21 rings
6 3 4 5 7 8 10 rings
6 5 7 12 14 15 16 rings

> <PUBCHEM_HEAVY_ATOM_COUNT>
22

> <PUBCHEM_ATOM_DEF_STEREO_COUNT>
5

> <PUBCHEM_ATOM_UDEF_STEREO_COUNT>
0

> <PUBCHEM_BOND_DEF_STEREO_COUNT>
0

> <PUBCHEM_BOND_UDEF_STEREO_COUNT>
0

> <PUBCHEM_ISOTOPIC_ATOM_COUNT>
0

> <PUBCHEM_COMPONENT_COUNT>
1

> <PUBCHEM_CACTVS_TAUTO_COUNT>
9

> <PUBCHEM_CONFORMER_ID>
0000176700000001

> <PUBCHEM_MMFF94_ENERGY>
75.3654

> <PUBCHEM_FEATURE_SELFOVERLAP>
40.689

> <PUBCHEM_SHAPE_FINGERPRINT>
10498660 4 18334565854482978588
10616163 171 18412261769892000550
10906281 52 18268729332496851400
10967382 1 18409163299196382730
11132069 177 18260823830106114581
11315181 36 17846777438100329984
11552529 35 18058445585631877095
11578080 2 16952518088400902894
11796584 16 15123796154675551020
12107183 9 17697047933183828707
12236239 1 17917992754997443209
12403259 415 18260540148118003532
12403814 3 17531241756051219503
12633257 1 18411416168188185458
12644460 14 18260827060354363322
12788726 201 17059505002047033793
128620 24 17385724690407290772
13140716 1 18264499557760559337
13224815 77 18408318891198213202
13675066 3 17749393654488776519
14790565 3 18338806709892665688
15163728 17 15481289097577292713
15183329 4 18408605830407435614
15196674 1 18337388339818468438
15209289 33 18341332270467662817
15209294 21 18059584555192331817
15309172 13 18409451371427638915
15536298 74 18341610425830279326
15788980 27 17749105603943632888
16945 1 18265320738190372627
17349148 13 18114176445825312880
1813 80 17530976782159466655
18186145 218 18409161126111612646
19489759 90 15410896249631894657
19591789 44 18193273216009210722
200 152 17918273168974754922
21033648 29 17968079933063946356
21267235 1 18338240469814837151
21623110 236 18263368155990106261
23402539 116 18410566319162361766
23402655 69 18201721773563375622
23559900 14 18341325700027887232
335352 9 18410007719541319564
34934 24 18335695014618288215
350125 39 18408603674022772468
3545911 37 18408602569419241710
3680242 22 18335416829913620042
4214541 1 18412824715549947695
474 4 18408605889666299408
5104073 3 18339077194179428906
542803 24 17561084709247609168
59755656 215 18335983078396721054
633830 44 18202282537272954908
9709674 26 18410014338397756278

> <PUBCHEM_SHAPE_MULTIPOLES>
441.01
10.64
2.03
1.22
7.18
0.55
-0.05
-1.94
-1.01
0.21
-0.15
-1.94
-0.33
-0.49

> <PUBCHEM_SHAPE_SELFOVERLAP>
961.464

> <PUBCHEM_SHAPE_VOLUME>
238.8

> <PUBCHEM_COORDINATE_TYPE>
2
5
10

> <Energy>
61.5647

> <minimizedAffinity>
-1.06231

> <CNNscore>
0.3402967155

> <CNNaffinity>
7.4913444519

> <CNN_VS>
2.5492799282

> <CNNaffinity_variance>
1.3537708521

$$$$
5991


 24 27  0  0  0  0  0  0  0  0999 V2000
  103.5733   19.2692   25.4118 O   0  0  0  0  0  0  0  0  0  0  0  0
  108.3112   10.3002   21.2104 O   0  0  0  0  0  0  0  0  0  0  0  0
  104.2780   17.0642   24.5425 C   0  0  0  0  0  0  0  0  0  0  0  0
  103.4278   15.8821   24.0224 C   0  0  0  0  0  0  0  0  0  0  0  0
  104.2378   14.9067   23.1649 C   0  0  0  0  0  0  0  0  0  0  0  0
  103.1767   17.9126   25.2520 C   0  0  0  0  0  0  0  0  0  0  0  0
  105.3888   14.3107   24.0300 C   0  0  0  0  0  0  0  0  0  0  0  0
  105.4051   16.4896   25.4212 C   0  0  0  0  0  0  0  0  0  0  0  0
  102.2095   16.5636   23.4047 C   0  0  0  0  0  0  0  0  0  0  0  0
  106.2435   15.4320   24.6760 C   0  0  0  0  0  0  0  0  0  0  0  0
  101.9810   17.8201   24.2670 C   0  0  0  0  0  0  0  0  0  0  0  0
  103.3834   13.7612   22.6166 C   0  0  0  0  0  0  0  0  0  0  0  0
  104.9310   17.9098   23.4093 C   0  0  0  0  0  0  0  0  0  0  0  0
  106.1818   13.2627   23.2499 C   0  0  0  0  0  0  0  0  0  0  0  0
  104.2099   12.9140   21.6545 C   0  0  0  0  0  0  0  0  0  0  0  0
  105.5926   12.5848   22.1598 C   0  0  0  0  0  0  0  0  0  0  0  0
  107.4740   12.8814   23.6499 C   0  0  0  0  0  0  0  0  0  0  0  0
  106.3217   11.5977   21.4694 C   0  0  0  0  0  0  0  0  0  0  0  0
  108.1853   11.8899   22.9606 C   0  0  0  0  0  0  0  0  0  0  0  0
  107.6034   11.2595   21.8717 C   0  0  0  0  0  0  0  0  0  0  0  0
  103.8353   19.6330   24.5516 H   0  0  0  0  0  0  0  0  0  0  0  0
  107.9329    9.8641   20.4724 H   0  0  0  0  0  0  0  0  0  0  0  0
  102.7859   17.3921   26.5758 C   0  0  0  0  0  0  0  0  0  0  0  0
  102.4661   16.9820   27.6609 C   0  0  0  0  0  0  0  0  0  0  0  0
  1  6  1  0
  1 21  1  0
  2 20  1  0
  2 22  1  0
  3  4  1  0
  3  6  1  0
  3  8  1  0
  3 13  1  0
  4  5  1  0
  4  9  1  0
  5  7  1  0
  5 12  1  0
  6 11  1  0
  6 23  1  0
  7 10  1  0
  7 14  1  0
  8 10  1  0
  9 11  1  0
 12 15  1  0
 14 16  2  0
 14 17  1  0
 15 16  1  0
 16 18  1  0
 23 24  3  0
 17 19  2  0
 18 20  2  0
 19 20  1  0
M  END
> <PUBCHEM_COMPOUND_CID>
5991

> <PUBCHEM_CONFORMER_RMSD>
0.6

> <PUBCHEM_CONFORMER_DIVERSEORDER>
1

> <PUBCHEM_MMFF94_PARTIAL_CHARGES>
19
1 -0.68
14 -0.14
15 0.14
16 -0.14
17 -0.2
18 -0.15
19 -0.15
2 -0.53
20 -0.15
21 0.08
22 -0.18
41 0.4
42 0.15
43 0.15
44 0.15
45 0.18
46 0.45
6 0.48
7 0.14

> <PUBCHEM_EFFECTIVE_ROTOR_COUNT>
1.4

> <PUBCHEM_PHARMACOPHORE_FEATURES>
8
1 1 acceptor
1 1 donor
1 2 donor
1 22 hydrophobe
5 3 4 6 9 11 rings
6 14 16 18 19 20 21 rings
6 3 4 5 7 8 10 rings
6 5 7 12 14 15 16 rings

> <PUBCHEM_HEAVY_ATOM_COUNT>
22

> <PUBCHEM_ATOM_DEF_STEREO_COUNT>
5

> <PUBCHEM_ATOM_UDEF_STEREO_COUNT>
0

> <PUBCHEM_BOND_DEF_STEREO_COUNT>
0

> <PUBCHEM_BOND_UDEF_STEREO_COUNT>
0

> <PUBCHEM_ISOTOPIC_ATOM_COUNT>
0

> <PUBCHEM_COMPONENT_COUNT>
1

> <PUBCHEM_CACTVS_TAUTO_COUNT>
9

> <PUBCHEM_CONFORMER_ID>
0000176700000001

> <PUBCHEM_MMFF94_ENERGY>
75.3654

> <PUBCHEM_FEATURE_SELFOVERLAP>
40.689

> <PUBCHEM_SHAPE_FINGERPRINT>
10498660 4 18334565854482978588
10616163 171 18412261769892000550
10906281 52 18268729332496851400
10967382 1 18409163299196382730
11132069 177 18260823830106114581
11315181 36 17846777438100329984
11552529 35 18058445585631877095
11578080 2 16952518088400902894
11796584 16 15123796154675551020
12107183 9 17697047933183828707
12236239 1 17917992754997443209
12403259 415 18260540148118003532
12403814 3 17531241756051219503
12633257 1 18411416168188185458
12644460 14 18260827060354363322
12788726 201 17059505002047033793
128620 24 17385724690407290772
13140716 1 18264499557760559337
13224815 77 18408318891198213202
13675066 3 17749393654488776519
14790565 3 18338806709892665688
15163728 17 15481289097577292713
15183329 4 18408605830407435614
15196674 1 18337388339818468438
15209289 33 18341332270467662817
15209294 21 18059584555192331817
15309172 13 18409451371427638915
15536298 74 18341610425830279326
15788980 27 17749105603943632888
16945 1 18265320738190372627
17349148 13 18114176445825312880
1813 80 17530976782159466655
18186145 218 18409161126111612646
19489759 90 15410896249631894657
19591789 44 18193273216009210722
200 152 17918273168974754922
21033648 29 17968079933063946356
21267235 1 18338240469814837151
21623110 236 18263368155990106261
23402539 116 18410566319162361766
23402655 69 18201721773563375622
23559900 14 18341325700027887232
335352 9 18410007719541319564
34934 24 18335695014618288215
350125 39 18408603674022772468
3545911 37 18408602569419241710
3680242 22 18335416829913620042
4214541 1 18412824715549947695
474 4 18408605889666299408
5104073 3 18339077194179428906
542803 24 17561084709247609168
59755656 215 18335983078396721054
633830 44 18202282537272954908
9709674 26 18410014338397756278

> <PUBCHEM_SHAPE_MULTIPOLES>
441.01
10.64
2.03
1.22
7.18
0.55
-0.05
-1.94
-1.01
0.21
-0.15
-1.94
-0.33
-0.49

> <PUBCHEM_SHAPE_SELFOVERLAP>
961.464

> <PUBCHEM_SHAPE_VOLUME>
238.8

> <PUBCHEM_COORDINATE_TYPE>
2
5
10

> <Energy>
61.5647

> <minimizedAffinity>
-3.23208

> <CNNscore>
0.1297918856

> <CNNaffinity>
6.7911505699

> <CNN_VS>
0.8814362288

> <CNNaffinity_variance>
0.3577264547

$$$$
5991


 24 27  0  0  0  0  0  0  0  0999 V2000
  100.3702   17.1350   24.7831 O   0  0  0  0  0  0  0  0  0  0  0  0
  108.7409   10.6222   21.9448 O   0  0  0  0  0  0  0  0  0  0  0  0
  102.4923   15.9458   24.3394 C   0  0  0  0  0  0  0  0  0  0  0  0
  103.8482   16.0215   25.0786 C   0  0  0  0  0  0  0  0  0  0  0  0
  104.7457   14.8164   24.7872 C   0  0  0  0  0  0  0  0  0  0  0  0
  101.7840   17.2097   24.9201 C   0  0  0  0  0  0  0  0  0  0  0  0
  105.0474   14.7701   23.2591 C   0  0  0  0  0  0  0  0  0  0  0  0
  102.7759   15.9257   22.8255 C   0  0  0  0  0  0  0  0  0  0  0  0
  103.4507   16.3069   26.5246 C   0  0  0  0  0  0  0  0  0  0  0  0
  103.7382   14.7888   22.4279 C   0  0  0  0  0  0  0  0  0  0  0  0
  102.1763   17.1669   26.4209 C   0  0  0  0  0  0  0  0  0  0  0  0
  106.0692   14.8737   25.5540 C   0  0  0  0  0  0  0  0  0  0  0  0
  101.6585   14.6787   24.6927 C   0  0  0  0  0  0  0  0  0  0  0  0
  106.0116   13.6340   22.9195 C   0  0  0  0  0  0  0  0  0  0  0  0
  106.8482   13.5801   25.3386 C   0  0  0  0  0  0  0  0  0  0  0  0
  106.8826   13.1164   23.9036 C   0  0  0  0  0  0  0  0  0  0  0  0
  106.1229   13.1415   21.6079 C   0  0  0  0  0  0  0  0  0  0  0  0
  107.7896   12.0922   23.5704 C   0  0  0  0  0  0  0  0  0  0  0  0
  107.0372   12.1290   21.2869 C   0  0  0  0  0  0  0  0  0  0  0  0
  107.8602   11.6094   22.2739 C   0  0  0  0  0  0  0  0  0  0  0  0
  100.0504   16.3081   25.1765 H   0  0  0  0  0  0  0  0  0  0  0  0
  109.3045   10.2598   22.5998 H   0  0  0  0  0  0  0  0  0  0  0  0
  102.2354   18.4760   24.3128 C   0  0  0  0  0  0  0  0  0  0  0  0
  102.6099   19.5130   23.8308 C   0  0  0  0  0  0  0  0  0  0  0  0
  1  6  1  0
  1 21  1  0
  2 20  1  0
  2 22  1  0
  3  4  1  0
  3  6  1  0
  3  8  1  0
  3 13  1  0
  4  5  1  0
  4  9  1  0
  5  7  1  0
  5 12  1  0
  6 11  1  0
  6 23  1  0
  7 10  1  0
  7 14  1  0
  8 10  1  0
  9 11  1  0
 12 15  1  0
 14 16  2  0
 14 17  1  0
 15 16  1  0
 16 18  1  0
 23 24  3  0
 17 19  2  0
 18 20  2  0
 19 20  1  0
M  END
> <PUBCHEM_COMPOUND_CID>
5991

> <PUBCHEM_CONFORMER_RMSD>
0.6

> <PUBCHEM_CONFORMER_DIVERSEORDER>
1

> <PUBCHEM_MMFF94_PARTIAL_CHARGES>
19
1 -0.68
14 -0.14
15 0.14
16 -0.14
17 -0.2
18 -0.15
19 -0.15
2 -0.53
20 -0.15
21 0.08
22 -0.18
41 0.4
42 0.15
43 0.15
44 0.15
45 0.18
46 0.45
6 0.48
7 0.14

> <PUBCHEM_EFFECTIVE_ROTOR_COUNT>
1.4

> <PUBCHEM_PHARMACOPHORE_FEATURES>
8
1 1 acceptor
1 1 donor
1 2 donor
1 22 hydrophobe
5 3 4 6 9 11 rings
6 14 16 18 19 20 21 rings
6 3 4 5 7 8 10 rings
6 5 7 12 14 15 16 rings

> <PUBCHEM_HEAVY_ATOM_COUNT>
22

> <PUBCHEM_ATOM_DEF_STEREO_COUNT>
5

> <PUBCHEM_ATOM_UDEF_STEREO_COUNT>
0

> <PUBCHEM_BOND_DEF_STEREO_COUNT>
0

> <PUBCHEM_BOND_UDEF_STEREO_COUNT>
0

> <PUBCHEM_ISOTOPIC_ATOM_COUNT>
0

> <PUBCHEM_COMPONENT_COUNT>
1

> <PUBCHEM_CACTVS_TAUTO_COUNT>
9

> <PUBCHEM_CONFORMER_ID>
0000176700000001

> <PUBCHEM_MMFF94_ENERGY>
75.3654

> <PUBCHEM_FEATURE_SELFOVERLAP>
40.689

> <PUBCHEM_SHAPE_FINGERPRINT>
10498660 4 18334565854482978588
10616163 171 18412261769892000550
10906281 52 18268729332496851400
10967382 1 18409163299196382730
11132069 177 18260823830106114581
11315181 36 17846777438100329984
11552529 35 18058445585631877095
11578080 2 16952518088400902894
11796584 16 15123796154675551020
12107183 9 17697047933183828707
12236239 1 17917992754997443209
12403259 415 18260540148118003532
12403814 3 17531241756051219503
12633257 1 18411416168188185458
12644460 14 18260827060354363322
12788726 201 17059505002047033793
128620 24 17385724690407290772
13140716 1 18264499557760559337
13224815 77 18408318891198213202
13675066 3 17749393654488776519
14790565 3 18338806709892665688
15163728 17 15481289097577292713
15183329 4 18408605830407435614
15196674 1 18337388339818468438
15209289 33 18341332270467662817
15209294 21 18059584555192331817
15309172 13 18409451371427638915
15536298 74 18341610425830279326
15788980 27 17749105603943632888
16945 1 18265320738190372627
17349148 13 18114176445825312880
1813 80 17530976782159466655
18186145 218 18409161126111612646
19489759 90 15410896249631894657
19591789 44 18193273216009210722
200 152 17918273168974754922
21033648 29 17968079933063946356
21267235 1 18338240469814837151
21623110 236 18263368155990106261
23402539 116 18410566319162361766
23402655 69 18201721773563375622
23559900 14 18341325700027887232
335352 9 18410007719541319564
34934 24 18335695014618288215
350125 39 18408603674022772468
3545911 37 18408602569419241710
3680242 22 18335416829913620042
4214541 1 18412824715549947695
474 4 18408605889666299408
5104073 3 18339077194179428906
542803 24 17561084709247609168
59755656 215 18335983078396721054
633830 44 18202282537272954908
9709674 26 18410014338397756278

> <PUBCHEM_SHAPE_MULTIPOLES>
441.01
10.64
2.03
1.22
7.18
0.55
-0.05
-1.94
-1.01
0.21
-0.15
-1.94
-0.33
-0.49

> <PUBCHEM_SHAPE_SELFOVERLAP>
961.464

> <PUBCHEM_SHAPE_VOLUME>
238.8

> <PUBCHEM_COORDINATE_TYPE>
2
5
10

> <Energy>
61.5647

> <minimizedAffinity>
-4.44686

> <CNNscore>
0.1281629801

> <CNNaffinity>
6.7951869965

> <CNN_VS>
0.8708913922

> <CNNaffinity_variance>
0.3454471529

$$$$
5991


 24 27  0  0  0  0  0  0  0  0999 V2000
  102.4808   16.3439   22.5421 O   0  0  0  0  0  0  0  0  0  0  0  0
  108.4705    8.3218   27.0491 O   0  0  0  0  0  0  0  0  0  0  0  0
  104.0054   14.8400   23.7783 C   0  0  0  0  0  0  0  0  0  0  0  0
  104.7189   15.0430   25.1349 C   0  0  0  0  0  0  0  0  0  0  0  0
  105.1905   13.7255   25.7551 C   0  0  0  0  0  0  0  0  0  0  0  0
  103.5524   16.3028   23.4766 C   0  0  0  0  0  0  0  0  0  0  0  0
  106.2076   13.0484   24.7879 C   0  0  0  0  0  0  0  0  0  0  0  0
  105.0092   14.1944   22.8044 C   0  0  0  0  0  0  0  0  0  0  0  0
  103.7460   15.9169   25.9223 C   0  0  0  0  0  0  0  0  0  0  0  0
  105.6093   12.8900   23.3658 C   0  0  0  0  0  0  0  0  0  0  0  0
  103.0698   16.8079   24.8623 C   0  0  0  0  0  0  0  0  0  0  0  0
  105.8580   13.9262   27.1177 C   0  0  0  0  0  0  0  0  0  0  0  0
  102.7526   13.9186   23.8634 C   0  0  0  0  0  0  0  0  0  0  0  0
  106.7793   11.7673   25.3942 C   0  0  0  0  0  0  0  0  0  0  0  0
  106.1678   12.5716   27.7467 C   0  0  0  0  0  0  0  0  0  0  0  0
  106.7900   11.5811   26.7942 C   0  0  0  0  0  0  0  0  0  0  0  0
  107.3889   10.7900   24.5889 C   0  0  0  0  0  0  0  0  0  0  0  0
  107.3494   10.4112   27.3430 C   0  0  0  0  0  0  0  0  0  0  0  0
  107.9515    9.6348   25.1483 C   0  0  0  0  0  0  0  0  0  0  0  0
  107.9222    9.4533   26.5223 C   0  0  0  0  0  0  0  0  0  0  0  0
  101.7562   15.7807   22.8561 H   0  0  0  0  0  0  0  0  0  0  0  0
  108.4592    8.1833   27.9757 H   0  0  0  0  0  0  0  0  0  0  0  0
  104.6342   17.1677   22.9691 C   0  0  0  0  0  0  0  0  0  0  0  0
  105.5242   17.8715   22.5685 C   0  0  0  0  0  0  0  0  0  0  0  0
  1  6  1  0
  1 21  1  0
  2 20  1  0
  2 22  1  0
  3  4  1  0
  3  6  1  0
  3  8  1  0
  3 13  1  0
  4  5  1  0
  4  9  1  0
  5  7  1  0
  5 12  1  0
  6 11  1  0
  6 23  1  0
  7 10  1  0
  7 14  1  0
  8 10  1  0
  9 11  1  0
 12 15  1  0
 14 16  2  0
 14 17  1  0
 15 16  1  0
 16 18  1  0
 23 24  3  0
 17 19  2  0
 18 20  2  0
 19 20  1  0
M  END
> <PUBCHEM_COMPOUND_CID>
5991

> <PUBCHEM_CONFORMER_RMSD>
0.6

> <PUBCHEM_CONFORMER_DIVERSEORDER>
1

> <PUBCHEM_MMFF94_PARTIAL_CHARGES>
19
1 -0.68
14 -0.14
15 0.14
16 -0.14
17 -0.2
18 -0.15
19 -0.15
2 -0.53
20 -0.15
21 0.08
22 -0.18
41 0.4
42 0.15
43 0.15
44 0.15
45 0.18
46 0.45
6 0.48
7 0.14

> <PUBCHEM_EFFECTIVE_ROTOR_COUNT>
1.4

> <PUBCHEM_PHARMACOPHORE_FEATURES>
8
1 1 acceptor
1 1 donor
1 2 donor
1 22 hydrophobe
5 3 4 6 9 11 rings
6 14 16 18 19 20 21 rings
6 3 4 5 7 8 10 rings
6 5 7 12 14 15 16 rings

> <PUBCHEM_HEAVY_ATOM_COUNT>
22

> <PUBCHEM_ATOM_DEF_STEREO_COUNT>
5

> <PUBCHEM_ATOM_UDEF_STEREO_COUNT>
0

> <PUBCHEM_BOND_DEF_STEREO_COUNT>
0

> <PUBCHEM_BOND_UDEF_STEREO_COUNT>
0

> <PUBCHEM_ISOTOPIC_ATOM_COUNT>
0

> <PUBCHEM_COMPONENT_COUNT>
1

> <PUBCHEM_CACTVS_TAUTO_COUNT>
9

> <PUBCHEM_CONFORMER_ID>
0000176700000001

> <PUBCHEM_MMFF94_ENERGY>
75.3654

> <PUBCHEM_FEATURE_SELFOVERLAP>
40.689

> <PUBCHEM_SHAPE_FINGERPRINT>
10498660 4 18334565854482978588
10616163 171 18412261769892000550
10906281 52 18268729332496851400
10967382 1 18409163299196382730
11132069 177 18260823830106114581
11315181 36 17846777438100329984
11552529 35 18058445585631877095
11578080 2 16952518088400902894
11796584 16 15123796154675551020
12107183 9 17697047933183828707
12236239 1 17917992754997443209
12403259 415 18260540148118003532
12403814 3 17531241756051219503
12633257 1 18411416168188185458
12644460 14 18260827060354363322
12788726 201 17059505002047033793
128620 24 17385724690407290772
13140716 1 18264499557760559337
13224815 77 18408318891198213202
13675066 3 17749393654488776519
14790565 3 18338806709892665688
15163728 17 15481289097577292713
15183329 4 18408605830407435614
15196674 1 18337388339818468438
15209289 33 18341332270467662817
15209294 21 18059584555192331817
15309172 13 18409451371427638915
15536298 74 18341610425830279326
15788980 27 17749105603943632888
16945 1 18265320738190372627
17349148 13 18114176445825312880
1813 80 17530976782159466655
18186145 218 18409161126111612646
19489759 90 15410896249631894657
19591789 44 18193273216009210722
200 152 17918273168974754922
21033648 29 17968079933063946356
21267235 1 18338240469814837151
21623110 236 18263368155990106261
23402539 116 18410566319162361766
23402655 69 18201721773563375622
23559900 14 18341325700027887232
335352 9 18410007719541319564
34934 24 18335695014618288215
350125 39 18408603674022772468
3545911 37 18408602569419241710
3680242 22 18335416829913620042
4214541 1 18412824715549947695
474 4 18408605889666299408
5104073 3 18339077194179428906
542803 24 17561084709247609168
59755656 215 18335983078396721054
633830 44 18202282537272954908
9709674 26 18410014338397756278

> <PUBCHEM_SHAPE_MULTIPOLES>
441.01
10.64
2.03
1.22
7.18
0.55
-0.05
-1.94
-1.01
0.21
-0.15
-1.94
-0.33
-0.49

> <PUBCHEM_SHAPE_SELFOVERLAP>
961.464

> <PUBCHEM_SHAPE_VOLUME>
238.8

> <PUBCHEM_COORDINATE_TYPE>
2
5
10

> <Energy>
61.5647

> <minimizedAffinity>
12.83288

> <CNNscore>
0.1117572635

> <CNNaffinity>
5.2949199677

> <CNN_VS>
0.5917457938

> <CNNaffinity_variance>
0.5836911201

$$$$
5991


 24 27  0  0  0  0  0  0  0  0999 V2000
  104.0186   14.5362   19.4832 O   0  0  0  0  0  0  0  0  0  0  0  0
  107.8170    8.9986   28.1693 O   0  0  0  0  0  0  0  0  0  0  0  0
  105.0069   13.6579   21.5726 C   0  0  0  0  0  0  0  0  0  0  0  0
  105.3318   14.3811   22.9001 C   0  0  0  0  0  0  0  0  0  0  0  0
  105.4987   13.4120   24.0730 C   0  0  0  0  0  0  0  0  0  0  0  0
  104.7821   14.8830   20.6321 C   0  0  0  0  0  0  0  0  0  0  0  0
  106.6817   12.4459   23.7645 C   0  0  0  0  0  0  0  0  0  0  0  0
  106.1818   12.7179   21.2427 C   0  0  0  0  0  0  0  0  0  0  0  0
  104.2576   15.4621   22.9895 C   0  0  0  0  0  0  0  0  0  0  0  0
  106.4891   11.7421   22.3960 C   0  0  0  0  0  0  0  0  0  0  0  0
  103.9800   15.8640   21.5280 C   0  0  0  0  0  0  0  0  0  0  0  0
  105.7777   14.1342   25.3934 C   0  0  0  0  0  0  0  0  0  0  0  0
  103.7053   12.8045   21.6289 C   0  0  0  0  0  0  0  0  0  0  0  0
  106.9514   11.5078   24.9406 C   0  0  0  0  0  0  0  0  0  0  0  0
  105.7841   13.1297   26.5412 C   0  0  0  0  0  0  0  0  0  0  0  0
  106.5583   11.8687   26.2484 C   0  0  0  0  0  0  0  0  0  0  0  0
  107.6740   10.3147   24.7690 C   0  0  0  0  0  0  0  0  0  0  0  0
  106.8416   11.0112   27.3287 C   0  0  0  0  0  0  0  0  0  0  0  0
  107.9587    9.4749   25.8543 C   0  0  0  0  0  0  0  0  0  0  0  0
  107.5349    9.8292   27.1257 C   0  0  0  0  0  0  0  0  0  0  0  0
  103.1899   14.1154   19.7605 H   0  0  0  0  0  0  0  0  0  0  0  0
  107.5379    9.2228   29.0352 H   0  0  0  0  0  0  0  0  0  0  0  0
  106.0321   15.5189   20.1748 C   0  0  0  0  0  0  0  0  0  0  0  0
  107.0435   16.0479   19.7939 C   0  0  0  0  0  0  0  0  0  0  0  0
  1  6  1  0
  1 21  1  0
  2 20  1  0
  2 22  1  0
  3  4  1  0
  3  6  1  0
  3  8  1  0
  3 13  1  0
  4  5  1  0
  4  9  1  0
  5  7  1  0
  5 12  1  0
  6 11  1  0
  6 23  1  0
  7 10  1  0
  7 14  1  0
  8 10  1  0
  9 11  1  0
 12 15  1  0
 14 16  2  0
 14 17  1  0
 15 16  1  0
 16 18  1  0
 23 24  3  0
 17 19  2  0
 18 20  2  0
 19 20  1  0
M  END
> <PUBCHEM_COMPOUND_CID>
5991

> <PUBCHEM_CONFORMER_RMSD>
0.6

> <PUBCHEM_CONFORMER_DIVERSEORDER>
1

> <PUBCHEM_MMFF94_PARTIAL_CHARGES>
19
1 -0.68
14 -0.14
15 0.14
16 -0.14
17 -0.2
18 -0.15
19 -0.15
2 -0.53
20 -0.15
21 0.08
22 -0.18
41 0.4
42 0.15
43 0.15
44 0.15
45 0.18
46 0.45
6 0.48
7 0.14

> <PUBCHEM_EFFECTIVE_ROTOR_COUNT>
1.4

> <PUBCHEM_PHARMACOPHORE_FEATURES>
8
1 1 acceptor
1 1 donor
1 2 donor
1 22 hydrophobe
5 3 4 6 9 11 rings
6 14 16 18 19 20 21 rings
6 3 4 5 7 8 10 rings
6 5 7 12 14 15 16 rings

> <PUBCHEM_HEAVY_ATOM_COUNT>
22

> <PUBCHEM_ATOM_DEF_STEREO_COUNT>
5

> <PUBCHEM_ATOM_UDEF_STEREO_COUNT>
0

> <PUBCHEM_BOND_DEF_STEREO_COUNT>
0

> <PUBCHEM_BOND_UDEF_STEREO_COUNT>
0

> <PUBCHEM_ISOTOPIC_ATOM_COUNT>
0

> <PUBCHEM_COMPONENT_COUNT>
1

> <PUBCHEM_CACTVS_TAUTO_COUNT>
9

> <PUBCHEM_CONFORMER_ID>
0000176700000001

> <PUBCHEM_MMFF94_ENERGY>
75.3654

> <PUBCHEM_FEATURE_SELFOVERLAP>
40.689

> <PUBCHEM_SHAPE_FINGERPRINT>
10498660 4 18334565854482978588
10616163 171 18412261769892000550
10906281 52 18268729332496851400
10967382 1 18409163299196382730
11132069 177 18260823830106114581
11315181 36 17846777438100329984
11552529 35 18058445585631877095
11578080 2 16952518088400902894
11796584 16 15123796154675551020
12107183 9 17697047933183828707
12236239 1 17917992754997443209
12403259 415 18260540148118003532
12403814 3 17531241756051219503
12633257 1 18411416168188185458
12644460 14 18260827060354363322
12788726 201 17059505002047033793
128620 24 17385724690407290772
13140716 1 18264499557760559337
13224815 77 18408318891198213202
13675066 3 17749393654488776519
14790565 3 18338806709892665688
15163728 17 15481289097577292713
15183329 4 18408605830407435614
15196674 1 18337388339818468438
15209289 33 18341332270467662817
15209294 21 18059584555192331817
15309172 13 18409451371427638915
15536298 74 18341610425830279326
15788980 27 17749105603943632888
16945 1 18265320738190372627
17349148 13 18114176445825312880
1813 80 17530976782159466655
18186145 218 18409161126111612646
19489759 90 15410896249631894657
19591789 44 18193273216009210722
200 152 17918273168974754922
21033648 29 17968079933063946356
21267235 1 18338240469814837151
21623110 236 18263368155990106261
23402539 116 18410566319162361766
23402655 69 18201721773563375622
23559900 14 18341325700027887232
335352 9 18410007719541319564
34934 24 18335695014618288215
350125 39 18408603674022772468
3545911 37 18408602569419241710
3680242 22 18335416829913620042
4214541 1 18412824715549947695
474 4 18408605889666299408
5104073 3 18339077194179428906
542803 24 17561084709247609168
59755656 215 18335983078396721054
633830 44 18202282537272954908
9709674 26 18410014338397756278

> <PUBCHEM_SHAPE_MULTIPOLES>
441.01
10.64
2.03
1.22
7.18
0.55
-0.05
-1.94
-1.01
0.21
-0.15
-1.94
-0.33
-0.49

> <PUBCHEM_SHAPE_SELFOVERLAP>
961.464

> <PUBCHEM_SHAPE_VOLUME>
238.8

> <PUBCHEM_COORDINATE_TYPE>
2
5
10

> <Energy>
61.5647

> <minimizedAffinity>
4.40043

> <CNNscore>
0.1015446931

> <CNNaffinity>
5.1491451263

> <CNN_VS>
0.5228683352

> <CNNaffinity_variance>
1.4331165552

$$$$
