5284645


 26 27  0  0  0  0  0  0  0  0999 V2000
   26.1941    4.6796    2.7969 O   0  0  0  0  0  0  0  0  0  0  0  0
   21.6406    2.5439    6.0897 O   0  0  0  0  0  0  0  0  0  0  0  0
   22.0903    3.6186    8.0769 O   0  0  0  0  0  0  0  0  0  0  0  0
   19.3768    3.7050    8.9351 O   0  0  0  0  0  0  0  0  0  0  0  0
   16.7488    6.4128    6.1178 O   0  0  0  0  0  0  0  0  0  0  0  0
   25.7452    3.6679    4.9334 C   0  0  0  0  0  0  0  0  0  0  0  0
   25.1684    4.4999    3.7751 C   0  0  0  0  0  0  0  0  0  0  0  0
   24.6948    3.1570    5.9233 C   0  0  0  0  0  0  0  0  0  0  0  0
   24.6736    5.8832    4.2246 C   0  0  0  0  0  0  0  0  0  0  0  0
   23.8735    1.9901    5.3651 C   0  0  0  0  0  0  0  0  0  0  0  0
   23.9224    6.6537    3.1283 C   0  0  0  0  0  0  0  0  0  0  0  0
   22.7136    1.5995    6.2869 C   0  0  0  0  0  0  0  0  0  0  0  0
   22.5637    6.0559    2.7441 C   0  0  0  0  0  0  0  0  0  0  0  0
   22.1557    0.2309    5.9071 C   0  0  0  0  0  0  0  0  0  0  0  0
   21.5801    6.0486    3.8827 C   0  0  0  0  0  0  0  0  0  0  0  0
   20.2536    4.2728    6.7263 C   0  0  0  0  0  0  0  0  0  0  0  0
   20.0715    4.9468    5.5022 C   0  0  0  0  0  0  0  0  0  0  0  0
   21.4695    3.4910    7.0326 C   0  0  0  0  0  0  0  0  0  0  0  0
   21.0565    4.9297    4.4088 C   0  0  0  0  0  0  0  0  0  0  0  0
   19.2694    4.3459    7.7251 C   0  0  0  0  0  0  0  0  0  0  0  0
   18.8746    5.6624    5.3017 C   0  0  0  0  0  0  0  0  0  0  0  0
   17.9079    5.7197    6.3029 C   0  0  0  0  0  0  0  0  0  0  0  0
   18.0985    5.0691    7.5163 C   0  0  0  0  0  0  0  0  0  0  0  0
   26.5164    3.8131    2.5036 H   0  0  0  0  0  0  0  0  0  0  0  0
   20.1426    3.2025    9.1328 H   0  0  0  0  0  0  0  0  0  0  0  0
   16.5947    6.8605    5.3093 H   0  0  0  0  0  0  0  0  0  0  0  0
  1  7  1  0
  1 24  1  0
  2 12  1  0
  2 18  1  0
  3 18  2  0
  4 20  1  0
  4 25  1  0
  5 22  1  0
  5 26  1  0
  6  7  1  0
  6  8  1  0
  7  9  1  0
  8 10  1  0
  9 11  1  0
 10 12  1  0
 11 13  1  0
 12 14  1  0
 13 15  1  0
 15 19  2  0
 16 17  2  0
 16 18  1  0
 16 20  1  0
 17 19  1  0
 17 21  1  0
 20 23  2  0
 21 22  2  0
 22 23  1  0
M  END
> <PUBCHEM_COMPOUND_CID>
5284645

> <PUBCHEM_CONFORMER_RMSD>
0.6

> <PUBCHEM_CONFORMER_DIVERSEORDER>
1

> <PUBCHEM_MMFF94_PARTIAL_CHARGES>
24
1 -0.68
12 0.28
13 0.14
15 -0.29
16 0.09
17 0.03
18 0.63
19 -0.18
2 -0.43
20 0.08
21 -0.15
22 0.08
23 -0.15
3 -0.57
4 -0.53
41 0.4
42 0.15
43 0.15
44 0.15
45 0.15
46 0.45
47 0.45
5 -0.53
7 0.28

> <PUBCHEM_EFFECTIVE_ROTOR_COUNT>
1.8

> <PUBCHEM_PHARMACOPHORE_FEATURES>
6
1 1 acceptor
1 1 donor
1 3 acceptor
1 4 donor
1 5 donor
6 16 17 20 21 22 23 rings

> <PUBCHEM_HEAVY_ATOM_COUNT>
23

> <PUBCHEM_ATOM_DEF_STEREO_COUNT>
2

> <PUBCHEM_ATOM_UDEF_STEREO_COUNT>
0

> <PUBCHEM_BOND_DEF_STEREO_COUNT>
1

> <PUBCHEM_BOND_UDEF_STEREO_COUNT>
0

> <PUBCHEM_ISOTOPIC_ATOM_COUNT>
0

> <PUBCHEM_COMPONENT_COUNT>
1

> <PUBCHEM_CACTVS_TAUTO_COUNT>
12

> <PUBCHEM_CONFORMER_ID>
0050A32500000001

> <PUBCHEM_MMFF94_ENERGY>
56.9454

> <PUBCHEM_FEATURE_SELFOVERLAP>
30.446

> <PUBCHEM_SHAPE_FINGERPRINT>
1100329 8 17836085568009856625
11112241 14 16986289841619931392
11578080 2 16734366241365874279
12166972 35 17967822613537111974
12403259 226 18337670931286267939
12506688 2 18412827975731104564
12596599 1 17914633677902020662
12788726 201 17627507133988941776
13140716 1 18267582403486064363
13402501 40 18336828697047978282
13533116 47 18056766653224983451
14251757 17 18262232209996353437
14787075 74 18336834185758012246
14790565 3 17545883724776523813
14866123 147 17767415573386001256
14931854 50 18336551491284682350
15196674 1 18334859415888043750
15322687 12 17104511174142344237
19591789 44 18337109089556020683
19930381 70 18413393137471364090
20028762 73 17044582808783771111
20691752 17 17022900138402631537
20715895 44 17609482839964013085
20832881 197 18343306989256920753
20905425 154 18409167675446349782
22182313 1 18041826412212926463
23227448 37 18189331260828617463
23352939 185 18342462530415398027
23557571 272 17910374109985112994
23559900 14 18335978778501818797
238 59 18196346307921625956
2748010 2 18117544331403189953
3323516 105 18411138077713944259
350125 39 18336268960321048513
3524813 1 18334011700965522918
3680242 22 18116995477305685354
463206 1 18269557311053435927
5265222 85 17471861776259798556
57527585 103 17390829632986241626
59755656 215 18188762977069237031
6443956 14 18340493347406701473
81228 2 17476913559209296171

> <PUBCHEM_SHAPE_MULTIPOLES>
443.98
8.21
4.09
1.18
1.54
0.84
-0.09
-3.84
1.51
-1.8
-1.33
-0.11
0.8
1.1

> <PUBCHEM_SHAPE_SELFOVERLAP>
916.908

> <PUBCHEM_SHAPE_VOLUME>
252.3

> <PUBCHEM_COORDINATE_TYPE>
2
5
10

> <Energy>
40.5071

> <minimizedAffinity>
-10.14174

> <CNNscore>
0.8930722475

> <CNNaffinity>
6.8816776276

> <CNN_VS>
6.1458353996

> <CNNaffinity_variance>
0.1670110822

$$$$
5284645


 26 27  0  0  0  0  0  0  0  0999 V2000
   26.9463    2.0387    4.6228 O   0  0  0  0  0  0  0  0  0  0  0  0
   22.4830    6.0645    4.5280 O   0  0  0  0  0  0  0  0  0  0  0  0
   21.0211    4.9575    3.1337 O   0  0  0  0  0  0  0  0  0  0  0  0
   18.6753    6.1088    4.2648 O   0  0  0  0  0  0  0  0  0  0  0  0
   18.0677    4.7722    8.7391 O   0  0  0  0  0  0  0  0  0  0  0  0
   25.5114    3.2034    3.0820 C   0  0  0  0  0  0  0  0  0  0  0  0
   25.6749    2.6822    4.5201 C   0  0  0  0  0  0  0  0  0  0  0  0
   24.3273    4.1548    2.8899 C   0  0  0  0  0  0  0  0  0  0  0  0
   24.5839    1.6754    4.9160 C   0  0  0  0  0  0  0  0  0  0  0  0
   24.5881    5.5490    3.4695 C   0  0  0  0  0  0  0  0  0  0  0  0
   24.6144    1.2885    6.4023 C   0  0  0  0  0  0  0  0  0  0  0  0
   23.3417    6.4395    3.4306 C   0  0  0  0  0  0  0  0  0  0  0  0
   24.2226    2.4164    7.3642 C   0  0  0  0  0  0  0  0  0  0  0  0
   23.7126    7.9023    3.6565 C   0  0  0  0  0  0  0  0  0  0  0  0
   22.8081    2.8913    7.1704 C   0  0  0  0  0  0  0  0  0  0  0  0
   20.5807    5.1497    5.4564 C   0  0  0  0  0  0  0  0  0  0  0  0
   21.0929    4.5928    6.6453 C   0  0  0  0  0  0  0  0  0  0  0  0
   21.3993    5.3184    4.2379 C   0  0  0  0  0  0  0  0  0  0  0  0
   22.4850    4.1405    6.7988 C   0  0  0  0  0  0  0  0  0  0  0  0
   19.2362    5.5489    5.3865 C   0  0  0  0  0  0  0  0  0  0  0  0
   20.2348    4.4778    7.7567 C   0  0  0  0  0  0  0  0  0  0  0  0
   18.9051    4.8835    7.6693 C   0  0  0  0  0  0  0  0  0  0  0  0
   18.3978    5.4152    6.4896 C   0  0  0  0  0  0  0  0  0  0  0  0
   27.6457    2.6635    4.3754 H   0  0  0  0  0  0  0  0  0  0  0  0
   19.1910    6.2243    3.4909 H   0  0  0  0  0  0  0  0  0  0  0  0
   18.3838    4.4172    9.5466 H   0  0  0  0  0  0  0  0  0  0  0  0
  1  7  1  0
  1 24  1  0
  2 12  1  0
  2 18  1  0
  3 18  2  0
  4 20  1  0
  4 25  1  0
  5 22  1  0
  5 26  1  0
  6  7  1  0
  6  8  1  0
  7  9  1  0
  8 10  1  0
  9 11  1  0
 10 12  1  0
 11 13  1  0
 12 14  1  0
 13 15  1  0
 15 19  2  0
 16 17  2  0
 16 18  1  0
 16 20  1  0
 17 19  1  0
 17 21  1  0
 20 23  2  0
 21 22  2  0
 22 23  1  0
M  END
> <PUBCHEM_COMPOUND_CID>
5284645

> <PUBCHEM_CONFORMER_RMSD>
0.6

> <PUBCHEM_CONFORMER_DIVERSEORDER>
1

> <PUBCHEM_MMFF94_PARTIAL_CHARGES>
24
1 -0.68
12 0.28
13 0.14
15 -0.29
16 0.09
17 0.03
18 0.63
19 -0.18
2 -0.43
20 0.08
21 -0.15
22 0.08
23 -0.15
3 -0.57
4 -0.53
41 0.4
42 0.15
43 0.15
44 0.15
45 0.15
46 0.45
47 0.45
5 -0.53
7 0.28

> <PUBCHEM_EFFECTIVE_ROTOR_COUNT>
1.8

> <PUBCHEM_PHARMACOPHORE_FEATURES>
6
1 1 acceptor
1 1 donor
1 3 acceptor
1 4 donor
1 5 donor
6 16 17 20 21 22 23 rings

> <PUBCHEM_HEAVY_ATOM_COUNT>
23

> <PUBCHEM_ATOM_DEF_STEREO_COUNT>
2

> <PUBCHEM_ATOM_UDEF_STEREO_COUNT>
0

> <PUBCHEM_BOND_DEF_STEREO_COUNT>
1

> <PUBCHEM_BOND_UDEF_STEREO_COUNT>
0

> <PUBCHEM_ISOTOPIC_ATOM_COUNT>
0

> <PUBCHEM_COMPONENT_COUNT>
1

> <PUBCHEM_CACTVS_TAUTO_COUNT>
12

> <PUBCHEM_CONFORMER_ID>
0050A32500000001

> <PUBCHEM_MMFF94_ENERGY>
56.9454

> <PUBCHEM_FEATURE_SELFOVERLAP>
30.446

> <PUBCHEM_SHAPE_FINGERPRINT>
1100329 8 17836085568009856625
11112241 14 16986289841619931392
11578080 2 16734366241365874279
12166972 35 17967822613537111974
12403259 226 18337670931286267939
12506688 2 18412827975731104564
12596599 1 17914633677902020662
12788726 201 17627507133988941776
13140716 1 18267582403486064363
13402501 40 18336828697047978282
13533116 47 18056766653224983451
14251757 17 18262232209996353437
14787075 74 18336834185758012246
14790565 3 17545883724776523813
14866123 147 17767415573386001256
14931854 50 18336551491284682350
15196674 1 18334859415888043750
15322687 12 17104511174142344237
19591789 44 18337109089556020683
19930381 70 18413393137471364090
20028762 73 17044582808783771111
20691752 17 17022900138402631537
20715895 44 17609482839964013085
20832881 197 18343306989256920753
20905425 154 18409167675446349782
22182313 1 18041826412212926463
23227448 37 18189331260828617463
23352939 185 18342462530415398027
23557571 272 17910374109985112994
23559900 14 18335978778501818797
238 59 18196346307921625956
2748010 2 18117544331403189953
3323516 105 18411138077713944259
350125 39 18336268960321048513
3524813 1 18334011700965522918
3680242 22 18116995477305685354
463206 1 18269557311053435927
5265222 85 17471861776259798556
57527585 103 17390829632986241626
59755656 215 18188762977069237031
6443956 14 18340493347406701473
81228 2 17476913559209296171

> <PUBCHEM_SHAPE_MULTIPOLES>
443.98
8.21
4.09
1.18
1.54
0.84
-0.09
-3.84
1.51
-1.8
-1.33
-0.11
0.8
1.1

> <PUBCHEM_SHAPE_SELFOVERLAP>
916.908

> <PUBCHEM_SHAPE_VOLUME>
252.3

> <PUBCHEM_COORDINATE_TYPE>
2
5
10

> <Energy>
40.5071

> <minimizedAffinity>
-10.70291

> <CNNscore>
0.8068823814

> <CNNaffinity>
6.7725148201

> <CNN_VS>
5.4646229744

> <CNNaffinity_variance>
0.2775474489

$$$$
5284645


 26 27  0  0  0  0  0  0  0  0999 V2000
   26.7301    2.2513    3.3196 O   0  0  0  0  0  0  0  0  0  0  0  0
   22.4445    6.1796    4.8491 O   0  0  0  0  0  0  0  0  0  0  0  0
   21.0168    5.8761    3.0670 O   0  0  0  0  0  0  0  0  0  0  0  0
   18.6615    6.5616    4.5128 O   0  0  0  0  0  0  0  0  0  0  0  0
   17.7591    3.4566    7.9364 O   0  0  0  0  0  0  0  0  0  0  0  0
   25.4289    4.0524    2.3963 C   0  0  0  0  0  0  0  0  0  0  0  0
   25.4931    2.9506    3.4679 C   0  0  0  0  0  0  0  0  0  0  0  0
   24.2962    5.0620    2.6011 C   0  0  0  0  0  0  0  0  0  0  0  0
   24.3425    1.9390    3.3513 C   0  0  0  0  0  0  0  0  0  0  0  0
   24.5813    6.0489    3.7381 C   0  0  0  0  0  0  0  0  0  0  0  0
   24.2768    0.9451    4.5207 C   0  0  0  0  0  0  0  0  0  0  0  0
   23.3758    6.9410    4.0522 C   0  0  0  0  0  0  0  0  0  0  0  0
   23.8793    1.5657    5.8652 C   0  0  0  0  0  0  0  0  0  0  0  0
   23.7926    8.1362    4.9043 C   0  0  0  0  0  0  0  0  0  0  0  0
   22.4977    2.1615    5.8536 C   0  0  0  0  0  0  0  0  0  0  0  0
   20.4593    5.0685    5.2263 C   0  0  0  0  0  0  0  0  0  0  0  0
   20.8836    4.0217    6.0691 C   0  0  0  0  0  0  0  0  0  0  0  0
   21.3488    5.6994    4.2293 C   0  0  0  0  0  0  0  0  0  0  0  0
   22.2459    3.4651    6.0535 C   0  0  0  0  0  0  0  0  0  0  0  0
   19.1378    5.5383    5.2954 C   0  0  0  0  0  0  0  0  0  0  0  0
   19.9626    3.4880    6.9920 C   0  0  0  0  0  0  0  0  0  0  0  0
   18.6570    3.9703    7.0487 C   0  0  0  0  0  0  0  0  0  0  0  0
   18.2362    4.9901    6.2033 C   0  0  0  0  0  0  0  0  0  0  0  0
   27.4665    2.8784    3.3911 H   0  0  0  0  0  0  0  0  0  0  0  0
   19.2226    6.9699    3.8832 H   0  0  0  0  0  0  0  0  0  0  0  0
   18.0164    2.7685    8.5179 H   0  0  0  0  0  0  0  0  0  0  0  0
  1  7  1  0
  1 24  1  0
  2 12  1  0
  2 18  1  0
  3 18  2  0
  4 20  1  0
  4 25  1  0
  5 22  1  0
  5 26  1  0
  6  7  1  0
  6  8  1  0
  7  9  1  0
  8 10  1  0
  9 11  1  0
 10 12  1  0
 11 13  1  0
 12 14  1  0
 13 15  1  0
 15 19  2  0
 16 17  2  0
 16 18  1  0
 16 20  1  0
 17 19  1  0
 17 21  1  0
 20 23  2  0
 21 22  2  0
 22 23  1  0
M  END
> <PUBCHEM_COMPOUND_CID>
5284645

> <PUBCHEM_CONFORMER_RMSD>
0.6

> <PUBCHEM_CONFORMER_DIVERSEORDER>
1

> <PUBCHEM_MMFF94_PARTIAL_CHARGES>
24
1 -0.68
12 0.28
13 0.14
15 -0.29
16 0.09
17 0.03
18 0.63
19 -0.18
2 -0.43
20 0.08
21 -0.15
22 0.08
23 -0.15
3 -0.57
4 -0.53
41 0.4
42 0.15
43 0.15
44 0.15
45 0.15
46 0.45
47 0.45
5 -0.53
7 0.28

> <PUBCHEM_EFFECTIVE_ROTOR_COUNT>
1.8

> <PUBCHEM_PHARMACOPHORE_FEATURES>
6
1 1 acceptor
1 1 donor
1 3 acceptor
1 4 donor
1 5 donor
6 16 17 20 21 22 23 rings

> <PUBCHEM_HEAVY_ATOM_COUNT>
23

> <PUBCHEM_ATOM_DEF_STEREO_COUNT>
2

> <PUBCHEM_ATOM_UDEF_STEREO_COUNT>
0

> <PUBCHEM_BOND_DEF_STEREO_COUNT>
1

> <PUBCHEM_BOND_UDEF_STEREO_COUNT>
0

> <PUBCHEM_ISOTOPIC_ATOM_COUNT>
0

> <PUBCHEM_COMPONENT_COUNT>
1

> <PUBCHEM_CACTVS_TAUTO_COUNT>
12

> <PUBCHEM_CONFORMER_ID>
0050A32500000001

> <PUBCHEM_MMFF94_ENERGY>
56.9454

> <PUBCHEM_FEATURE_SELFOVERLAP>
30.446

> <PUBCHEM_SHAPE_FINGERPRINT>
1100329 8 17836085568009856625
11112241 14 16986289841619931392
11578080 2 16734366241365874279
12166972 35 17967822613537111974
12403259 226 18337670931286267939
12506688 2 18412827975731104564
12596599 1 17914633677902020662
12788726 201 17627507133988941776
13140716 1 18267582403486064363
13402501 40 18336828697047978282
13533116 47 18056766653224983451
14251757 17 18262232209996353437
14787075 74 18336834185758012246
14790565 3 17545883724776523813
14866123 147 17767415573386001256
14931854 50 18336551491284682350
15196674 1 18334859415888043750
15322687 12 17104511174142344237
19591789 44 18337109089556020683
19930381 70 18413393137471364090
20028762 73 17044582808783771111
20691752 17 17022900138402631537
20715895 44 17609482839964013085
20832881 197 18343306989256920753
20905425 154 18409167675446349782
22182313 1 18041826412212926463
23227448 37 18189331260828617463
23352939 185 18342462530415398027
23557571 272 17910374109985112994
23559900 14 18335978778501818797
238 59 18196346307921625956
2748010 2 18117544331403189953
3323516 105 18411138077713944259
350125 39 18336268960321048513
3524813 1 18334011700965522918
3680242 22 18116995477305685354
463206 1 18269557311053435927
5265222 85 17471861776259798556
57527585 103 17390829632986241626
59755656 215 18188762977069237031
6443956 14 18340493347406701473
81228 2 17476913559209296171

> <PUBCHEM_SHAPE_MULTIPOLES>
443.98
8.21
4.09
1.18
1.54
0.84
-0.09
-3.84
1.51
-1.8
-1.33
-0.11
0.8
1.1

> <PUBCHEM_SHAPE_SELFOVERLAP>
916.908

> <PUBCHEM_SHAPE_VOLUME>
252.3

> <PUBCHEM_COORDINATE_TYPE>
2
5
10

> <Energy>
40.5071

> <minimizedAffinity>
-8.91327

> <CNNscore>
0.7683832049

> <CNNaffinity>
6.6788215637

> <CNN_VS>
5.1318941116

> <CNNaffinity_variance>
0.3756290674

$$$$
5284645


 26 27  0  0  0  0  0  0  0  0999 V2000
   17.9398    3.1554    7.5514 O   0  0  0  0  0  0  0  0  0  0  0  0
   21.5989    5.7051    3.5205 O   0  0  0  0  0  0  0  0  0  0  0  0
   22.9338    6.9179    4.9536 O   0  0  0  0  0  0  0  0  0  0  0  0
   25.2327    6.8473    3.2751 O   0  0  0  0  0  0  0  0  0  0  0  0
   26.8721    2.4632    2.7575 O   0  0  0  0  0  0  0  0  0  0  0  0
   18.8552    5.2976    6.9489 C   0  0  0  0  0  0  0  0  0  0  0  0
   19.0491    3.7724    6.8957 C   0  0  0  0  0  0  0  0  0  0  0  0
   19.8136    6.0840    6.0505 C   0  0  0  0  0  0  0  0  0  0  0  0
   20.3426    3.3124    7.5857 C   0  0  0  0  0  0  0  0  0  0  0  0
   19.4443    5.9908    4.5663 C   0  0  0  0  0  0  0  0  0  0  0  0
   20.6528    1.8221    7.3797 C   0  0  0  0  0  0  0  0  0  0  0  0
   20.5014    6.6314    3.6608 C   0  0  0  0  0  0  0  0  0  0  0  0
   21.0303    1.4407    5.9435 C   0  0  0  0  0  0  0  0  0  0  0  0
   19.9485    6.8573    2.2567 C   0  0  0  0  0  0  0  0  0  0  0  0
   22.2884    2.1140    5.4663 C   0  0  0  0  0  0  0  0  0  0  0  0
   23.7632    4.9844    3.8585 C   0  0  0  0  0  0  0  0  0  0  0  0
   23.5784    3.5911    3.9607 C   0  0  0  0  0  0  0  0  0  0  0  0
   22.7152    5.9570    4.2316 C   0  0  0  0  0  0  0  0  0  0  0  0
   22.3309    2.9675    4.4306 C   0  0  0  0  0  0  0  0  0  0  0  0
   24.9888    5.5024    3.4096 C   0  0  0  0  0  0  0  0  0  0  0  0
   24.6360    2.7438    3.5756 C   0  0  0  0  0  0  0  0  0  0  0  0
   25.8429    3.2764    3.1286 C   0  0  0  0  0  0  0  0  0  0  0  0
   26.0287    4.6514    3.0464 C   0  0  0  0  0  0  0  0  0  0  0  0
   17.1152    3.4371    7.1257 H   0  0  0  0  0  0  0  0  0  0  0  0
   24.5700    7.4689    3.5041 H   0  0  0  0  0  0  0  0  0  0  0  0
   26.7737    1.5326    2.8030 H   0  0  0  0  0  0  0  0  0  0  0  0
  1  7  1  0
  1 24  1  0
  2 12  1  0
  2 18  1  0
  3 18  2  0
  4 20  1  0
  4 25  1  0
  5 22  1  0
  5 26  1  0
  6  7  1  0
  6  8  1  0
  7  9  1  0
  8 10  1  0
  9 11  1  0
 10 12  1  0
 11 13  1  0
 12 14  1  0
 13 15  1  0
 15 19  2  0
 16 17  2  0
 16 18  1  0
 16 20  1  0
 17 19  1  0
 17 21  1  0
 20 23  2  0
 21 22  2  0
 22 23  1  0
M  END
> <PUBCHEM_COMPOUND_CID>
5284645

> <PUBCHEM_CONFORMER_RMSD>
0.6

> <PUBCHEM_CONFORMER_DIVERSEORDER>
1

> <PUBCHEM_MMFF94_PARTIAL_CHARGES>
24
1 -0.68
12 0.28
13 0.14
15 -0.29
16 0.09
17 0.03
18 0.63
19 -0.18
2 -0.43
20 0.08
21 -0.15
22 0.08
23 -0.15
3 -0.57
4 -0.53
41 0.4
42 0.15
43 0.15
44 0.15
45 0.15
46 0.45
47 0.45
5 -0.53
7 0.28

> <PUBCHEM_EFFECTIVE_ROTOR_COUNT>
1.8

> <PUBCHEM_PHARMACOPHORE_FEATURES>
6
1 1 acceptor
1 1 donor
1 3 acceptor
1 4 donor
1 5 donor
6 16 17 20 21 22 23 rings

> <PUBCHEM_HEAVY_ATOM_COUNT>
23

> <PUBCHEM_ATOM_DEF_STEREO_COUNT>
2

> <PUBCHEM_ATOM_UDEF_STEREO_COUNT>
0

> <PUBCHEM_BOND_DEF_STEREO_COUNT>
1

> <PUBCHEM_BOND_UDEF_STEREO_COUNT>
0

> <PUBCHEM_ISOTOPIC_ATOM_COUNT>
0

> <PUBCHEM_COMPONENT_COUNT>
1

> <PUBCHEM_CACTVS_TAUTO_COUNT>
12

> <PUBCHEM_CONFORMER_ID>
0050A32500000001

> <PUBCHEM_MMFF94_ENERGY>
56.9454

> <PUBCHEM_FEATURE_SELFOVERLAP>
30.446

> <PUBCHEM_SHAPE_FINGERPRINT>
1100329 8 17836085568009856625
11112241 14 16986289841619931392
11578080 2 16734366241365874279
12166972 35 17967822613537111974
12403259 226 18337670931286267939
12506688 2 18412827975731104564
12596599 1 17914633677902020662
12788726 201 17627507133988941776
13140716 1 18267582403486064363
13402501 40 18336828697047978282
13533116 47 18056766653224983451
14251757 17 18262232209996353437
14787075 74 18336834185758012246
14790565 3 17545883724776523813
14866123 147 17767415573386001256
14931854 50 18336551491284682350
15196674 1 18334859415888043750
15322687 12 17104511174142344237
19591789 44 18337109089556020683
19930381 70 18413393137471364090
20028762 73 17044582808783771111
20691752 17 17022900138402631537
20715895 44 17609482839964013085
20832881 197 18343306989256920753
20905425 154 18409167675446349782
22182313 1 18041826412212926463
23227448 37 18189331260828617463
23352939 185 18342462530415398027
23557571 272 17910374109985112994
23559900 14 18335978778501818797
238 59 18196346307921625956
2748010 2 18117544331403189953
3323516 105 18411138077713944259
350125 39 18336268960321048513
3524813 1 18334011700965522918
3680242 22 18116995477305685354
463206 1 18269557311053435927
5265222 85 17471861776259798556
57527585 103 17390829632986241626
59755656 215 18188762977069237031
6443956 14 18340493347406701473
81228 2 17476913559209296171

> <PUBCHEM_SHAPE_MULTIPOLES>
443.98
8.21
4.09
1.18
1.54
0.84
-0.09
-3.84
1.51
-1.8
-1.33
-0.11
0.8
1.1

> <PUBCHEM_SHAPE_SELFOVERLAP>
916.908

> <PUBCHEM_SHAPE_VOLUME>
252.3

> <PUBCHEM_COORDINATE_TYPE>
2
5
10

> <Energy>
40.5071

> <minimizedAffinity>
-2.36066

> <CNNscore>
0.1999837011

> <CNNaffinity>
5.7885327339

> <CNN_VS>
1.1576122046

> <CNNaffinity_variance>
0.0115036098

$$$$
5284645


 26 27  0  0  0  0  0  0  0  0999 V2000
   18.4371    5.1938    7.4747 O   0  0  0  0  0  0  0  0  0  0  0  0
   24.0378    5.9202    5.4151 O   0  0  0  0  0  0  0  0  0  0  0  0
   24.7181    3.7194    5.4204 O   0  0  0  0  0  0  0  0  0  0  0  0
   26.5685    4.0237    3.2778 O   0  0  0  0  0  0  0  0  0  0  0  0
   24.3927    5.1000   -0.7574 O   0  0  0  0  0  0  0  0  0  0  0  0
   20.7052    4.5526    7.9590 C   0  0  0  0  0  0  0  0  0  0  0  0
   19.7168    5.0020    6.8691 C   0  0  0  0  0  0  0  0  0  0  0  0
   22.1728    4.5756    7.5235 C   0  0  0  0  0  0  0  0  0  0  0  0
   19.5725    3.9743    5.7361 C   0  0  0  0  0  0  0  0  0  0  0  0
   22.7466    5.9945    7.4510 C   0  0  0  0  0  0  0  0  0  0  0  0
   18.7420    4.4820    4.5477 C   0  0  0  0  0  0  0  0  0  0  0  0
   24.1556    6.0240    6.8495 C   0  0  0  0  0  0  0  0  0  0  0  0
   19.4052    5.6015    3.7366 C   0  0  0  0  0  0  0  0  0  0  0  0
   24.8370    7.3605    7.1285 C   0  0  0  0  0  0  0  0  0  0  0  0
   20.6937    5.1747    3.0873 C   0  0  0  0  0  0  0  0  0  0  0  0
   24.2723    4.8523    3.3847 C   0  0  0  0  0  0  0  0  0  0  0  0
   23.1312    5.3112    2.6969 C   0  0  0  0  0  0  0  0  0  0  0  0
   24.3193    4.7270    4.8563 C   0  0  0  0  0  0  0  0  0  0  0  0
   21.8872    5.7226    3.3671 C   0  0  0  0  0  0  0  0  0  0  0  0
   25.4193    4.4686    2.6713 C   0  0  0  0  0  0  0  0  0  0  0  0
   23.1853    5.4008    1.2920 C   0  0  0  0  0  0  0  0  0  0  0  0
   24.3338    5.0196    0.6021 C   0  0  0  0  0  0  0  0  0  0  0  0
   25.4512    4.5498    1.2820 C   0  0  0  0  0  0  0  0  0  0  0  0
   18.5131    5.8411    8.1929 H   0  0  0  0  0  0  0  0  0  0  0  0
   26.6067    3.9481    4.2110 H   0  0  0  0  0  0  0  0  0  0  0  0
   23.6536    5.4133   -1.2406 H   0  0  0  0  0  0  0  0  0  0  0  0
  1  7  1  0
  1 24  1  0
  2 12  1  0
  2 18  1  0
  3 18  2  0
  4 20  1  0
  4 25  1  0
  5 22  1  0
  5 26  1  0
  6  7  1  0
  6  8  1  0
  7  9  1  0
  8 10  1  0
  9 11  1  0
 10 12  1  0
 11 13  1  0
 12 14  1  0
 13 15  1  0
 15 19  2  0
 16 17  2  0
 16 18  1  0
 16 20  1  0
 17 19  1  0
 17 21  1  0
 20 23  2  0
 21 22  2  0
 22 23  1  0
M  END
> <PUBCHEM_COMPOUND_CID>
5284645

> <PUBCHEM_CONFORMER_RMSD>
0.6

> <PUBCHEM_CONFORMER_DIVERSEORDER>
1

> <PUBCHEM_MMFF94_PARTIAL_CHARGES>
24
1 -0.68
12 0.28
13 0.14
15 -0.29
16 0.09
17 0.03
18 0.63
19 -0.18
2 -0.43
20 0.08
21 -0.15
22 0.08
23 -0.15
3 -0.57
4 -0.53
41 0.4
42 0.15
43 0.15
44 0.15
45 0.15
46 0.45
47 0.45
5 -0.53
7 0.28

> <PUBCHEM_EFFECTIVE_ROTOR_COUNT>
1.8

> <PUBCHEM_PHARMACOPHORE_FEATURES>
6
1 1 acceptor
1 1 donor
1 3 acceptor
1 4 donor
1 5 donor
6 16 17 20 21 22 23 rings

> <PUBCHEM_HEAVY_ATOM_COUNT>
23

> <PUBCHEM_ATOM_DEF_STEREO_COUNT>
2

> <PUBCHEM_ATOM_UDEF_STEREO_COUNT>
0

> <PUBCHEM_BOND_DEF_STEREO_COUNT>
1

> <PUBCHEM_BOND_UDEF_STEREO_COUNT>
0

> <PUBCHEM_ISOTOPIC_ATOM_COUNT>
0

> <PUBCHEM_COMPONENT_COUNT>
1

> <PUBCHEM_CACTVS_TAUTO_COUNT>
12

> <PUBCHEM_CONFORMER_ID>
0050A32500000001

> <PUBCHEM_MMFF94_ENERGY>
56.9454

> <PUBCHEM_FEATURE_SELFOVERLAP>
30.446

> <PUBCHEM_SHAPE_FINGERPRINT>
1100329 8 17836085568009856625
11112241 14 16986289841619931392
11578080 2 16734366241365874279
12166972 35 17967822613537111974
12403259 226 18337670931286267939
12506688 2 18412827975731104564
12596599 1 17914633677902020662
12788726 201 17627507133988941776
13140716 1 18267582403486064363
13402501 40 18336828697047978282
13533116 47 18056766653224983451
14251757 17 18262232209996353437
14787075 74 18336834185758012246
14790565 3 17545883724776523813
14866123 147 17767415573386001256
14931854 50 18336551491284682350
15196674 1 18334859415888043750
15322687 12 17104511174142344237
19591789 44 18337109089556020683
19930381 70 18413393137471364090
20028762 73 17044582808783771111
20691752 17 17022900138402631537
20715895 44 17609482839964013085
20832881 197 18343306989256920753
20905425 154 18409167675446349782
22182313 1 18041826412212926463
23227448 37 18189331260828617463
23352939 185 18342462530415398027
23557571 272 17910374109985112994
23559900 14 18335978778501818797
238 59 18196346307921625956
2748010 2 18117544331403189953
3323516 105 18411138077713944259
350125 39 18336268960321048513
3524813 1 18334011700965522918
3680242 22 18116995477305685354
463206 1 18269557311053435927
5265222 85 17471861776259798556
57527585 103 17390829632986241626
59755656 215 18188762977069237031
6443956 14 18340493347406701473
81228 2 17476913559209296171

> <PUBCHEM_SHAPE_MULTIPOLES>
443.98
8.21
4.09
1.18
1.54
0.84
-0.09
-3.84
1.51
-1.8
-1.33
-0.11
0.8
1.1

> <PUBCHEM_SHAPE_SELFOVERLAP>
916.908

> <PUBCHEM_SHAPE_VOLUME>
252.3

> <PUBCHEM_COORDINATE_TYPE>
2
5
10

> <Energy>
40.5071

> <minimizedAffinity>
7.71463

> <CNNscore>
0.1612777263

> <CNNaffinity>
5.7573494911

> <CNN_VS>
0.9285322428

> <CNNaffinity_variance>
0.3260674775

$$$$
5284645


 26 27  0  0  0  0  0  0  0  0999 V2000
   27.0145    1.5682    4.4047 O   0  0  0  0  0  0  0  0  0  0  0  0
   21.1766    2.4994    5.4951 O   0  0  0  0  0  0  0  0  0  0  0  0
   21.3636    3.9697    7.2586 O   0  0  0  0  0  0  0  0  0  0  0  0
   18.9095    5.3122    6.7272 O   0  0  0  0  0  0  0  0  0  0  0  0
   19.0355    7.5988    2.6124 O   0  0  0  0  0  0  0  0  0  0  0  0
   25.4339    1.6047    6.2185 C   0  0  0  0  0  0  0  0  0  0  0  0
   25.7606    2.1221    4.8071 C   0  0  0  0  0  0  0  0  0  0  0  0
   23.9990    1.8849    6.6733 C   0  0  0  0  0  0  0  0  0  0  0  0
   25.8595    3.6540    4.7427 C   0  0  0  0  0  0  0  0  0  0  0  0
   22.9738    0.9703    5.9949 C   0  0  0  0  0  0  0  0  0  0  0  0
   25.9943    4.2020    3.3140 C   0  0  0  0  0  0  0  0  0  0  0  0
   21.5306    1.3696    6.3200 C   0  0  0  0  0  0  0  0  0  0  0  0
   24.7431    4.0326    2.4442 C   0  0  0  0  0  0  0  0  0  0  0  0
   20.5617    0.2496    5.9522 C   0  0  0  0  0  0  0  0  0  0  0  0
   23.5495    4.7773    2.9776 C   0  0  0  0  0  0  0  0  0  0  0  0
   20.6517    4.7137    5.1219 C   0  0  0  0  0  0  0  0  0  0  0  0
   21.2461    4.9308    3.8627 C   0  0  0  0  0  0  0  0  0  0  0  0
   21.1609    3.7122    6.0817 C   0  0  0  0  0  0  0  0  0  0  0  0
   22.4137    4.1804    3.3732 C   0  0  0  0  0  0  0  0  0  0  0  0
   19.5439    5.4790    5.5205 C   0  0  0  0  0  0  0  0  0  0  0  0
   20.6844    5.9054    3.0146 C   0  0  0  0  0  0  0  0  0  0  0  0
   19.5825    6.6516    3.4259 C   0  0  0  0  0  0  0  0  0  0  0  0
   19.0098    6.4481    4.6758 C   0  0  0  0  0  0  0  0  0  0  0  0
   26.9667    0.6001    4.4405 H   0  0  0  0  0  0  0  0  0  0  0  0
   19.2238    4.6744    7.3375 H   0  0  0  0  0  0  0  0  0  0  0  0
   19.4019    7.7564    1.7646 H   0  0  0  0  0  0  0  0  0  0  0  0
  1  7  1  0
  1 24  1  0
  2 12  1  0
  2 18  1  0
  3 18  2  0
  4 20  1  0
  4 25  1  0
  5 22  1  0
  5 26  1  0
  6  7  1  0
  6  8  1  0
  7  9  1  0
  8 10  1  0
  9 11  1  0
 10 12  1  0
 11 13  1  0
 12 14  1  0
 13 15  1  0
 15 19  2  0
 16 17  2  0
 16 18  1  0
 16 20  1  0
 17 19  1  0
 17 21  1  0
 20 23  2  0
 21 22  2  0
 22 23  1  0
M  END
> <PUBCHEM_COMPOUND_CID>
5284645

> <PUBCHEM_CONFORMER_RMSD>
0.6

> <PUBCHEM_CONFORMER_DIVERSEORDER>
1

> <PUBCHEM_MMFF94_PARTIAL_CHARGES>
24
1 -0.68
12 0.28
13 0.14
15 -0.29
16 0.09
17 0.03
18 0.63
19 -0.18
2 -0.43
20 0.08
21 -0.15
22 0.08
23 -0.15
3 -0.57
4 -0.53
41 0.4
42 0.15
43 0.15
44 0.15
45 0.15
46 0.45
47 0.45
5 -0.53
7 0.28

> <PUBCHEM_EFFECTIVE_ROTOR_COUNT>
1.8

> <PUBCHEM_PHARMACOPHORE_FEATURES>
6
1 1 acceptor
1 1 donor
1 3 acceptor
1 4 donor
1 5 donor
6 16 17 20 21 22 23 rings

> <PUBCHEM_HEAVY_ATOM_COUNT>
23

> <PUBCHEM_ATOM_DEF_STEREO_COUNT>
2

> <PUBCHEM_ATOM_UDEF_STEREO_COUNT>
0

> <PUBCHEM_BOND_DEF_STEREO_COUNT>
1

> <PUBCHEM_BOND_UDEF_STEREO_COUNT>
0

> <PUBCHEM_ISOTOPIC_ATOM_COUNT>
0

> <PUBCHEM_COMPONENT_COUNT>
1

> <PUBCHEM_CACTVS_TAUTO_COUNT>
12

> <PUBCHEM_CONFORMER_ID>
0050A32500000001

> <PUBCHEM_MMFF94_ENERGY>
56.9454

> <PUBCHEM_FEATURE_SELFOVERLAP>
30.446

> <PUBCHEM_SHAPE_FINGERPRINT>
1100329 8 17836085568009856625
11112241 14 16986289841619931392
11578080 2 16734366241365874279
12166972 35 17967822613537111974
12403259 226 18337670931286267939
12506688 2 18412827975731104564
12596599 1 17914633677902020662
12788726 201 17627507133988941776
13140716 1 18267582403486064363
13402501 40 18336828697047978282
13533116 47 18056766653224983451
14251757 17 18262232209996353437
14787075 74 18336834185758012246
14790565 3 17545883724776523813
14866123 147 17767415573386001256
14931854 50 18336551491284682350
15196674 1 18334859415888043750
15322687 12 17104511174142344237
19591789 44 18337109089556020683
19930381 70 18413393137471364090
20028762 73 17044582808783771111
20691752 17 17022900138402631537
20715895 44 17609482839964013085
20832881 197 18343306989256920753
20905425 154 18409167675446349782
22182313 1 18041826412212926463
23227448 37 18189331260828617463
23352939 185 18342462530415398027
23557571 272 17910374109985112994
23559900 14 18335978778501818797
238 59 18196346307921625956
2748010 2 18117544331403189953
3323516 105 18411138077713944259
350125 39 18336268960321048513
3524813 1 18334011700965522918
3680242 22 18116995477305685354
463206 1 18269557311053435927
5265222 85 17471861776259798556
57527585 103 17390829632986241626
59755656 215 18188762977069237031
6443956 14 18340493347406701473
81228 2 17476913559209296171

> <PUBCHEM_SHAPE_MULTIPOLES>
443.98
8.21
4.09
1.18
1.54
0.84
-0.09
-3.84
1.51
-1.8
-1.33
-0.11
0.8
1.1

> <PUBCHEM_SHAPE_SELFOVERLAP>
916.908

> <PUBCHEM_SHAPE_VOLUME>
252.3

> <PUBCHEM_COORDINATE_TYPE>
2
5
10

> <Energy>
40.5071

> <minimizedAffinity>
-4.68179

> <CNNscore>
0.1398208439

> <CNNaffinity>
5.6326003075

> <CNN_VS>
0.7875549197

> <CNNaffinity_variance>
0.1243210137

$$$$
5284645


 26 27  0  0  0  0  0  0  0  0999 V2000
   21.7683    6.8341    1.6331 O   0  0  0  0  0  0  0  0  0  0  0  0
   24.3344    1.9732    4.0670 O   0  0  0  0  0  0  0  0  0  0  0  0
   26.5471    2.5621    3.8144 O   0  0  0  0  0  0  0  0  0  0  0  0
   27.4582    1.0895    6.0746 O   0  0  0  0  0  0  0  0  0  0  0  0
   25.7086    2.8138   10.0922 O   0  0  0  0  0  0  0  0  0  0  0  0
   23.4869    5.2087    1.1927 C   0  0  0  0  0  0  0  0  0  0  0  0
   22.6658    5.9278    2.2767 C   0  0  0  0  0  0  0  0  0  0  0  0
   24.2915    4.0113    1.7057 C   0  0  0  0  0  0  0  0  0  0  0  0
   23.5416    6.7215    3.2583 C   0  0  0  0  0  0  0  0  0  0  0  0
   23.4148    2.7876    1.9912 C   0  0  0  0  0  0  0  0  0  0  0  0
   22.7644    7.2882    4.4560 C   0  0  0  0  0  0  0  0  0  0  0  0
   24.1957    1.6552    2.6663 C   0  0  0  0  0  0  0  0  0  0  0  0
   22.2462    6.2318    5.4390 C   0  0  0  0  0  0  0  0  0  0  0  0
   23.4178    0.3442    2.5990 C   0  0  0  0  0  0  0  0  0  0  0  0
   23.3492    5.4472    6.0962 C   0  0  0  0  0  0  0  0  0  0  0  0
   25.5198    2.5720    5.9522 C   0  0  0  0  0  0  0  0  0  0  0  0
   24.5762    3.3686    6.6312 C   0  0  0  0  0  0  0  0  0  0  0  0
   25.5322    2.4302    4.4815 C   0  0  0  0  0  0  0  0  0  0  0  0
   23.5084    4.1216    5.9539 C   0  0  0  0  0  0  0  0  0  0  0  0
   26.5156    1.8910    6.6708 C   0  0  0  0  0  0  0  0  0  0  0  0
   24.6428    3.4365    8.0368 C   0  0  0  0  0  0  0  0  0  0  0  0
   25.6354    2.7503    8.7325 C   0  0  0  0  0  0  0  0  0  0  0  0
   26.5760    1.9802    8.0586 C   0  0  0  0  0  0  0  0  0  0  0  0
   21.2082    6.3462    1.0095 H   0  0  0  0  0  0  0  0  0  0  0  0
   27.4674    0.9905    5.1429 H   0  0  0  0  0  0  0  0  0  0  0  0
   25.0870    3.3256   10.5714 H   0  0  0  0  0  0  0  0  0  0  0  0
  1  7  1  0
  1 24  1  0
  2 12  1  0
  2 18  1  0
  3 18  2  0
  4 20  1  0
  4 25  1  0
  5 22  1  0
  5 26  1  0
  6  7  1  0
  6  8  1  0
  7  9  1  0
  8 10  1  0
  9 11  1  0
 10 12  1  0
 11 13  1  0
 12 14  1  0
 13 15  1  0
 15 19  2  0
 16 17  2  0
 16 18  1  0
 16 20  1  0
 17 19  1  0
 17 21  1  0
 20 23  2  0
 21 22  2  0
 22 23  1  0
M  END
> <PUBCHEM_COMPOUND_CID>
5284645

> <PUBCHEM_CONFORMER_RMSD>
0.6

> <PUBCHEM_CONFORMER_DIVERSEORDER>
1

> <PUBCHEM_MMFF94_PARTIAL_CHARGES>
24
1 -0.68
12 0.28
13 0.14
15 -0.29
16 0.09
17 0.03
18 0.63
19 -0.18
2 -0.43
20 0.08
21 -0.15
22 0.08
23 -0.15
3 -0.57
4 -0.53
41 0.4
42 0.15
43 0.15
44 0.15
45 0.15
46 0.45
47 0.45
5 -0.53
7 0.28

> <PUBCHEM_EFFECTIVE_ROTOR_COUNT>
1.8

> <PUBCHEM_PHARMACOPHORE_FEATURES>
6
1 1 acceptor
1 1 donor
1 3 acceptor
1 4 donor
1 5 donor
6 16 17 20 21 22 23 rings

> <PUBCHEM_HEAVY_ATOM_COUNT>
23

> <PUBCHEM_ATOM_DEF_STEREO_COUNT>
2

> <PUBCHEM_ATOM_UDEF_STEREO_COUNT>
0

> <PUBCHEM_BOND_DEF_STEREO_COUNT>
1

> <PUBCHEM_BOND_UDEF_STEREO_COUNT>
0

> <PUBCHEM_ISOTOPIC_ATOM_COUNT>
0

> <PUBCHEM_COMPONENT_COUNT>
1

> <PUBCHEM_CACTVS_TAUTO_COUNT>
12

> <PUBCHEM_CONFORMER_ID>
0050A32500000001

> <PUBCHEM_MMFF94_ENERGY>
56.9454

> <PUBCHEM_FEATURE_SELFOVERLAP>
30.446

> <PUBCHEM_SHAPE_FINGERPRINT>
1100329 8 17836085568009856625
11112241 14 16986289841619931392
11578080 2 16734366241365874279
12166972 35 17967822613537111974
12403259 226 18337670931286267939
12506688 2 18412827975731104564
12596599 1 17914633677902020662
12788726 201 17627507133988941776
13140716 1 18267582403486064363
13402501 40 18336828697047978282
13533116 47 18056766653224983451
14251757 17 18262232209996353437
14787075 74 18336834185758012246
14790565 3 17545883724776523813
14866123 147 17767415573386001256
14931854 50 18336551491284682350
15196674 1 18334859415888043750
15322687 12 17104511174142344237
19591789 44 18337109089556020683
19930381 70 18413393137471364090
20028762 73 17044582808783771111
20691752 17 17022900138402631537
20715895 44 17609482839964013085
20832881 197 18343306989256920753
20905425 154 18409167675446349782
22182313 1 18041826412212926463
23227448 37 18189331260828617463
23352939 185 18342462530415398027
23557571 272 17910374109985112994
23559900 14 18335978778501818797
238 59 18196346307921625956
2748010 2 18117544331403189953
3323516 105 18411138077713944259
350125 39 18336268960321048513
3524813 1 18334011700965522918
3680242 22 18116995477305685354
463206 1 18269557311053435927
5265222 85 17471861776259798556
57527585 103 17390829632986241626
59755656 215 18188762977069237031
6443956 14 18340493347406701473
81228 2 17476913559209296171

> <PUBCHEM_SHAPE_MULTIPOLES>
443.98
8.21
4.09
1.18
1.54
0.84
-0.09
-3.84
1.51
-1.8
-1.33
-0.11
0.8
1.1

> <PUBCHEM_SHAPE_SELFOVERLAP>
916.908

> <PUBCHEM_SHAPE_VOLUME>
252.3

> <PUBCHEM_COORDINATE_TYPE>
2
5
10

> <Energy>
40.5071

> <minimizedAffinity>
17.76701

> <CNNscore>
0.1127449647

> <CNNaffinity>
4.8491883278

> <CNN_VS>
0.5467215776

> <CNNaffinity_variance>
1.2013219595

$$$$
5284645


 26 27  0  0  0  0  0  0  0  0999 V2000
   16.2373    5.5540    6.6358 O   0  0  0  0  0  0  0  0  0  0  0  0
   21.6778    4.4501    4.3294 O   0  0  0  0  0  0  0  0  0  0  0  0
   22.6656    6.4926    4.7278 O   0  0  0  0  0  0  0  0  0  0  0  0
   25.3071    5.4539    4.9534 O   0  0  0  0  0  0  0  0  0  0  0  0
   25.7461    2.6183    8.6873 O   0  0  0  0  0  0  0  0  0  0  0  0
   17.8622    6.5076    5.1391 C   0  0  0  0  0  0  0  0  0  0  0  0
   17.6340    5.5683    6.3359 C   0  0  0  0  0  0  0  0  0  0  0  0
   19.2616    6.4136    4.5252 C   0  0  0  0  0  0  0  0  0  0  0  0
   18.3995    6.0091    7.5930 C   0  0  0  0  0  0  0  0  0  0  0  0
   19.4577    5.1436    3.6906 C   0  0  0  0  0  0  0  0  0  0  0  0
   18.3407    4.9874    8.7386 C   0  0  0  0  0  0  0  0  0  0  0  0
   20.9072    4.9693    3.2254 C   0  0  0  0  0  0  0  0  0  0  0  0
   19.1022    3.6837    8.4716 C   0  0  0  0  0  0  0  0  0  0  0  0
   20.9985    3.9299    2.1119 C   0  0  0  0  0  0  0  0  0  0  0  0
   20.5805    3.8926    8.2844 C   0  0  0  0  0  0  0  0  0  0  0  0
   23.2745    4.5778    5.9883 C   0  0  0  0  0  0  0  0  0  0  0  0
   22.6890    3.7877    6.9977 C   0  0  0  0  0  0  0  0  0  0  0  0
   22.4743    5.3144    4.9879 C   0  0  0  0  0  0  0  0  0  0  0  0
   21.2365    3.6047    7.1488 C   0  0  0  0  0  0  0  0  0  0  0  0
   24.6706    4.7102    5.9167 C   0  0  0  0  0  0  0  0  0  0  0  0
   23.5365    3.1191    7.9028 C   0  0  0  0  0  0  0  0  0  0  0  0
   24.9195    3.2592    7.8131 C   0  0  0  0  0  0  0  0  0  0  0  0
   25.4933    4.0540    6.8279 C   0  0  0  0  0  0  0  0  0  0  0  0
   15.7407    5.2771    5.8500 H   0  0  0  0  0  0  0  0  0  0  0  0
   24.8055    5.9182    4.3124 H   0  0  0  0  0  0  0  0  0  0  0  0
   25.3857    2.0761    9.3611 H   0  0  0  0  0  0  0  0  0  0  0  0
  1  7  1  0
  1 24  1  0
  2 12  1  0
  2 18  1  0
  3 18  2  0
  4 20  1  0
  4 25  1  0
  5 22  1  0
  5 26  1  0
  6  7  1  0
  6  8  1  0
  7  9  1  0
  8 10  1  0
  9 11  1  0
 10 12  1  0
 11 13  1  0
 12 14  1  0
 13 15  1  0
 15 19  2  0
 16 17  2  0
 16 18  1  0
 16 20  1  0
 17 19  1  0
 17 21  1  0
 20 23  2  0
 21 22  2  0
 22 23  1  0
M  END
> <PUBCHEM_COMPOUND_CID>
5284645

> <PUBCHEM_CONFORMER_RMSD>
0.6

> <PUBCHEM_CONFORMER_DIVERSEORDER>
1

> <PUBCHEM_MMFF94_PARTIAL_CHARGES>
24
1 -0.68
12 0.28
13 0.14
15 -0.29
16 0.09
17 0.03
18 0.63
19 -0.18
2 -0.43
20 0.08
21 -0.15
22 0.08
23 -0.15
3 -0.57
4 -0.53
41 0.4
42 0.15
43 0.15
44 0.15
45 0.15
46 0.45
47 0.45
5 -0.53
7 0.28

> <PUBCHEM_EFFECTIVE_ROTOR_COUNT>
1.8

> <PUBCHEM_PHARMACOPHORE_FEATURES>
6
1 1 acceptor
1 1 donor
1 3 acceptor
1 4 donor
1 5 donor
6 16 17 20 21 22 23 rings

> <PUBCHEM_HEAVY_ATOM_COUNT>
23

> <PUBCHEM_ATOM_DEF_STEREO_COUNT>
2

> <PUBCHEM_ATOM_UDEF_STEREO_COUNT>
0

> <PUBCHEM_BOND_DEF_STEREO_COUNT>
1

> <PUBCHEM_BOND_UDEF_STEREO_COUNT>
0

> <PUBCHEM_ISOTOPIC_ATOM_COUNT>
0

> <PUBCHEM_COMPONENT_COUNT>
1

> <PUBCHEM_CACTVS_TAUTO_COUNT>
12

> <PUBCHEM_CONFORMER_ID>
0050A32500000001

> <PUBCHEM_MMFF94_ENERGY>
56.9454

> <PUBCHEM_FEATURE_SELFOVERLAP>
30.446

> <PUBCHEM_SHAPE_FINGERPRINT>
1100329 8 17836085568009856625
11112241 14 16986289841619931392
11578080 2 16734366241365874279
12166972 35 17967822613537111974
12403259 226 18337670931286267939
12506688 2 18412827975731104564
12596599 1 17914633677902020662
12788726 201 17627507133988941776
13140716 1 18267582403486064363
13402501 40 18336828697047978282
13533116 47 18056766653224983451
14251757 17 18262232209996353437
14787075 74 18336834185758012246
14790565 3 17545883724776523813
14866123 147 17767415573386001256
14931854 50 18336551491284682350
15196674 1 18334859415888043750
15322687 12 17104511174142344237
19591789 44 18337109089556020683
19930381 70 18413393137471364090
20028762 73 17044582808783771111
20691752 17 17022900138402631537
20715895 44 17609482839964013085
20832881 197 18343306989256920753
20905425 154 18409167675446349782
22182313 1 18041826412212926463
23227448 37 18189331260828617463
23352939 185 18342462530415398027
23557571 272 17910374109985112994
23559900 14 18335978778501818797
238 59 18196346307921625956
2748010 2 18117544331403189953
3323516 105 18411138077713944259
350125 39 18336268960321048513
3524813 1 18334011700965522918
3680242 22 18116995477305685354
463206 1 18269557311053435927
5265222 85 17471861776259798556
57527585 103 17390829632986241626
59755656 215 18188762977069237031
6443956 14 18340493347406701473
81228 2 17476913559209296171

> <PUBCHEM_SHAPE_MULTIPOLES>
443.98
8.21
4.09
1.18
1.54
0.84
-0.09
-3.84
1.51
-1.8
-1.33
-0.11
0.8
1.1

> <PUBCHEM_SHAPE_SELFOVERLAP>
916.908

> <PUBCHEM_SHAPE_VOLUME>
252.3

> <PUBCHEM_COORDINATE_TYPE>
2
5
10

> <Energy>
40.5071

> <minimizedAffinity>
1.05183

> <CNNscore>
0.1073854491

> <CNNaffinity>
4.8182234764

> <CNN_VS>
0.5174071193

> <CNNaffinity_variance>
0.3553472459

$$$$
5284645


 26 27  0  0  0  0  0  0  0  0999 V2000
   18.6935    5.3580    8.2446 O   0  0  0  0  0  0  0  0  0  0  0  0
   23.7278    4.9338    4.9869 O   0  0  0  0  0  0  0  0  0  0  0  0
   25.0837    3.9070    6.5405 O   0  0  0  0  0  0  0  0  0  0  0  0
   26.7055    2.5745    4.6165 O   0  0  0  0  0  0  0  0  0  0  0  0
   24.2412   -0.6082    2.1723 O   0  0  0  0  0  0  0  0  0  0  0  0
   21.0536    5.8053    8.3835 C   0  0  0  0  0  0  0  0  0  0  0  0
   19.9576    4.9620    7.7096 C   0  0  0  0  0  0  0  0  0  0  0  0
   22.4285    5.6946    7.7190 C   0  0  0  0  0  0  0  0  0  0  0  0
   20.1375    3.4544    7.9448 C   0  0  0  0  0  0  0  0  0  0  0  0
   22.5112    6.4658    6.3976 C   0  0  0  0  0  0  0  0  0  0  0  0
   19.1707    2.5848    7.1271 C   0  0  0  0  0  0  0  0  0  0  0  0
   23.8261    6.2096    5.6539 C   0  0  0  0  0  0  0  0  0  0  0  0
   19.4243    2.5962    5.6150 C   0  0  0  0  0  0  0  0  0  0  0  0
   24.0422    7.2505    4.5592 C   0  0  0  0  0  0  0  0  0  0  0  0
   20.7722    2.0428    5.2395 C   0  0  0  0  0  0  0  0  0  0  0  0
   24.2665    2.7156    4.6594 C   0  0  0  0  0  0  0  0  0  0  0  0
   23.0286    2.1890    4.2396 C   0  0  0  0  0  0  0  0  0  0  0  0
   24.3724    3.8919    5.5474 C   0  0  0  0  0  0  0  0  0  0  0  0
   21.7280    2.7591    4.6262 C   0  0  0  0  0  0  0  0  0  0  0  0
   25.4656    2.1075    4.2543 C   0  0  0  0  0  0  0  0  0  0  0  0
   23.0308    1.0668    3.3880 C   0  0  0  0  0  0  0  0  0  0  0  0
   24.2309    0.4800    2.9933 C   0  0  0  0  0  0  0  0  0  0  0  0
   25.4498    0.9904    3.4240 C   0  0  0  0  0  0  0  0  0  0  0  0
   18.5661    6.3090    8.1029 H   0  0  0  0  0  0  0  0  0  0  0  0
   26.7793    3.3238    5.1742 H   0  0  0  0  0  0  0  0  0  0  0  0
   23.4337   -0.9725    1.8671 H   0  0  0  0  0  0  0  0  0  0  0  0
  1  7  1  0
  1 24  1  0
  2 12  1  0
  2 18  1  0
  3 18  2  0
  4 20  1  0
  4 25  1  0
  5 22  1  0
  5 26  1  0
  6  7  1  0
  6  8  1  0
  7  9  1  0
  8 10  1  0
  9 11  1  0
 10 12  1  0
 11 13  1  0
 12 14  1  0
 13 15  1  0
 15 19  2  0
 16 17  2  0
 16 18  1  0
 16 20  1  0
 17 19  1  0
 17 21  1  0
 20 23  2  0
 21 22  2  0
 22 23  1  0
M  END
> <PUBCHEM_COMPOUND_CID>
5284645

> <PUBCHEM_CONFORMER_RMSD>
0.6

> <PUBCHEM_CONFORMER_DIVERSEORDER>
1

> <PUBCHEM_MMFF94_PARTIAL_CHARGES>
24
1 -0.68
12 0.28
13 0.14
15 -0.29
16 0.09
17 0.03
18 0.63
19 -0.18
2 -0.43
20 0.08
21 -0.15
22 0.08
23 -0.15
3 -0.57
4 -0.53
41 0.4
42 0.15
43 0.15
44 0.15
45 0.15
46 0.45
47 0.45
5 -0.53
7 0.28

> <PUBCHEM_EFFECTIVE_ROTOR_COUNT>
1.8

> <PUBCHEM_PHARMACOPHORE_FEATURES>
6
1 1 acceptor
1 1 donor
1 3 acceptor
1 4 donor
1 5 donor
6 16 17 20 21 22 23 rings

> <PUBCHEM_HEAVY_ATOM_COUNT>
23

> <PUBCHEM_ATOM_DEF_STEREO_COUNT>
2

> <PUBCHEM_ATOM_UDEF_STEREO_COUNT>
0

> <PUBCHEM_BOND_DEF_STEREO_COUNT>
1

> <PUBCHEM_BOND_UDEF_STEREO_COUNT>
0

> <PUBCHEM_ISOTOPIC_ATOM_COUNT>
0

> <PUBCHEM_COMPONENT_COUNT>
1

> <PUBCHEM_CACTVS_TAUTO_COUNT>
12

> <PUBCHEM_CONFORMER_ID>
0050A32500000001

> <PUBCHEM_MMFF94_ENERGY>
56.9454

> <PUBCHEM_FEATURE_SELFOVERLAP>
30.446

> <PUBCHEM_SHAPE_FINGERPRINT>
1100329 8 17836085568009856625
11112241 14 16986289841619931392
11578080 2 16734366241365874279
12166972 35 17967822613537111974
12403259 226 18337670931286267939
12506688 2 18412827975731104564
12596599 1 17914633677902020662
12788726 201 17627507133988941776
13140716 1 18267582403486064363
13402501 40 18336828697047978282
13533116 47 18056766653224983451
14251757 17 18262232209996353437
14787075 74 18336834185758012246
14790565 3 17545883724776523813
14866123 147 17767415573386001256
14931854 50 18336551491284682350
15196674 1 18334859415888043750
15322687 12 17104511174142344237
19591789 44 18337109089556020683
19930381 70 18413393137471364090
20028762 73 17044582808783771111
20691752 17 17022900138402631537
20715895 44 17609482839964013085
20832881 197 18343306989256920753
20905425 154 18409167675446349782
22182313 1 18041826412212926463
23227448 37 18189331260828617463
23352939 185 18342462530415398027
23557571 272 17910374109985112994
23559900 14 18335978778501818797
238 59 18196346307921625956
2748010 2 18117544331403189953
3323516 105 18411138077713944259
350125 39 18336268960321048513
3524813 1 18334011700965522918
3680242 22 18116995477305685354
463206 1 18269557311053435927
5265222 85 17471861776259798556
57527585 103 17390829632986241626
59755656 215 18188762977069237031
6443956 14 18340493347406701473
81228 2 17476913559209296171

> <PUBCHEM_SHAPE_MULTIPOLES>
443.98
8.21
4.09
1.18
1.54
0.84
-0.09
-3.84
1.51
-1.8
-1.33
-0.11
0.8
1.1

> <PUBCHEM_SHAPE_SELFOVERLAP>
916.908

> <PUBCHEM_SHAPE_VOLUME>
252.3

> <PUBCHEM_COORDINATE_TYPE>
2
5
10

> <Energy>
40.5071

> <minimizedAffinity>
5.23171

> <CNNscore>
0.1052992716

> <CNNaffinity>
5.3696494102

> <CNN_VS>
0.5654201508

> <CNNaffinity_variance>
0.1536164731

$$$$
