6623


 19 20  0  0  0  0  0  0  0  0999 V2000
   -4.6248   -2.8924   21.8043 C   0  0  0  0  0  0  0  0  0  0  0  0
   -4.8211   -2.6157   23.3202 C   0  0  0  0  0  0  0  0  0  0  0  0
   -5.5276   -1.8585   21.0777 C   0  0  0  0  0  0  0  0  0  0  0  0
   -6.3131   -8.1210   20.1918 O   0  0  0  0  0  0  0  0  0  0  0  0
   -5.1020   -4.2966   21.3614 C   0  0  0  0  0  0  0  0  0  0  0  0
   -4.5038   -5.4453   21.9231 C   0  0  0  0  0  0  0  0  0  0  0  0
   -6.1170   -4.4921   20.4090 C   0  0  0  0  0  0  0  0  0  0  0  0
   -4.8949   -6.7323   21.5421 C   0  0  0  0  0  0  0  0  0  0  0  0
   -6.5126   -5.7793   20.0307 C   0  0  0  0  0  0  0  0  0  0  0  0
   -5.8984   -6.8870   20.5962 C   0  0  0  0  0  0  0  0  0  0  0  0
   -5.9187   -8.8898   20.5543 H   0  0  0  0  0  0  0  0  0  0  0  0
    0.9515   -2.3163   20.6451 O   0  0  0  0  0  0  0  0  0  0  0  0
   -3.1164   -2.7113   21.5114 C   0  0  0  0  0  0  0  0  0  0  0  0
   -2.6697   -2.6260   20.1752 C   0  0  0  0  0  0  0  0  0  0  0  0
   -2.1466   -2.6397   22.5272 C   0  0  0  0  0  0  0  0  0  0  0  0
   -1.3128   -2.4945   19.8669 C   0  0  0  0  0  0  0  0  0  0  0  0
   -0.7900   -2.5026   22.2198 C   0  0  0  0  0  0  0  0  0  0  0  0
   -0.3830   -2.4373   20.8956 C   0  0  0  0  0  0  0  0  0  0  0  0
    1.2599   -2.2695   19.7616 H   0  0  0  0  0  0  0  0  0  0  0  0
  4 10  1  0
  4 11  1  0
 12 18  1  0
 12 19  1  0
  1  5  1  0
  1 13  1  0
  1  2  1  0
  1  3  1  0
  5  6  2  0
  5  7  1  0
 13 14  2  0
 13 15  1  0
  6  8  1  0
 14 16  1  0
  7  9  2  0
 15 17  2  0
  8 10  2  0
 16 18  2  0
  9 10  1  0
 17 18  1  0
M  END
> <PUBCHEM_COMPOUND_CID>
6623

> <PUBCHEM_CONFORMER_RMSD>
0.6

> <PUBCHEM_CONFORMER_DIVERSEORDER>
1
3
2

> <PUBCHEM_MMFF94_PARTIAL_CHARGES>
25
1 -0.53
10 -0.15
11 -0.15
12 -0.15
13 -0.15
14 -0.15
15 -0.15
16 0.08
17 0.08
2 -0.53
24 0.15
25 0.15
26 0.15
27 0.15
28 0.15
29 0.15
3 0.29
30 0.15
31 0.15
32 0.45
33 0.45
4 -0.14
5 -0.14
8 -0.15
9 -0.15

> <PUBCHEM_EFFECTIVE_ROTOR_COUNT>
2

> <PUBCHEM_PHARMACOPHORE_FEATURES>
5
1 1 donor
1 2 donor
3 3 6 7 hydrophobe
6 4 8 10 12 14 16 rings
6 5 9 11 13 15 17 rings

> <PUBCHEM_HEAVY_ATOM_COUNT>
17

> <PUBCHEM_ATOM_DEF_STEREO_COUNT>
0

> <PUBCHEM_ATOM_UDEF_STEREO_COUNT>
0

> <PUBCHEM_BOND_DEF_STEREO_COUNT>
0

> <PUBCHEM_BOND_UDEF_STEREO_COUNT>
0

> <PUBCHEM_ISOTOPIC_ATOM_COUNT>
0

> <PUBCHEM_COMPONENT_COUNT>
1

> <PUBCHEM_CACTVS_TAUTO_COUNT>
3

> <PUBCHEM_CONFORMER_ID>
000019DF00000001

> <PUBCHEM_MMFF94_ENERGY>
64.1206

> <PUBCHEM_FEATURE_SELFOVERLAP>
25.372

> <PUBCHEM_SHAPE_FINGERPRINT>
10465860 228 18265052440146906875
10498660 4 17846494807956907777
10618630 7 8862950471944920352
11046707 91 8574440819802817220
11640471 11 18410569587104953028
12138202 97 17632297942700988494
12251169 10 15719115772587467277
12491281 212 18341893034625719138
12633257 1 15647059291015153984
12788726 201 18049710021441717058
12892183 10 15719384001885322888
13571099 52 18261397711031002503
13764800 53 18340221781019704851
14251764 38 17758668950351880149
14739800 52 17985806350554812304
15061688 2 18410575084673810317
15309172 13 17822005415182549066
15342168 16 18187090559068058613
15375462 189 9295287269996453078
15534591 1 18337673126062282338
15653759 3 15068339003624658237
15775835 57 18410853261110395364
15906896 17 18264490774389428130
16945 1 17917141818369727011
17357779 13 13899614313340361589
1741750 31 18337674225716062138
17804303 29 12829490320433961629
1813 80 17692251833473259110
18186145 218 18334012757179395950
19765921 60 18411697656461014379
19868273 293 17988923409424780430
20291156 8 9223230745321134917
20361792 2 9943803365827786299
204376 136 18186802491163379179
20645476 183 18339358668581405150
20671657 53 12751245791825749096
20871999 31 16988551447065141829
21499 59 18412825772344063143
21524375 3 18410855460138945163
21713013 43 13758065299356720749
21731228 192 17894352193594983955
23184049 59 17894627041684797236
23402539 116 17774993601125170188
23557571 272 16557885966252971863
23559900 14 17561366193283564332
298252 57 18202560691760254914
3472631 163 18202563986327517557
4028521 119 17846780714954732865
4340502 62 18114473262852369283
474 4 18336547123060049707
633830 44 18410010996606913815
7364860 26 17700693965181141591
83771 10 9223230749695054610
94968 8 10663806477749826557
9981440 41 18128808828214612290

> <PUBCHEM_SHAPE_MULTIPOLES>
338.11
7.28
2.04
1.32
0.26
0.87
0
-5.89
0
-0.06
0
0
0.27
-0.69

> <PUBCHEM_SHAPE_SELFOVERLAP>
731.212

> <PUBCHEM_SHAPE_VOLUME>
187.1

> <PUBCHEM_COORDINATE_TYPE>
2
5
10

> <Energy>
42.8498

> <minimizedAffinity>
-7.99989

> <CNNscore>
0.9150901437

> <CNNaffinity>
6.9913444519

> <CNN_VS>
6.3977103233

> <CNNaffinity_variance>
0.5283809304

$$$$
6623


 19 20  0  0  0  0  0  0  0  0999 V2000
   -4.6409   -2.8986   21.8024 C   0  0  0  0  0  0  0  0  0  0  0  0
   -4.8533   -2.5959   23.3111 C   0  0  0  0  0  0  0  0  0  0  0  0
   -5.5479   -1.8878   21.0490 C   0  0  0  0  0  0  0  0  0  0  0  0
   -6.4174   -8.1081   20.2233 O   0  0  0  0  0  0  0  0  0  0  0  0
   -5.0998   -4.3156   21.3816 C   0  0  0  0  0  0  0  0  0  0  0  0
   -6.1626   -4.4602   20.4637 C   0  0  0  0  0  0  0  0  0  0  0  0
   -4.5048   -5.4887   21.8770 C   0  0  0  0  0  0  0  0  0  0  0  0
   -6.6178   -5.7210   20.0667 C   0  0  0  0  0  0  0  0  0  0  0  0
   -4.9561   -6.7507   21.4768 C   0  0  0  0  0  0  0  0  0  0  0  0
   -6.0084   -6.8575   20.5793 C   0  0  0  0  0  0  0  0  0  0  0  0
   -7.1255   -8.2151   19.6191 H   0  0  0  0  0  0  0  0  0  0  0  0
    0.9381   -2.2831   20.6767 O   0  0  0  0  0  0  0  0  0  0  0  0
   -3.1320   -2.7072   21.5191 C   0  0  0  0  0  0  0  0  0  0  0  0
   -2.6803   -2.5943   20.1866 C   0  0  0  0  0  0  0  0  0  0  0  0
   -2.1663   -2.6527   22.5399 C   0  0  0  0  0  0  0  0  0  0  0  0
   -1.3226   -2.4527   19.8862 C   0  0  0  0  0  0  0  0  0  0  0  0
   -0.8089   -2.5056   22.2406 C   0  0  0  0  0  0  0  0  0  0  0  0
   -0.3970   -2.4130   20.9196 C   0  0  0  0  0  0  0  0  0  0  0  0
    1.2498   -2.2180   19.7955 H   0  0  0  0  0  0  0  0  0  0  0  0
  4 10  1  0
  4 11  1  0
 12 18  1  0
 12 19  1  0
  1  5  1  0
  1 13  1  0
  1  2  1  0
  1  3  1  0
  5  6  2  0
  5  7  1  0
 13 14  2  0
 13 15  1  0
  6  8  1  0
 14 16  1  0
  7  9  2  0
 15 17  2  0
  8 10  2  0
 16 18  2  0
  9 10  1  0
 17 18  1  0
M  END
> <PUBCHEM_COMPOUND_CID>
6623

> <PUBCHEM_CONFORMER_RMSD>
0.6

> <PUBCHEM_CONFORMER_DIVERSEORDER>
1
3
2

> <PUBCHEM_MMFF94_PARTIAL_CHARGES>
25
1 -0.53
10 -0.15
11 -0.15
12 -0.15
13 -0.15
14 -0.15
15 -0.15
16 0.08
17 0.08
2 -0.53
24 0.15
25 0.15
26 0.15
27 0.15
28 0.15
29 0.15
3 0.29
30 0.15
31 0.15
32 0.45
33 0.45
4 -0.14
5 -0.14
8 -0.15
9 -0.15

> <PUBCHEM_EFFECTIVE_ROTOR_COUNT>
2

> <PUBCHEM_PHARMACOPHORE_FEATURES>
5
1 1 donor
1 2 donor
3 3 6 7 hydrophobe
6 4 8 10 12 14 16 rings
6 5 9 11 13 15 17 rings

> <PUBCHEM_HEAVY_ATOM_COUNT>
17

> <PUBCHEM_ATOM_DEF_STEREO_COUNT>
0

> <PUBCHEM_ATOM_UDEF_STEREO_COUNT>
0

> <PUBCHEM_BOND_DEF_STEREO_COUNT>
0

> <PUBCHEM_BOND_UDEF_STEREO_COUNT>
0

> <PUBCHEM_ISOTOPIC_ATOM_COUNT>
0

> <PUBCHEM_COMPONENT_COUNT>
1

> <PUBCHEM_CACTVS_TAUTO_COUNT>
3

> <PUBCHEM_CONFORMER_ID>
000019DF00000001

> <PUBCHEM_MMFF94_ENERGY>
64.1206

> <PUBCHEM_FEATURE_SELFOVERLAP>
25.372

> <PUBCHEM_SHAPE_FINGERPRINT>
10465860 228 18265052440146906875
10498660 4 17846494807956907777
10618630 7 8862950471944920352
11046707 91 8574440819802817220
11640471 11 18410569587104953028
12138202 97 17632297942700988494
12251169 10 15719115772587467277
12491281 212 18341893034625719138
12633257 1 15647059291015153984
12788726 201 18049710021441717058
12892183 10 15719384001885322888
13571099 52 18261397711031002503
13764800 53 18340221781019704851
14251764 38 17758668950351880149
14739800 52 17985806350554812304
15061688 2 18410575084673810317
15309172 13 17822005415182549066
15342168 16 18187090559068058613
15375462 189 9295287269996453078
15534591 1 18337673126062282338
15653759 3 15068339003624658237
15775835 57 18410853261110395364
15906896 17 18264490774389428130
16945 1 17917141818369727011
17357779 13 13899614313340361589
1741750 31 18337674225716062138
17804303 29 12829490320433961629
1813 80 17692251833473259110
18186145 218 18334012757179395950
19765921 60 18411697656461014379
19868273 293 17988923409424780430
20291156 8 9223230745321134917
20361792 2 9943803365827786299
204376 136 18186802491163379179
20645476 183 18339358668581405150
20671657 53 12751245791825749096
20871999 31 16988551447065141829
21499 59 18412825772344063143
21524375 3 18410855460138945163
21713013 43 13758065299356720749
21731228 192 17894352193594983955
23184049 59 17894627041684797236
23402539 116 17774993601125170188
23557571 272 16557885966252971863
23559900 14 17561366193283564332
298252 57 18202560691760254914
3472631 163 18202563986327517557
4028521 119 17846780714954732865
4340502 62 18114473262852369283
474 4 18336547123060049707
633830 44 18410010996606913815
7364860 26 17700693965181141591
83771 10 9223230749695054610
94968 8 10663806477749826557
9981440 41 18128808828214612290

> <PUBCHEM_SHAPE_MULTIPOLES>
338.11
7.28
2.04
1.32
0.26
0.87
0
-5.89
0
-0.06
0
0
0.27
-0.69

> <PUBCHEM_SHAPE_SELFOVERLAP>
731.212

> <PUBCHEM_SHAPE_VOLUME>
187.1

> <PUBCHEM_COORDINATE_TYPE>
2
5
10

> <Energy>
42.8498

> <minimizedAffinity>
-7.97644

> <CNNscore>
0.9144721627

> <CNNaffinity>
7.0118694305

> <CNN_VS>
6.4121594429

> <CNNaffinity_variance>
0.5743380189

$$$$
6623


 19 20  0  0  0  0  0  0  0  0999 V2000
   -4.6345   -2.8771   21.8028 C   0  0  0  0  0  0  0  0  0  0  0  0
   -5.5271   -1.8490   21.0548 C   0  0  0  0  0  0  0  0  0  0  0  0
   -4.8414   -2.5789   23.3128 C   0  0  0  0  0  0  0  0  0  0  0  0
    0.9466   -2.3064   20.6566 O   0  0  0  0  0  0  0  0  0  0  0  0
   -3.1225   -2.7138   21.5148 C   0  0  0  0  0  0  0  0  0  0  0  0
   -2.6718   -2.6371   20.1791 C   0  0  0  0  0  0  0  0  0  0  0  0
   -2.1558   -2.6394   22.5323 C   0  0  0  0  0  0  0  0  0  0  0  0
   -1.3142   -2.5029   19.8736 C   0  0  0  0  0  0  0  0  0  0  0  0
   -0.7977   -2.5001   22.2279 C   0  0  0  0  0  0  0  0  0  0  0  0
   -0.3875   -2.4360   20.9044 C   0  0  0  0  0  0  0  0  0  0  0  0
    1.2568   -2.2602   19.7737 H   0  0  0  0  0  0  0  0  0  0  0  0
   -6.3258   -8.1064   20.2011 O   0  0  0  0  0  0  0  0  0  0  0  0
   -5.1225   -4.2820   21.3764 C   0  0  0  0  0  0  0  0  0  0  0  0
   -4.5188   -5.4299   21.9336 C   0  0  0  0  0  0  0  0  0  0  0  0
   -6.1472   -4.4788   20.4336 C   0  0  0  0  0  0  0  0  0  0  0  0
   -4.9081   -6.7168   21.5516 C   0  0  0  0  0  0  0  0  0  0  0  0
   -6.5408   -5.7655   20.0552 C   0  0  0  0  0  0  0  0  0  0  0  0
   -5.9163   -6.8722   20.6106 C   0  0  0  0  0  0  0  0  0  0  0  0
   -5.9246   -8.8749   20.5566 H   0  0  0  0  0  0  0  0  0  0  0  0
  4 10  1  0
  4 11  1  0
 12 18  1  0
 12 19  1  0
  1  5  1  0
  1 13  1  0
  1  2  1  0
  1  3  1  0
  5  6  2  0
  5  7  1  0
 13 14  2  0
 13 15  1  0
  6  8  1  0
 14 16  1  0
  7  9  2  0
 15 17  2  0
  8 10  2  0
 16 18  2  0
  9 10  1  0
 17 18  1  0
M  END
> <PUBCHEM_COMPOUND_CID>
6623

> <PUBCHEM_CONFORMER_RMSD>
0.6

> <PUBCHEM_CONFORMER_DIVERSEORDER>
1
3
2

> <PUBCHEM_MMFF94_PARTIAL_CHARGES>
25
1 -0.53
10 -0.15
11 -0.15
12 -0.15
13 -0.15
14 -0.15
15 -0.15
16 0.08
17 0.08
2 -0.53
24 0.15
25 0.15
26 0.15
27 0.15
28 0.15
29 0.15
3 0.29
30 0.15
31 0.15
32 0.45
33 0.45
4 -0.14
5 -0.14
8 -0.15
9 -0.15

> <PUBCHEM_EFFECTIVE_ROTOR_COUNT>
2

> <PUBCHEM_PHARMACOPHORE_FEATURES>
5
1 1 donor
1 2 donor
3 3 6 7 hydrophobe
6 4 8 10 12 14 16 rings
6 5 9 11 13 15 17 rings

> <PUBCHEM_HEAVY_ATOM_COUNT>
17

> <PUBCHEM_ATOM_DEF_STEREO_COUNT>
0

> <PUBCHEM_ATOM_UDEF_STEREO_COUNT>
0

> <PUBCHEM_BOND_DEF_STEREO_COUNT>
0

> <PUBCHEM_BOND_UDEF_STEREO_COUNT>
0

> <PUBCHEM_ISOTOPIC_ATOM_COUNT>
0

> <PUBCHEM_COMPONENT_COUNT>
1

> <PUBCHEM_CACTVS_TAUTO_COUNT>
3

> <PUBCHEM_CONFORMER_ID>
000019DF00000001

> <PUBCHEM_MMFF94_ENERGY>
64.1206

> <PUBCHEM_FEATURE_SELFOVERLAP>
25.372

> <PUBCHEM_SHAPE_FINGERPRINT>
10465860 228 18265052440146906875
10498660 4 17846494807956907777
10618630 7 8862950471944920352
11046707 91 8574440819802817220
11640471 11 18410569587104953028
12138202 97 17632297942700988494
12251169 10 15719115772587467277
12491281 212 18341893034625719138
12633257 1 15647059291015153984
12788726 201 18049710021441717058
12892183 10 15719384001885322888
13571099 52 18261397711031002503
13764800 53 18340221781019704851
14251764 38 17758668950351880149
14739800 52 17985806350554812304
15061688 2 18410575084673810317
15309172 13 17822005415182549066
15342168 16 18187090559068058613
15375462 189 9295287269996453078
15534591 1 18337673126062282338
15653759 3 15068339003624658237
15775835 57 18410853261110395364
15906896 17 18264490774389428130
16945 1 17917141818369727011
17357779 13 13899614313340361589
1741750 31 18337674225716062138
17804303 29 12829490320433961629
1813 80 17692251833473259110
18186145 218 18334012757179395950
19765921 60 18411697656461014379
19868273 293 17988923409424780430
20291156 8 9223230745321134917
20361792 2 9943803365827786299
204376 136 18186802491163379179
20645476 183 18339358668581405150
20671657 53 12751245791825749096
20871999 31 16988551447065141829
21499 59 18412825772344063143
21524375 3 18410855460138945163
21713013 43 13758065299356720749
21731228 192 17894352193594983955
23184049 59 17894627041684797236
23402539 116 17774993601125170188
23557571 272 16557885966252971863
23559900 14 17561366193283564332
298252 57 18202560691760254914
3472631 163 18202563986327517557
4028521 119 17846780714954732865
4340502 62 18114473262852369283
474 4 18336547123060049707
633830 44 18410010996606913815
7364860 26 17700693965181141591
83771 10 9223230749695054610
94968 8 10663806477749826557
9981440 41 18128808828214612290

> <PUBCHEM_SHAPE_MULTIPOLES>
338.11
7.28
2.04
1.32
0.26
0.87
0
-5.89
0
-0.06
0
0
0.27
-0.69

> <PUBCHEM_SHAPE_SELFOVERLAP>
731.212

> <PUBCHEM_SHAPE_VOLUME>
187.1

> <PUBCHEM_COORDINATE_TYPE>
2
5
10

> <Energy>
42.8498

> <minimizedAffinity>
-7.98031

> <CNNscore>
0.9138711095

> <CNNaffinity>
6.9885754585

> <CNN_VS>
6.3866572380

> <CNNaffinity_variance>
0.5287672877

$$$$
6623


 19 20  0  0  0  0  0  0  0  0999 V2000
   -4.6620   -2.8737   21.7270 C   0  0  0  0  0  0  0  0  0  0  0  0
   -5.5598   -1.8438   20.9879 C   0  0  0  0  0  0  0  0  0  0  0  0
   -4.8463   -2.5691   23.2387 C   0  0  0  0  0  0  0  0  0  0  0  0
    0.9318   -2.2703   20.6627 O   0  0  0  0  0  0  0  0  0  0  0  0
   -3.1535   -2.7191   21.4173 C   0  0  0  0  0  0  0  0  0  0  0  0
   -2.2241   -2.6825   22.4794 C   0  0  0  0  0  0  0  0  0  0  0  0
   -2.6507   -2.6081   20.1096 C   0  0  0  0  0  0  0  0  0  0  0  0
   -0.8542   -2.5308   22.2456 C   0  0  0  0  0  0  0  0  0  0  0  0
   -1.2796   -2.4613   19.8741 C   0  0  0  0  0  0  0  0  0  0  0  0
   -0.3941   -2.4208   20.9409 C   0  0  0  0  0  0  0  0  0  0  0  0
    1.5564   -2.2392   21.3605 H   0  0  0  0  0  0  0  0  0  0  0  0
   -6.4025   -8.0986   20.1641 O   0  0  0  0  0  0  0  0  0  0  0  0
   -5.1630   -4.2777   21.3127 C   0  0  0  0  0  0  0  0  0  0  0  0
   -4.5283   -5.4268   21.8312 C   0  0  0  0  0  0  0  0  0  0  0  0
   -6.2302   -4.4721   20.4178 C   0  0  0  0  0  0  0  0  0  0  0  0
   -4.9291   -6.7126   21.4575 C   0  0  0  0  0  0  0  0  0  0  0  0
   -6.6352   -5.7577   20.0478 C   0  0  0  0  0  0  0  0  0  0  0  0
   -5.9799   -6.8657   20.5640 C   0  0  0  0  0  0  0  0  0  0  0  0
   -5.9813   -8.8678   20.4940 H   0  0  0  0  0  0  0  0  0  0  0  0
  4 10  1  0
  4 11  1  0
 12 18  1  0
 12 19  1  0
  1  5  1  0
  1 13  1  0
  1  2  1  0
  1  3  1  0
  5  6  2  0
  5  7  1  0
 13 14  2  0
 13 15  1  0
  6  8  1  0
 14 16  1  0
  7  9  2  0
 15 17  2  0
  8 10  2  0
 16 18  2  0
  9 10  1  0
 17 18  1  0
M  END
> <PUBCHEM_COMPOUND_CID>
6623

> <PUBCHEM_CONFORMER_RMSD>
0.6

> <PUBCHEM_CONFORMER_DIVERSEORDER>
1
3
2

> <PUBCHEM_MMFF94_PARTIAL_CHARGES>
25
1 -0.53
10 -0.15
11 -0.15
12 -0.15
13 -0.15
14 -0.15
15 -0.15
16 0.08
17 0.08
2 -0.53
24 0.15
25 0.15
26 0.15
27 0.15
28 0.15
29 0.15
3 0.29
30 0.15
31 0.15
32 0.45
33 0.45
4 -0.14
5 -0.14
8 -0.15
9 -0.15

> <PUBCHEM_EFFECTIVE_ROTOR_COUNT>
2

> <PUBCHEM_PHARMACOPHORE_FEATURES>
5
1 1 donor
1 2 donor
3 3 6 7 hydrophobe
6 4 8 10 12 14 16 rings
6 5 9 11 13 15 17 rings

> <PUBCHEM_HEAVY_ATOM_COUNT>
17

> <PUBCHEM_ATOM_DEF_STEREO_COUNT>
0

> <PUBCHEM_ATOM_UDEF_STEREO_COUNT>
0

> <PUBCHEM_BOND_DEF_STEREO_COUNT>
0

> <PUBCHEM_BOND_UDEF_STEREO_COUNT>
0

> <PUBCHEM_ISOTOPIC_ATOM_COUNT>
0

> <PUBCHEM_COMPONENT_COUNT>
1

> <PUBCHEM_CACTVS_TAUTO_COUNT>
3

> <PUBCHEM_CONFORMER_ID>
000019DF00000001

> <PUBCHEM_MMFF94_ENERGY>
64.1206

> <PUBCHEM_FEATURE_SELFOVERLAP>
25.372

> <PUBCHEM_SHAPE_FINGERPRINT>
10465860 228 18265052440146906875
10498660 4 17846494807956907777
10618630 7 8862950471944920352
11046707 91 8574440819802817220
11640471 11 18410569587104953028
12138202 97 17632297942700988494
12251169 10 15719115772587467277
12491281 212 18341893034625719138
12633257 1 15647059291015153984
12788726 201 18049710021441717058
12892183 10 15719384001885322888
13571099 52 18261397711031002503
13764800 53 18340221781019704851
14251764 38 17758668950351880149
14739800 52 17985806350554812304
15061688 2 18410575084673810317
15309172 13 17822005415182549066
15342168 16 18187090559068058613
15375462 189 9295287269996453078
15534591 1 18337673126062282338
15653759 3 15068339003624658237
15775835 57 18410853261110395364
15906896 17 18264490774389428130
16945 1 17917141818369727011
17357779 13 13899614313340361589
1741750 31 18337674225716062138
17804303 29 12829490320433961629
1813 80 17692251833473259110
18186145 218 18334012757179395950
19765921 60 18411697656461014379
19868273 293 17988923409424780430
20291156 8 9223230745321134917
20361792 2 9943803365827786299
204376 136 18186802491163379179
20645476 183 18339358668581405150
20671657 53 12751245791825749096
20871999 31 16988551447065141829
21499 59 18412825772344063143
21524375 3 18410855460138945163
21713013 43 13758065299356720749
21731228 192 17894352193594983955
23184049 59 17894627041684797236
23402539 116 17774993601125170188
23557571 272 16557885966252971863
23559900 14 17561366193283564332
298252 57 18202560691760254914
3472631 163 18202563986327517557
4028521 119 17846780714954732865
4340502 62 18114473262852369283
474 4 18336547123060049707
633830 44 18410010996606913815
7364860 26 17700693965181141591
83771 10 9223230749695054610
94968 8 10663806477749826557
9981440 41 18128808828214612290

> <PUBCHEM_SHAPE_MULTIPOLES>
338.11
7.28
2.04
1.32
0.26
0.87
0
-5.89
0
-0.06
0
0
0.27
-0.69

> <PUBCHEM_SHAPE_SELFOVERLAP>
731.212

> <PUBCHEM_SHAPE_VOLUME>
187.1

> <PUBCHEM_COORDINATE_TYPE>
2
5
10

> <Energy>
42.8498

> <minimizedAffinity>
-7.95154

> <CNNscore>
0.9079157710

> <CNNaffinity>
6.9825291634

> <CNN_VS>
6.3395481110

> <CNNaffinity_variance>
0.5174000859

$$$$
6623


 19 20  0  0  0  0  0  0  0  0999 V2000
   -4.6676   -2.9385   21.7009 C   0  0  0  0  0  0  0  0  0  0  0  0
   -4.8606   -2.6209   23.2092 C   0  0  0  0  0  0  0  0  0  0  0  0
   -5.5592   -1.9138   20.9480 C   0  0  0  0  0  0  0  0  0  0  0  0
   -6.4115   -8.1870   20.2176 O   0  0  0  0  0  0  0  0  0  0  0  0
   -5.1603   -4.3483   21.2941 C   0  0  0  0  0  0  0  0  0  0  0  0
   -4.5238   -5.4898   21.8275 C   0  0  0  0  0  0  0  0  0  0  0  0
   -6.2265   -4.5558   20.4021 C   0  0  0  0  0  0  0  0  0  0  0  0
   -4.9277   -6.7815   21.4769 C   0  0  0  0  0  0  0  0  0  0  0  0
   -6.6348   -5.8477   20.0544 C   0  0  0  0  0  0  0  0  0  0  0  0
   -5.9823   -6.9481   20.5905 C   0  0  0  0  0  0  0  0  0  0  0  0
   -5.9923   -8.9512   20.5615 H   0  0  0  0  0  0  0  0  0  0  0  0
    0.9239   -2.2633   20.6764 O   0  0  0  0  0  0  0  0  0  0  0  0
   -3.1574   -2.7815   21.4036 C   0  0  0  0  0  0  0  0  0  0  0  0
   -2.2391   -2.7079   22.4730 C   0  0  0  0  0  0  0  0  0  0  0  0
   -2.6434   -2.6928   20.0977 C   0  0  0  0  0  0  0  0  0  0  0  0
   -0.8706   -2.5339   22.2484 C   0  0  0  0  0  0  0  0  0  0  0  0
   -1.2743   -2.5243   19.8721 C   0  0  0  0  0  0  0  0  0  0  0  0
   -0.4007   -2.4402   20.9459 C   0  0  0  0  0  0  0  0  0  0  0  0
    1.5409   -2.2025   21.3790 H   0  0  0  0  0  0  0  0  0  0  0  0
  4 10  1  0
  4 11  1  0
 12 18  1  0
 12 19  1  0
  1  5  1  0
  1 13  1  0
  1  2  1  0
  1  3  1  0
  5  6  2  0
  5  7  1  0
 13 14  2  0
 13 15  1  0
  6  8  1  0
 14 16  1  0
  7  9  2  0
 15 17  2  0
  8 10  2  0
 16 18  2  0
  9 10  1  0
 17 18  1  0
M  END
> <PUBCHEM_COMPOUND_CID>
6623

> <PUBCHEM_CONFORMER_RMSD>
0.6

> <PUBCHEM_CONFORMER_DIVERSEORDER>
1
3
2

> <PUBCHEM_MMFF94_PARTIAL_CHARGES>
25
1 -0.53
10 -0.15
11 -0.15
12 -0.15
13 -0.15
14 -0.15
15 -0.15
16 0.08
17 0.08
2 -0.53
24 0.15
25 0.15
26 0.15
27 0.15
28 0.15
29 0.15
3 0.29
30 0.15
31 0.15
32 0.45
33 0.45
4 -0.14
5 -0.14
8 -0.15
9 -0.15

> <PUBCHEM_EFFECTIVE_ROTOR_COUNT>
2

> <PUBCHEM_PHARMACOPHORE_FEATURES>
5
1 1 donor
1 2 donor
3 3 6 7 hydrophobe
6 4 8 10 12 14 16 rings
6 5 9 11 13 15 17 rings

> <PUBCHEM_HEAVY_ATOM_COUNT>
17

> <PUBCHEM_ATOM_DEF_STEREO_COUNT>
0

> <PUBCHEM_ATOM_UDEF_STEREO_COUNT>
0

> <PUBCHEM_BOND_DEF_STEREO_COUNT>
0

> <PUBCHEM_BOND_UDEF_STEREO_COUNT>
0

> <PUBCHEM_ISOTOPIC_ATOM_COUNT>
0

> <PUBCHEM_COMPONENT_COUNT>
1

> <PUBCHEM_CACTVS_TAUTO_COUNT>
3

> <PUBCHEM_CONFORMER_ID>
000019DF00000001

> <PUBCHEM_MMFF94_ENERGY>
64.1206

> <PUBCHEM_FEATURE_SELFOVERLAP>
25.372

> <PUBCHEM_SHAPE_FINGERPRINT>
10465860 228 18265052440146906875
10498660 4 17846494807956907777
10618630 7 8862950471944920352
11046707 91 8574440819802817220
11640471 11 18410569587104953028
12138202 97 17632297942700988494
12251169 10 15719115772587467277
12491281 212 18341893034625719138
12633257 1 15647059291015153984
12788726 201 18049710021441717058
12892183 10 15719384001885322888
13571099 52 18261397711031002503
13764800 53 18340221781019704851
14251764 38 17758668950351880149
14739800 52 17985806350554812304
15061688 2 18410575084673810317
15309172 13 17822005415182549066
15342168 16 18187090559068058613
15375462 189 9295287269996453078
15534591 1 18337673126062282338
15653759 3 15068339003624658237
15775835 57 18410853261110395364
15906896 17 18264490774389428130
16945 1 17917141818369727011
17357779 13 13899614313340361589
1741750 31 18337674225716062138
17804303 29 12829490320433961629
1813 80 17692251833473259110
18186145 218 18334012757179395950
19765921 60 18411697656461014379
19868273 293 17988923409424780430
20291156 8 9223230745321134917
20361792 2 9943803365827786299
204376 136 18186802491163379179
20645476 183 18339358668581405150
20671657 53 12751245791825749096
20871999 31 16988551447065141829
21499 59 18412825772344063143
21524375 3 18410855460138945163
21713013 43 13758065299356720749
21731228 192 17894352193594983955
23184049 59 17894627041684797236
23402539 116 17774993601125170188
23557571 272 16557885966252971863
23559900 14 17561366193283564332
298252 57 18202560691760254914
3472631 163 18202563986327517557
4028521 119 17846780714954732865
4340502 62 18114473262852369283
474 4 18336547123060049707
633830 44 18410010996606913815
7364860 26 17700693965181141591
83771 10 9223230749695054610
94968 8 10663806477749826557
9981440 41 18128808828214612290

> <PUBCHEM_SHAPE_MULTIPOLES>
338.11
7.28
2.04
1.32
0.26
0.87
0
-5.89
0
-0.06
0
0
0.27
-0.69

> <PUBCHEM_SHAPE_SELFOVERLAP>
731.212

> <PUBCHEM_SHAPE_VOLUME>
187.1

> <PUBCHEM_COORDINATE_TYPE>
2
5
10

> <Energy>
42.8498

> <minimizedAffinity>
-7.91876

> <CNNscore>
0.9074690342

> <CNNaffinity>
6.9432587624

> <CNN_VS>
6.3007922173

> <CNNaffinity_variance>
0.4784329832

$$$$
6623


 19 20  0  0  0  0  0  0  0  0999 V2000
   -4.6189   -2.7313   22.3903 C   0  0  0  0  0  0  0  0  0  0  0  0
   -5.4192   -1.4265   22.6552 C   0  0  0  0  0  0  0  0  0  0  0  0
   -4.0057   -3.1228   23.7624 C   0  0  0  0  0  0  0  0  0  0  0  0
   -0.2104   -2.0058   18.8087 O   0  0  0  0  0  0  0  0  0  0  0  0
   -3.4387   -2.5481   21.4058 C   0  0  0  0  0  0  0  0  0  0  0  0
   -2.1541   -2.2447   21.9064 C   0  0  0  0  0  0  0  0  0  0  0  0
   -3.5820   -2.6671   20.0127 C   0  0  0  0  0  0  0  0  0  0  0  0
   -1.0633   -2.0579   21.0522 C   0  0  0  0  0  0  0  0  0  0  0  0
   -2.4903   -2.4853   19.1573 C   0  0  0  0  0  0  0  0  0  0  0  0
   -1.2429   -2.1800   19.6815 C   0  0  0  0  0  0  0  0  0  0  0  0
    0.6450   -1.7988   19.1303 H   0  0  0  0  0  0  0  0  0  0  0  0
   -8.2920   -6.5753   20.2684 O   0  0  0  0  0  0  0  0  0  0  0  0
   -5.6287   -3.7687   21.8446 C   0  0  0  0  0  0  0  0  0  0  0  0
   -5.1584   -4.9901   21.3162 C   0  0  0  0  0  0  0  0  0  0  0  0
   -7.0175   -3.5476   21.8349 C   0  0  0  0  0  0  0  0  0  0  0  0
   -6.0348   -5.9401   20.7841 C   0  0  0  0  0  0  0  0  0  0  0  0
   -7.8949   -4.4995   21.3080 C   0  0  0  0  0  0  0  0  0  0  0  0
   -7.3986   -5.6830   20.7823 C   0  0  0  0  0  0  0  0  0  0  0  0
   -7.9898   -7.3846   19.9055 H   0  0  0  0  0  0  0  0  0  0  0  0
  4 10  1  0
  4 11  1  0
 12 18  1  0
 12 19  1  0
  1  5  1  0
  1 13  1  0
  1  2  1  0
  1  3  1  0
  5  6  2  0
  5  7  1  0
 13 14  2  0
 13 15  1  0
  6  8  1  0
 14 16  1  0
  7  9  2  0
 15 17  2  0
  8 10  2  0
 16 18  2  0
  9 10  1  0
 17 18  1  0
M  END
> <PUBCHEM_COMPOUND_CID>
6623

> <PUBCHEM_CONFORMER_RMSD>
0.6

> <PUBCHEM_CONFORMER_DIVERSEORDER>
1
3
2

> <PUBCHEM_MMFF94_PARTIAL_CHARGES>
25
1 -0.53
10 -0.15
11 -0.15
12 -0.15
13 -0.15
14 -0.15
15 -0.15
16 0.08
17 0.08
2 -0.53
24 0.15
25 0.15
26 0.15
27 0.15
28 0.15
29 0.15
3 0.29
30 0.15
31 0.15
32 0.45
33 0.45
4 -0.14
5 -0.14
8 -0.15
9 -0.15

> <PUBCHEM_EFFECTIVE_ROTOR_COUNT>
2

> <PUBCHEM_PHARMACOPHORE_FEATURES>
5
1 1 donor
1 2 donor
3 3 6 7 hydrophobe
6 4 8 10 12 14 16 rings
6 5 9 11 13 15 17 rings

> <PUBCHEM_HEAVY_ATOM_COUNT>
17

> <PUBCHEM_ATOM_DEF_STEREO_COUNT>
0

> <PUBCHEM_ATOM_UDEF_STEREO_COUNT>
0

> <PUBCHEM_BOND_DEF_STEREO_COUNT>
0

> <PUBCHEM_BOND_UDEF_STEREO_COUNT>
0

> <PUBCHEM_ISOTOPIC_ATOM_COUNT>
0

> <PUBCHEM_COMPONENT_COUNT>
1

> <PUBCHEM_CACTVS_TAUTO_COUNT>
3

> <PUBCHEM_CONFORMER_ID>
000019DF00000001

> <PUBCHEM_MMFF94_ENERGY>
64.1206

> <PUBCHEM_FEATURE_SELFOVERLAP>
25.372

> <PUBCHEM_SHAPE_FINGERPRINT>
10465860 228 18265052440146906875
10498660 4 17846494807956907777
10618630 7 8862950471944920352
11046707 91 8574440819802817220
11640471 11 18410569587104953028
12138202 97 17632297942700988494
12251169 10 15719115772587467277
12491281 212 18341893034625719138
12633257 1 15647059291015153984
12788726 201 18049710021441717058
12892183 10 15719384001885322888
13571099 52 18261397711031002503
13764800 53 18340221781019704851
14251764 38 17758668950351880149
14739800 52 17985806350554812304
15061688 2 18410575084673810317
15309172 13 17822005415182549066
15342168 16 18187090559068058613
15375462 189 9295287269996453078
15534591 1 18337673126062282338
15653759 3 15068339003624658237
15775835 57 18410853261110395364
15906896 17 18264490774389428130
16945 1 17917141818369727011
17357779 13 13899614313340361589
1741750 31 18337674225716062138
17804303 29 12829490320433961629
1813 80 17692251833473259110
18186145 218 18334012757179395950
19765921 60 18411697656461014379
19868273 293 17988923409424780430
20291156 8 9223230745321134917
20361792 2 9943803365827786299
204376 136 18186802491163379179
20645476 183 18339358668581405150
20671657 53 12751245791825749096
20871999 31 16988551447065141829
21499 59 18412825772344063143
21524375 3 18410855460138945163
21713013 43 13758065299356720749
21731228 192 17894352193594983955
23184049 59 17894627041684797236
23402539 116 17774993601125170188
23557571 272 16557885966252971863
23559900 14 17561366193283564332
298252 57 18202560691760254914
3472631 163 18202563986327517557
4028521 119 17846780714954732865
4340502 62 18114473262852369283
474 4 18336547123060049707
633830 44 18410010996606913815
7364860 26 17700693965181141591
83771 10 9223230749695054610
94968 8 10663806477749826557
9981440 41 18128808828214612290

> <PUBCHEM_SHAPE_MULTIPOLES>
338.11
7.28
2.04
1.32
0.26
0.87
0
-5.89
0
-0.06
0
0
0.27
-0.69

> <PUBCHEM_SHAPE_SELFOVERLAP>
731.212

> <PUBCHEM_SHAPE_VOLUME>
187.1

> <PUBCHEM_COORDINATE_TYPE>
2
5
10

> <Energy>
42.8498

> <minimizedAffinity>
-7.00940

> <CNNscore>
0.8783238530

> <CNNaffinity>
7.2692513466

> <CNN_VS>
6.3847570419

> <CNNaffinity_variance>
1.0390721560

$$$$
6623


 19 20  0  0  0  0  0  0  0  0999 V2000
   -4.3007   -2.6226   22.4528 C   0  0  0  0  0  0  0  0  0  0  0  0
   -3.6263   -3.2037   23.7259 C   0  0  0  0  0  0  0  0  0  0  0  0
   -4.9339   -1.2773   22.9011 C   0  0  0  0  0  0  0  0  0  0  0  0
   -8.5871   -5.8777   20.4985 O   0  0  0  0  0  0  0  0  0  0  0  0
   -5.4507   -3.5002   21.9024 C   0  0  0  0  0  0  0  0  0  0  0  0
   -6.6484   -3.6223   22.6397 C   0  0  0  0  0  0  0  0  0  0  0  0
   -5.3627   -4.1977   20.6854 C   0  0  0  0  0  0  0  0  0  0  0  0
   -7.7070   -4.4149   22.1864 C   0  0  0  0  0  0  0  0  0  0  0  0
   -6.4231   -4.9871   20.2283 C   0  0  0  0  0  0  0  0  0  0  0  0
   -7.5833   -5.0921   20.9814 C   0  0  0  0  0  0  0  0  0  0  0  0
   -9.3840   -5.9699   20.9827 H   0  0  0  0  0  0  0  0  0  0  0  0
   -0.1408   -1.9120   18.5848 O   0  0  0  0  0  0  0  0  0  0  0  0
   -3.1843   -2.4593   21.3941 C   0  0  0  0  0  0  0  0  0  0  0  0
   -1.8685   -2.1591   21.8073 C   0  0  0  0  0  0  0  0  0  0  0  0
   -3.4201   -2.5832   20.0133 C   0  0  0  0  0  0  0  0  0  0  0  0
   -0.8382   -1.9720   20.8815 C   0  0  0  0  0  0  0  0  0  0  0  0
   -2.3892   -2.4016   19.0871 C   0  0  0  0  0  0  0  0  0  0  0  0
   -1.1105   -2.0922   19.5259 C   0  0  0  0  0  0  0  0  0  0  0  0
    0.7337   -1.7020   18.8476 H   0  0  0  0  0  0  0  0  0  0  0  0
  4 10  1  0
  4 11  1  0
 12 18  1  0
 12 19  1  0
  1  5  1  0
  1 13  1  0
  1  2  1  0
  1  3  1  0
  5  6  2  0
  5  7  1  0
 13 14  2  0
 13 15  1  0
  6  8  1  0
 14 16  1  0
  7  9  2  0
 15 17  2  0
  8 10  2  0
 16 18  2  0
  9 10  1  0
 17 18  1  0
M  END
> <PUBCHEM_COMPOUND_CID>
6623

> <PUBCHEM_CONFORMER_RMSD>
0.6

> <PUBCHEM_CONFORMER_DIVERSEORDER>
1
3
2

> <PUBCHEM_MMFF94_PARTIAL_CHARGES>
25
1 -0.53
10 -0.15
11 -0.15
12 -0.15
13 -0.15
14 -0.15
15 -0.15
16 0.08
17 0.08
2 -0.53
24 0.15
25 0.15
26 0.15
27 0.15
28 0.15
29 0.15
3 0.29
30 0.15
31 0.15
32 0.45
33 0.45
4 -0.14
5 -0.14
8 -0.15
9 -0.15

> <PUBCHEM_EFFECTIVE_ROTOR_COUNT>
2

> <PUBCHEM_PHARMACOPHORE_FEATURES>
5
1 1 donor
1 2 donor
3 3 6 7 hydrophobe
6 4 8 10 12 14 16 rings
6 5 9 11 13 15 17 rings

> <PUBCHEM_HEAVY_ATOM_COUNT>
17

> <PUBCHEM_ATOM_DEF_STEREO_COUNT>
0

> <PUBCHEM_ATOM_UDEF_STEREO_COUNT>
0

> <PUBCHEM_BOND_DEF_STEREO_COUNT>
0

> <PUBCHEM_BOND_UDEF_STEREO_COUNT>
0

> <PUBCHEM_ISOTOPIC_ATOM_COUNT>
0

> <PUBCHEM_COMPONENT_COUNT>
1

> <PUBCHEM_CACTVS_TAUTO_COUNT>
3

> <PUBCHEM_CONFORMER_ID>
000019DF00000001

> <PUBCHEM_MMFF94_ENERGY>
64.1206

> <PUBCHEM_FEATURE_SELFOVERLAP>
25.372

> <PUBCHEM_SHAPE_FINGERPRINT>
10465860 228 18265052440146906875
10498660 4 17846494807956907777
10618630 7 8862950471944920352
11046707 91 8574440819802817220
11640471 11 18410569587104953028
12138202 97 17632297942700988494
12251169 10 15719115772587467277
12491281 212 18341893034625719138
12633257 1 15647059291015153984
12788726 201 18049710021441717058
12892183 10 15719384001885322888
13571099 52 18261397711031002503
13764800 53 18340221781019704851
14251764 38 17758668950351880149
14739800 52 17985806350554812304
15061688 2 18410575084673810317
15309172 13 17822005415182549066
15342168 16 18187090559068058613
15375462 189 9295287269996453078
15534591 1 18337673126062282338
15653759 3 15068339003624658237
15775835 57 18410853261110395364
15906896 17 18264490774389428130
16945 1 17917141818369727011
17357779 13 13899614313340361589
1741750 31 18337674225716062138
17804303 29 12829490320433961629
1813 80 17692251833473259110
18186145 218 18334012757179395950
19765921 60 18411697656461014379
19868273 293 17988923409424780430
20291156 8 9223230745321134917
20361792 2 9943803365827786299
204376 136 18186802491163379179
20645476 183 18339358668581405150
20671657 53 12751245791825749096
20871999 31 16988551447065141829
21499 59 18412825772344063143
21524375 3 18410855460138945163
21713013 43 13758065299356720749
21731228 192 17894352193594983955
23184049 59 17894627041684797236
23402539 116 17774993601125170188
23557571 272 16557885966252971863
23559900 14 17561366193283564332
298252 57 18202560691760254914
3472631 163 18202563986327517557
4028521 119 17846780714954732865
4340502 62 18114473262852369283
474 4 18336547123060049707
633830 44 18410010996606913815
7364860 26 17700693965181141591
83771 10 9223230749695054610
94968 8 10663806477749826557
9981440 41 18128808828214612290

> <PUBCHEM_SHAPE_MULTIPOLES>
338.11
7.28
2.04
1.32
0.26
0.87
0
-5.89
0
-0.06
0
0
0.27
-0.69

> <PUBCHEM_SHAPE_SELFOVERLAP>
731.212

> <PUBCHEM_SHAPE_VOLUME>
187.1

> <PUBCHEM_COORDINATE_TYPE>
2
5
10

> <Energy>
42.8498

> <minimizedAffinity>
-7.58339

> <CNNscore>
0.8776225448

> <CNNaffinity>
7.2442989349

> <CNN_VS>
6.3577599525

> <CNNaffinity_variance>
1.0156837702

$$$$
6623


 19 20  0  0  0  0  0  0  0  0999 V2000
   -4.6990   -5.2149   21.2231 C   0  0  0  0  0  0  0  0  0  0  0  0
   -4.2514   -6.6192   21.7140 C   0  0  0  0  0  0  0  0  0  0  0  0
   -5.5783   -5.4786   19.9705 C   0  0  0  0  0  0  0  0  0  0  0  0
   -0.3934   -1.8780   19.4581 O   0  0  0  0  0  0  0  0  0  0  0  0
   -3.5269   -4.3122   20.7684 C   0  0  0  0  0  0  0  0  0  0  0  0
   -3.6497   -3.5546   19.5835 C   0  0  0  0  0  0  0  0  0  0  0  0
   -2.3224   -4.2072   21.4850 C   0  0  0  0  0  0  0  0  0  0  0  0
   -2.6110   -2.7367   19.1292 C   0  0  0  0  0  0  0  0  0  0  0  0
   -1.2842   -3.3853   21.0341 C   0  0  0  0  0  0  0  0  0  0  0  0
   -1.4344   -2.6603   19.8611 C   0  0  0  0  0  0  0  0  0  0  0  0
   -0.4626   -1.3755   18.6703 H   0  0  0  0  0  0  0  0  0  0  0  0
   -7.6246   -2.8868   25.5581 O   0  0  0  0  0  0  0  0  0  0  0  0
   -5.4696   -4.5600   22.3940 C   0  0  0  0  0  0  0  0  0  0  0  0
   -5.7057   -5.2975   23.5740 C   0  0  0  0  0  0  0  0  0  0  0  0
   -5.9690   -3.2466   22.3371 C   0  0  0  0  0  0  0  0  0  0  0  0
   -6.4252   -4.7542   24.6421 C   0  0  0  0  0  0  0  0  0  0  0  0
   -6.6839   -2.7006   23.4069 C   0  0  0  0  0  0  0  0  0  0  0  0
   -6.9116   -3.4579   24.5462 C   0  0  0  0  0  0  0  0  0  0  0  0
   -7.7961   -3.3712   26.3416 H   0  0  0  0  0  0  0  0  0  0  0  0
  4 10  1  0
  4 11  1  0
 12 18  1  0
 12 19  1  0
  1  5  1  0
  1 13  1  0
  1  2  1  0
  1  3  1  0
  5  6  2  0
  5  7  1  0
 13 14  2  0
 13 15  1  0
  6  8  1  0
 14 16  1  0
  7  9  2  0
 15 17  2  0
  8 10  2  0
 16 18  2  0
  9 10  1  0
 17 18  1  0
M  END
> <PUBCHEM_COMPOUND_CID>
6623

> <PUBCHEM_CONFORMER_RMSD>
0.6

> <PUBCHEM_CONFORMER_DIVERSEORDER>
1
3
2

> <PUBCHEM_MMFF94_PARTIAL_CHARGES>
25
1 -0.53
10 -0.15
11 -0.15
12 -0.15
13 -0.15
14 -0.15
15 -0.15
16 0.08
17 0.08
2 -0.53
24 0.15
25 0.15
26 0.15
27 0.15
28 0.15
29 0.15
3 0.29
30 0.15
31 0.15
32 0.45
33 0.45
4 -0.14
5 -0.14
8 -0.15
9 -0.15

> <PUBCHEM_EFFECTIVE_ROTOR_COUNT>
2

> <PUBCHEM_PHARMACOPHORE_FEATURES>
5
1 1 donor
1 2 donor
3 3 6 7 hydrophobe
6 4 8 10 12 14 16 rings
6 5 9 11 13 15 17 rings

> <PUBCHEM_HEAVY_ATOM_COUNT>
17

> <PUBCHEM_ATOM_DEF_STEREO_COUNT>
0

> <PUBCHEM_ATOM_UDEF_STEREO_COUNT>
0

> <PUBCHEM_BOND_DEF_STEREO_COUNT>
0

> <PUBCHEM_BOND_UDEF_STEREO_COUNT>
0

> <PUBCHEM_ISOTOPIC_ATOM_COUNT>
0

> <PUBCHEM_COMPONENT_COUNT>
1

> <PUBCHEM_CACTVS_TAUTO_COUNT>
3

> <PUBCHEM_CONFORMER_ID>
000019DF00000001

> <PUBCHEM_MMFF94_ENERGY>
64.1206

> <PUBCHEM_FEATURE_SELFOVERLAP>
25.372

> <PUBCHEM_SHAPE_FINGERPRINT>
10465860 228 18265052440146906875
10498660 4 17846494807956907777
10618630 7 8862950471944920352
11046707 91 8574440819802817220
11640471 11 18410569587104953028
12138202 97 17632297942700988494
12251169 10 15719115772587467277
12491281 212 18341893034625719138
12633257 1 15647059291015153984
12788726 201 18049710021441717058
12892183 10 15719384001885322888
13571099 52 18261397711031002503
13764800 53 18340221781019704851
14251764 38 17758668950351880149
14739800 52 17985806350554812304
15061688 2 18410575084673810317
15309172 13 17822005415182549066
15342168 16 18187090559068058613
15375462 189 9295287269996453078
15534591 1 18337673126062282338
15653759 3 15068339003624658237
15775835 57 18410853261110395364
15906896 17 18264490774389428130
16945 1 17917141818369727011
17357779 13 13899614313340361589
1741750 31 18337674225716062138
17804303 29 12829490320433961629
1813 80 17692251833473259110
18186145 218 18334012757179395950
19765921 60 18411697656461014379
19868273 293 17988923409424780430
20291156 8 9223230745321134917
20361792 2 9943803365827786299
204376 136 18186802491163379179
20645476 183 18339358668581405150
20671657 53 12751245791825749096
20871999 31 16988551447065141829
21499 59 18412825772344063143
21524375 3 18410855460138945163
21713013 43 13758065299356720749
21731228 192 17894352193594983955
23184049 59 17894627041684797236
23402539 116 17774993601125170188
23557571 272 16557885966252971863
23559900 14 17561366193283564332
298252 57 18202560691760254914
3472631 163 18202563986327517557
4028521 119 17846780714954732865
4340502 62 18114473262852369283
474 4 18336547123060049707
633830 44 18410010996606913815
7364860 26 17700693965181141591
83771 10 9223230749695054610
94968 8 10663806477749826557
9981440 41 18128808828214612290

> <PUBCHEM_SHAPE_MULTIPOLES>
338.11
7.28
2.04
1.32
0.26
0.87
0
-5.89
0
-0.06
0
0
0.27
-0.69

> <PUBCHEM_SHAPE_SELFOVERLAP>
731.212

> <PUBCHEM_SHAPE_VOLUME>
187.1

> <PUBCHEM_COORDINATE_TYPE>
2
5
10

> <Energy>
42.8498

> <minimizedAffinity>
-7.96672

> <CNNscore>
0.7735627294

> <CNNaffinity>
7.0589656830

> <CNN_VS>
5.4605526924

> <CNNaffinity_variance>
0.7305070758

$$$$
6623


 19 20  0  0  0  0  0  0  0  0999 V2000
   -4.7087   -5.2330   21.2276 C   0  0  0  0  0  0  0  0  0  0  0  0
   -5.5706   -5.5048   19.9641 C   0  0  0  0  0  0  0  0  0  0  0  0
   -4.2492   -6.6323   21.7202 C   0  0  0  0  0  0  0  0  0  0  0  0
   -7.6438   -2.9085   25.5600 O   0  0  0  0  0  0  0  0  0  0  0  0
   -5.4969   -4.5829   22.3902 C   0  0  0  0  0  0  0  0  0  0  0  0
   -5.7069   -5.3098   23.5821 C   0  0  0  0  0  0  0  0  0  0  0  0
   -6.0274   -3.2833   22.3195 C   0  0  0  0  0  0  0  0  0  0  0  0
   -6.4245   -4.7662   24.6517 C   0  0  0  0  0  0  0  0  0  0  0  0
   -6.7413   -2.7365   23.3909 C   0  0  0  0  0  0  0  0  0  0  0  0
   -6.9367   -3.4809   24.5449 C   0  0  0  0  0  0  0  0  0  0  0  0
   -7.7936   -3.3844   26.3531 H   0  0  0  0  0  0  0  0  0  0  0  0
   -0.3960   -1.9051   19.4677 O   0  0  0  0  0  0  0  0  0  0  0  0
   -3.5422   -4.3197   20.7815 C   0  0  0  0  0  0  0  0  0  0  0  0
   -3.6621   -3.5623   19.5964 C   0  0  0  0  0  0  0  0  0  0  0  0
   -2.3395   -4.2134   21.5024 C   0  0  0  0  0  0  0  0  0  0  0  0
   -2.6196   -2.7499   19.1415 C   0  0  0  0  0  0  0  0  0  0  0  0
   -1.2986   -3.3970   21.0510 C   0  0  0  0  0  0  0  0  0  0  0  0
   -1.4431   -2.6777   19.8741 C   0  0  0  0  0  0  0  0  0  0  0  0
   -0.4609   -1.4065   18.6770 H   0  0  0  0  0  0  0  0  0  0  0  0
  4 10  1  0
  4 11  1  0
 12 18  1  0
 12 19  1  0
  1  5  1  0
  1 13  1  0
  1  2  1  0
  1  3  1  0
  5  6  2  0
  5  7  1  0
 13 14  2  0
 13 15  1  0
  6  8  1  0
 14 16  1  0
  7  9  2  0
 15 17  2  0
  8 10  2  0
 16 18  2  0
  9 10  1  0
 17 18  1  0
M  END
> <PUBCHEM_COMPOUND_CID>
6623

> <PUBCHEM_CONFORMER_RMSD>
0.6

> <PUBCHEM_CONFORMER_DIVERSEORDER>
1
3
2

> <PUBCHEM_MMFF94_PARTIAL_CHARGES>
25
1 -0.53
10 -0.15
11 -0.15
12 -0.15
13 -0.15
14 -0.15
15 -0.15
16 0.08
17 0.08
2 -0.53
24 0.15
25 0.15
26 0.15
27 0.15
28 0.15
29 0.15
3 0.29
30 0.15
31 0.15
32 0.45
33 0.45
4 -0.14
5 -0.14
8 -0.15
9 -0.15

> <PUBCHEM_EFFECTIVE_ROTOR_COUNT>
2

> <PUBCHEM_PHARMACOPHORE_FEATURES>
5
1 1 donor
1 2 donor
3 3 6 7 hydrophobe
6 4 8 10 12 14 16 rings
6 5 9 11 13 15 17 rings

> <PUBCHEM_HEAVY_ATOM_COUNT>
17

> <PUBCHEM_ATOM_DEF_STEREO_COUNT>
0

> <PUBCHEM_ATOM_UDEF_STEREO_COUNT>
0

> <PUBCHEM_BOND_DEF_STEREO_COUNT>
0

> <PUBCHEM_BOND_UDEF_STEREO_COUNT>
0

> <PUBCHEM_ISOTOPIC_ATOM_COUNT>
0

> <PUBCHEM_COMPONENT_COUNT>
1

> <PUBCHEM_CACTVS_TAUTO_COUNT>
3

> <PUBCHEM_CONFORMER_ID>
000019DF00000001

> <PUBCHEM_MMFF94_ENERGY>
64.1206

> <PUBCHEM_FEATURE_SELFOVERLAP>
25.372

> <PUBCHEM_SHAPE_FINGERPRINT>
10465860 228 18265052440146906875
10498660 4 17846494807956907777
10618630 7 8862950471944920352
11046707 91 8574440819802817220
11640471 11 18410569587104953028
12138202 97 17632297942700988494
12251169 10 15719115772587467277
12491281 212 18341893034625719138
12633257 1 15647059291015153984
12788726 201 18049710021441717058
12892183 10 15719384001885322888
13571099 52 18261397711031002503
13764800 53 18340221781019704851
14251764 38 17758668950351880149
14739800 52 17985806350554812304
15061688 2 18410575084673810317
15309172 13 17822005415182549066
15342168 16 18187090559068058613
15375462 189 9295287269996453078
15534591 1 18337673126062282338
15653759 3 15068339003624658237
15775835 57 18410853261110395364
15906896 17 18264490774389428130
16945 1 17917141818369727011
17357779 13 13899614313340361589
1741750 31 18337674225716062138
17804303 29 12829490320433961629
1813 80 17692251833473259110
18186145 218 18334012757179395950
19765921 60 18411697656461014379
19868273 293 17988923409424780430
20291156 8 9223230745321134917
20361792 2 9943803365827786299
204376 136 18186802491163379179
20645476 183 18339358668581405150
20671657 53 12751245791825749096
20871999 31 16988551447065141829
21499 59 18412825772344063143
21524375 3 18410855460138945163
21713013 43 13758065299356720749
21731228 192 17894352193594983955
23184049 59 17894627041684797236
23402539 116 17774993601125170188
23557571 272 16557885966252971863
23559900 14 17561366193283564332
298252 57 18202560691760254914
3472631 163 18202563986327517557
4028521 119 17846780714954732865
4340502 62 18114473262852369283
474 4 18336547123060049707
633830 44 18410010996606913815
7364860 26 17700693965181141591
83771 10 9223230749695054610
94968 8 10663806477749826557
9981440 41 18128808828214612290

> <PUBCHEM_SHAPE_MULTIPOLES>
338.11
7.28
2.04
1.32
0.26
0.87
0
-5.89
0
-0.06
0
0
0.27
-0.69

> <PUBCHEM_SHAPE_SELFOVERLAP>
731.212

> <PUBCHEM_SHAPE_VOLUME>
187.1

> <PUBCHEM_COORDINATE_TYPE>
2
5
10

> <Energy>
42.8498

> <minimizedAffinity>
-7.96430

> <CNNscore>
0.7718236446

> <CNNaffinity>
7.0403904915

> <CNN_VS>
5.4339399338

> <CNNaffinity_variance>
0.7132824063

$$$$
