6013


 22 25  0  0  0  0  0  0  0  0999 V2000
  109.0876   11.4457   22.4920 O   0  0  0  0  0  0  0  0  0  0  0  0
  101.6301   19.1033   24.3869 O   0  0  0  0  0  0  0  0  0  0  0  0
  105.7929   13.0212   22.3827 C   0  0  0  0  0  0  0  0  0  0  0  0
  107.1101   12.7853   23.1469 C   0  0  0  0  0  0  0  0  0  0  0  0
  104.7004   13.6305   23.2665 C   0  0  0  0  0  0  0  0  0  0  0  0
  105.2033   15.0044   23.8118 C   0  0  0  0  0  0  0  0  0  0  0  0
  104.1301   15.7382   24.7038 C   0  0  0  0  0  0  0  0  0  0  0  0
  107.6378   14.1485   23.6127 C   0  0  0  0  0  0  0  0  0  0  0  0
  106.6018   14.8874   24.4791 C   0  0  0  0  0  0  0  0  0  0  0  0
  107.9364   12.1236   22.0253 C   0  0  0  0  0  0  0  0  0  0  0  0
  105.5339   11.6820   21.6972 C   0  0  0  0  0  0  0  0  0  0  0  0
  103.3916   13.8185   22.4890 C   0  0  0  0  0  0  0  0  0  0  0  0
  106.9395   11.1670   21.3392 C   0  0  0  0  0  0  0  0  0  0  0  0
  102.7822   15.7578   23.9693 C   0  0  0  0  0  0  0  0  0  0  0  0
  102.3183   14.4544   23.3627 C   0  0  0  0  0  0  0  0  0  0  0  0
  106.9915   11.8330   24.3627 C   0  0  0  0  0  0  0  0  0  0  0  0
  104.6181   17.1951   24.9582 C   0  0  0  0  0  0  0  0  0  0  0  0
  103.9263   15.0341   26.0639 C   0  0  0  0  0  0  0  0  0  0  0  0
  103.5300   18.1243   25.4756 C   0  0  0  0  0  0  0  0  0  0  0  0
  102.0047   16.8490   23.8632 C   0  0  0  0  0  0  0  0  0  0  0  0
  102.3503   18.1213   24.5398 C   0  0  0  0  0  0  0  0  0  0  0  0
  109.6870   12.0799   22.9154 H   0  0  0  0  0  0  0  0  0  0  0  0
  1 10  1  0
  1 22  1  0
  2 21  2  0
  3  4  1  0
  3  5  1  0
  3 11  1  0
  4  8  1  0
  4 10  1  0
  4 16  1  0
  5  6  1  0
  5 12  1  0
  6  7  1  0
  6  9  1  0
  7 14  1  0
  7 17  1  0
  7 18  1  0
  8  9  1  0
 10 13  1  0
 11 13  1  0
 12 15  1  0
 14 15  1  0
 14 20  2  0
 17 19  1  0
 19 21  1  0
 20 21  1  0
M  END
> <PUBCHEM_COMPOUND_CID>
6013

> <PUBCHEM_CONFORMER_RMSD>
0.6

> <PUBCHEM_CONFORMER_DIVERSEORDER>
1

> <PUBCHEM_MMFF94_PARTIAL_CHARGES>
11
1 -0.68
10 0.28
14 -0.28
15 0.14
19 0.06
2 -0.57
20 -0.14
21 0.49
48 0.15
49 0.4
7 0.14

> <PUBCHEM_EFFECTIVE_ROTOR_COUNT>
1.8

> <PUBCHEM_PHARMACOPHORE_FEATURES>
7
1 1 acceptor
1 1 donor
1 2 acceptor
5 3 4 10 11 13 rings
6 3 4 5 6 8 9 rings
6 5 6 7 12 14 15 rings
6 7 14 17 19 20 21 rings

> <PUBCHEM_HEAVY_ATOM_COUNT>
21

> <PUBCHEM_ATOM_DEF_STEREO_COUNT>
6

> <PUBCHEM_ATOM_UDEF_STEREO_COUNT>
0

> <PUBCHEM_BOND_DEF_STEREO_COUNT>
0

> <PUBCHEM_BOND_UDEF_STEREO_COUNT>
0

> <PUBCHEM_ISOTOPIC_ATOM_COUNT>
0

> <PUBCHEM_COMPONENT_COUNT>
1

> <PUBCHEM_CACTVS_TAUTO_COUNT>
5

> <PUBCHEM_CONFORMER_ID>
0000177D00000001

> <PUBCHEM_MMFF94_ENERGY>
67.5416

> <PUBCHEM_FEATURE_SELFOVERLAP>
35.618

> <PUBCHEM_SHAPE_FINGERPRINT>
10062212 137 18336825385559829163
10759866 29 17897457309511876188
10967382 1 18412548682291571786
11132069 177 18410018732180467827
11370993 70 18410569557056084199
11578080 2 16735503067342509174
12011746 2 18412547592124142406
12236239 1 18040155136873436768
12251169 10 18410008845387181634
12403259 226 18410006624652160988
12403259 415 18408880746209696412
12403260 363 18340481291412090749
12403814 3 17894914044785590877
12507557 5 18408881845467772304
12633257 1 18341888602346167976
12839892 36 18340758291450253690
13140716 1 18339643467883616216
13214271 11 18272369780793716703
13224815 77 18411987974316295335
13675066 3 18187087269080573787
14178342 30 18338527339117458393
14223421 5 18341052895787930134
14341114 176 18411985737129035682
14787075 74 18339640165090922602
14790565 3 18050014594947639924
15163728 17 14691189929019880809
15196674 1 18411420639180230811
15375358 24 18413110541697833299
15536298 74 18272376330249831326
15788980 27 17167859768361771669
16945 1 18267308633664624303
17349148 13 18260547844245275310
17492 89 18410012108956776131
1813 80 17168144512515476742
18186145 218 18411423903503023558
18522853 276 18412546492037592553
19050596 39 18410858775858764633
19784866 9 18412265021155473810
200 152 18202274819337965375
20715895 44 18116989984517715477
21033648 29 18262779827106925672
21267235 1 18410302427354843602
21421861 104 18042966467372004754
21637258 2 15647319828885568714
22182313 1 18189614934485510503
22854114 111 18409735070690792279
22854114 59 18343022189864506130
23402539 116 18272925046486162621
23557571 272 18059303161493107767
23559900 14 18343023255612643838
26918003 58 18409728456589012017
2748010 2 18410304609229794207
2838139 119 14835541671104639250
296302 2 16343984710473737934
335352 9 18411702045432157758
34934 24 18341610383102269379
350125 39 18410857681354741304
351380 180 18413386540454065762
3545911 37 18411703166439727155
42 15 18260548935156425576
5104073 3 18410294747868572393
59755656 215 18339930311854621398
633830 44 17988931080225984300
69090 78 18413386557386229218
7364860 26 18200601276388112774
9709674 26 18341058445033876271

> <PUBCHEM_SHAPE_MULTIPOLES>
420.43
9.43
2.1
1.06
1.16
0.42
0.43
-0.59
-2.56
-0.22
0.02
0.09
-0.22
0.11

> <PUBCHEM_SHAPE_SELFOVERLAP>
902.625

> <PUBCHEM_SHAPE_VOLUME>
230.1

> <PUBCHEM_COORDINATE_TYPE>
2
5
10

> <Energy>
71.9966

> <minimizedAffinity>
-10.54021

> <CNNscore>
0.8531152606

> <CNNaffinity>
7.9848456383

> <CNN_VS>
6.8119935989

> <CNNaffinity_variance>
0.7711585164

$$$$
6013


 22 25  0  0  0  0  0  0  0  0999 V2000
  102.2418   17.7465   26.7036 O   0  0  0  0  0  0  0  0  0  0  0  0
  107.9834   10.5482   20.9537 O   0  0  0  0  0  0  0  0  0  0  0  0
  103.0953   15.6681   23.8224 C   0  0  0  0  0  0  0  0  0  0  0  0
  103.5735   16.5019   25.0269 C   0  0  0  0  0  0  0  0  0  0  0  0
  104.2290   15.3394   22.8465 C   0  0  0  0  0  0  0  0  0  0  0  0
  105.3232   14.5228   23.6041 C   0  0  0  0  0  0  0  0  0  0  0  0
  106.5215   14.0952   22.6729 C   0  0  0  0  0  0  0  0  0  0  0  0
  104.5911   15.6621   25.8098 C   0  0  0  0  0  0  0  0  0  0  0  0
  105.7670   15.2256   24.9171 C   0  0  0  0  0  0  0  0  0  0  0  0
  102.2227   16.7086   25.7419 C   0  0  0  0  0  0  0  0  0  0  0  0
  101.8785   16.4387   23.3163 C   0  0  0  0  0  0  0  0  0  0  0  0
  103.7159   14.5421   21.6407 C   0  0  0  0  0  0  0  0  0  0  0  0
  101.2321   16.9995   24.5957 C   0  0  0  0  0  0  0  0  0  0  0  0
  105.9696   13.4545   21.3916 C   0  0  0  0  0  0  0  0  0  0  0  0
  104.8521   14.1896   20.6896 C   0  0  0  0  0  0  0  0  0  0  0  0
  104.2034   17.8683   24.6591 C   0  0  0  0  0  0  0  0  0  0  0  0
  107.3996   13.0671   23.4457 C   0  0  0  0  0  0  0  0  0  0  0  0
  107.4005   15.2996   22.2680 C   0  0  0  0  0  0  0  0  0  0  0  0
  108.3610   12.2918   22.5569 C   0  0  0  0  0  0  0  0  0  0  0  0
  106.4386   12.3096   20.8667 C   0  0  0  0  0  0  0  0  0  0  0  0
  107.6106   11.6099   21.4437 C   0  0  0  0  0  0  0  0  0  0  0  0
  102.8747   17.5261   27.4048 H   0  0  0  0  0  0  0  0  0  0  0  0
  1 10  1  0
  1 22  1  0
  2 21  2  0
  3  4  1  0
  3  5  1  0
  3 11  1  0
  4  8  1  0
  4 10  1  0
  4 16  1  0
  5  6  1  0
  5 12  1  0
  6  7  1  0
  6  9  1  0
  7 14  1  0
  7 17  1  0
  7 18  1  0
  8  9  1  0
 10 13  1  0
 11 13  1  0
 12 15  1  0
 14 15  1  0
 14 20  2  0
 17 19  1  0
 19 21  1  0
 20 21  1  0
M  END
> <PUBCHEM_COMPOUND_CID>
6013

> <PUBCHEM_CONFORMER_RMSD>
0.6

> <PUBCHEM_CONFORMER_DIVERSEORDER>
1

> <PUBCHEM_MMFF94_PARTIAL_CHARGES>
11
1 -0.68
10 0.28
14 -0.28
15 0.14
19 0.06
2 -0.57
20 -0.14
21 0.49
48 0.15
49 0.4
7 0.14

> <PUBCHEM_EFFECTIVE_ROTOR_COUNT>
1.8

> <PUBCHEM_PHARMACOPHORE_FEATURES>
7
1 1 acceptor
1 1 donor
1 2 acceptor
5 3 4 10 11 13 rings
6 3 4 5 6 8 9 rings
6 5 6 7 12 14 15 rings
6 7 14 17 19 20 21 rings

> <PUBCHEM_HEAVY_ATOM_COUNT>
21

> <PUBCHEM_ATOM_DEF_STEREO_COUNT>
6

> <PUBCHEM_ATOM_UDEF_STEREO_COUNT>
0

> <PUBCHEM_BOND_DEF_STEREO_COUNT>
0

> <PUBCHEM_BOND_UDEF_STEREO_COUNT>
0

> <PUBCHEM_ISOTOPIC_ATOM_COUNT>
0

> <PUBCHEM_COMPONENT_COUNT>
1

> <PUBCHEM_CACTVS_TAUTO_COUNT>
5

> <PUBCHEM_CONFORMER_ID>
0000177D00000001

> <PUBCHEM_MMFF94_ENERGY>
67.5416

> <PUBCHEM_FEATURE_SELFOVERLAP>
35.618

> <PUBCHEM_SHAPE_FINGERPRINT>
10062212 137 18336825385559829163
10759866 29 17897457309511876188
10967382 1 18412548682291571786
11132069 177 18410018732180467827
11370993 70 18410569557056084199
11578080 2 16735503067342509174
12011746 2 18412547592124142406
12236239 1 18040155136873436768
12251169 10 18410008845387181634
12403259 226 18410006624652160988
12403259 415 18408880746209696412
12403260 363 18340481291412090749
12403814 3 17894914044785590877
12507557 5 18408881845467772304
12633257 1 18341888602346167976
12839892 36 18340758291450253690
13140716 1 18339643467883616216
13214271 11 18272369780793716703
13224815 77 18411987974316295335
13675066 3 18187087269080573787
14178342 30 18338527339117458393
14223421 5 18341052895787930134
14341114 176 18411985737129035682
14787075 74 18339640165090922602
14790565 3 18050014594947639924
15163728 17 14691189929019880809
15196674 1 18411420639180230811
15375358 24 18413110541697833299
15536298 74 18272376330249831326
15788980 27 17167859768361771669
16945 1 18267308633664624303
17349148 13 18260547844245275310
17492 89 18410012108956776131
1813 80 17168144512515476742
18186145 218 18411423903503023558
18522853 276 18412546492037592553
19050596 39 18410858775858764633
19784866 9 18412265021155473810
200 152 18202274819337965375
20715895 44 18116989984517715477
21033648 29 18262779827106925672
21267235 1 18410302427354843602
21421861 104 18042966467372004754
21637258 2 15647319828885568714
22182313 1 18189614934485510503
22854114 111 18409735070690792279
22854114 59 18343022189864506130
23402539 116 18272925046486162621
23557571 272 18059303161493107767
23559900 14 18343023255612643838
26918003 58 18409728456589012017
2748010 2 18410304609229794207
2838139 119 14835541671104639250
296302 2 16343984710473737934
335352 9 18411702045432157758
34934 24 18341610383102269379
350125 39 18410857681354741304
351380 180 18413386540454065762
3545911 37 18411703166439727155
42 15 18260548935156425576
5104073 3 18410294747868572393
59755656 215 18339930311854621398
633830 44 17988931080225984300
69090 78 18413386557386229218
7364860 26 18200601276388112774
9709674 26 18341058445033876271

> <PUBCHEM_SHAPE_MULTIPOLES>
420.43
9.43
2.1
1.06
1.16
0.42
0.43
-0.59
-2.56
-0.22
0.02
0.09
-0.22
0.11

> <PUBCHEM_SHAPE_SELFOVERLAP>
902.625

> <PUBCHEM_SHAPE_VOLUME>
230.1

> <PUBCHEM_COORDINATE_TYPE>
2
5
10

> <Energy>
71.9966

> <minimizedAffinity>
-9.35390

> <CNNscore>
0.8017129302

> <CNNaffinity>
7.7551903725

> <CNN_VS>
6.2174363136

> <CNNaffinity_variance>
0.9092825055

$$$$
6013


 22 25  0  0  0  0  0  0  0  0999 V2000
  100.2243   16.5484   23.5206 O   0  0  0  0  0  0  0  0  0  0  0  0
  110.5307   13.3315   22.3930 O   0  0  0  0  0  0  0  0  0  0  0  0
  103.7436   16.1807   24.4309 C   0  0  0  0  0  0  0  0  0  0  0  0
  102.4959   15.5883   23.7474 C   0  0  0  0  0  0  0  0  0  0  0  0
  104.8480   15.1411   24.6437 C   0  0  0  0  0  0  0  0  0  0  0  0
  105.2751   14.5703   23.2545 C   0  0  0  0  0  0  0  0  0  0  0  0
  106.4434   13.5168   23.3592 C   0  0  0  0  0  0  0  0  0  0  0  0
  102.9075   15.0998   22.3525 C   0  0  0  0  0  0  0  0  0  0  0  0
  104.0543   14.0755   22.4300 C   0  0  0  0  0  0  0  0  0  0  0  0
  101.5903   16.8366   23.7516 C   0  0  0  0  0  0  0  0  0  0  0  0
  103.1717   16.9162   25.6404 C   0  0  0  0  0  0  0  0  0  0  0  0
  106.0603   15.7508   25.3589 C   0  0  0  0  0  0  0  0  0  0  0  0
  101.8227   17.4641   25.1415 C   0  0  0  0  0  0  0  0  0  0  0  0
  107.5721   14.0900   24.2275 C   0  0  0  0  0  0  0  0  0  0  0  0
  107.1685   14.7216   25.5391 C   0  0  0  0  0  0  0  0  0  0  0  0
  101.8212   14.4301   24.5235 C   0  0  0  0  0  0  0  0  0  0  0  0
  106.9721   13.2273   21.9232 C   0  0  0  0  0  0  0  0  0  0  0  0
  105.9734   12.1900   23.9963 C   0  0  0  0  0  0  0  0  0  0  0  0
  108.3248   12.5311   21.8969 C   0  0  0  0  0  0  0  0  0  0  0  0
  108.8728   14.0371   23.8930 C   0  0  0  0  0  0  0  0  0  0  0  0
  109.3373   13.3246   22.6795 C   0  0  0  0  0  0  0  0  0  0  0  0
  100.1209   16.1565   22.6394 H   0  0  0  0  0  0  0  0  0  0  0  0
  1 10  1  0
  1 22  1  0
  2 21  2  0
  3  4  1  0
  3  5  1  0
  3 11  1  0
  4  8  1  0
  4 10  1  0
  4 16  1  0
  5  6  1  0
  5 12  1  0
  6  7  1  0
  6  9  1  0
  7 14  1  0
  7 17  1  0
  7 18  1  0
  8  9  1  0
 10 13  1  0
 11 13  1  0
 12 15  1  0
 14 15  1  0
 14 20  2  0
 17 19  1  0
 19 21  1  0
 20 21  1  0
M  END
> <PUBCHEM_COMPOUND_CID>
6013

> <PUBCHEM_CONFORMER_RMSD>
0.6

> <PUBCHEM_CONFORMER_DIVERSEORDER>
1

> <PUBCHEM_MMFF94_PARTIAL_CHARGES>
11
1 -0.68
10 0.28
14 -0.28
15 0.14
19 0.06
2 -0.57
20 -0.14
21 0.49
48 0.15
49 0.4
7 0.14

> <PUBCHEM_EFFECTIVE_ROTOR_COUNT>
1.8

> <PUBCHEM_PHARMACOPHORE_FEATURES>
7
1 1 acceptor
1 1 donor
1 2 acceptor
5 3 4 10 11 13 rings
6 3 4 5 6 8 9 rings
6 5 6 7 12 14 15 rings
6 7 14 17 19 20 21 rings

> <PUBCHEM_HEAVY_ATOM_COUNT>
21

> <PUBCHEM_ATOM_DEF_STEREO_COUNT>
6

> <PUBCHEM_ATOM_UDEF_STEREO_COUNT>
0

> <PUBCHEM_BOND_DEF_STEREO_COUNT>
0

> <PUBCHEM_BOND_UDEF_STEREO_COUNT>
0

> <PUBCHEM_ISOTOPIC_ATOM_COUNT>
0

> <PUBCHEM_COMPONENT_COUNT>
1

> <PUBCHEM_CACTVS_TAUTO_COUNT>
5

> <PUBCHEM_CONFORMER_ID>
0000177D00000001

> <PUBCHEM_MMFF94_ENERGY>
67.5416

> <PUBCHEM_FEATURE_SELFOVERLAP>
35.618

> <PUBCHEM_SHAPE_FINGERPRINT>
10062212 137 18336825385559829163
10759866 29 17897457309511876188
10967382 1 18412548682291571786
11132069 177 18410018732180467827
11370993 70 18410569557056084199
11578080 2 16735503067342509174
12011746 2 18412547592124142406
12236239 1 18040155136873436768
12251169 10 18410008845387181634
12403259 226 18410006624652160988
12403259 415 18408880746209696412
12403260 363 18340481291412090749
12403814 3 17894914044785590877
12507557 5 18408881845467772304
12633257 1 18341888602346167976
12839892 36 18340758291450253690
13140716 1 18339643467883616216
13214271 11 18272369780793716703
13224815 77 18411987974316295335
13675066 3 18187087269080573787
14178342 30 18338527339117458393
14223421 5 18341052895787930134
14341114 176 18411985737129035682
14787075 74 18339640165090922602
14790565 3 18050014594947639924
15163728 17 14691189929019880809
15196674 1 18411420639180230811
15375358 24 18413110541697833299
15536298 74 18272376330249831326
15788980 27 17167859768361771669
16945 1 18267308633664624303
17349148 13 18260547844245275310
17492 89 18410012108956776131
1813 80 17168144512515476742
18186145 218 18411423903503023558
18522853 276 18412546492037592553
19050596 39 18410858775858764633
19784866 9 18412265021155473810
200 152 18202274819337965375
20715895 44 18116989984517715477
21033648 29 18262779827106925672
21267235 1 18410302427354843602
21421861 104 18042966467372004754
21637258 2 15647319828885568714
22182313 1 18189614934485510503
22854114 111 18409735070690792279
22854114 59 18343022189864506130
23402539 116 18272925046486162621
23557571 272 18059303161493107767
23559900 14 18343023255612643838
26918003 58 18409728456589012017
2748010 2 18410304609229794207
2838139 119 14835541671104639250
296302 2 16343984710473737934
335352 9 18411702045432157758
34934 24 18341610383102269379
350125 39 18410857681354741304
351380 180 18413386540454065762
3545911 37 18411703166439727155
42 15 18260548935156425576
5104073 3 18410294747868572393
59755656 215 18339930311854621398
633830 44 17988931080225984300
69090 78 18413386557386229218
7364860 26 18200601276388112774
9709674 26 18341058445033876271

> <PUBCHEM_SHAPE_MULTIPOLES>
420.43
9.43
2.1
1.06
1.16
0.42
0.43
-0.59
-2.56
-0.22
0.02
0.09
-0.22
0.11

> <PUBCHEM_SHAPE_SELFOVERLAP>
902.625

> <PUBCHEM_SHAPE_VOLUME>
230.1

> <PUBCHEM_COORDINATE_TYPE>
2
5
10

> <Energy>
71.9966

> <minimizedAffinity>
-8.77891

> <CNNscore>
0.7762563229

> <CNNaffinity>
7.5079402924

> <CNN_VS>
5.8280858994

> <CNNaffinity_variance>
0.4403634965

$$$$
6013


 22 25  0  0  0  0  0  0  0  0999 V2000
  100.9267   18.0212   25.7117 O   0  0  0  0  0  0  0  0  0  0  0  0
  108.7066   11.2583   22.3088 O   0  0  0  0  0  0  0  0  0  0  0  0
  102.4387   15.4123   23.6485 C   0  0  0  0  0  0  0  0  0  0  0  0
  102.6138   16.7127   24.4567 C   0  0  0  0  0  0  0  0  0  0  0  0
  103.6449   15.1072   22.7554 C   0  0  0  0  0  0  0  0  0  0  0  0
  104.9117   14.9575   23.6557 C   0  0  0  0  0  0  0  0  0  0  0  0
  106.2078   14.5984   22.8329 C   0  0  0  0  0  0  0  0  0  0  0  0
  103.8138   16.5290   25.3947 C   0  0  0  0  0  0  0  0  0  0  0  0
  105.0901   16.1688   24.6127 C   0  0  0  0  0  0  0  0  0  0  0  0
  101.2439   16.7556   25.1639 C   0  0  0  0  0  0  0  0  0  0  0  0
  101.0617   15.5729   23.0092 C   0  0  0  0  0  0  0  0  0  0  0  0
  103.4256   13.8288   21.9363 C   0  0  0  0  0  0  0  0  0  0  0  0
  100.2431   16.3311   24.0695 C   0  0  0  0  0  0  0  0  0  0  0  0
  105.9069   13.4224   21.8930 C   0  0  0  0  0  0  0  0  0  0  0  0
  104.6406   13.5119   21.0743 C   0  0  0  0  0  0  0  0  0  0  0  0
  102.8175   17.9858   23.5984 C   0  0  0  0  0  0  0  0  0  0  0  0
  107.3311   14.2029   23.8364 C   0  0  0  0  0  0  0  0  0  0  0  0
  106.6985   15.7859   21.9750 C   0  0  0  0  0  0  0  0  0  0  0  0
  108.5037   13.4799   23.1900 C   0  0  0  0  0  0  0  0  0  0  0  0
  106.7100   12.3539   21.7523 C   0  0  0  0  0  0  0  0  0  0  0  0
  108.0211   12.2683   22.4375 C   0  0  0  0  0  0  0  0  0  0  0  0
  101.5773   18.2508   26.3935 H   0  0  0  0  0  0  0  0  0  0  0  0
  1 10  1  0
  1 22  1  0
  2 21  2  0
  3  4  1  0
  3  5  1  0
  3 11  1  0
  4  8  1  0
  4 10  1  0
  4 16  1  0
  5  6  1  0
  5 12  1  0
  6  7  1  0
  6  9  1  0
  7 14  1  0
  7 17  1  0
  7 18  1  0
  8  9  1  0
 10 13  1  0
 11 13  1  0
 12 15  1  0
 14 15  1  0
 14 20  2  0
 17 19  1  0
 19 21  1  0
 20 21  1  0
M  END
> <PUBCHEM_COMPOUND_CID>
6013

> <PUBCHEM_CONFORMER_RMSD>
0.6

> <PUBCHEM_CONFORMER_DIVERSEORDER>
1

> <PUBCHEM_MMFF94_PARTIAL_CHARGES>
11
1 -0.68
10 0.28
14 -0.28
15 0.14
19 0.06
2 -0.57
20 -0.14
21 0.49
48 0.15
49 0.4
7 0.14

> <PUBCHEM_EFFECTIVE_ROTOR_COUNT>
1.8

> <PUBCHEM_PHARMACOPHORE_FEATURES>
7
1 1 acceptor
1 1 donor
1 2 acceptor
5 3 4 10 11 13 rings
6 3 4 5 6 8 9 rings
6 5 6 7 12 14 15 rings
6 7 14 17 19 20 21 rings

> <PUBCHEM_HEAVY_ATOM_COUNT>
21

> <PUBCHEM_ATOM_DEF_STEREO_COUNT>
6

> <PUBCHEM_ATOM_UDEF_STEREO_COUNT>
0

> <PUBCHEM_BOND_DEF_STEREO_COUNT>
0

> <PUBCHEM_BOND_UDEF_STEREO_COUNT>
0

> <PUBCHEM_ISOTOPIC_ATOM_COUNT>
0

> <PUBCHEM_COMPONENT_COUNT>
1

> <PUBCHEM_CACTVS_TAUTO_COUNT>
5

> <PUBCHEM_CONFORMER_ID>
0000177D00000001

> <PUBCHEM_MMFF94_ENERGY>
67.5416

> <PUBCHEM_FEATURE_SELFOVERLAP>
35.618

> <PUBCHEM_SHAPE_FINGERPRINT>
10062212 137 18336825385559829163
10759866 29 17897457309511876188
10967382 1 18412548682291571786
11132069 177 18410018732180467827
11370993 70 18410569557056084199
11578080 2 16735503067342509174
12011746 2 18412547592124142406
12236239 1 18040155136873436768
12251169 10 18410008845387181634
12403259 226 18410006624652160988
12403259 415 18408880746209696412
12403260 363 18340481291412090749
12403814 3 17894914044785590877
12507557 5 18408881845467772304
12633257 1 18341888602346167976
12839892 36 18340758291450253690
13140716 1 18339643467883616216
13214271 11 18272369780793716703
13224815 77 18411987974316295335
13675066 3 18187087269080573787
14178342 30 18338527339117458393
14223421 5 18341052895787930134
14341114 176 18411985737129035682
14787075 74 18339640165090922602
14790565 3 18050014594947639924
15163728 17 14691189929019880809
15196674 1 18411420639180230811
15375358 24 18413110541697833299
15536298 74 18272376330249831326
15788980 27 17167859768361771669
16945 1 18267308633664624303
17349148 13 18260547844245275310
17492 89 18410012108956776131
1813 80 17168144512515476742
18186145 218 18411423903503023558
18522853 276 18412546492037592553
19050596 39 18410858775858764633
19784866 9 18412265021155473810
200 152 18202274819337965375
20715895 44 18116989984517715477
21033648 29 18262779827106925672
21267235 1 18410302427354843602
21421861 104 18042966467372004754
21637258 2 15647319828885568714
22182313 1 18189614934485510503
22854114 111 18409735070690792279
22854114 59 18343022189864506130
23402539 116 18272925046486162621
23557571 272 18059303161493107767
23559900 14 18343023255612643838
26918003 58 18409728456589012017
2748010 2 18410304609229794207
2838139 119 14835541671104639250
296302 2 16343984710473737934
335352 9 18411702045432157758
34934 24 18341610383102269379
350125 39 18410857681354741304
351380 180 18413386540454065762
3545911 37 18411703166439727155
42 15 18260548935156425576
5104073 3 18410294747868572393
59755656 215 18339930311854621398
633830 44 17988931080225984300
69090 78 18413386557386229218
7364860 26 18200601276388112774
9709674 26 18341058445033876271

> <PUBCHEM_SHAPE_MULTIPOLES>
420.43
9.43
2.1
1.06
1.16
0.42
0.43
-0.59
-2.56
-0.22
0.02
0.09
-0.22
0.11

> <PUBCHEM_SHAPE_SELFOVERLAP>
902.625

> <PUBCHEM_SHAPE_VOLUME>
230.1

> <PUBCHEM_COORDINATE_TYPE>
2
5
10

> <Energy>
71.9966

> <minimizedAffinity>
-7.74707

> <CNNscore>
0.7285662889

> <CNNaffinity>
7.3846626282

> <CNN_VS>
5.3802161217

> <CNNaffinity_variance>
0.7333297729

$$$$
6013


 22 25  0  0  0  0  0  0  0  0999 V2000
  108.6917   10.9332   22.4891 O   0  0  0  0  0  0  0  0  0  0  0  0
  100.5646   17.4326   25.5794 O   0  0  0  0  0  0  0  0  0  0  0  0
  107.1199   14.0201   23.6508 C   0  0  0  0  0  0  0  0  0  0  0  0
  107.0242   12.7374   22.8022 C   0  0  0  0  0  0  0  0  0  0  0  0
  106.0185   15.0306   23.3169 C   0  0  0  0  0  0  0  0  0  0  0  0
  104.6304   14.3680   23.5854 C   0  0  0  0  0  0  0  0  0  0  0  0
  103.4233   15.3446   23.3117 C   0  0  0  0  0  0  0  0  0  0  0  0
  105.6914   12.0516   23.1294 C   0  0  0  0  0  0  0  0  0  0  0  0
  104.4979   12.9909   22.8776 C   0  0  0  0  0  0  0  0  0  0  0  0
  108.2739   11.9981   23.3221 C   0  0  0  0  0  0  0  0  0  0  0  0
  108.5811   14.4369   23.5030 C   0  0  0  0  0  0  0  0  0  0  0  0
  106.1621   16.3107   24.1498 C   0  0  0  0  0  0  0  0  0  0  0  0
  109.3452   13.1027   23.4309 C   0  0  0  0  0  0  0  0  0  0  0  0
  103.6785   16.6832   24.0187 C   0  0  0  0  0  0  0  0  0  0  0  0
  105.0460   17.2990   23.8377 C   0  0  0  0  0  0  0  0  0  0  0  0
  107.1286   12.9634   21.2734 C   0  0  0  0  0  0  0  0  0  0  0  0
  102.1258   14.6880   23.8691 C   0  0  0  0  0  0  0  0  0  0  0  0
  103.2341   15.6257   21.8043 C   0  0  0  0  0  0  0  0  0  0  0  0
  100.9625   15.6577   24.0159 C   0  0  0  0  0  0  0  0  0  0  0  0
  102.7567   17.3273   24.7548 C   0  0  0  0  0  0  0  0  0  0  0  0
  101.3644   16.8324   24.8678 C   0  0  0  0  0  0  0  0  0  0  0  0
  107.9927   10.2620   22.4470 H   0  0  0  0  0  0  0  0  0  0  0  0
  1 10  1  0
  1 22  1  0
  2 21  2  0
  3  4  1  0
  3  5  1  0
  3 11  1  0
  4  8  1  0
  4 10  1  0
  4 16  1  0
  5  6  1  0
  5 12  1  0
  6  7  1  0
  6  9  1  0
  7 14  1  0
  7 17  1  0
  7 18  1  0
  8  9  1  0
 10 13  1  0
 11 13  1  0
 12 15  1  0
 14 15  1  0
 14 20  2  0
 17 19  1  0
 19 21  1  0
 20 21  1  0
M  END
> <PUBCHEM_COMPOUND_CID>
6013

> <PUBCHEM_CONFORMER_RMSD>
0.6

> <PUBCHEM_CONFORMER_DIVERSEORDER>
1

> <PUBCHEM_MMFF94_PARTIAL_CHARGES>
11
1 -0.68
10 0.28
14 -0.28
15 0.14
19 0.06
2 -0.57
20 -0.14
21 0.49
48 0.15
49 0.4
7 0.14

> <PUBCHEM_EFFECTIVE_ROTOR_COUNT>
1.8

> <PUBCHEM_PHARMACOPHORE_FEATURES>
7
1 1 acceptor
1 1 donor
1 2 acceptor
5 3 4 10 11 13 rings
6 3 4 5 6 8 9 rings
6 5 6 7 12 14 15 rings
6 7 14 17 19 20 21 rings

> <PUBCHEM_HEAVY_ATOM_COUNT>
21

> <PUBCHEM_ATOM_DEF_STEREO_COUNT>
6

> <PUBCHEM_ATOM_UDEF_STEREO_COUNT>
0

> <PUBCHEM_BOND_DEF_STEREO_COUNT>
0

> <PUBCHEM_BOND_UDEF_STEREO_COUNT>
0

> <PUBCHEM_ISOTOPIC_ATOM_COUNT>
0

> <PUBCHEM_COMPONENT_COUNT>
1

> <PUBCHEM_CACTVS_TAUTO_COUNT>
5

> <PUBCHEM_CONFORMER_ID>
0000177D00000001

> <PUBCHEM_MMFF94_ENERGY>
67.5416

> <PUBCHEM_FEATURE_SELFOVERLAP>
35.618

> <PUBCHEM_SHAPE_FINGERPRINT>
10062212 137 18336825385559829163
10759866 29 17897457309511876188
10967382 1 18412548682291571786
11132069 177 18410018732180467827
11370993 70 18410569557056084199
11578080 2 16735503067342509174
12011746 2 18412547592124142406
12236239 1 18040155136873436768
12251169 10 18410008845387181634
12403259 226 18410006624652160988
12403259 415 18408880746209696412
12403260 363 18340481291412090749
12403814 3 17894914044785590877
12507557 5 18408881845467772304
12633257 1 18341888602346167976
12839892 36 18340758291450253690
13140716 1 18339643467883616216
13214271 11 18272369780793716703
13224815 77 18411987974316295335
13675066 3 18187087269080573787
14178342 30 18338527339117458393
14223421 5 18341052895787930134
14341114 176 18411985737129035682
14787075 74 18339640165090922602
14790565 3 18050014594947639924
15163728 17 14691189929019880809
15196674 1 18411420639180230811
15375358 24 18413110541697833299
15536298 74 18272376330249831326
15788980 27 17167859768361771669
16945 1 18267308633664624303
17349148 13 18260547844245275310
17492 89 18410012108956776131
1813 80 17168144512515476742
18186145 218 18411423903503023558
18522853 276 18412546492037592553
19050596 39 18410858775858764633
19784866 9 18412265021155473810
200 152 18202274819337965375
20715895 44 18116989984517715477
21033648 29 18262779827106925672
21267235 1 18410302427354843602
21421861 104 18042966467372004754
21637258 2 15647319828885568714
22182313 1 18189614934485510503
22854114 111 18409735070690792279
22854114 59 18343022189864506130
23402539 116 18272925046486162621
23557571 272 18059303161493107767
23559900 14 18343023255612643838
26918003 58 18409728456589012017
2748010 2 18410304609229794207
2838139 119 14835541671104639250
296302 2 16343984710473737934
335352 9 18411702045432157758
34934 24 18341610383102269379
350125 39 18410857681354741304
351380 180 18413386540454065762
3545911 37 18411703166439727155
42 15 18260548935156425576
5104073 3 18410294747868572393
59755656 215 18339930311854621398
633830 44 17988931080225984300
69090 78 18413386557386229218
7364860 26 18200601276388112774
9709674 26 18341058445033876271

> <PUBCHEM_SHAPE_MULTIPOLES>
420.43
9.43
2.1
1.06
1.16
0.42
0.43
-0.59
-2.56
-0.22
0.02
0.09
-0.22
0.11

> <PUBCHEM_SHAPE_SELFOVERLAP>
902.625

> <PUBCHEM_SHAPE_VOLUME>
230.1

> <PUBCHEM_COORDINATE_TYPE>
2
5
10

> <Energy>
71.9966

> <minimizedAffinity>
-9.41984

> <CNNscore>
0.4156561494

> <CNNaffinity>
7.2970333099

> <CNN_VS>
3.0330567360

> <CNNaffinity_variance>
0.5834392309

$$$$
6013


 22 25  0  0  0  0  0  0  0  0999 V2000
  107.9641   11.3463   20.9114 O   0  0  0  0  0  0  0  0  0  0  0  0
  100.4235   17.4631   25.7661 O   0  0  0  0  0  0  0  0  0  0  0  0
  106.2776   13.0196   23.6872 C   0  0  0  0  0  0  0  0  0  0  0  0
  106.6701   13.0215   22.1970 C   0  0  0  0  0  0  0  0  0  0  0  0
  105.7700   14.3836   24.1643 C   0  0  0  0  0  0  0  0  0  0  0  0
  104.5109   14.7722   23.3266 C   0  0  0  0  0  0  0  0  0  0  0  0
  103.8821   16.1483   23.7701 C   0  0  0  0  0  0  0  0  0  0  0  0
  105.4107   13.3279   21.3763 C   0  0  0  0  0  0  0  0  0  0  0  0
  104.7742   14.6645   21.7988 C   0  0  0  0  0  0  0  0  0  0  0  0
  107.1850   11.5732   22.0707 C   0  0  0  0  0  0  0  0  0  0  0  0
  107.4898   12.3956   24.3741 C   0  0  0  0  0  0  0  0  0  0  0  0
  105.4232   14.3604   25.6583 C   0  0  0  0  0  0  0  0  0  0  0  0
  107.9936   11.3482   23.3649 C   0  0  0  0  0  0  0  0  0  0  0  0
  103.7068   16.1621   25.2952 C   0  0  0  0  0  0  0  0  0  0  0  0
  104.8883   15.7095   26.1205 C   0  0  0  0  0  0  0  0  0  0  0  0
  107.7886   14.0258   21.8236 C   0  0  0  0  0  0  0  0  0  0  0  0
  102.4972   16.3009   23.0744 C   0  0  0  0  0  0  0  0  0  0  0  0
  104.7740   17.3474   23.3779 C   0  0  0  0  0  0  0  0  0  0  0  0
  101.6188   17.3812   23.6881 C   0  0  0  0  0  0  0  0  0  0  0  0
  102.5859   16.5696   25.9149 C   0  0  0  0  0  0  0  0  0  0  0  0
  101.4415   17.1364   25.1632 C   0  0  0  0  0  0  0  0  0  0  0  0
  107.4211   11.4978   20.1220 H   0  0  0  0  0  0  0  0  0  0  0  0
  1 10  1  0
  1 22  1  0
  2 21  2  0
  3  4  1  0
  3  5  1  0
  3 11  1  0
  4  8  1  0
  4 10  1  0
  4 16  1  0
  5  6  1  0
  5 12  1  0
  6  7  1  0
  6  9  1  0
  7 14  1  0
  7 17  1  0
  7 18  1  0
  8  9  1  0
 10 13  1  0
 11 13  1  0
 12 15  1  0
 14 15  1  0
 14 20  2  0
 17 19  1  0
 19 21  1  0
 20 21  1  0
M  END
> <PUBCHEM_COMPOUND_CID>
6013

> <PUBCHEM_CONFORMER_RMSD>
0.6

> <PUBCHEM_CONFORMER_DIVERSEORDER>
1

> <PUBCHEM_MMFF94_PARTIAL_CHARGES>
11
1 -0.68
10 0.28
14 -0.28
15 0.14
19 0.06
2 -0.57
20 -0.14
21 0.49
48 0.15
49 0.4
7 0.14

> <PUBCHEM_EFFECTIVE_ROTOR_COUNT>
1.8

> <PUBCHEM_PHARMACOPHORE_FEATURES>
7
1 1 acceptor
1 1 donor
1 2 acceptor
5 3 4 10 11 13 rings
6 3 4 5 6 8 9 rings
6 5 6 7 12 14 15 rings
6 7 14 17 19 20 21 rings

> <PUBCHEM_HEAVY_ATOM_COUNT>
21

> <PUBCHEM_ATOM_DEF_STEREO_COUNT>
6

> <PUBCHEM_ATOM_UDEF_STEREO_COUNT>
0

> <PUBCHEM_BOND_DEF_STEREO_COUNT>
0

> <PUBCHEM_BOND_UDEF_STEREO_COUNT>
0

> <PUBCHEM_ISOTOPIC_ATOM_COUNT>
0

> <PUBCHEM_COMPONENT_COUNT>
1

> <PUBCHEM_CACTVS_TAUTO_COUNT>
5

> <PUBCHEM_CONFORMER_ID>
0000177D00000001

> <PUBCHEM_MMFF94_ENERGY>
67.5416

> <PUBCHEM_FEATURE_SELFOVERLAP>
35.618

> <PUBCHEM_SHAPE_FINGERPRINT>
10062212 137 18336825385559829163
10759866 29 17897457309511876188
10967382 1 18412548682291571786
11132069 177 18410018732180467827
11370993 70 18410569557056084199
11578080 2 16735503067342509174
12011746 2 18412547592124142406
12236239 1 18040155136873436768
12251169 10 18410008845387181634
12403259 226 18410006624652160988
12403259 415 18408880746209696412
12403260 363 18340481291412090749
12403814 3 17894914044785590877
12507557 5 18408881845467772304
12633257 1 18341888602346167976
12839892 36 18340758291450253690
13140716 1 18339643467883616216
13214271 11 18272369780793716703
13224815 77 18411987974316295335
13675066 3 18187087269080573787
14178342 30 18338527339117458393
14223421 5 18341052895787930134
14341114 176 18411985737129035682
14787075 74 18339640165090922602
14790565 3 18050014594947639924
15163728 17 14691189929019880809
15196674 1 18411420639180230811
15375358 24 18413110541697833299
15536298 74 18272376330249831326
15788980 27 17167859768361771669
16945 1 18267308633664624303
17349148 13 18260547844245275310
17492 89 18410012108956776131
1813 80 17168144512515476742
18186145 218 18411423903503023558
18522853 276 18412546492037592553
19050596 39 18410858775858764633
19784866 9 18412265021155473810
200 152 18202274819337965375
20715895 44 18116989984517715477
21033648 29 18262779827106925672
21267235 1 18410302427354843602
21421861 104 18042966467372004754
21637258 2 15647319828885568714
22182313 1 18189614934485510503
22854114 111 18409735070690792279
22854114 59 18343022189864506130
23402539 116 18272925046486162621
23557571 272 18059303161493107767
23559900 14 18343023255612643838
26918003 58 18409728456589012017
2748010 2 18410304609229794207
2838139 119 14835541671104639250
296302 2 16343984710473737934
335352 9 18411702045432157758
34934 24 18341610383102269379
350125 39 18410857681354741304
351380 180 18413386540454065762
3545911 37 18411703166439727155
42 15 18260548935156425576
5104073 3 18410294747868572393
59755656 215 18339930311854621398
633830 44 17988931080225984300
69090 78 18413386557386229218
7364860 26 18200601276388112774
9709674 26 18341058445033876271

> <PUBCHEM_SHAPE_MULTIPOLES>
420.43
9.43
2.1
1.06
1.16
0.42
0.43
-0.59
-2.56
-0.22
0.02
0.09
-0.22
0.11

> <PUBCHEM_SHAPE_SELFOVERLAP>
902.625

> <PUBCHEM_SHAPE_VOLUME>
230.1

> <PUBCHEM_COORDINATE_TYPE>
2
5
10

> <Energy>
71.9966

> <minimizedAffinity>
-8.71843

> <CNNscore>
0.2183329463

> <CNNaffinity>
6.8502464294

> <CNN_VS>
1.4956344366

> <CNNaffinity_variance>
0.3826532364

$$$$
6013


 22 25  0  0  0  0  0  0  0  0999 V2000
  102.1617   18.6773   25.6524 O   0  0  0  0  0  0  0  0  0  0  0  0
  108.8854   10.9914   21.9697 O   0  0  0  0  0  0  0  0  0  0  0  0
  105.0457   17.3143   23.8707 C   0  0  0  0  0  0  0  0  0  0  0  0
  104.0735   17.2176   25.0625 C   0  0  0  0  0  0  0  0  0  0  0  0
  106.2817   16.4270   24.0455 C   0  0  0  0  0  0  0  0  0  0  0  0
  105.8190   14.9419   24.1810 C   0  0  0  0  0  0  0  0  0  0  0  0
  107.0249   13.9362   24.3236 C   0  0  0  0  0  0  0  0  0  0  0  0
  103.5637   15.7728   25.1414 C   0  0  0  0  0  0  0  0  0  0  0  0
  104.7260   14.7717   25.2724 C   0  0  0  0  0  0  0  0  0  0  0  0
  103.0193   18.2491   24.6115 C   0  0  0  0  0  0  0  0  0  0  0  0
  105.2304   18.8180   23.6827 C   0  0  0  0  0  0  0  0  0  0  0  0
  107.2473   16.5730   22.8626 C   0  0  0  0  0  0  0  0  0  0  0  0
  103.8540   19.4108   24.0342 C   0  0  0  0  0  0  0  0  0  0  0  0
  108.0606   14.2214   23.2269 C   0  0  0  0  0  0  0  0  0  0  0  0
  108.4589   15.6646   23.0253 C   0  0  0  0  0  0  0  0  0  0  0  0
  104.6799   17.6280   26.4274 C   0  0  0  0  0  0  0  0  0  0  0  0
  106.4749   12.4872   24.1714 C   0  0  0  0  0  0  0  0  0  0  0  0
  107.7280   14.0633   25.6935 C   0  0  0  0  0  0  0  0  0  0  0  0
  107.5539   11.4461   23.9122 C   0  0  0  0  0  0  0  0  0  0  0  0
  108.6316   13.2673   22.4719 C   0  0  0  0  0  0  0  0  0  0  0  0
  108.3703   11.8275   22.7059 C   0  0  0  0  0  0  0  0  0  0  0  0
  101.6563   17.9201   25.9871 H   0  0  0  0  0  0  0  0  0  0  0  0
  1 10  1  0
  1 22  1  0
  2 21  2  0
  3  4  1  0
  3  5  1  0
  3 11  1  0
  4  8  1  0
  4 10  1  0
  4 16  1  0
  5  6  1  0
  5 12  1  0
  6  7  1  0
  6  9  1  0
  7 14  1  0
  7 17  1  0
  7 18  1  0
  8  9  1  0
 10 13  1  0
 11 13  1  0
 12 15  1  0
 14 15  1  0
 14 20  2  0
 17 19  1  0
 19 21  1  0
 20 21  1  0
M  END
> <PUBCHEM_COMPOUND_CID>
6013

> <PUBCHEM_CONFORMER_RMSD>
0.6

> <PUBCHEM_CONFORMER_DIVERSEORDER>
1

> <PUBCHEM_MMFF94_PARTIAL_CHARGES>
11
1 -0.68
10 0.28
14 -0.28
15 0.14
19 0.06
2 -0.57
20 -0.14
21 0.49
48 0.15
49 0.4
7 0.14

> <PUBCHEM_EFFECTIVE_ROTOR_COUNT>
1.8

> <PUBCHEM_PHARMACOPHORE_FEATURES>
7
1 1 acceptor
1 1 donor
1 2 acceptor
5 3 4 10 11 13 rings
6 3 4 5 6 8 9 rings
6 5 6 7 12 14 15 rings
6 7 14 17 19 20 21 rings

> <PUBCHEM_HEAVY_ATOM_COUNT>
21

> <PUBCHEM_ATOM_DEF_STEREO_COUNT>
6

> <PUBCHEM_ATOM_UDEF_STEREO_COUNT>
0

> <PUBCHEM_BOND_DEF_STEREO_COUNT>
0

> <PUBCHEM_BOND_UDEF_STEREO_COUNT>
0

> <PUBCHEM_ISOTOPIC_ATOM_COUNT>
0

> <PUBCHEM_COMPONENT_COUNT>
1

> <PUBCHEM_CACTVS_TAUTO_COUNT>
5

> <PUBCHEM_CONFORMER_ID>
0000177D00000001

> <PUBCHEM_MMFF94_ENERGY>
67.5416

> <PUBCHEM_FEATURE_SELFOVERLAP>
35.618

> <PUBCHEM_SHAPE_FINGERPRINT>
10062212 137 18336825385559829163
10759866 29 17897457309511876188
10967382 1 18412548682291571786
11132069 177 18410018732180467827
11370993 70 18410569557056084199
11578080 2 16735503067342509174
12011746 2 18412547592124142406
12236239 1 18040155136873436768
12251169 10 18410008845387181634
12403259 226 18410006624652160988
12403259 415 18408880746209696412
12403260 363 18340481291412090749
12403814 3 17894914044785590877
12507557 5 18408881845467772304
12633257 1 18341888602346167976
12839892 36 18340758291450253690
13140716 1 18339643467883616216
13214271 11 18272369780793716703
13224815 77 18411987974316295335
13675066 3 18187087269080573787
14178342 30 18338527339117458393
14223421 5 18341052895787930134
14341114 176 18411985737129035682
14787075 74 18339640165090922602
14790565 3 18050014594947639924
15163728 17 14691189929019880809
15196674 1 18411420639180230811
15375358 24 18413110541697833299
15536298 74 18272376330249831326
15788980 27 17167859768361771669
16945 1 18267308633664624303
17349148 13 18260547844245275310
17492 89 18410012108956776131
1813 80 17168144512515476742
18186145 218 18411423903503023558
18522853 276 18412546492037592553
19050596 39 18410858775858764633
19784866 9 18412265021155473810
200 152 18202274819337965375
20715895 44 18116989984517715477
21033648 29 18262779827106925672
21267235 1 18410302427354843602
21421861 104 18042966467372004754
21637258 2 15647319828885568714
22182313 1 18189614934485510503
22854114 111 18409735070690792279
22854114 59 18343022189864506130
23402539 116 18272925046486162621
23557571 272 18059303161493107767
23559900 14 18343023255612643838
26918003 58 18409728456589012017
2748010 2 18410304609229794207
2838139 119 14835541671104639250
296302 2 16343984710473737934
335352 9 18411702045432157758
34934 24 18341610383102269379
350125 39 18410857681354741304
351380 180 18413386540454065762
3545911 37 18411703166439727155
42 15 18260548935156425576
5104073 3 18410294747868572393
59755656 215 18339930311854621398
633830 44 17988931080225984300
69090 78 18413386557386229218
7364860 26 18200601276388112774
9709674 26 18341058445033876271

> <PUBCHEM_SHAPE_MULTIPOLES>
420.43
9.43
2.1
1.06
1.16
0.42
0.43
-0.59
-2.56
-0.22
0.02
0.09
-0.22
0.11

> <PUBCHEM_SHAPE_SELFOVERLAP>
902.625

> <PUBCHEM_SHAPE_VOLUME>
230.1

> <PUBCHEM_COORDINATE_TYPE>
2
5
10

> <Energy>
71.9966

> <minimizedAffinity>
1.72245

> <CNNscore>
0.2099575102

> <CNNaffinity>
6.2139205933

> <CNN_VS>
1.3046592474

> <CNNaffinity_variance>
0.0366027392

$$$$
6013


 22 25  0  0  0  0  0  0  0  0999 V2000
  106.0072   17.7944   22.0627 O   0  0  0  0  0  0  0  0  0  0  0  0
  103.9346    7.6079   18.9349 O   0  0  0  0  0  0  0  0  0  0  0  0
  106.5444   14.1901   21.7985 C   0  0  0  0  0  0  0  0  0  0  0  0
  105.5526   15.3668   21.8789 C   0  0  0  0  0  0  0  0  0  0  0  0
  105.8697   12.8345   22.0287 C   0  0  0  0  0  0  0  0  0  0  0  0
  104.7737   12.6268   20.9362 C   0  0  0  0  0  0  0  0  0  0  0  0
  104.0442   11.2345   21.0586 C   0  0  0  0  0  0  0  0  0  0  0  0
  104.5240   15.1966   20.7534 C   0  0  0  0  0  0  0  0  0  0  0  0
  103.8048   13.8387   20.8481 C   0  0  0  0  0  0  0  0  0  0  0  0
  106.5358   16.5384   21.6813 C   0  0  0  0  0  0  0  0  0  0  0  0
  107.6828   14.6202   22.7204 C   0  0  0  0  0  0  0  0  0  0  0  0
  106.8871   11.6876   21.9802 C   0  0  0  0  0  0  0  0  0  0  0  0
  107.7632   16.1453   22.5291 C   0  0  0  0  0  0  0  0  0  0  0  0
  105.0909   10.1184   21.1831 C   0  0  0  0  0  0  0  0  0  0  0  0
  106.2068   10.3392   22.1771 C   0  0  0  0  0  0  0  0  0  0  0  0
  104.8178   15.5026   23.2356 C   0  0  0  0  0  0  0  0  0  0  0  0
  103.1852   11.0172   19.7779 C   0  0  0  0  0  0  0  0  0  0  0  0
  103.1222   11.1690   22.2967 C   0  0  0  0  0  0  0  0  0  0  0  0
  102.7300    9.5786   19.5820 C   0  0  0  0  0  0  0  0  0  0  0  0
  105.0486    8.9726   20.4818 C   0  0  0  0  0  0  0  0  0  0  0  0
  103.9151    8.6498   19.5834 C   0  0  0  0  0  0  0  0  0  0  0  0
  105.2397   18.0042   21.5079 H   0  0  0  0  0  0  0  0  0  0  0  0
  1 10  1  0
  1 22  1  0
  2 21  2  0
  3  4  1  0
  3  5  1  0
  3 11  1  0
  4  8  1  0
  4 10  1  0
  4 16  1  0
  5  6  1  0
  5 12  1  0
  6  7  1  0
  6  9  1  0
  7 14  1  0
  7 17  1  0
  7 18  1  0
  8  9  1  0
 10 13  1  0
 11 13  1  0
 12 15  1  0
 14 15  1  0
 14 20  2  0
 17 19  1  0
 19 21  1  0
 20 21  1  0
M  END
> <PUBCHEM_COMPOUND_CID>
6013

> <PUBCHEM_CONFORMER_RMSD>
0.6

> <PUBCHEM_CONFORMER_DIVERSEORDER>
1

> <PUBCHEM_MMFF94_PARTIAL_CHARGES>
11
1 -0.68
10 0.28
14 -0.28
15 0.14
19 0.06
2 -0.57
20 -0.14
21 0.49
48 0.15
49 0.4
7 0.14

> <PUBCHEM_EFFECTIVE_ROTOR_COUNT>
1.8

> <PUBCHEM_PHARMACOPHORE_FEATURES>
7
1 1 acceptor
1 1 donor
1 2 acceptor
5 3 4 10 11 13 rings
6 3 4 5 6 8 9 rings
6 5 6 7 12 14 15 rings
6 7 14 17 19 20 21 rings

> <PUBCHEM_HEAVY_ATOM_COUNT>
21

> <PUBCHEM_ATOM_DEF_STEREO_COUNT>
6

> <PUBCHEM_ATOM_UDEF_STEREO_COUNT>
0

> <PUBCHEM_BOND_DEF_STEREO_COUNT>
0

> <PUBCHEM_BOND_UDEF_STEREO_COUNT>
0

> <PUBCHEM_ISOTOPIC_ATOM_COUNT>
0

> <PUBCHEM_COMPONENT_COUNT>
1

> <PUBCHEM_CACTVS_TAUTO_COUNT>
5

> <PUBCHEM_CONFORMER_ID>
0000177D00000001

> <PUBCHEM_MMFF94_ENERGY>
67.5416

> <PUBCHEM_FEATURE_SELFOVERLAP>
35.618

> <PUBCHEM_SHAPE_FINGERPRINT>
10062212 137 18336825385559829163
10759866 29 17897457309511876188
10967382 1 18412548682291571786
11132069 177 18410018732180467827
11370993 70 18410569557056084199
11578080 2 16735503067342509174
12011746 2 18412547592124142406
12236239 1 18040155136873436768
12251169 10 18410008845387181634
12403259 226 18410006624652160988
12403259 415 18408880746209696412
12403260 363 18340481291412090749
12403814 3 17894914044785590877
12507557 5 18408881845467772304
12633257 1 18341888602346167976
12839892 36 18340758291450253690
13140716 1 18339643467883616216
13214271 11 18272369780793716703
13224815 77 18411987974316295335
13675066 3 18187087269080573787
14178342 30 18338527339117458393
14223421 5 18341052895787930134
14341114 176 18411985737129035682
14787075 74 18339640165090922602
14790565 3 18050014594947639924
15163728 17 14691189929019880809
15196674 1 18411420639180230811
15375358 24 18413110541697833299
15536298 74 18272376330249831326
15788980 27 17167859768361771669
16945 1 18267308633664624303
17349148 13 18260547844245275310
17492 89 18410012108956776131
1813 80 17168144512515476742
18186145 218 18411423903503023558
18522853 276 18412546492037592553
19050596 39 18410858775858764633
19784866 9 18412265021155473810
200 152 18202274819337965375
20715895 44 18116989984517715477
21033648 29 18262779827106925672
21267235 1 18410302427354843602
21421861 104 18042966467372004754
21637258 2 15647319828885568714
22182313 1 18189614934485510503
22854114 111 18409735070690792279
22854114 59 18343022189864506130
23402539 116 18272925046486162621
23557571 272 18059303161493107767
23559900 14 18343023255612643838
26918003 58 18409728456589012017
2748010 2 18410304609229794207
2838139 119 14835541671104639250
296302 2 16343984710473737934
335352 9 18411702045432157758
34934 24 18341610383102269379
350125 39 18410857681354741304
351380 180 18413386540454065762
3545911 37 18411703166439727155
42 15 18260548935156425576
5104073 3 18410294747868572393
59755656 215 18339930311854621398
633830 44 17988931080225984300
69090 78 18413386557386229218
7364860 26 18200601276388112774
9709674 26 18341058445033876271

> <PUBCHEM_SHAPE_MULTIPOLES>
420.43
9.43
2.1
1.06
1.16
0.42
0.43
-0.59
-2.56
-0.22
0.02
0.09
-0.22
0.11

> <PUBCHEM_SHAPE_SELFOVERLAP>
902.625

> <PUBCHEM_SHAPE_VOLUME>
230.1

> <PUBCHEM_COORDINATE_TYPE>
2
5
10

> <Energy>
71.9966

> <minimizedAffinity>
27.63281

> <CNNscore>
0.1356100291

> <CNNaffinity>
5.6799521446

> <CNN_VS>
0.7702584863

> <CNNaffinity_variance>
0.3887281716

$$$$
6013


 22 25  0  0  0  0  0  0  0  0999 V2000
  110.3612   14.5974   21.8734 O   0  0  0  0  0  0  0  0  0  0  0  0
   99.7933   16.1303   23.8260 O   0  0  0  0  0  0  0  0  0  0  0  0
  107.1224   14.0121   23.4599 C   0  0  0  0  0  0  0  0  0  0  0  0
  108.1141   15.0092   22.8298 C   0  0  0  0  0  0  0  0  0  0  0  0
  105.9942   14.7086   24.2267 C   0  0  0  0  0  0  0  0  0  0  0  0
  105.2060   15.6250   23.2383 C   0  0  0  0  0  0  0  0  0  0  0  0
  103.9900   16.3591   23.9224 C   0  0  0  0  0  0  0  0  0  0  0  0
  107.3480   15.8540   21.8035 C   0  0  0  0  0  0  0  0  0  0  0  0
  106.1498   16.5739   22.4484 C   0  0  0  0  0  0  0  0  0  0  0  0
  109.1206   14.0119   22.2207 C   0  0  0  0  0  0  0  0  0  0  0  0
  108.0269   13.0288   24.1986 C   0  0  0  0  0  0  0  0  0  0  0  0
  105.0457   13.6912   24.8733 C   0  0  0  0  0  0  0  0  0  0  0  0
  109.2762   12.9262   23.3054 C   0  0  0  0  0  0  0  0  0  0  0  0
  103.1535   15.3391   24.7076 C   0  0  0  0  0  0  0  0  0  0  0  0
  103.9076   14.3882   25.6071 C   0  0  0  0  0  0  0  0  0  0  0  0
  108.8247   15.9422   23.8415 C   0  0  0  0  0  0  0  0  0  0  0  0
  103.1218   17.0126   22.8069 C   0  0  0  0  0  0  0  0  0  0  0  0
  104.4534   17.4584   24.9043 C   0  0  0  0  0  0  0  0  0  0  0  0
  101.7342   17.4270   23.2741 C   0  0  0  0  0  0  0  0  0  0  0  0
  101.8124   15.2698   24.6500 C   0  0  0  0  0  0  0  0  0  0  0  0
  101.0134   16.2522   23.8803 C   0  0  0  0  0  0  0  0  0  0  0  0
  110.2205   15.2724   21.1912 H   0  0  0  0  0  0  0  0  0  0  0  0
  1 10  1  0
  1 22  1  0
  2 21  2  0
  3  4  1  0
  3  5  1  0
  3 11  1  0
  4  8  1  0
  4 10  1  0
  4 16  1  0
  5  6  1  0
  5 12  1  0
  6  7  1  0
  6  9  1  0
  7 14  1  0
  7 17  1  0
  7 18  1  0
  8  9  1  0
 10 13  1  0
 11 13  1  0
 12 15  1  0
 14 15  1  0
 14 20  2  0
 17 19  1  0
 19 21  1  0
 20 21  1  0
M  END
> <PUBCHEM_COMPOUND_CID>
6013

> <PUBCHEM_CONFORMER_RMSD>
0.6

> <PUBCHEM_CONFORMER_DIVERSEORDER>
1

> <PUBCHEM_MMFF94_PARTIAL_CHARGES>
11
1 -0.68
10 0.28
14 -0.28
15 0.14
19 0.06
2 -0.57
20 -0.14
21 0.49
48 0.15
49 0.4
7 0.14

> <PUBCHEM_EFFECTIVE_ROTOR_COUNT>
1.8

> <PUBCHEM_PHARMACOPHORE_FEATURES>
7
1 1 acceptor
1 1 donor
1 2 acceptor
5 3 4 10 11 13 rings
6 3 4 5 6 8 9 rings
6 5 6 7 12 14 15 rings
6 7 14 17 19 20 21 rings

> <PUBCHEM_HEAVY_ATOM_COUNT>
21

> <PUBCHEM_ATOM_DEF_STEREO_COUNT>
6

> <PUBCHEM_ATOM_UDEF_STEREO_COUNT>
0

> <PUBCHEM_BOND_DEF_STEREO_COUNT>
0

> <PUBCHEM_BOND_UDEF_STEREO_COUNT>
0

> <PUBCHEM_ISOTOPIC_ATOM_COUNT>
0

> <PUBCHEM_COMPONENT_COUNT>
1

> <PUBCHEM_CACTVS_TAUTO_COUNT>
5

> <PUBCHEM_CONFORMER_ID>
0000177D00000001

> <PUBCHEM_MMFF94_ENERGY>
67.5416

> <PUBCHEM_FEATURE_SELFOVERLAP>
35.618

> <PUBCHEM_SHAPE_FINGERPRINT>
10062212 137 18336825385559829163
10759866 29 17897457309511876188
10967382 1 18412548682291571786
11132069 177 18410018732180467827
11370993 70 18410569557056084199
11578080 2 16735503067342509174
12011746 2 18412547592124142406
12236239 1 18040155136873436768
12251169 10 18410008845387181634
12403259 226 18410006624652160988
12403259 415 18408880746209696412
12403260 363 18340481291412090749
12403814 3 17894914044785590877
12507557 5 18408881845467772304
12633257 1 18341888602346167976
12839892 36 18340758291450253690
13140716 1 18339643467883616216
13214271 11 18272369780793716703
13224815 77 18411987974316295335
13675066 3 18187087269080573787
14178342 30 18338527339117458393
14223421 5 18341052895787930134
14341114 176 18411985737129035682
14787075 74 18339640165090922602
14790565 3 18050014594947639924
15163728 17 14691189929019880809
15196674 1 18411420639180230811
15375358 24 18413110541697833299
15536298 74 18272376330249831326
15788980 27 17167859768361771669
16945 1 18267308633664624303
17349148 13 18260547844245275310
17492 89 18410012108956776131
1813 80 17168144512515476742
18186145 218 18411423903503023558
18522853 276 18412546492037592553
19050596 39 18410858775858764633
19784866 9 18412265021155473810
200 152 18202274819337965375
20715895 44 18116989984517715477
21033648 29 18262779827106925672
21267235 1 18410302427354843602
21421861 104 18042966467372004754
21637258 2 15647319828885568714
22182313 1 18189614934485510503
22854114 111 18409735070690792279
22854114 59 18343022189864506130
23402539 116 18272925046486162621
23557571 272 18059303161493107767
23559900 14 18343023255612643838
26918003 58 18409728456589012017
2748010 2 18410304609229794207
2838139 119 14835541671104639250
296302 2 16343984710473737934
335352 9 18411702045432157758
34934 24 18341610383102269379
350125 39 18410857681354741304
351380 180 18413386540454065762
3545911 37 18411703166439727155
42 15 18260548935156425576
5104073 3 18410294747868572393
59755656 215 18339930311854621398
633830 44 17988931080225984300
69090 78 18413386557386229218
7364860 26 18200601276388112774
9709674 26 18341058445033876271

> <PUBCHEM_SHAPE_MULTIPOLES>
420.43
9.43
2.1
1.06
1.16
0.42
0.43
-0.59
-2.56
-0.22
0.02
0.09
-0.22
0.11

> <PUBCHEM_SHAPE_SELFOVERLAP>
902.625

> <PUBCHEM_SHAPE_VOLUME>
230.1

> <PUBCHEM_COORDINATE_TYPE>
2
5
10

> <Energy>
71.9966

> <minimizedAffinity>
1.28777

> <CNNscore>
0.1259464473

> <CNNaffinity>
5.9884524345

> <CNN_VS>
0.7542243004

> <CNNaffinity_variance>
0.1116960570

$$$$
