2519


 14 15  0  0  0  0  0  0  0  0999 V2000
   -4.4615   -3.9735   23.8924 O   0  0  0  0  0  0  0  0  0  0  0  0
   -8.9774   -4.6615   24.6465 O   0  0  0  0  0  0  0  0  0  0  0  0
   -8.2913   -2.5382   24.0753 N   0  0  0  0  0  0  0  0  0  0  0  0
   -5.1902   -1.1253   23.3457 N   0  0  0  0  0  0  0  0  0  0  0  0
   -6.7250   -4.3416   24.2758 N   0  0  0  0  0  0  0  0  0  0  0  0
   -7.2897   -0.3988   23.4585 N   0  0  0  0  0  0  0  0  0  0  0  0
   -5.9544   -2.2030   23.6902 C   0  0  0  0  0  0  0  0  0  0  0  0
   -7.2286   -1.7274   23.7512 C   0  0  0  0  0  0  0  0  0  0  0  0
   -5.6143   -3.5568   23.9513 C   0  0  0  0  0  0  0  0  0  0  0  0
   -8.0607   -3.8886   24.3503 C   0  0  0  0  0  0  0  0  0  0  0  0
   -6.0392   -0.0579   23.2166 C   0  0  0  0  0  0  0  0  0  0  0  0
   -9.6345   -1.9877   24.1282 C   0  0  0  0  0  0  0  0  0  0  0  0
   -3.7627   -1.1051   23.1525 C   0  0  0  0  0  0  0  0  0  0  0  0
   -6.5010   -5.7454   24.5627 C   0  0  0  0  0  0  0  0  0  0  0  0
  1  9  2  0
  2 10  2  0
  3  8  1  0
  3 10  1  0
  3 12  1  0
  4  7  1  0
  4 11  1  0
  4 13  1  0
  5  9  1  0
  5 10  1  0
  5 14  1  0
  6  8  1  0
  6 11  2  0
  7  8  2  0
  7  9  1  0
M  END
> <PUBCHEM_COMPOUND_CID>
2519

> <PUBCHEM_CONFORMER_RMSD>
0.4

> <PUBCHEM_CONFORMER_DIVERSEORDER>
1

> <PUBCHEM_MMFF94_PARTIAL_CHARGES>
15
1 -0.57
10 0.69
11 0.04
12 0.3
13 0.26
14 0.3
15 0.15
2 -0.57
3 -0.42
4 0.05
5 -0.42
6 -0.57
7 -0.24
8 0.29
9 0.71

> <PUBCHEM_EFFECTIVE_ROTOR_COUNT>
0

> <PUBCHEM_PHARMACOPHORE_FEATURES>
5
1 1 acceptor
1 2 acceptor
3 4 6 11 cation
5 4 6 7 8 11 rings
6 3 5 7 8 9 10 rings

> <PUBCHEM_HEAVY_ATOM_COUNT>
14

> <PUBCHEM_ATOM_DEF_STEREO_COUNT>
0

> <PUBCHEM_ATOM_UDEF_STEREO_COUNT>
0

> <PUBCHEM_BOND_DEF_STEREO_COUNT>
0

> <PUBCHEM_BOND_UDEF_STEREO_COUNT>
0

> <PUBCHEM_ISOTOPIC_ATOM_COUNT>
0

> <PUBCHEM_COMPONENT_COUNT>
1

> <PUBCHEM_CACTVS_TAUTO_COUNT>
1

> <PUBCHEM_CONFORMER_ID>
000009D700000001

> <PUBCHEM_MMFF94_ENERGY>
22.901

> <PUBCHEM_FEATURE_SELFOVERLAP>
25.487

> <PUBCHEM_SHAPE_FINGERPRINT>
10967382 1 18338799025773621285
11132069 177 18339075025094499008
12524768 44 18342463625094026902
13140716 1 17978511158789908153
16945 1 18338517550775811621
193761 8 15816500986559935910
20588541 1 18339082691204868851
21501502 16 18338796715286957384
22802520 49 18128840606503503494
2334 1 18338516344016692929
23402539 116 18270382932679789735
23552423 10 18262240993325675966
23559900 14 18199193898169584358
241688 4 18266458702623303353
2748010 2 18266180539182415717
5084963 1 17698433339235542986
528886 8 18267580380709240570
53812653 166 18198902694142226312
66348 1 18339079396917369615

> <PUBCHEM_SHAPE_MULTIPOLES>
256.45
4.01
2.83
0.58
0.71
0.08
0
-0.48
0
-0.81
0
0.01
0
0

> <PUBCHEM_SHAPE_SELFOVERLAP>
550.88

> <PUBCHEM_SHAPE_VOLUME>
143.9

> <PUBCHEM_COORDINATE_TYPE>
2
5
10

> <Energy>
-122.511

> <minimizedAffinity>
-5.77632

> <CNNscore>
0.5280759931

> <CNNaffinity>
4.7220482826

> <CNN_VS>
2.4936003685

> <CNNaffinity_variance>
0.0626215413

$$$$
2519


 14 15  0  0  0  0  0  0  0  0999 V2000
   -4.9345   -0.7872   23.1700 O   0  0  0  0  0  0  0  0  0  0  0  0
   -2.8913   -4.7865   22.0450 O   0  0  0  0  0  0  0  0  0  0  0  0
   -5.1778   -4.7851   22.3224 N   0  0  0  0  0  0  0  0  0  0  0  0
   -7.5011   -2.3214   23.1455 N   0  0  0  0  0  0  0  0  0  0  0  0
   -3.8876   -2.7848   22.6051 N   0  0  0  0  0  0  0  0  0  0  0  0
   -7.5759   -4.4946   22.6766 N   0  0  0  0  0  0  0  0  0  0  0  0
   -6.2147   -2.7094   22.9038 C   0  0  0  0  0  0  0  0  0  0  0  0
   -6.2938   -4.0389   22.6215 C   0  0  0  0  0  0  0  0  0  0  0  0
   -4.9926   -1.9861   22.9145 C   0  0  0  0  0  0  0  0  0  0  0  0
   -3.9259   -4.1649   22.3069 C   0  0  0  0  0  0  0  0  0  0  0  0
   -8.2886   -3.4325   22.9969 C   0  0  0  0  0  0  0  0  0  0  0  0
   -5.3095   -6.2012   22.0271 C   0  0  0  0  0  0  0  0  0  0  0  0
   -7.9537   -0.9981   23.4911 C   0  0  0  0  0  0  0  0  0  0  0  0
   -2.5817   -2.1545   22.5842 C   0  0  0  0  0  0  0  0  0  0  0  0
  1  9  2  0
  2 10  2  0
  3  8  1  0
  3 10  1  0
  3 12  1  0
  4  7  1  0
  4 11  1  0
  4 13  1  0
  5  9  1  0
  5 10  1  0
  5 14  1  0
  6  8  1  0
  6 11  2  0
  7  8  2  0
  7  9  1  0
M  END
> <PUBCHEM_COMPOUND_CID>
2519

> <PUBCHEM_CONFORMER_RMSD>
0.4

> <PUBCHEM_CONFORMER_DIVERSEORDER>
1

> <PUBCHEM_MMFF94_PARTIAL_CHARGES>
15
1 -0.57
10 0.69
11 0.04
12 0.3
13 0.26
14 0.3
15 0.15
2 -0.57
3 -0.42
4 0.05
5 -0.42
6 -0.57
7 -0.24
8 0.29
9 0.71

> <PUBCHEM_EFFECTIVE_ROTOR_COUNT>
0

> <PUBCHEM_PHARMACOPHORE_FEATURES>
5
1 1 acceptor
1 2 acceptor
3 4 6 11 cation
5 4 6 7 8 11 rings
6 3 5 7 8 9 10 rings

> <PUBCHEM_HEAVY_ATOM_COUNT>
14

> <PUBCHEM_ATOM_DEF_STEREO_COUNT>
0

> <PUBCHEM_ATOM_UDEF_STEREO_COUNT>
0

> <PUBCHEM_BOND_DEF_STEREO_COUNT>
0

> <PUBCHEM_BOND_UDEF_STEREO_COUNT>
0

> <PUBCHEM_ISOTOPIC_ATOM_COUNT>
0

> <PUBCHEM_COMPONENT_COUNT>
1

> <PUBCHEM_CACTVS_TAUTO_COUNT>
1

> <PUBCHEM_CONFORMER_ID>
000009D700000001

> <PUBCHEM_MMFF94_ENERGY>
22.901

> <PUBCHEM_FEATURE_SELFOVERLAP>
25.487

> <PUBCHEM_SHAPE_FINGERPRINT>
10967382 1 18338799025773621285
11132069 177 18339075025094499008
12524768 44 18342463625094026902
13140716 1 17978511158789908153
16945 1 18338517550775811621
193761 8 15816500986559935910
20588541 1 18339082691204868851
21501502 16 18338796715286957384
22802520 49 18128840606503503494
2334 1 18338516344016692929
23402539 116 18270382932679789735
23552423 10 18262240993325675966
23559900 14 18199193898169584358
241688 4 18266458702623303353
2748010 2 18266180539182415717
5084963 1 17698433339235542986
528886 8 18267580380709240570
53812653 166 18198902694142226312
66348 1 18339079396917369615

> <PUBCHEM_SHAPE_MULTIPOLES>
256.45
4.01
2.83
0.58
0.71
0.08
0
-0.48
0
-0.81
0
0.01
0
0

> <PUBCHEM_SHAPE_SELFOVERLAP>
550.88

> <PUBCHEM_SHAPE_VOLUME>
143.9

> <PUBCHEM_COORDINATE_TYPE>
2
5
10

> <Energy>
-122.511

> <minimizedAffinity>
-5.33259

> <CNNscore>
0.5269247293

> <CNNaffinity>
4.7831497192

> <CNN_VS>
2.5203597546

> <CNNaffinity_variance>
0.2842292488

$$$$
2519


 14 15  0  0  0  0  0  0  0  0999 V2000
   -7.5947   -4.9131   21.7776 O   0  0  0  0  0  0  0  0  0  0  0  0
   -6.3810   -0.8841   23.7087 O   0  0  0  0  0  0  0  0  0  0  0  0
   -4.7004   -2.3353   23.0964 N   0  0  0  0  0  0  0  0  0  0  0  0
   -4.6653   -5.4932   21.6227 N   0  0  0  0  0  0  0  0  0  0  0  0
   -7.0078   -2.8840   22.7494 N   0  0  0  0  0  0  0  0  0  0  0  0
   -3.1341   -4.0547   22.3541 N   0  0  0  0  0  0  0  0  0  0  0  0
   -5.3478   -4.4117   22.1008 C   0  0  0  0  0  0  0  0  0  0  0  0
   -4.3866   -3.5531   22.5396 C   0  0  0  0  0  0  0  0  0  0  0  0
   -6.7377   -4.1309   22.1774 C   0  0  0  0  0  0  0  0  0  0  0  0
   -6.0424   -1.9652   23.2168 C   0  0  0  0  0  0  0  0  0  0  0  0
   -3.3315   -5.2331   21.7965 C   0  0  0  0  0  0  0  0  0  0  0  0
   -3.6417   -1.4507   23.5509 C   0  0  0  0  0  0  0  0  0  0  0  0
   -5.2312   -6.6848   21.0439 C   0  0  0  0  0  0  0  0  0  0  0  0
   -8.3962   -2.4859   22.8799 C   0  0  0  0  0  0  0  0  0  0  0  0
  1  9  2  0
  2 10  2  0
  3  8  1  0
  3 10  1  0
  3 12  1  0
  4  7  1  0
  4 11  1  0
  4 13  1  0
  5  9  1  0
  5 10  1  0
  5 14  1  0
  6  8  1  0
  6 11  2  0
  7  8  2  0
  7  9  1  0
M  END
> <PUBCHEM_COMPOUND_CID>
2519

> <PUBCHEM_CONFORMER_RMSD>
0.4

> <PUBCHEM_CONFORMER_DIVERSEORDER>
1

> <PUBCHEM_MMFF94_PARTIAL_CHARGES>
15
1 -0.57
10 0.69
11 0.04
12 0.3
13 0.26
14 0.3
15 0.15
2 -0.57
3 -0.42
4 0.05
5 -0.42
6 -0.57
7 -0.24
8 0.29
9 0.71

> <PUBCHEM_EFFECTIVE_ROTOR_COUNT>
0

> <PUBCHEM_PHARMACOPHORE_FEATURES>
5
1 1 acceptor
1 2 acceptor
3 4 6 11 cation
5 4 6 7 8 11 rings
6 3 5 7 8 9 10 rings

> <PUBCHEM_HEAVY_ATOM_COUNT>
14

> <PUBCHEM_ATOM_DEF_STEREO_COUNT>
0

> <PUBCHEM_ATOM_UDEF_STEREO_COUNT>
0

> <PUBCHEM_BOND_DEF_STEREO_COUNT>
0

> <PUBCHEM_BOND_UDEF_STEREO_COUNT>
0

> <PUBCHEM_ISOTOPIC_ATOM_COUNT>
0

> <PUBCHEM_COMPONENT_COUNT>
1

> <PUBCHEM_CACTVS_TAUTO_COUNT>
1

> <PUBCHEM_CONFORMER_ID>
000009D700000001

> <PUBCHEM_MMFF94_ENERGY>
22.901

> <PUBCHEM_FEATURE_SELFOVERLAP>
25.487

> <PUBCHEM_SHAPE_FINGERPRINT>
10967382 1 18338799025773621285
11132069 177 18339075025094499008
12524768 44 18342463625094026902
13140716 1 17978511158789908153
16945 1 18338517550775811621
193761 8 15816500986559935910
20588541 1 18339082691204868851
21501502 16 18338796715286957384
22802520 49 18128840606503503494
2334 1 18338516344016692929
23402539 116 18270382932679789735
23552423 10 18262240993325675966
23559900 14 18199193898169584358
241688 4 18266458702623303353
2748010 2 18266180539182415717
5084963 1 17698433339235542986
528886 8 18267580380709240570
53812653 166 18198902694142226312
66348 1 18339079396917369615

> <PUBCHEM_SHAPE_MULTIPOLES>
256.45
4.01
2.83
0.58
0.71
0.08
0
-0.48
0
-0.81
0
0.01
0
0

> <PUBCHEM_SHAPE_SELFOVERLAP>
550.88

> <PUBCHEM_SHAPE_VOLUME>
143.9

> <PUBCHEM_COORDINATE_TYPE>
2
5
10

> <Energy>
-122.511

> <minimizedAffinity>
-5.25171

> <CNNscore>
0.4611845315

> <CNNaffinity>
4.8108611107

> <CNN_VS>
2.2186946869

> <CNNaffinity_variance>
0.2712267339

$$$$
2519


 14 15  0  0  0  0  0  0  0  0999 V2000
   -7.3147   -4.8908   21.8820 O   0  0  0  0  0  0  0  0  0  0  0  0
   -2.6849   -4.8860   21.9020 O   0  0  0  0  0  0  0  0  0  0  0  0
   -3.7673   -2.9489   22.5195 N   0  0  0  0  0  0  0  0  0  0  0  0
   -7.1230   -2.0493   22.7938 N   0  0  0  0  0  0  0  0  0  0  0  0
   -4.9897   -4.9106   21.8847 N   0  0  0  0  0  0  0  0  0  0  0  0
   -5.1672   -1.0428   23.1260 N   0  0  0  0  0  0  0  0  0  0  0  0
   -6.1592   -2.9713   22.5023 C   0  0  0  0  0  0  0  0  0  0  0  0
   -4.9786   -2.3271   22.7141 C   0  0  0  0  0  0  0  0  0  0  0  0
   -6.2439   -4.3209   22.0687 C   0  0  0  0  0  0  0  0  0  0  0  0
   -3.7435   -4.2791   22.0925 C   0  0  0  0  0  0  0  0  0  0  0  0
   -6.4774   -0.8997   23.1657 C   0  0  0  0  0  0  0  0  0  0  0  0
   -2.5321   -2.2226   22.7582 C   0  0  0  0  0  0  0  0  0  0  0  0
   -8.5493   -2.2401   22.7264 C   0  0  0  0  0  0  0  0  0  0  0  0
   -4.9495   -6.2912   21.4426 C   0  0  0  0  0  0  0  0  0  0  0  0
  1  9  2  0
  2 10  2  0
  3  8  1  0
  3 10  1  0
  3 12  1  0
  4  7  1  0
  4 11  1  0
  4 13  1  0
  5  9  1  0
  5 10  1  0
  5 14  1  0
  6  8  1  0
  6 11  2  0
  7  8  2  0
  7  9  1  0
M  END
> <PUBCHEM_COMPOUND_CID>
2519

> <PUBCHEM_CONFORMER_RMSD>
0.4

> <PUBCHEM_CONFORMER_DIVERSEORDER>
1

> <PUBCHEM_MMFF94_PARTIAL_CHARGES>
15
1 -0.57
10 0.69
11 0.04
12 0.3
13 0.26
14 0.3
15 0.15
2 -0.57
3 -0.42
4 0.05
5 -0.42
6 -0.57
7 -0.24
8 0.29
9 0.71

> <PUBCHEM_EFFECTIVE_ROTOR_COUNT>
0

> <PUBCHEM_PHARMACOPHORE_FEATURES>
5
1 1 acceptor
1 2 acceptor
3 4 6 11 cation
5 4 6 7 8 11 rings
6 3 5 7 8 9 10 rings

> <PUBCHEM_HEAVY_ATOM_COUNT>
14

> <PUBCHEM_ATOM_DEF_STEREO_COUNT>
0

> <PUBCHEM_ATOM_UDEF_STEREO_COUNT>
0

> <PUBCHEM_BOND_DEF_STEREO_COUNT>
0

> <PUBCHEM_BOND_UDEF_STEREO_COUNT>
0

> <PUBCHEM_ISOTOPIC_ATOM_COUNT>
0

> <PUBCHEM_COMPONENT_COUNT>
1

> <PUBCHEM_CACTVS_TAUTO_COUNT>
1

> <PUBCHEM_CONFORMER_ID>
000009D700000001

> <PUBCHEM_MMFF94_ENERGY>
22.901

> <PUBCHEM_FEATURE_SELFOVERLAP>
25.487

> <PUBCHEM_SHAPE_FINGERPRINT>
10967382 1 18338799025773621285
11132069 177 18339075025094499008
12524768 44 18342463625094026902
13140716 1 17978511158789908153
16945 1 18338517550775811621
193761 8 15816500986559935910
20588541 1 18339082691204868851
21501502 16 18338796715286957384
22802520 49 18128840606503503494
2334 1 18338516344016692929
23402539 116 18270382932679789735
23552423 10 18262240993325675966
23559900 14 18199193898169584358
241688 4 18266458702623303353
2748010 2 18266180539182415717
5084963 1 17698433339235542986
528886 8 18267580380709240570
53812653 166 18198902694142226312
66348 1 18339079396917369615

> <PUBCHEM_SHAPE_MULTIPOLES>
256.45
4.01
2.83
0.58
0.71
0.08
0
-0.48
0
-0.81
0
0.01
0
0

> <PUBCHEM_SHAPE_SELFOVERLAP>
550.88

> <PUBCHEM_SHAPE_VOLUME>
143.9

> <PUBCHEM_COORDINATE_TYPE>
2
5
10

> <Energy>
-122.511

> <minimizedAffinity>
-5.33416

> <CNNscore>
0.3999455571

> <CNNaffinity>
4.6659517288

> <CNN_VS>
1.8661266565

> <CNNaffinity_variance>
0.4335840046

$$$$
2519


 14 15  0  0  0  0  0  0  0  0999 V2000
   -5.8560   -0.0662   23.1477 O   0  0  0  0  0  0  0  0  0  0  0  0
   -9.6628   -2.4405   24.2910 O   0  0  0  0  0  0  0  0  0  0  0  0
   -7.7166   -3.6240   23.9487 N   0  0  0  0  0  0  0  0  0  0  0  0
   -4.4658   -2.7130   23.0842 N   0  0  0  0  0  0  0  0  0  0  0  0
   -7.7799   -1.2385   23.7225 N   0  0  0  0  0  0  0  0  0  0  0  0
   -5.5261   -4.6173   23.5293 N   0  0  0  0  0  0  0  0  0  0  0  0
   -5.7610   -2.3795   23.3584 C   0  0  0  0  0  0  0  0  0  0  0  0
   -6.3813   -3.5617   23.6253 C   0  0  0  0  0  0  0  0  0  0  0  0
   -6.4266   -1.1255   23.3897 C   0  0  0  0  0  0  0  0  0  0  0  0
   -8.4610   -2.4430   24.0059 C   0  0  0  0  0  0  0  0  0  0  0  0
   -4.3705   -4.0748   23.1993 C   0  0  0  0  0  0  0  0  0  0  0  0
   -8.3370   -4.9078   24.2262 C   0  0  0  0  0  0  0  0  0  0  0  0
   -3.3964   -1.8116   22.7389 C   0  0  0  0  0  0  0  0  0  0  0  0
   -8.5649   -0.0208   23.7868 C   0  0  0  0  0  0  0  0  0  0  0  0
  1  9  2  0
  2 10  2  0
  3  8  1  0
  3 10  1  0
  3 12  1  0
  4  7  1  0
  4 11  1  0
  4 13  1  0
  5  9  1  0
  5 10  1  0
  5 14  1  0
  6  8  1  0
  6 11  2  0
  7  8  2  0
  7  9  1  0
M  END
> <PUBCHEM_COMPOUND_CID>
2519

> <PUBCHEM_CONFORMER_RMSD>
0.4

> <PUBCHEM_CONFORMER_DIVERSEORDER>
1

> <PUBCHEM_MMFF94_PARTIAL_CHARGES>
15
1 -0.57
10 0.69
11 0.04
12 0.3
13 0.26
14 0.3
15 0.15
2 -0.57
3 -0.42
4 0.05
5 -0.42
6 -0.57
7 -0.24
8 0.29
9 0.71

> <PUBCHEM_EFFECTIVE_ROTOR_COUNT>
0

> <PUBCHEM_PHARMACOPHORE_FEATURES>
5
1 1 acceptor
1 2 acceptor
3 4 6 11 cation
5 4 6 7 8 11 rings
6 3 5 7 8 9 10 rings

> <PUBCHEM_HEAVY_ATOM_COUNT>
14

> <PUBCHEM_ATOM_DEF_STEREO_COUNT>
0

> <PUBCHEM_ATOM_UDEF_STEREO_COUNT>
0

> <PUBCHEM_BOND_DEF_STEREO_COUNT>
0

> <PUBCHEM_BOND_UDEF_STEREO_COUNT>
0

> <PUBCHEM_ISOTOPIC_ATOM_COUNT>
0

> <PUBCHEM_COMPONENT_COUNT>
1

> <PUBCHEM_CACTVS_TAUTO_COUNT>
1

> <PUBCHEM_CONFORMER_ID>
000009D700000001

> <PUBCHEM_MMFF94_ENERGY>
22.901

> <PUBCHEM_FEATURE_SELFOVERLAP>
25.487

> <PUBCHEM_SHAPE_FINGERPRINT>
10967382 1 18338799025773621285
11132069 177 18339075025094499008
12524768 44 18342463625094026902
13140716 1 17978511158789908153
16945 1 18338517550775811621
193761 8 15816500986559935910
20588541 1 18339082691204868851
21501502 16 18338796715286957384
22802520 49 18128840606503503494
2334 1 18338516344016692929
23402539 116 18270382932679789735
23552423 10 18262240993325675966
23559900 14 18199193898169584358
241688 4 18266458702623303353
2748010 2 18266180539182415717
5084963 1 17698433339235542986
528886 8 18267580380709240570
53812653 166 18198902694142226312
66348 1 18339079396917369615

> <PUBCHEM_SHAPE_MULTIPOLES>
256.45
4.01
2.83
0.58
0.71
0.08
0
-0.48
0
-0.81
0
0.01
0
0

> <PUBCHEM_SHAPE_SELFOVERLAP>
550.88

> <PUBCHEM_SHAPE_VOLUME>
143.9

> <PUBCHEM_COORDINATE_TYPE>
2
5
10

> <Energy>
-122.511

> <minimizedAffinity>
-5.44144

> <CNNscore>
0.3795961738

> <CNNaffinity>
4.6601576805

> <CNN_VS>
1.7689779997

> <CNNaffinity_variance>
0.1422597468

$$$$
2519


 14 15  0  0  0  0  0  0  0  0999 V2000
   -2.9110   -5.1119   21.6775 O   0  0  0  0  0  0  0  0  0  0  0  0
   -7.5227   -4.8628   22.0029 O   0  0  0  0  0  0  0  0  0  0  0  0
   -6.2793   -3.2187   23.0307 N   0  0  0  0  0  0  0  0  0  0  0  0
   -2.8598   -2.6070   23.3099 N   0  0  0  0  0  0  0  0  0  0  0  0
   -5.2288   -5.0065   21.8283 N   0  0  0  0  0  0  0  0  0  0  0  0
   -4.7224   -1.6185   24.0187 N   0  0  0  0  0  0  0  0  0  0  0  0
   -3.8985   -3.3653   22.8516 C   0  0  0  0  0  0  0  0  0  0  0  0
   -5.0197   -2.7368   23.3005 C   0  0  0  0  0  0  0  0  0  0  0  0
   -3.9291   -4.5551   22.0770 C   0  0  0  0  0  0  0  0  0  0  0  0
   -6.4163   -4.3858   22.2748 C   0  0  0  0  0  0  0  0  0  0  0  0
   -3.4050   -1.5629   24.0095 C   0  0  0  0  0  0  0  0  0  0  0  0
   -7.4479   -2.5151   23.5301 C   0  0  0  0  0  0  0  0  0  0  0  0
   -1.4552   -2.8504   23.1021 C   0  0  0  0  0  0  0  0  0  0  0  0
   -5.3865   -6.2162   21.0442 C   0  0  0  0  0  0  0  0  0  0  0  0
  1  9  2  0
  2 10  2  0
  3  8  1  0
  3 10  1  0
  3 12  1  0
  4  7  1  0
  4 11  1  0
  4 13  1  0
  5  9  1  0
  5 10  1  0
  5 14  1  0
  6  8  1  0
  6 11  2  0
  7  8  2  0
  7  9  1  0
M  END
> <PUBCHEM_COMPOUND_CID>
2519

> <PUBCHEM_CONFORMER_RMSD>
0.4

> <PUBCHEM_CONFORMER_DIVERSEORDER>
1

> <PUBCHEM_MMFF94_PARTIAL_CHARGES>
15
1 -0.57
10 0.69
11 0.04
12 0.3
13 0.26
14 0.3
15 0.15
2 -0.57
3 -0.42
4 0.05
5 -0.42
6 -0.57
7 -0.24
8 0.29
9 0.71

> <PUBCHEM_EFFECTIVE_ROTOR_COUNT>
0

> <PUBCHEM_PHARMACOPHORE_FEATURES>
5
1 1 acceptor
1 2 acceptor
3 4 6 11 cation
5 4 6 7 8 11 rings
6 3 5 7 8 9 10 rings

> <PUBCHEM_HEAVY_ATOM_COUNT>
14

> <PUBCHEM_ATOM_DEF_STEREO_COUNT>
0

> <PUBCHEM_ATOM_UDEF_STEREO_COUNT>
0

> <PUBCHEM_BOND_DEF_STEREO_COUNT>
0

> <PUBCHEM_BOND_UDEF_STEREO_COUNT>
0

> <PUBCHEM_ISOTOPIC_ATOM_COUNT>
0

> <PUBCHEM_COMPONENT_COUNT>
1

> <PUBCHEM_CACTVS_TAUTO_COUNT>
1

> <PUBCHEM_CONFORMER_ID>
000009D700000001

> <PUBCHEM_MMFF94_ENERGY>
22.901

> <PUBCHEM_FEATURE_SELFOVERLAP>
25.487

> <PUBCHEM_SHAPE_FINGERPRINT>
10967382 1 18338799025773621285
11132069 177 18339075025094499008
12524768 44 18342463625094026902
13140716 1 17978511158789908153
16945 1 18338517550775811621
193761 8 15816500986559935910
20588541 1 18339082691204868851
21501502 16 18338796715286957384
22802520 49 18128840606503503494
2334 1 18338516344016692929
23402539 116 18270382932679789735
23552423 10 18262240993325675966
23559900 14 18199193898169584358
241688 4 18266458702623303353
2748010 2 18266180539182415717
5084963 1 17698433339235542986
528886 8 18267580380709240570
53812653 166 18198902694142226312
66348 1 18339079396917369615

> <PUBCHEM_SHAPE_MULTIPOLES>
256.45
4.01
2.83
0.58
0.71
0.08
0
-0.48
0
-0.81
0
0.01
0
0

> <PUBCHEM_SHAPE_SELFOVERLAP>
550.88

> <PUBCHEM_SHAPE_VOLUME>
143.9

> <PUBCHEM_COORDINATE_TYPE>
2
5
10

> <Energy>
-122.511

> <minimizedAffinity>
-5.51448

> <CNNscore>
0.3707559407

> <CNNaffinity>
4.4608387947

> <CNN_VS>
1.6538825035

> <CNNaffinity_variance>
0.5216667652

$$$$
2519


 14 15  0  0  0  0  0  0  0  0999 V2000
   -5.6976   -5.0733   23.9582 O   0  0  0  0  0  0  0  0  0  0  0  0
   -9.5967   -2.5878   24.1930 O   0  0  0  0  0  0  0  0  0  0  0  0
   -7.6329   -1.4720   23.7414 N   0  0  0  0  0  0  0  0  0  0  0  0
   -4.3166   -2.4831   23.3874 N   0  0  0  0  0  0  0  0  0  0  0  0
   -7.6678   -3.8446   24.0809 N   0  0  0  0  0  0  0  0  0  0  0  0
   -5.4184   -0.5535   23.2799 N   0  0  0  0  0  0  0  0  0  0  0  0
   -5.6294   -2.7736   23.6246 C   0  0  0  0  0  0  0  0  0  0  0  0
   -6.2746   -1.5769   23.5526 C   0  0  0  0  0  0  0  0  0  0  0  0
   -6.2906   -4.0006   23.8965 C   0  0  0  0  0  0  0  0  0  0  0  0
   -8.3750   -2.6239   24.0150 C   0  0  0  0  0  0  0  0  0  0  0  0
   -4.2366   -1.1305   23.1848 C   0  0  0  0  0  0  0  0  0  0  0  0
   -8.2795   -0.1742   23.6551 C   0  0  0  0  0  0  0  0  0  0  0  0
   -3.2182   -3.4146   23.3543 C   0  0  0  0  0  0  0  0  0  0  0  0
   -8.4511   -5.0316   24.3645 C   0  0  0  0  0  0  0  0  0  0  0  0
  1  9  2  0
  2 10  2  0
  3  8  1  0
  3 10  1  0
  3 12  1  0
  4  7  1  0
  4 11  1  0
  4 13  1  0
  5  9  1  0
  5 10  1  0
  5 14  1  0
  6  8  1  0
  6 11  2  0
  7  8  2  0
  7  9  1  0
M  END
> <PUBCHEM_COMPOUND_CID>
2519

> <PUBCHEM_CONFORMER_RMSD>
0.4

> <PUBCHEM_CONFORMER_DIVERSEORDER>
1

> <PUBCHEM_MMFF94_PARTIAL_CHARGES>
15
1 -0.57
10 0.69
11 0.04
12 0.3
13 0.26
14 0.3
15 0.15
2 -0.57
3 -0.42
4 0.05
5 -0.42
6 -0.57
7 -0.24
8 0.29
9 0.71

> <PUBCHEM_EFFECTIVE_ROTOR_COUNT>
0

> <PUBCHEM_PHARMACOPHORE_FEATURES>
5
1 1 acceptor
1 2 acceptor
3 4 6 11 cation
5 4 6 7 8 11 rings
6 3 5 7 8 9 10 rings

> <PUBCHEM_HEAVY_ATOM_COUNT>
14

> <PUBCHEM_ATOM_DEF_STEREO_COUNT>
0

> <PUBCHEM_ATOM_UDEF_STEREO_COUNT>
0

> <PUBCHEM_BOND_DEF_STEREO_COUNT>
0

> <PUBCHEM_BOND_UDEF_STEREO_COUNT>
0

> <PUBCHEM_ISOTOPIC_ATOM_COUNT>
0

> <PUBCHEM_COMPONENT_COUNT>
1

> <PUBCHEM_CACTVS_TAUTO_COUNT>
1

> <PUBCHEM_CONFORMER_ID>
000009D700000001

> <PUBCHEM_MMFF94_ENERGY>
22.901

> <PUBCHEM_FEATURE_SELFOVERLAP>
25.487

> <PUBCHEM_SHAPE_FINGERPRINT>
10967382 1 18338799025773621285
11132069 177 18339075025094499008
12524768 44 18342463625094026902
13140716 1 17978511158789908153
16945 1 18338517550775811621
193761 8 15816500986559935910
20588541 1 18339082691204868851
21501502 16 18338796715286957384
22802520 49 18128840606503503494
2334 1 18338516344016692929
23402539 116 18270382932679789735
23552423 10 18262240993325675966
23559900 14 18199193898169584358
241688 4 18266458702623303353
2748010 2 18266180539182415717
5084963 1 17698433339235542986
528886 8 18267580380709240570
53812653 166 18198902694142226312
66348 1 18339079396917369615

> <PUBCHEM_SHAPE_MULTIPOLES>
256.45
4.01
2.83
0.58
0.71
0.08
0
-0.48
0
-0.81
0
0.01
0
0

> <PUBCHEM_SHAPE_SELFOVERLAP>
550.88

> <PUBCHEM_SHAPE_VOLUME>
143.9

> <PUBCHEM_COORDINATE_TYPE>
2
5
10

> <Energy>
-122.511

> <minimizedAffinity>
-5.48492

> <CNNscore>
0.3696818352

> <CNNaffinity>
4.5732822418

> <CNN_VS>
1.6906594038

> <CNNaffinity_variance>
0.1095677391

$$$$
2519


 14 15  0  0  0  0  0  0  0  0999 V2000
   -8.7583   -4.3549   24.7399 O   0  0  0  0  0  0  0  0  0  0  0  0
   -8.5367    0.1755   23.8115 O   0  0  0  0  0  0  0  0  0  0  0  0
   -6.6290   -1.0803   23.5135 N   0  0  0  0  0  0  0  0  0  0  0  0
   -5.8766   -4.4553   23.9475 N   0  0  0  0  0  0  0  0  0  0  0  0
   -8.6696   -2.0776   24.2798 N   0  0  0  0  0  0  0  0  0  0  0  0
   -4.7674   -2.6437   23.2872 N   0  0  0  0  0  0  0  0  0  0  0  0
   -6.7636   -3.4187   23.9988 C   0  0  0  0  0  0  0  0  0  0  0  0
   -6.0571   -2.3287   23.5910 C   0  0  0  0  0  0  0  0  0  0  0  0
   -8.1320   -3.3648   24.3745 C   0  0  0  0  0  0  0  0  0  0  0  0
   -7.9727   -0.9221   23.8623 C   0  0  0  0  0  0  0  0  0  0  0  0
   -4.6841   -3.9401   23.5125 C   0  0  0  0  0  0  0  0  0  0  0  0
   -5.8369    0.0547   23.0726 C   0  0  0  0  0  0  0  0  0  0  0  0
   -6.1363   -5.8318   24.2843 C   0  0  0  0  0  0  0  0  0  0  0  0
  -10.0635   -1.8984   24.6376 C   0  0  0  0  0  0  0  0  0  0  0  0
  1  9  2  0
  2 10  2  0
  3  8  1  0
  3 10  1  0
  3 12  1  0
  4  7  1  0
  4 11  1  0
  4 13  1  0
  5  9  1  0
  5 10  1  0
  5 14  1  0
  6  8  1  0
  6 11  2  0
  7  8  2  0
  7  9  1  0
M  END
> <PUBCHEM_COMPOUND_CID>
2519

> <PUBCHEM_CONFORMER_RMSD>
0.4

> <PUBCHEM_CONFORMER_DIVERSEORDER>
1

> <PUBCHEM_MMFF94_PARTIAL_CHARGES>
15
1 -0.57
10 0.69
11 0.04
12 0.3
13 0.26
14 0.3
15 0.15
2 -0.57
3 -0.42
4 0.05
5 -0.42
6 -0.57
7 -0.24
8 0.29
9 0.71

> <PUBCHEM_EFFECTIVE_ROTOR_COUNT>
0

> <PUBCHEM_PHARMACOPHORE_FEATURES>
5
1 1 acceptor
1 2 acceptor
3 4 6 11 cation
5 4 6 7 8 11 rings
6 3 5 7 8 9 10 rings

> <PUBCHEM_HEAVY_ATOM_COUNT>
14

> <PUBCHEM_ATOM_DEF_STEREO_COUNT>
0

> <PUBCHEM_ATOM_UDEF_STEREO_COUNT>
0

> <PUBCHEM_BOND_DEF_STEREO_COUNT>
0

> <PUBCHEM_BOND_UDEF_STEREO_COUNT>
0

> <PUBCHEM_ISOTOPIC_ATOM_COUNT>
0

> <PUBCHEM_COMPONENT_COUNT>
1

> <PUBCHEM_CACTVS_TAUTO_COUNT>
1

> <PUBCHEM_CONFORMER_ID>
000009D700000001

> <PUBCHEM_MMFF94_ENERGY>
22.901

> <PUBCHEM_FEATURE_SELFOVERLAP>
25.487

> <PUBCHEM_SHAPE_FINGERPRINT>
10967382 1 18338799025773621285
11132069 177 18339075025094499008
12524768 44 18342463625094026902
13140716 1 17978511158789908153
16945 1 18338517550775811621
193761 8 15816500986559935910
20588541 1 18339082691204868851
21501502 16 18338796715286957384
22802520 49 18128840606503503494
2334 1 18338516344016692929
23402539 116 18270382932679789735
23552423 10 18262240993325675966
23559900 14 18199193898169584358
241688 4 18266458702623303353
2748010 2 18266180539182415717
5084963 1 17698433339235542986
528886 8 18267580380709240570
53812653 166 18198902694142226312
66348 1 18339079396917369615

> <PUBCHEM_SHAPE_MULTIPOLES>
256.45
4.01
2.83
0.58
0.71
0.08
0
-0.48
0
-0.81
0
0.01
0
0

> <PUBCHEM_SHAPE_SELFOVERLAP>
550.88

> <PUBCHEM_SHAPE_VOLUME>
143.9

> <PUBCHEM_COORDINATE_TYPE>
2
5
10

> <Energy>
-122.511

> <minimizedAffinity>
-5.16857

> <CNNscore>
0.3659926057

> <CNNaffinity>
4.5144181252

> <CNN_VS>
1.6522436142

> <CNNaffinity_variance>
0.0774572566

$$$$
2519


 14 15  0  0  0  0  0  0  0  0999 V2000
   -4.3563   -3.8952   23.8100 O   0  0  0  0  0  0  0  0  0  0  0  0
   -6.0605    0.3698   23.2265 O   0  0  0  0  0  0  0  0  0  0  0  0
   -7.5361   -1.3170   23.7583 N   0  0  0  0  0  0  0  0  0  0  0  0
   -7.1737   -4.7297   24.3644 N   0  0  0  0  0  0  0  0  0  0  0  0
   -5.1905   -1.7455   23.5122 N   0  0  0  0  0  0  0  0  0  0  0  0
   -8.8651   -3.2853   24.3240 N   0  0  0  0  0  0  0  0  0  0  0  0
   -6.6363   -3.5134   24.0552 C   0  0  0  0  0  0  0  0  0  0  0  0
   -7.6925   -2.6545   24.0379 C   0  0  0  0  0  0  0  0  0  0  0  0
   -5.3003   -3.1113   23.7906 C   0  0  0  0  0  0  0  0  0  0  0  0
   -6.2587   -0.8218   23.4838 C   0  0  0  0  0  0  0  0  0  0  0  0
   -8.5224   -4.5438   24.5176 C   0  0  0  0  0  0  0  0  0  0  0  0
   -8.6918   -0.4371   23.7511 C   0  0  0  0  0  0  0  0  0  0  0  0
   -6.4656   -5.9763   24.5050 C   0  0  0  0  0  0  0  0  0  0  0  0
   -3.8706   -1.2171   23.2264 C   0  0  0  0  0  0  0  0  0  0  0  0
  1  9  2  0
  2 10  2  0
  3  8  1  0
  3 10  1  0
  3 12  1  0
  4  7  1  0
  4 11  1  0
  4 13  1  0
  5  9  1  0
  5 10  1  0
  5 14  1  0
  6  8  1  0
  6 11  2  0
  7  8  2  0
  7  9  1  0
M  END
> <PUBCHEM_COMPOUND_CID>
2519

> <PUBCHEM_CONFORMER_RMSD>
0.4

> <PUBCHEM_CONFORMER_DIVERSEORDER>
1

> <PUBCHEM_MMFF94_PARTIAL_CHARGES>
15
1 -0.57
10 0.69
11 0.04
12 0.3
13 0.26
14 0.3
15 0.15
2 -0.57
3 -0.42
4 0.05
5 -0.42
6 -0.57
7 -0.24
8 0.29
9 0.71

> <PUBCHEM_EFFECTIVE_ROTOR_COUNT>
0

> <PUBCHEM_PHARMACOPHORE_FEATURES>
5
1 1 acceptor
1 2 acceptor
3 4 6 11 cation
5 4 6 7 8 11 rings
6 3 5 7 8 9 10 rings

> <PUBCHEM_HEAVY_ATOM_COUNT>
14

> <PUBCHEM_ATOM_DEF_STEREO_COUNT>
0

> <PUBCHEM_ATOM_UDEF_STEREO_COUNT>
0

> <PUBCHEM_BOND_DEF_STEREO_COUNT>
0

> <PUBCHEM_BOND_UDEF_STEREO_COUNT>
0

> <PUBCHEM_ISOTOPIC_ATOM_COUNT>
0

> <PUBCHEM_COMPONENT_COUNT>
1

> <PUBCHEM_CACTVS_TAUTO_COUNT>
1

> <PUBCHEM_CONFORMER_ID>
000009D700000001

> <PUBCHEM_MMFF94_ENERGY>
22.901

> <PUBCHEM_FEATURE_SELFOVERLAP>
25.487

> <PUBCHEM_SHAPE_FINGERPRINT>
10967382 1 18338799025773621285
11132069 177 18339075025094499008
12524768 44 18342463625094026902
13140716 1 17978511158789908153
16945 1 18338517550775811621
193761 8 15816500986559935910
20588541 1 18339082691204868851
21501502 16 18338796715286957384
22802520 49 18128840606503503494
2334 1 18338516344016692929
23402539 116 18270382932679789735
23552423 10 18262240993325675966
23559900 14 18199193898169584358
241688 4 18266458702623303353
2748010 2 18266180539182415717
5084963 1 17698433339235542986
528886 8 18267580380709240570
53812653 166 18198902694142226312
66348 1 18339079396917369615

> <PUBCHEM_SHAPE_MULTIPOLES>
256.45
4.01
2.83
0.58
0.71
0.08
0
-0.48
0
-0.81
0
0.01
0
0

> <PUBCHEM_SHAPE_SELFOVERLAP>
550.88

> <PUBCHEM_SHAPE_VOLUME>
143.9

> <PUBCHEM_COORDINATE_TYPE>
2
5
10

> <Energy>
-122.511

> <minimizedAffinity>
-5.65868

> <CNNscore>
0.3504434228

> <CNNaffinity>
4.6427783966

> <CNN_VS>
1.6270312071

> <CNNaffinity_variance>
0.0722792596

$$$$
