6623


 19 20  0  0  0  0  0  0  0  0999 V2000
   -7.2565   -4.8575   12.5413 C   0  0  0  0  0  0  0  0  0  0  0  0
   -7.8986   -6.2497   12.2912 C   0  0  0  0  0  0  0  0  0  0  0  0
   -6.2284   -4.6670   11.3930 C   0  0  0  0  0  0  0  0  0  0  0  0
   -4.4098   -4.4739   17.4949 O   0  0  0  0  0  0  0  0  0  0  0  0
   -6.4687   -4.7656   13.8705 C   0  0  0  0  0  0  0  0  0  0  0  0
   -7.1666   -4.5715   15.0822 C   0  0  0  0  0  0  0  0  0  0  0  0
   -5.0682   -4.8641   13.9356 C   0  0  0  0  0  0  0  0  0  0  0  0
   -6.4940   -4.4695   16.3036 C   0  0  0  0  0  0  0  0  0  0  0  0
   -4.3945   -4.7672   15.1576 C   0  0  0  0  0  0  0  0  0  0  0  0
   -5.1100   -4.5682   16.3292 C   0  0  0  0  0  0  0  0  0  0  0  0
   -4.8629   -4.3395   18.3039 H   0  0  0  0  0  0  0  0  0  0  0  0
  -11.4660   -0.9780   12.5414 O   0  0  0  0  0  0  0  0  0  0  0  0
   -8.4093   -3.8259   12.5179 C   0  0  0  0  0  0  0  0  0  0  0  0
   -8.1146   -2.4521   12.3836 C   0  0  0  0  0  0  0  0  0  0  0  0
   -9.7616   -4.1921   12.6397 C   0  0  0  0  0  0  0  0  0  0  0  0
   -9.1242   -1.4856   12.3902 C   0  0  0  0  0  0  0  0  0  0  0  0
  -10.7722   -3.2266   12.6409 C   0  0  0  0  0  0  0  0  0  0  0  0
  -10.4472   -1.8835   12.5226 C   0  0  0  0  0  0  0  0  0  0  0  0
  -11.2808   -0.0628   12.4636 H   0  0  0  0  0  0  0  0  0  0  0  0
  4 10  1  0
  4 11  1  0
 12 18  1  0
 12 19  1  0
  1  5  1  0
  1 13  1  0
  1  2  1  0
  1  3  1  0
  5  6  2  0
  5  7  1  0
 13 14  2  0
 13 15  1  0
  6  8  1  0
 14 16  1  0
  7  9  2  0
 15 17  2  0
  8 10  2  0
 16 18  2  0
  9 10  1  0
 17 18  1  0
M  END
> <PUBCHEM_COMPOUND_CID>
6623

> <PUBCHEM_CONFORMER_RMSD>
0.6

> <PUBCHEM_CONFORMER_DIVERSEORDER>
1
3
2

> <PUBCHEM_MMFF94_PARTIAL_CHARGES>
25
1 -0.53
10 -0.15
11 -0.15
12 -0.15
13 -0.15
14 -0.15
15 -0.15
16 0.08
17 0.08
2 -0.53
24 0.15
25 0.15
26 0.15
27 0.15
28 0.15
29 0.15
3 0.29
30 0.15
31 0.15
32 0.45
33 0.45
4 -0.14
5 -0.14
8 -0.15
9 -0.15

> <PUBCHEM_EFFECTIVE_ROTOR_COUNT>
2

> <PUBCHEM_PHARMACOPHORE_FEATURES>
5
1 1 donor
1 2 donor
3 3 6 7 hydrophobe
6 4 8 10 12 14 16 rings
6 5 9 11 13 15 17 rings

> <PUBCHEM_HEAVY_ATOM_COUNT>
17

> <PUBCHEM_ATOM_DEF_STEREO_COUNT>
0

> <PUBCHEM_ATOM_UDEF_STEREO_COUNT>
0

> <PUBCHEM_BOND_DEF_STEREO_COUNT>
0

> <PUBCHEM_BOND_UDEF_STEREO_COUNT>
0

> <PUBCHEM_ISOTOPIC_ATOM_COUNT>
0

> <PUBCHEM_COMPONENT_COUNT>
1

> <PUBCHEM_CACTVS_TAUTO_COUNT>
3

> <PUBCHEM_CONFORMER_ID>
000019DF00000001

> <PUBCHEM_MMFF94_ENERGY>
64.1206

> <PUBCHEM_FEATURE_SELFOVERLAP>
25.372

> <PUBCHEM_SHAPE_FINGERPRINT>
10465860 228 18265052440146906875
10498660 4 17846494807956907777
10618630 7 8862950471944920352
11046707 91 8574440819802817220
11640471 11 18410569587104953028
12138202 97 17632297942700988494
12251169 10 15719115772587467277
12491281 212 18341893034625719138
12633257 1 15647059291015153984
12788726 201 18049710021441717058
12892183 10 15719384001885322888
13571099 52 18261397711031002503
13764800 53 18340221781019704851
14251764 38 17758668950351880149
14739800 52 17985806350554812304
15061688 2 18410575084673810317
15309172 13 17822005415182549066
15342168 16 18187090559068058613
15375462 189 9295287269996453078
15534591 1 18337673126062282338
15653759 3 15068339003624658237
15775835 57 18410853261110395364
15906896 17 18264490774389428130
16945 1 17917141818369727011
17357779 13 13899614313340361589
1741750 31 18337674225716062138
17804303 29 12829490320433961629
1813 80 17692251833473259110
18186145 218 18334012757179395950
19765921 60 18411697656461014379
19868273 293 17988923409424780430
20291156 8 9223230745321134917
20361792 2 9943803365827786299
204376 136 18186802491163379179
20645476 183 18339358668581405150
20671657 53 12751245791825749096
20871999 31 16988551447065141829
21499 59 18412825772344063143
21524375 3 18410855460138945163
21713013 43 13758065299356720749
21731228 192 17894352193594983955
23184049 59 17894627041684797236
23402539 116 17774993601125170188
23557571 272 16557885966252971863
23559900 14 17561366193283564332
298252 57 18202560691760254914
3472631 163 18202563986327517557
4028521 119 17846780714954732865
4340502 62 18114473262852369283
474 4 18336547123060049707
633830 44 18410010996606913815
7364860 26 17700693965181141591
83771 10 9223230749695054610
94968 8 10663806477749826557
9981440 41 18128808828214612290

> <PUBCHEM_SHAPE_MULTIPOLES>
338.11
7.28
2.04
1.32
0.26
0.87
0
-5.89
0
-0.06
0
0
0.27
-0.69

> <PUBCHEM_SHAPE_SELFOVERLAP>
731.212

> <PUBCHEM_SHAPE_VOLUME>
187.1

> <PUBCHEM_COORDINATE_TYPE>
2
5
10

> <Energy>
42.8498

> <minimizedAffinity>
-8.74844

> <CNNscore>
0.8989650607

> <CNNaffinity>
6.9371433258

> <CNN_VS>
6.2362494469

> <CNNaffinity_variance>
0.6200374961

$$$$
6623


 19 20  0  0  0  0  0  0  0  0999 V2000
   -7.2580   -4.8611   12.5444 C   0  0  0  0  0  0  0  0  0  0  0  0
   -6.2414   -4.6722   11.3851 C   0  0  0  0  0  0  0  0  0  0  0  0
   -7.9014   -6.2539   12.3037 C   0  0  0  0  0  0  0  0  0  0  0  0
  -11.4586   -0.9696   12.5413 O   0  0  0  0  0  0  0  0  0  0  0  0
   -8.4089   -3.8262   12.5372 C   0  0  0  0  0  0  0  0  0  0  0  0
   -8.1123   -2.4550   12.3801 C   0  0  0  0  0  0  0  0  0  0  0  0
   -9.7595   -4.1863   12.6848 C   0  0  0  0  0  0  0  0  0  0  0  0
   -9.1195   -1.4855   12.3812 C   0  0  0  0  0  0  0  0  0  0  0  0
  -10.7686   -3.2177   12.6810 C   0  0  0  0  0  0  0  0  0  0  0  0
  -10.4420   -1.8777   12.5326 C   0  0  0  0  0  0  0  0  0  0  0  0
  -11.2721   -0.0567   12.4433 H   0  0  0  0  0  0  0  0  0  0  0  0
   -4.3290   -4.4230   17.4434 O   0  0  0  0  0  0  0  0  0  0  0  0
   -6.4513   -4.7708   13.8616 C   0  0  0  0  0  0  0  0  0  0  0  0
   -7.1281   -4.5585   15.0819 C   0  0  0  0  0  0  0  0  0  0  0  0
   -5.0498   -4.8776   13.9052 C   0  0  0  0  0  0  0  0  0  0  0  0
   -6.4343   -4.4389   16.2894 C   0  0  0  0  0  0  0  0  0  0  0  0
   -4.3557   -4.7636   15.1131 C   0  0  0  0  0  0  0  0  0  0  0  0
   -5.0502   -4.5397   16.2924 C   0  0  0  0  0  0  0  0  0  0  0  0
   -4.7674   -4.2715   18.2576 H   0  0  0  0  0  0  0  0  0  0  0  0
  4 10  1  0
  4 11  1  0
 12 18  1  0
 12 19  1  0
  1  5  1  0
  1 13  1  0
  1  2  1  0
  1  3  1  0
  5  6  2  0
  5  7  1  0
 13 14  2  0
 13 15  1  0
  6  8  1  0
 14 16  1  0
  7  9  2  0
 15 17  2  0
  8 10  2  0
 16 18  2  0
  9 10  1  0
 17 18  1  0
M  END
> <PUBCHEM_COMPOUND_CID>
6623

> <PUBCHEM_CONFORMER_RMSD>
0.6

> <PUBCHEM_CONFORMER_DIVERSEORDER>
1
3
2

> <PUBCHEM_MMFF94_PARTIAL_CHARGES>
25
1 -0.53
10 -0.15
11 -0.15
12 -0.15
13 -0.15
14 -0.15
15 -0.15
16 0.08
17 0.08
2 -0.53
24 0.15
25 0.15
26 0.15
27 0.15
28 0.15
29 0.15
3 0.29
30 0.15
31 0.15
32 0.45
33 0.45
4 -0.14
5 -0.14
8 -0.15
9 -0.15

> <PUBCHEM_EFFECTIVE_ROTOR_COUNT>
2

> <PUBCHEM_PHARMACOPHORE_FEATURES>
5
1 1 donor
1 2 donor
3 3 6 7 hydrophobe
6 4 8 10 12 14 16 rings
6 5 9 11 13 15 17 rings

> <PUBCHEM_HEAVY_ATOM_COUNT>
17

> <PUBCHEM_ATOM_DEF_STEREO_COUNT>
0

> <PUBCHEM_ATOM_UDEF_STEREO_COUNT>
0

> <PUBCHEM_BOND_DEF_STEREO_COUNT>
0

> <PUBCHEM_BOND_UDEF_STEREO_COUNT>
0

> <PUBCHEM_ISOTOPIC_ATOM_COUNT>
0

> <PUBCHEM_COMPONENT_COUNT>
1

> <PUBCHEM_CACTVS_TAUTO_COUNT>
3

> <PUBCHEM_CONFORMER_ID>
000019DF00000001

> <PUBCHEM_MMFF94_ENERGY>
64.1206

> <PUBCHEM_FEATURE_SELFOVERLAP>
25.372

> <PUBCHEM_SHAPE_FINGERPRINT>
10465860 228 18265052440146906875
10498660 4 17846494807956907777
10618630 7 8862950471944920352
11046707 91 8574440819802817220
11640471 11 18410569587104953028
12138202 97 17632297942700988494
12251169 10 15719115772587467277
12491281 212 18341893034625719138
12633257 1 15647059291015153984
12788726 201 18049710021441717058
12892183 10 15719384001885322888
13571099 52 18261397711031002503
13764800 53 18340221781019704851
14251764 38 17758668950351880149
14739800 52 17985806350554812304
15061688 2 18410575084673810317
15309172 13 17822005415182549066
15342168 16 18187090559068058613
15375462 189 9295287269996453078
15534591 1 18337673126062282338
15653759 3 15068339003624658237
15775835 57 18410853261110395364
15906896 17 18264490774389428130
16945 1 17917141818369727011
17357779 13 13899614313340361589
1741750 31 18337674225716062138
17804303 29 12829490320433961629
1813 80 17692251833473259110
18186145 218 18334012757179395950
19765921 60 18411697656461014379
19868273 293 17988923409424780430
20291156 8 9223230745321134917
20361792 2 9943803365827786299
204376 136 18186802491163379179
20645476 183 18339358668581405150
20671657 53 12751245791825749096
20871999 31 16988551447065141829
21499 59 18412825772344063143
21524375 3 18410855460138945163
21713013 43 13758065299356720749
21731228 192 17894352193594983955
23184049 59 17894627041684797236
23402539 116 17774993601125170188
23557571 272 16557885966252971863
23559900 14 17561366193283564332
298252 57 18202560691760254914
3472631 163 18202563986327517557
4028521 119 17846780714954732865
4340502 62 18114473262852369283
474 4 18336547123060049707
633830 44 18410010996606913815
7364860 26 17700693965181141591
83771 10 9223230749695054610
94968 8 10663806477749826557
9981440 41 18128808828214612290

> <PUBCHEM_SHAPE_MULTIPOLES>
338.11
7.28
2.04
1.32
0.26
0.87
0
-5.89
0
-0.06
0
0
0.27
-0.69

> <PUBCHEM_SHAPE_SELFOVERLAP>
731.212

> <PUBCHEM_SHAPE_VOLUME>
187.1

> <PUBCHEM_COORDINATE_TYPE>
2
5
10

> <Energy>
42.8498

> <minimizedAffinity>
-8.74917

> <CNNscore>
0.8963941336

> <CNNaffinity>
6.9239144325

> <CNN_VS>
6.2065563202

> <CNNaffinity_variance>
0.6218958497

$$$$
6623


 19 20  0  0  0  0  0  0  0  0999 V2000
   -7.1857   -4.7400   12.5818 C   0  0  0  0  0  0  0  0  0  0  0  0
   -6.1957   -4.5896   11.3942 C   0  0  0  0  0  0  0  0  0  0  0  0
   -7.8409   -6.1357   12.3962 C   0  0  0  0  0  0  0  0  0  0  0  0
  -11.4832   -0.9563   12.5269 O   0  0  0  0  0  0  0  0  0  0  0  0
   -8.3318   -3.6998   12.5717 C   0  0  0  0  0  0  0  0  0  0  0  0
   -9.6589   -4.1228   12.8013 C   0  0  0  0  0  0  0  0  0  0  0  0
   -8.1171   -2.3305   12.3386 C   0  0  0  0  0  0  0  0  0  0  0  0
  -10.7256   -3.2193   12.7878 C   0  0  0  0  0  0  0  0  0  0  0  0
   -9.1830   -1.4247   12.3299 C   0  0  0  0  0  0  0  0  0  0  0  0
  -10.4763   -1.8748   12.5510 C   0  0  0  0  0  0  0  0  0  0  0  0
  -12.3682   -1.2274   12.6725 H   0  0  0  0  0  0  0  0  0  0  0  0
   -4.1208   -4.1672   17.3828 O   0  0  0  0  0  0  0  0  0  0  0  0
   -6.3480   -4.6164   13.8767 C   0  0  0  0  0  0  0  0  0  0  0  0
   -6.9458   -4.1065   15.0492 C   0  0  0  0  0  0  0  0  0  0  0  0
   -4.9912   -4.9799   13.9437 C   0  0  0  0  0  0  0  0  0  0  0  0
   -6.2159   -3.9487   16.2307 C   0  0  0  0  0  0  0  0  0  0  0  0
   -4.2620   -4.8276   15.1264 C   0  0  0  0  0  0  0  0  0  0  0  0
   -4.8759   -4.3089   16.2566 C   0  0  0  0  0  0  0  0  0  0  0  0
   -4.5049   -3.8199   18.1637 H   0  0  0  0  0  0  0  0  0  0  0  0
  4 10  1  0
  4 11  1  0
 12 18  1  0
 12 19  1  0
  1  5  1  0
  1 13  1  0
  1  2  1  0
  1  3  1  0
  5  6  2  0
  5  7  1  0
 13 14  2  0
 13 15  1  0
  6  8  1  0
 14 16  1  0
  7  9  2  0
 15 17  2  0
  8 10  2  0
 16 18  2  0
  9 10  1  0
 17 18  1  0
M  END
> <PUBCHEM_COMPOUND_CID>
6623

> <PUBCHEM_CONFORMER_RMSD>
0.6

> <PUBCHEM_CONFORMER_DIVERSEORDER>
1
3
2

> <PUBCHEM_MMFF94_PARTIAL_CHARGES>
25
1 -0.53
10 -0.15
11 -0.15
12 -0.15
13 -0.15
14 -0.15
15 -0.15
16 0.08
17 0.08
2 -0.53
24 0.15
25 0.15
26 0.15
27 0.15
28 0.15
29 0.15
3 0.29
30 0.15
31 0.15
32 0.45
33 0.45
4 -0.14
5 -0.14
8 -0.15
9 -0.15

> <PUBCHEM_EFFECTIVE_ROTOR_COUNT>
2

> <PUBCHEM_PHARMACOPHORE_FEATURES>
5
1 1 donor
1 2 donor
3 3 6 7 hydrophobe
6 4 8 10 12 14 16 rings
6 5 9 11 13 15 17 rings

> <PUBCHEM_HEAVY_ATOM_COUNT>
17

> <PUBCHEM_ATOM_DEF_STEREO_COUNT>
0

> <PUBCHEM_ATOM_UDEF_STEREO_COUNT>
0

> <PUBCHEM_BOND_DEF_STEREO_COUNT>
0

> <PUBCHEM_BOND_UDEF_STEREO_COUNT>
0

> <PUBCHEM_ISOTOPIC_ATOM_COUNT>
0

> <PUBCHEM_COMPONENT_COUNT>
1

> <PUBCHEM_CACTVS_TAUTO_COUNT>
3

> <PUBCHEM_CONFORMER_ID>
000019DF00000001

> <PUBCHEM_MMFF94_ENERGY>
64.1206

> <PUBCHEM_FEATURE_SELFOVERLAP>
25.372

> <PUBCHEM_SHAPE_FINGERPRINT>
10465860 228 18265052440146906875
10498660 4 17846494807956907777
10618630 7 8862950471944920352
11046707 91 8574440819802817220
11640471 11 18410569587104953028
12138202 97 17632297942700988494
12251169 10 15719115772587467277
12491281 212 18341893034625719138
12633257 1 15647059291015153984
12788726 201 18049710021441717058
12892183 10 15719384001885322888
13571099 52 18261397711031002503
13764800 53 18340221781019704851
14251764 38 17758668950351880149
14739800 52 17985806350554812304
15061688 2 18410575084673810317
15309172 13 17822005415182549066
15342168 16 18187090559068058613
15375462 189 9295287269996453078
15534591 1 18337673126062282338
15653759 3 15068339003624658237
15775835 57 18410853261110395364
15906896 17 18264490774389428130
16945 1 17917141818369727011
17357779 13 13899614313340361589
1741750 31 18337674225716062138
17804303 29 12829490320433961629
1813 80 17692251833473259110
18186145 218 18334012757179395950
19765921 60 18411697656461014379
19868273 293 17988923409424780430
20291156 8 9223230745321134917
20361792 2 9943803365827786299
204376 136 18186802491163379179
20645476 183 18339358668581405150
20671657 53 12751245791825749096
20871999 31 16988551447065141829
21499 59 18412825772344063143
21524375 3 18410855460138945163
21713013 43 13758065299356720749
21731228 192 17894352193594983955
23184049 59 17894627041684797236
23402539 116 17774993601125170188
23557571 272 16557885966252971863
23559900 14 17561366193283564332
298252 57 18202560691760254914
3472631 163 18202563986327517557
4028521 119 17846780714954732865
4340502 62 18114473262852369283
474 4 18336547123060049707
633830 44 18410010996606913815
7364860 26 17700693965181141591
83771 10 9223230749695054610
94968 8 10663806477749826557
9981440 41 18128808828214612290

> <PUBCHEM_SHAPE_MULTIPOLES>
338.11
7.28
2.04
1.32
0.26
0.87
0
-5.89
0
-0.06
0
0
0.27
-0.69

> <PUBCHEM_SHAPE_SELFOVERLAP>
731.212

> <PUBCHEM_SHAPE_VOLUME>
187.1

> <PUBCHEM_COORDINATE_TYPE>
2
5
10

> <Energy>
42.8498

> <minimizedAffinity>
-8.83344

> <CNNscore>
0.8931945562

> <CNNaffinity>
6.9715442657

> <CNN_VS>
6.2269454002

> <CNNaffinity_variance>
0.6783676147

$$$$
6623


 19 20  0  0  0  0  0  0  0  0999 V2000
   -7.2817   -4.8342   12.5875 C   0  0  0  0  0  0  0  0  0  0  0  0
   -6.2424   -4.6375   11.4498 C   0  0  0  0  0  0  0  0  0  0  0  0
   -7.9113   -6.2307   12.3320 C   0  0  0  0  0  0  0  0  0  0  0  0
  -11.5056   -0.9690   12.5005 O   0  0  0  0  0  0  0  0  0  0  0  0
   -8.4387   -3.8065   12.5575 C   0  0  0  0  0  0  0  0  0  0  0  0
   -8.1480   -2.4341   12.3998 C   0  0  0  0  0  0  0  0  0  0  0  0
   -9.7893   -4.1744   12.6844 C   0  0  0  0  0  0  0  0  0  0  0  0
   -9.1611   -1.4709   12.3806 C   0  0  0  0  0  0  0  0  0  0  0  0
  -10.8042   -3.2121   12.6603 C   0  0  0  0  0  0  0  0  0  0  0  0
  -10.4834   -1.8707   12.5120 C   0  0  0  0  0  0  0  0  0  0  0  0
  -11.3231   -0.0552   12.4020 H   0  0  0  0  0  0  0  0  0  0  0  0
   -4.3470   -4.5922   17.4966 O   0  0  0  0  0  0  0  0  0  0  0  0
   -6.5032   -4.7405   13.9212 C   0  0  0  0  0  0  0  0  0  0  0  0
   -5.0987   -4.8801   13.9214 C   0  0  0  0  0  0  0  0  0  0  0  0
   -7.1363   -4.5330   15.1597 C   0  0  0  0  0  0  0  0  0  0  0  0
   -4.3613   -4.8340   15.1079 C   0  0  0  0  0  0  0  0  0  0  0  0
   -6.3991   -4.4813   16.3461 C   0  0  0  0  0  0  0  0  0  0  0  0
   -5.0215   -4.6377   16.3128 C   0  0  0  0  0  0  0  0  0  0  0  0
   -3.4156   -4.6943   17.5093 H   0  0  0  0  0  0  0  0  0  0  0  0
  4 10  1  0
  4 11  1  0
 12 18  1  0
 12 19  1  0
  1  5  1  0
  1 13  1  0
  1  2  1  0
  1  3  1  0
  5  6  2  0
  5  7  1  0
 13 14  2  0
 13 15  1  0
  6  8  1  0
 14 16  1  0
  7  9  2  0
 15 17  2  0
  8 10  2  0
 16 18  2  0
  9 10  1  0
 17 18  1  0
M  END
> <PUBCHEM_COMPOUND_CID>
6623

> <PUBCHEM_CONFORMER_RMSD>
0.6

> <PUBCHEM_CONFORMER_DIVERSEORDER>
1
3
2

> <PUBCHEM_MMFF94_PARTIAL_CHARGES>
25
1 -0.53
10 -0.15
11 -0.15
12 -0.15
13 -0.15
14 -0.15
15 -0.15
16 0.08
17 0.08
2 -0.53
24 0.15
25 0.15
26 0.15
27 0.15
28 0.15
29 0.15
3 0.29
30 0.15
31 0.15
32 0.45
33 0.45
4 -0.14
5 -0.14
8 -0.15
9 -0.15

> <PUBCHEM_EFFECTIVE_ROTOR_COUNT>
2

> <PUBCHEM_PHARMACOPHORE_FEATURES>
5
1 1 donor
1 2 donor
3 3 6 7 hydrophobe
6 4 8 10 12 14 16 rings
6 5 9 11 13 15 17 rings

> <PUBCHEM_HEAVY_ATOM_COUNT>
17

> <PUBCHEM_ATOM_DEF_STEREO_COUNT>
0

> <PUBCHEM_ATOM_UDEF_STEREO_COUNT>
0

> <PUBCHEM_BOND_DEF_STEREO_COUNT>
0

> <PUBCHEM_BOND_UDEF_STEREO_COUNT>
0

> <PUBCHEM_ISOTOPIC_ATOM_COUNT>
0

> <PUBCHEM_COMPONENT_COUNT>
1

> <PUBCHEM_CACTVS_TAUTO_COUNT>
3

> <PUBCHEM_CONFORMER_ID>
000019DF00000001

> <PUBCHEM_MMFF94_ENERGY>
64.1206

> <PUBCHEM_FEATURE_SELFOVERLAP>
25.372

> <PUBCHEM_SHAPE_FINGERPRINT>
10465860 228 18265052440146906875
10498660 4 17846494807956907777
10618630 7 8862950471944920352
11046707 91 8574440819802817220
11640471 11 18410569587104953028
12138202 97 17632297942700988494
12251169 10 15719115772587467277
12491281 212 18341893034625719138
12633257 1 15647059291015153984
12788726 201 18049710021441717058
12892183 10 15719384001885322888
13571099 52 18261397711031002503
13764800 53 18340221781019704851
14251764 38 17758668950351880149
14739800 52 17985806350554812304
15061688 2 18410575084673810317
15309172 13 17822005415182549066
15342168 16 18187090559068058613
15375462 189 9295287269996453078
15534591 1 18337673126062282338
15653759 3 15068339003624658237
15775835 57 18410853261110395364
15906896 17 18264490774389428130
16945 1 17917141818369727011
17357779 13 13899614313340361589
1741750 31 18337674225716062138
17804303 29 12829490320433961629
1813 80 17692251833473259110
18186145 218 18334012757179395950
19765921 60 18411697656461014379
19868273 293 17988923409424780430
20291156 8 9223230745321134917
20361792 2 9943803365827786299
204376 136 18186802491163379179
20645476 183 18339358668581405150
20671657 53 12751245791825749096
20871999 31 16988551447065141829
21499 59 18412825772344063143
21524375 3 18410855460138945163
21713013 43 13758065299356720749
21731228 192 17894352193594983955
23184049 59 17894627041684797236
23402539 116 17774993601125170188
23557571 272 16557885966252971863
23559900 14 17561366193283564332
298252 57 18202560691760254914
3472631 163 18202563986327517557
4028521 119 17846780714954732865
4340502 62 18114473262852369283
474 4 18336547123060049707
633830 44 18410010996606913815
7364860 26 17700693965181141591
83771 10 9223230749695054610
94968 8 10663806477749826557
9981440 41 18128808828214612290

> <PUBCHEM_SHAPE_MULTIPOLES>
338.11
7.28
2.04
1.32
0.26
0.87
0
-5.89
0
-0.06
0
0
0.27
-0.69

> <PUBCHEM_SHAPE_SELFOVERLAP>
731.212

> <PUBCHEM_SHAPE_VOLUME>
187.1

> <PUBCHEM_COORDINATE_TYPE>
2
5
10

> <Energy>
42.8498

> <minimizedAffinity>
-8.74015

> <CNNscore>
0.8877364397

> <CNNaffinity>
6.8648877144

> <CNN_VS>
6.0942111015

> <CNNaffinity_variance>
0.5538994074

$$$$
6623


 19 20  0  0  0  0  0  0  0  0999 V2000
   -7.1591   -4.7021   12.6030 C   0  0  0  0  0  0  0  0  0  0  0  0
   -7.8033   -6.1049   12.4290 C   0  0  0  0  0  0  0  0  0  0  0  0
   -6.1872   -4.5445   11.4020 C   0  0  0  0  0  0  0  0  0  0  0  0
   -4.0728   -4.1205   17.3910 O   0  0  0  0  0  0  0  0  0  0  0  0
   -6.3106   -4.5626   13.8900 C   0  0  0  0  0  0  0  0  0  0  0  0
   -6.8779   -3.9677   15.0377 C   0  0  0  0  0  0  0  0  0  0  0  0
   -4.9787   -5.0028   13.9770 C   0  0  0  0  0  0  0  0  0  0  0  0
   -6.1434   -3.8098   16.2167 C   0  0  0  0  0  0  0  0  0  0  0  0
   -4.2443   -4.8498   15.1577 C   0  0  0  0  0  0  0  0  0  0  0  0
   -4.8294   -4.2534   16.2650 C   0  0  0  0  0  0  0  0  0  0  0  0
   -4.4379   -3.7221   18.1564 H   0  0  0  0  0  0  0  0  0  0  0  0
  -11.5091   -0.9818   12.5154 O   0  0  0  0  0  0  0  0  0  0  0  0
   -8.3184   -3.6775   12.6001 C   0  0  0  0  0  0  0  0  0  0  0  0
   -9.6361   -4.1132   12.8570 C   0  0  0  0  0  0  0  0  0  0  0  0
   -8.1254   -2.3098   12.3359 C   0  0  0  0  0  0  0  0  0  0  0  0
  -10.7156   -3.2256   12.8320 C   0  0  0  0  0  0  0  0  0  0  0  0
   -9.2036   -1.4207   12.3162 C   0  0  0  0  0  0  0  0  0  0  0  0
  -10.4882   -1.8843   12.5576 C   0  0  0  0  0  0  0  0  0  0  0  0
  -12.3890   -1.2621   12.6739 H   0  0  0  0  0  0  0  0  0  0  0  0
  4 10  1  0
  4 11  1  0
 12 18  1  0
 12 19  1  0
  1  5  1  0
  1 13  1  0
  1  2  1  0
  1  3  1  0
  5  6  2  0
  5  7  1  0
 13 14  2  0
 13 15  1  0
  6  8  1  0
 14 16  1  0
  7  9  2  0
 15 17  2  0
  8 10  2  0
 16 18  2  0
  9 10  1  0
 17 18  1  0
M  END
> <PUBCHEM_COMPOUND_CID>
6623

> <PUBCHEM_CONFORMER_RMSD>
0.6

> <PUBCHEM_CONFORMER_DIVERSEORDER>
1
3
2

> <PUBCHEM_MMFF94_PARTIAL_CHARGES>
25
1 -0.53
10 -0.15
11 -0.15
12 -0.15
13 -0.15
14 -0.15
15 -0.15
16 0.08
17 0.08
2 -0.53
24 0.15
25 0.15
26 0.15
27 0.15
28 0.15
29 0.15
3 0.29
30 0.15
31 0.15
32 0.45
33 0.45
4 -0.14
5 -0.14
8 -0.15
9 -0.15

> <PUBCHEM_EFFECTIVE_ROTOR_COUNT>
2

> <PUBCHEM_PHARMACOPHORE_FEATURES>
5
1 1 donor
1 2 donor
3 3 6 7 hydrophobe
6 4 8 10 12 14 16 rings
6 5 9 11 13 15 17 rings

> <PUBCHEM_HEAVY_ATOM_COUNT>
17

> <PUBCHEM_ATOM_DEF_STEREO_COUNT>
0

> <PUBCHEM_ATOM_UDEF_STEREO_COUNT>
0

> <PUBCHEM_BOND_DEF_STEREO_COUNT>
0

> <PUBCHEM_BOND_UDEF_STEREO_COUNT>
0

> <PUBCHEM_ISOTOPIC_ATOM_COUNT>
0

> <PUBCHEM_COMPONENT_COUNT>
1

> <PUBCHEM_CACTVS_TAUTO_COUNT>
3

> <PUBCHEM_CONFORMER_ID>
000019DF00000001

> <PUBCHEM_MMFF94_ENERGY>
64.1206

> <PUBCHEM_FEATURE_SELFOVERLAP>
25.372

> <PUBCHEM_SHAPE_FINGERPRINT>
10465860 228 18265052440146906875
10498660 4 17846494807956907777
10618630 7 8862950471944920352
11046707 91 8574440819802817220
11640471 11 18410569587104953028
12138202 97 17632297942700988494
12251169 10 15719115772587467277
12491281 212 18341893034625719138
12633257 1 15647059291015153984
12788726 201 18049710021441717058
12892183 10 15719384001885322888
13571099 52 18261397711031002503
13764800 53 18340221781019704851
14251764 38 17758668950351880149
14739800 52 17985806350554812304
15061688 2 18410575084673810317
15309172 13 17822005415182549066
15342168 16 18187090559068058613
15375462 189 9295287269996453078
15534591 1 18337673126062282338
15653759 3 15068339003624658237
15775835 57 18410853261110395364
15906896 17 18264490774389428130
16945 1 17917141818369727011
17357779 13 13899614313340361589
1741750 31 18337674225716062138
17804303 29 12829490320433961629
1813 80 17692251833473259110
18186145 218 18334012757179395950
19765921 60 18411697656461014379
19868273 293 17988923409424780430
20291156 8 9223230745321134917
20361792 2 9943803365827786299
204376 136 18186802491163379179
20645476 183 18339358668581405150
20671657 53 12751245791825749096
20871999 31 16988551447065141829
21499 59 18412825772344063143
21524375 3 18410855460138945163
21713013 43 13758065299356720749
21731228 192 17894352193594983955
23184049 59 17894627041684797236
23402539 116 17774993601125170188
23557571 272 16557885966252971863
23559900 14 17561366193283564332
298252 57 18202560691760254914
3472631 163 18202563986327517557
4028521 119 17846780714954732865
4340502 62 18114473262852369283
474 4 18336547123060049707
633830 44 18410010996606913815
7364860 26 17700693965181141591
83771 10 9223230749695054610
94968 8 10663806477749826557
9981440 41 18128808828214612290

> <PUBCHEM_SHAPE_MULTIPOLES>
338.11
7.28
2.04
1.32
0.26
0.87
0
-5.89
0
-0.06
0
0
0.27
-0.69

> <PUBCHEM_SHAPE_SELFOVERLAP>
731.212

> <PUBCHEM_SHAPE_VOLUME>
187.1

> <PUBCHEM_COORDINATE_TYPE>
2
5
10

> <Energy>
42.8498

> <minimizedAffinity>
-8.85821

> <CNNscore>
0.8868733048

> <CNNaffinity>
6.9964900017

> <CNN_VS>
6.2050004005

> <CNNaffinity_variance>
0.7086703181

$$$$
6623


 19 20  0  0  0  0  0  0  0  0999 V2000
   -8.1556   -3.5027   13.0409 C   0  0  0  0  0  0  0  0  0  0  0  0
   -9.5985   -3.3709   13.6010 C   0  0  0  0  0  0  0  0  0  0  0  0
   -7.8101   -2.1035   12.4623 C   0  0  0  0  0  0  0  0  0  0  0  0
   -7.7071   -7.1816    8.6760 O   0  0  0  0  0  0  0  0  0  0  0  0
   -8.0304   -4.5148   11.8766 C   0  0  0  0  0  0  0  0  0  0  0  0
   -7.7000   -4.0529   10.5841 C   0  0  0  0  0  0  0  0  0  0  0  0
   -8.2351   -5.8956   12.0407 C   0  0  0  0  0  0  0  0  0  0  0  0
   -7.5897   -4.9304    9.5015 C   0  0  0  0  0  0  0  0  0  0  0  0
   -8.1202   -6.7752   10.9592 C   0  0  0  0  0  0  0  0  0  0  0  0
   -7.8021   -6.2873    9.7003 C   0  0  0  0  0  0  0  0  0  0  0  0
   -7.4938   -6.8848    7.8132 H   0  0  0  0  0  0  0  0  0  0  0  0
   -4.8860   -4.9783   17.5023 O   0  0  0  0  0  0  0  0  0  0  0  0
   -7.2552   -3.9218   14.2273 C   0  0  0  0  0  0  0  0  0  0  0  0
   -7.8463   -4.3521   15.4346 C   0  0  0  0  0  0  0  0  0  0  0  0
   -5.8507   -3.8822   14.1686 C   0  0  0  0  0  0  0  0  0  0  0  0
   -7.0694   -4.7086   16.5405 C   0  0  0  0  0  0  0  0  0  0  0  0
   -5.0730   -4.2438   15.2723 C   0  0  0  0  0  0  0  0  0  0  0  0
   -5.6859   -4.6475   16.4491 C   0  0  0  0  0  0  0  0  0  0  0  0
   -5.2681   -5.2552   18.3118 H   0  0  0  0  0  0  0  0  0  0  0  0
  4 10  1  0
  4 11  1  0
 12 18  1  0
 12 19  1  0
  1  5  1  0
  1 13  1  0
  1  2  1  0
  1  3  1  0
  5  6  2  0
  5  7  1  0
 13 14  2  0
 13 15  1  0
  6  8  1  0
 14 16  1  0
  7  9  2  0
 15 17  2  0
  8 10  2  0
 16 18  2  0
  9 10  1  0
 17 18  1  0
M  END
> <PUBCHEM_COMPOUND_CID>
6623

> <PUBCHEM_CONFORMER_RMSD>
0.6

> <PUBCHEM_CONFORMER_DIVERSEORDER>
1
3
2

> <PUBCHEM_MMFF94_PARTIAL_CHARGES>
25
1 -0.53
10 -0.15
11 -0.15
12 -0.15
13 -0.15
14 -0.15
15 -0.15
16 0.08
17 0.08
2 -0.53
24 0.15
25 0.15
26 0.15
27 0.15
28 0.15
29 0.15
3 0.29
30 0.15
31 0.15
32 0.45
33 0.45
4 -0.14
5 -0.14
8 -0.15
9 -0.15

> <PUBCHEM_EFFECTIVE_ROTOR_COUNT>
2

> <PUBCHEM_PHARMACOPHORE_FEATURES>
5
1 1 donor
1 2 donor
3 3 6 7 hydrophobe
6 4 8 10 12 14 16 rings
6 5 9 11 13 15 17 rings

> <PUBCHEM_HEAVY_ATOM_COUNT>
17

> <PUBCHEM_ATOM_DEF_STEREO_COUNT>
0

> <PUBCHEM_ATOM_UDEF_STEREO_COUNT>
0

> <PUBCHEM_BOND_DEF_STEREO_COUNT>
0

> <PUBCHEM_BOND_UDEF_STEREO_COUNT>
0

> <PUBCHEM_ISOTOPIC_ATOM_COUNT>
0

> <PUBCHEM_COMPONENT_COUNT>
1

> <PUBCHEM_CACTVS_TAUTO_COUNT>
3

> <PUBCHEM_CONFORMER_ID>
000019DF00000001

> <PUBCHEM_MMFF94_ENERGY>
64.1206

> <PUBCHEM_FEATURE_SELFOVERLAP>
25.372

> <PUBCHEM_SHAPE_FINGERPRINT>
10465860 228 18265052440146906875
10498660 4 17846494807956907777
10618630 7 8862950471944920352
11046707 91 8574440819802817220
11640471 11 18410569587104953028
12138202 97 17632297942700988494
12251169 10 15719115772587467277
12491281 212 18341893034625719138
12633257 1 15647059291015153984
12788726 201 18049710021441717058
12892183 10 15719384001885322888
13571099 52 18261397711031002503
13764800 53 18340221781019704851
14251764 38 17758668950351880149
14739800 52 17985806350554812304
15061688 2 18410575084673810317
15309172 13 17822005415182549066
15342168 16 18187090559068058613
15375462 189 9295287269996453078
15534591 1 18337673126062282338
15653759 3 15068339003624658237
15775835 57 18410853261110395364
15906896 17 18264490774389428130
16945 1 17917141818369727011
17357779 13 13899614313340361589
1741750 31 18337674225716062138
17804303 29 12829490320433961629
1813 80 17692251833473259110
18186145 218 18334012757179395950
19765921 60 18411697656461014379
19868273 293 17988923409424780430
20291156 8 9223230745321134917
20361792 2 9943803365827786299
204376 136 18186802491163379179
20645476 183 18339358668581405150
20671657 53 12751245791825749096
20871999 31 16988551447065141829
21499 59 18412825772344063143
21524375 3 18410855460138945163
21713013 43 13758065299356720749
21731228 192 17894352193594983955
23184049 59 17894627041684797236
23402539 116 17774993601125170188
23557571 272 16557885966252971863
23559900 14 17561366193283564332
298252 57 18202560691760254914
3472631 163 18202563986327517557
4028521 119 17846780714954732865
4340502 62 18114473262852369283
474 4 18336547123060049707
633830 44 18410010996606913815
7364860 26 17700693965181141591
83771 10 9223230749695054610
94968 8 10663806477749826557
9981440 41 18128808828214612290

> <PUBCHEM_SHAPE_MULTIPOLES>
338.11
7.28
2.04
1.32
0.26
0.87
0
-5.89
0
-0.06
0
0
0.27
-0.69

> <PUBCHEM_SHAPE_SELFOVERLAP>
731.212

> <PUBCHEM_SHAPE_VOLUME>
187.1

> <PUBCHEM_COORDINATE_TYPE>
2
5
10

> <Energy>
42.8498

> <minimizedAffinity>
-7.81331

> <CNNscore>
0.7336897254

> <CNNaffinity>
6.8951125145

> <CNN_VS>
5.0588731766

> <CNNaffinity_variance>
0.7318814397

$$$$
6623


 19 20  0  0  0  0  0  0  0  0999 V2000
   -8.1394   -3.4790   13.0653 C   0  0  0  0  0  0  0  0  0  0  0  0
   -7.8048   -2.0757   12.4892 C   0  0  0  0  0  0  0  0  0  0  0  0
   -9.5844   -3.3607   13.6218 C   0  0  0  0  0  0  0  0  0  0  0  0
   -4.8571   -5.0120   17.4998 O   0  0  0  0  0  0  0  0  0  0  0  0
   -7.2341   -3.8974   14.2490 C   0  0  0  0  0  0  0  0  0  0  0  0
   -7.8221   -4.3422   15.4529 C   0  0  0  0  0  0  0  0  0  0  0  0
   -5.8306   -3.8543   14.1883 C   0  0  0  0  0  0  0  0  0  0  0  0
   -7.0425   -4.7169   16.5511 C   0  0  0  0  0  0  0  0  0  0  0  0
   -5.0493   -4.2337   15.2848 C   0  0  0  0  0  0  0  0  0  0  0  0
   -5.6592   -4.6583   16.4560 C   0  0  0  0  0  0  0  0  0  0  0  0
   -5.2373   -5.3033   18.3051 H   0  0  0  0  0  0  0  0  0  0  0  0
   -7.7184   -7.1216    8.6693 O   0  0  0  0  0  0  0  0  0  0  0  0
   -8.0065   -4.4826   11.8954 C   0  0  0  0  0  0  0  0  0  0  0  0
   -7.6150   -4.0211   10.6203 C   0  0  0  0  0  0  0  0  0  0  0  0
   -8.2742   -5.8560   12.0360 C   0  0  0  0  0  0  0  0  0  0  0  0
   -7.5141   -4.8894    9.5297 C   0  0  0  0  0  0  0  0  0  0  0  0
   -8.1683   -6.7259   10.9471 C   0  0  0  0  0  0  0  0  0  0  0  0
   -7.7959   -6.2371    9.7038 C   0  0  0  0  0  0  0  0  0  0  0  0
   -7.4697   -6.8240    7.8163 H   0  0  0  0  0  0  0  0  0  0  0  0
  4 10  1  0
  4 11  1  0
 12 18  1  0
 12 19  1  0
  1  5  1  0
  1 13  1  0
  1  2  1  0
  1  3  1  0
  5  6  2  0
  5  7  1  0
 13 14  2  0
 13 15  1  0
  6  8  1  0
 14 16  1  0
  7  9  2  0
 15 17  2  0
  8 10  2  0
 16 18  2  0
  9 10  1  0
 17 18  1  0
M  END
> <PUBCHEM_COMPOUND_CID>
6623

> <PUBCHEM_CONFORMER_RMSD>
0.6

> <PUBCHEM_CONFORMER_DIVERSEORDER>
1
3
2

> <PUBCHEM_MMFF94_PARTIAL_CHARGES>
25
1 -0.53
10 -0.15
11 -0.15
12 -0.15
13 -0.15
14 -0.15
15 -0.15
16 0.08
17 0.08
2 -0.53
24 0.15
25 0.15
26 0.15
27 0.15
28 0.15
29 0.15
3 0.29
30 0.15
31 0.15
32 0.45
33 0.45
4 -0.14
5 -0.14
8 -0.15
9 -0.15

> <PUBCHEM_EFFECTIVE_ROTOR_COUNT>
2

> <PUBCHEM_PHARMACOPHORE_FEATURES>
5
1 1 donor
1 2 donor
3 3 6 7 hydrophobe
6 4 8 10 12 14 16 rings
6 5 9 11 13 15 17 rings

> <PUBCHEM_HEAVY_ATOM_COUNT>
17

> <PUBCHEM_ATOM_DEF_STEREO_COUNT>
0

> <PUBCHEM_ATOM_UDEF_STEREO_COUNT>
0

> <PUBCHEM_BOND_DEF_STEREO_COUNT>
0

> <PUBCHEM_BOND_UDEF_STEREO_COUNT>
0

> <PUBCHEM_ISOTOPIC_ATOM_COUNT>
0

> <PUBCHEM_COMPONENT_COUNT>
1

> <PUBCHEM_CACTVS_TAUTO_COUNT>
3

> <PUBCHEM_CONFORMER_ID>
000019DF00000001

> <PUBCHEM_MMFF94_ENERGY>
64.1206

> <PUBCHEM_FEATURE_SELFOVERLAP>
25.372

> <PUBCHEM_SHAPE_FINGERPRINT>
10465860 228 18265052440146906875
10498660 4 17846494807956907777
10618630 7 8862950471944920352
11046707 91 8574440819802817220
11640471 11 18410569587104953028
12138202 97 17632297942700988494
12251169 10 15719115772587467277
12491281 212 18341893034625719138
12633257 1 15647059291015153984
12788726 201 18049710021441717058
12892183 10 15719384001885322888
13571099 52 18261397711031002503
13764800 53 18340221781019704851
14251764 38 17758668950351880149
14739800 52 17985806350554812304
15061688 2 18410575084673810317
15309172 13 17822005415182549066
15342168 16 18187090559068058613
15375462 189 9295287269996453078
15534591 1 18337673126062282338
15653759 3 15068339003624658237
15775835 57 18410853261110395364
15906896 17 18264490774389428130
16945 1 17917141818369727011
17357779 13 13899614313340361589
1741750 31 18337674225716062138
17804303 29 12829490320433961629
1813 80 17692251833473259110
18186145 218 18334012757179395950
19765921 60 18411697656461014379
19868273 293 17988923409424780430
20291156 8 9223230745321134917
20361792 2 9943803365827786299
204376 136 18186802491163379179
20645476 183 18339358668581405150
20671657 53 12751245791825749096
20871999 31 16988551447065141829
21499 59 18412825772344063143
21524375 3 18410855460138945163
21713013 43 13758065299356720749
21731228 192 17894352193594983955
23184049 59 17894627041684797236
23402539 116 17774993601125170188
23557571 272 16557885966252971863
23559900 14 17561366193283564332
298252 57 18202560691760254914
3472631 163 18202563986327517557
4028521 119 17846780714954732865
4340502 62 18114473262852369283
474 4 18336547123060049707
633830 44 18410010996606913815
7364860 26 17700693965181141591
83771 10 9223230749695054610
94968 8 10663806477749826557
9981440 41 18128808828214612290

> <PUBCHEM_SHAPE_MULTIPOLES>
338.11
7.28
2.04
1.32
0.26
0.87
0
-5.89
0
-0.06
0
0
0.27
-0.69

> <PUBCHEM_SHAPE_SELFOVERLAP>
731.212

> <PUBCHEM_SHAPE_VOLUME>
187.1

> <PUBCHEM_COORDINATE_TYPE>
2
5
10

> <Energy>
42.8498

> <minimizedAffinity>
-7.83841

> <CNNscore>
0.7263361216

> <CNNaffinity>
6.8780632019

> <CNN_VS>
4.9957857132

> <CNNaffinity_variance>
0.7105287910

$$$$
6623


 19 20  0  0  0  0  0  0  0  0999 V2000
   -5.5817   -4.4463   12.9336 C   0  0  0  0  0  0  0  0  0  0  0  0
   -4.4606   -5.1867   12.1539 C   0  0  0  0  0  0  0  0  0  0  0  0
   -5.2866   -2.9339   12.7401 C   0  0  0  0  0  0  0  0  0  0  0  0
   -5.4394   -5.4988   18.5604 O   0  0  0  0  0  0  0  0  0  0  0  0
   -5.5627   -4.7172   14.4574 C   0  0  0  0  0  0  0  0  0  0  0  0
   -4.3572   -5.1053   15.0813 C   0  0  0  0  0  0  0  0  0  0  0  0
   -6.7048   -4.5979   15.2678 C   0  0  0  0  0  0  0  0  0  0  0  0
   -4.2981   -5.3728   16.4522 C   0  0  0  0  0  0  0  0  0  0  0  0
   -6.6458   -4.8604   16.6405 C   0  0  0  0  0  0  0  0  0  0  0  0
   -5.4469   -5.2478   17.2206 C   0  0  0  0  0  0  0  0  0  0  0  0
   -4.6459   -5.7623   18.9832 H   0  0  0  0  0  0  0  0  0  0  0  0
  -10.4946   -6.1820   10.5626 O   0  0  0  0  0  0  0  0  0  0  0  0
   -6.9259   -4.8990   12.3157 C   0  0  0  0  0  0  0  0  0  0  0  0
   -7.1518   -6.2690   12.0622 C   0  0  0  0  0  0  0  0  0  0  0  0
   -7.9493   -3.9970   11.9741 C   0  0  0  0  0  0  0  0  0  0  0  0
   -8.3392   -6.7160   11.4757 C   0  0  0  0  0  0  0  0  0  0  0  0
   -9.1392   -4.4438   11.3926 C   0  0  0  0  0  0  0  0  0  0  0  0
   -9.3229   -5.7955   11.1426 C   0  0  0  0  0  0  0  0  0  0  0  0
  -10.6505   -7.0878   10.3802 H   0  0  0  0  0  0  0  0  0  0  0  0
  4 10  1  0
  4 11  1  0
 12 18  1  0
 12 19  1  0
  1  5  1  0
  1 13  1  0
  1  2  1  0
  1  3  1  0
  5  6  2  0
  5  7  1  0
 13 14  2  0
 13 15  1  0
  6  8  1  0
 14 16  1  0
  7  9  2  0
 15 17  2  0
  8 10  2  0
 16 18  2  0
  9 10  1  0
 17 18  1  0
M  END
> <PUBCHEM_COMPOUND_CID>
6623

> <PUBCHEM_CONFORMER_RMSD>
0.6

> <PUBCHEM_CONFORMER_DIVERSEORDER>
1
3
2

> <PUBCHEM_MMFF94_PARTIAL_CHARGES>
25
1 -0.53
10 -0.15
11 -0.15
12 -0.15
13 -0.15
14 -0.15
15 -0.15
16 0.08
17 0.08
2 -0.53
24 0.15
25 0.15
26 0.15
27 0.15
28 0.15
29 0.15
3 0.29
30 0.15
31 0.15
32 0.45
33 0.45
4 -0.14
5 -0.14
8 -0.15
9 -0.15

> <PUBCHEM_EFFECTIVE_ROTOR_COUNT>
2

> <PUBCHEM_PHARMACOPHORE_FEATURES>
5
1 1 donor
1 2 donor
3 3 6 7 hydrophobe
6 4 8 10 12 14 16 rings
6 5 9 11 13 15 17 rings

> <PUBCHEM_HEAVY_ATOM_COUNT>
17

> <PUBCHEM_ATOM_DEF_STEREO_COUNT>
0

> <PUBCHEM_ATOM_UDEF_STEREO_COUNT>
0

> <PUBCHEM_BOND_DEF_STEREO_COUNT>
0

> <PUBCHEM_BOND_UDEF_STEREO_COUNT>
0

> <PUBCHEM_ISOTOPIC_ATOM_COUNT>
0

> <PUBCHEM_COMPONENT_COUNT>
1

> <PUBCHEM_CACTVS_TAUTO_COUNT>
3

> <PUBCHEM_CONFORMER_ID>
000019DF00000001

> <PUBCHEM_MMFF94_ENERGY>
64.1206

> <PUBCHEM_FEATURE_SELFOVERLAP>
25.372

> <PUBCHEM_SHAPE_FINGERPRINT>
10465860 228 18265052440146906875
10498660 4 17846494807956907777
10618630 7 8862950471944920352
11046707 91 8574440819802817220
11640471 11 18410569587104953028
12138202 97 17632297942700988494
12251169 10 15719115772587467277
12491281 212 18341893034625719138
12633257 1 15647059291015153984
12788726 201 18049710021441717058
12892183 10 15719384001885322888
13571099 52 18261397711031002503
13764800 53 18340221781019704851
14251764 38 17758668950351880149
14739800 52 17985806350554812304
15061688 2 18410575084673810317
15309172 13 17822005415182549066
15342168 16 18187090559068058613
15375462 189 9295287269996453078
15534591 1 18337673126062282338
15653759 3 15068339003624658237
15775835 57 18410853261110395364
15906896 17 18264490774389428130
16945 1 17917141818369727011
17357779 13 13899614313340361589
1741750 31 18337674225716062138
17804303 29 12829490320433961629
1813 80 17692251833473259110
18186145 218 18334012757179395950
19765921 60 18411697656461014379
19868273 293 17988923409424780430
20291156 8 9223230745321134917
20361792 2 9943803365827786299
204376 136 18186802491163379179
20645476 183 18339358668581405150
20671657 53 12751245791825749096
20871999 31 16988551447065141829
21499 59 18412825772344063143
21524375 3 18410855460138945163
21713013 43 13758065299356720749
21731228 192 17894352193594983955
23184049 59 17894627041684797236
23402539 116 17774993601125170188
23557571 272 16557885966252971863
23559900 14 17561366193283564332
298252 57 18202560691760254914
3472631 163 18202563986327517557
4028521 119 17846780714954732865
4340502 62 18114473262852369283
474 4 18336547123060049707
633830 44 18410010996606913815
7364860 26 17700693965181141591
83771 10 9223230749695054610
94968 8 10663806477749826557
9981440 41 18128808828214612290

> <PUBCHEM_SHAPE_MULTIPOLES>
338.11
7.28
2.04
1.32
0.26
0.87
0
-5.89
0
-0.06
0
0
0.27
-0.69

> <PUBCHEM_SHAPE_SELFOVERLAP>
731.212

> <PUBCHEM_SHAPE_VOLUME>
187.1

> <PUBCHEM_COORDINATE_TYPE>
2
5
10

> <Energy>
42.8498

> <minimizedAffinity>
-6.51887

> <CNNscore>
0.7063626051

> <CNNaffinity>
7.1576595306

> <CNN_VS>
5.0559029579

> <CNNaffinity_variance>
1.5170116425

$$$$
6623


 19 20  0  0  0  0  0  0  0  0999 V2000
   -7.0124   -5.6938   12.1987 C   0  0  0  0  0  0  0  0  0  0  0  0
   -6.0024   -6.6931   11.5706 C   0  0  0  0  0  0  0  0  0  0  0  0
   -8.2884   -6.5291   12.4917 C   0  0  0  0  0  0  0  0  0  0  0  0
   -8.6334   -1.4463    8.7175 O   0  0  0  0  0  0  0  0  0  0  0  0
   -7.4322   -4.5508   11.2433 C   0  0  0  0  0  0  0  0  0  0  0  0
   -8.2228   -3.4885   11.7326 C   0  0  0  0  0  0  0  0  0  0  0  0
   -7.0633   -4.5154    9.8876 C   0  0  0  0  0  0  0  0  0  0  0  0
   -8.6356   -2.4428   10.9015 C   0  0  0  0  0  0  0  0  0  0  0  0
   -7.4715   -3.4672    9.0561 C   0  0  0  0  0  0  0  0  0  0  0  0
   -8.2549   -2.4429    9.5669 C   0  0  0  0  0  0  0  0  0  0  0  0
   -9.1628   -0.7395    9.0308 H   0  0  0  0  0  0  0  0  0  0  0  0
   -4.5951   -3.4839   16.8938 O   0  0  0  0  0  0  0  0  0  0  0  0
   -6.3403   -5.1231   13.4700 C   0  0  0  0  0  0  0  0  0  0  0  0
   -7.1415   -4.6680   14.5392 C   0  0  0  0  0  0  0  0  0  0  0  0
   -4.9451   -5.0195   13.6128 C   0  0  0  0  0  0  0  0  0  0  0  0
   -6.5749   -4.1161   15.6916 C   0  0  0  0  0  0  0  0  0  0  0  0
   -4.3776   -4.4728   14.7673 C   0  0  0  0  0  0  0  0  0  0  0  0
   -5.1941   -4.0207   15.7931 C   0  0  0  0  0  0  0  0  0  0  0  0
   -5.1178   -3.1690   17.6048 H   0  0  0  0  0  0  0  0  0  0  0  0
  4 10  1  0
  4 11  1  0
 12 18  1  0
 12 19  1  0
  1  5  1  0
  1 13  1  0
  1  2  1  0
  1  3  1  0
  5  6  2  0
  5  7  1  0
 13 14  2  0
 13 15  1  0
  6  8  1  0
 14 16  1  0
  7  9  2  0
 15 17  2  0
  8 10  2  0
 16 18  2  0
  9 10  1  0
 17 18  1  0
M  END
> <PUBCHEM_COMPOUND_CID>
6623

> <PUBCHEM_CONFORMER_RMSD>
0.6

> <PUBCHEM_CONFORMER_DIVERSEORDER>
1
3
2

> <PUBCHEM_MMFF94_PARTIAL_CHARGES>
25
1 -0.53
10 -0.15
11 -0.15
12 -0.15
13 -0.15
14 -0.15
15 -0.15
16 0.08
17 0.08
2 -0.53
24 0.15
25 0.15
26 0.15
27 0.15
28 0.15
29 0.15
3 0.29
30 0.15
31 0.15
32 0.45
33 0.45
4 -0.14
5 -0.14
8 -0.15
9 -0.15

> <PUBCHEM_EFFECTIVE_ROTOR_COUNT>
2

> <PUBCHEM_PHARMACOPHORE_FEATURES>
5
1 1 donor
1 2 donor
3 3 6 7 hydrophobe
6 4 8 10 12 14 16 rings
6 5 9 11 13 15 17 rings

> <PUBCHEM_HEAVY_ATOM_COUNT>
17

> <PUBCHEM_ATOM_DEF_STEREO_COUNT>
0

> <PUBCHEM_ATOM_UDEF_STEREO_COUNT>
0

> <PUBCHEM_BOND_DEF_STEREO_COUNT>
0

> <PUBCHEM_BOND_UDEF_STEREO_COUNT>
0

> <PUBCHEM_ISOTOPIC_ATOM_COUNT>
0

> <PUBCHEM_COMPONENT_COUNT>
1

> <PUBCHEM_CACTVS_TAUTO_COUNT>
3

> <PUBCHEM_CONFORMER_ID>
000019DF00000001

> <PUBCHEM_MMFF94_ENERGY>
64.1206

> <PUBCHEM_FEATURE_SELFOVERLAP>
25.372

> <PUBCHEM_SHAPE_FINGERPRINT>
10465860 228 18265052440146906875
10498660 4 17846494807956907777
10618630 7 8862950471944920352
11046707 91 8574440819802817220
11640471 11 18410569587104953028
12138202 97 17632297942700988494
12251169 10 15719115772587467277
12491281 212 18341893034625719138
12633257 1 15647059291015153984
12788726 201 18049710021441717058
12892183 10 15719384001885322888
13571099 52 18261397711031002503
13764800 53 18340221781019704851
14251764 38 17758668950351880149
14739800 52 17985806350554812304
15061688 2 18410575084673810317
15309172 13 17822005415182549066
15342168 16 18187090559068058613
15375462 189 9295287269996453078
15534591 1 18337673126062282338
15653759 3 15068339003624658237
15775835 57 18410853261110395364
15906896 17 18264490774389428130
16945 1 17917141818369727011
17357779 13 13899614313340361589
1741750 31 18337674225716062138
17804303 29 12829490320433961629
1813 80 17692251833473259110
18186145 218 18334012757179395950
19765921 60 18411697656461014379
19868273 293 17988923409424780430
20291156 8 9223230745321134917
20361792 2 9943803365827786299
204376 136 18186802491163379179
20645476 183 18339358668581405150
20671657 53 12751245791825749096
20871999 31 16988551447065141829
21499 59 18412825772344063143
21524375 3 18410855460138945163
21713013 43 13758065299356720749
21731228 192 17894352193594983955
23184049 59 17894627041684797236
23402539 116 17774993601125170188
23557571 272 16557885966252971863
23559900 14 17561366193283564332
298252 57 18202560691760254914
3472631 163 18202563986327517557
4028521 119 17846780714954732865
4340502 62 18114473262852369283
474 4 18336547123060049707
633830 44 18410010996606913815
7364860 26 17700693965181141591
83771 10 9223230749695054610
94968 8 10663806477749826557
9981440 41 18128808828214612290

> <PUBCHEM_SHAPE_MULTIPOLES>
338.11
7.28
2.04
1.32
0.26
0.87
0
-5.89
0
-0.06
0
0
0.27
-0.69

> <PUBCHEM_SHAPE_SELFOVERLAP>
731.212

> <PUBCHEM_SHAPE_VOLUME>
187.1

> <PUBCHEM_COORDINATE_TYPE>
2
5
10

> <Energy>
42.8498

> <minimizedAffinity>
-8.11131

> <CNNscore>
0.6846302152

> <CNNaffinity>
6.8879294395

> <CNN_VS>
4.7156844139

> <CNNaffinity_variance>
0.9167574048

$$$$
