2519


 14 15  0  0  0  0  0  0  0  0999 V2000
    3.3053   -1.4515   -6.9618 O   0  0  0  0  0  0  0  0  0  0  0  0
    1.1497   -0.6245   -2.9487 O   0  0  0  0  0  0  0  0  0  0  0  0
    3.3443    0.0450   -3.1513 N   0  0  0  0  0  0  0  0  0  0  0  0
    5.6943   -0.1534   -5.7170 N   0  0  0  0  0  0  0  0  0  0  0  0
    2.2034   -1.0463   -4.9549 N   0  0  0  0  0  0  0  0  0  0  0  0
    5.6599    0.6444   -3.6407 N   0  0  0  0  0  0  0  0  0  0  0  0
    4.4405   -0.3915   -5.2320 C   0  0  0  0  0  0  0  0  0  0  0  0
    4.4516    0.1059   -3.9647 C   0  0  0  0  0  0  0  0  0  0  0  0
    3.3029   -1.0075   -5.8177 C   0  0  0  0  0  0  0  0  0  0  0  0
    2.1730   -0.5431   -3.6356 C   0  0  0  0  0  0  0  0  0  0  0  0
    6.3959    0.4737   -4.7213 C   0  0  0  0  0  0  0  0  0  0  0  0
    3.4015    0.5890   -1.8056 C   0  0  0  0  0  0  0  0  0  0  0  0
    6.1933   -0.4929   -7.0251 C   0  0  0  0  0  0  0  0  0  0  0  0
    0.9804   -1.6529   -5.4443 C   0  0  0  0  0  0  0  0  0  0  0  0
  1  9  2  0
  2 10  2  0
  3  8  1  0
  3 10  1  0
  3 12  1  0
  4  7  1  0
  4 11  1  0
  4 13  1  0
  5  9  1  0
  5 10  1  0
  5 14  1  0
  6  8  1  0
  6 11  2  0
  7  8  2  0
  7  9  1  0
M  END
> <PUBCHEM_COMPOUND_CID>
2519

> <PUBCHEM_CONFORMER_RMSD>
0.4

> <PUBCHEM_CONFORMER_DIVERSEORDER>
1

> <PUBCHEM_MMFF94_PARTIAL_CHARGES>
15
1 -0.57
10 0.69
11 0.04
12 0.3
13 0.26
14 0.3
15 0.15
2 -0.57
3 -0.42
4 0.05
5 -0.42
6 -0.57
7 -0.24
8 0.29
9 0.71

> <PUBCHEM_EFFECTIVE_ROTOR_COUNT>
0

> <PUBCHEM_PHARMACOPHORE_FEATURES>
5
1 1 acceptor
1 2 acceptor
3 4 6 11 cation
5 4 6 7 8 11 rings
6 3 5 7 8 9 10 rings

> <PUBCHEM_HEAVY_ATOM_COUNT>
14

> <PUBCHEM_ATOM_DEF_STEREO_COUNT>
0

> <PUBCHEM_ATOM_UDEF_STEREO_COUNT>
0

> <PUBCHEM_BOND_DEF_STEREO_COUNT>
0

> <PUBCHEM_BOND_UDEF_STEREO_COUNT>
0

> <PUBCHEM_ISOTOPIC_ATOM_COUNT>
0

> <PUBCHEM_COMPONENT_COUNT>
1

> <PUBCHEM_CACTVS_TAUTO_COUNT>
1

> <PUBCHEM_CONFORMER_ID>
000009D700000001

> <PUBCHEM_MMFF94_ENERGY>
22.901

> <PUBCHEM_FEATURE_SELFOVERLAP>
25.487

> <PUBCHEM_SHAPE_FINGERPRINT>
10967382 1 18338799025773621285
11132069 177 18339075025094499008
12524768 44 18342463625094026902
13140716 1 17978511158789908153
16945 1 18338517550775811621
193761 8 15816500986559935910
20588541 1 18339082691204868851
21501502 16 18338796715286957384
22802520 49 18128840606503503494
2334 1 18338516344016692929
23402539 116 18270382932679789735
23552423 10 18262240993325675966
23559900 14 18199193898169584358
241688 4 18266458702623303353
2748010 2 18266180539182415717
5084963 1 17698433339235542986
528886 8 18267580380709240570
53812653 166 18198902694142226312
66348 1 18339079396917369615

> <PUBCHEM_SHAPE_MULTIPOLES>
256.45
4.01
2.83
0.58
0.71
0.08
0
-0.48
0
-0.81
0
0.01
0
0

> <PUBCHEM_SHAPE_SELFOVERLAP>
550.88

> <PUBCHEM_SHAPE_VOLUME>
143.9

> <PUBCHEM_COORDINATE_TYPE>
2
5
10

> <Energy>
-122.511

> <minimizedAffinity>
-5.13100

> <CNNscore>
0.5976049900

> <CNNaffinity>
4.8008866310

> <CNN_VS>
2.8690338135

> <CNNaffinity_variance>
0.4241275489

$$$$
2519


 14 15  0  0  0  0  0  0  0  0999 V2000
    5.7503    1.7394   -3.2806 O   0  0  0  0  0  0  0  0  0  0  0  0
    2.0521   -0.9840   -3.8652 O   0  0  0  0  0  0  0  0  0  0  0  0
    3.7598   -1.1407   -5.4029 N   0  0  0  0  0  0  0  0  0  0  0  0
    6.8326    0.4644   -5.7595 N   0  0  0  0  0  0  0  0  0  0  0  0
    3.8833    0.3810   -3.5550 N   0  0  0  0  0  0  0  0  0  0  0  0
    5.7079   -1.0983   -6.8739 N   0  0  0  0  0  0  0  0  0  0  0  0
    5.6615    0.2747   -5.0838 C   0  0  0  0  0  0  0  0  0  0  0  0
    4.9983   -0.6831   -5.7882 C   0  0  0  0  0  0  0  0  0  0  0  0
    5.1422    0.8771   -3.9073 C   0  0  0  0  0  0  0  0  0  0  0  0
    3.1622   -0.6101   -4.2568 C   0  0  0  0  0  0  0  0  0  0  0  0
    6.8167   -0.3859   -6.8336 C   0  0  0  0  0  0  0  0  0  0  0  0
    3.0888   -2.1645   -6.1850 C   0  0  0  0  0  0  0  0  0  0  0  0
    7.8893    1.3813   -5.4160 C   0  0  0  0  0  0  0  0  0  0  0  0
    3.2512    0.9218   -2.3671 C   0  0  0  0  0  0  0  0  0  0  0  0
  1  9  2  0
  2 10  2  0
  3  8  1  0
  3 10  1  0
  3 12  1  0
  4  7  1  0
  4 11  1  0
  4 13  1  0
  5  9  1  0
  5 10  1  0
  5 14  1  0
  6  8  1  0
  6 11  2  0
  7  8  2  0
  7  9  1  0
M  END
> <PUBCHEM_COMPOUND_CID>
2519

> <PUBCHEM_CONFORMER_RMSD>
0.4

> <PUBCHEM_CONFORMER_DIVERSEORDER>
1

> <PUBCHEM_MMFF94_PARTIAL_CHARGES>
15
1 -0.57
10 0.69
11 0.04
12 0.3
13 0.26
14 0.3
15 0.15
2 -0.57
3 -0.42
4 0.05
5 -0.42
6 -0.57
7 -0.24
8 0.29
9 0.71

> <PUBCHEM_EFFECTIVE_ROTOR_COUNT>
0

> <PUBCHEM_PHARMACOPHORE_FEATURES>
5
1 1 acceptor
1 2 acceptor
3 4 6 11 cation
5 4 6 7 8 11 rings
6 3 5 7 8 9 10 rings

> <PUBCHEM_HEAVY_ATOM_COUNT>
14

> <PUBCHEM_ATOM_DEF_STEREO_COUNT>
0

> <PUBCHEM_ATOM_UDEF_STEREO_COUNT>
0

> <PUBCHEM_BOND_DEF_STEREO_COUNT>
0

> <PUBCHEM_BOND_UDEF_STEREO_COUNT>
0

> <PUBCHEM_ISOTOPIC_ATOM_COUNT>
0

> <PUBCHEM_COMPONENT_COUNT>
1

> <PUBCHEM_CACTVS_TAUTO_COUNT>
1

> <PUBCHEM_CONFORMER_ID>
000009D700000001

> <PUBCHEM_MMFF94_ENERGY>
22.901

> <PUBCHEM_FEATURE_SELFOVERLAP>
25.487

> <PUBCHEM_SHAPE_FINGERPRINT>
10967382 1 18338799025773621285
11132069 177 18339075025094499008
12524768 44 18342463625094026902
13140716 1 17978511158789908153
16945 1 18338517550775811621
193761 8 15816500986559935910
20588541 1 18339082691204868851
21501502 16 18338796715286957384
22802520 49 18128840606503503494
2334 1 18338516344016692929
23402539 116 18270382932679789735
23552423 10 18262240993325675966
23559900 14 18199193898169584358
241688 4 18266458702623303353
2748010 2 18266180539182415717
5084963 1 17698433339235542986
528886 8 18267580380709240570
53812653 166 18198902694142226312
66348 1 18339079396917369615

> <PUBCHEM_SHAPE_MULTIPOLES>
256.45
4.01
2.83
0.58
0.71
0.08
0
-0.48
0
-0.81
0
0.01
0
0

> <PUBCHEM_SHAPE_SELFOVERLAP>
550.88

> <PUBCHEM_SHAPE_VOLUME>
143.9

> <PUBCHEM_COORDINATE_TYPE>
2
5
10

> <Energy>
-122.511

> <minimizedAffinity>
-5.44894

> <CNNscore>
0.5640414953

> <CNNaffinity>
4.9736742973

> <CNN_VS>
2.8053586483

> <CNNaffinity_variance>
0.2608246505

$$$$
2519


 14 15  0  0  0  0  0  0  0  0999 V2000
    4.3203    0.5533   -3.1932 O   0  0  0  0  0  0  0  0  0  0  0  0
    8.2428    1.6850   -5.3768 O   0  0  0  0  0  0  0  0  0  0  0  0
    6.8778    0.1112   -6.3594 N   0  0  0  0  0  0  0  0  0  0  0  0
    3.8266   -1.3195   -5.4716 N   0  0  0  0  0  0  0  0  0  0  0  0
    6.2953    1.1365   -4.2725 N   0  0  0  0  0  0  0  0  0  0  0  0
    5.2508   -1.5193   -7.1687 N   0  0  0  0  0  0  0  0  0  0  0  0
    4.8561   -0.4602   -5.2156 C   0  0  0  0  0  0  0  0  0  0  0  0
    5.7076   -0.6057   -6.2679 C   0  0  0  0  0  0  0  0  0  0  0  0
    5.0962    0.4306   -4.1360 C   0  0  0  0  0  0  0  0  0  0  0  0
    7.2054    1.0155   -5.3458 C   0  0  0  0  0  0  0  0  0  0  0  0
    4.1079   -1.9377   -6.6613 C   0  0  0  0  0  0  0  0  0  0  0  0
    7.7564   -0.0762   -7.5008 C   0  0  0  0  0  0  0  0  0  0  0  0
    2.6621   -1.5405   -4.6527 C   0  0  0  0  0  0  0  0  0  0  0  0
    6.6480    2.0794   -3.2285 C   0  0  0  0  0  0  0  0  0  0  0  0
  1  9  2  0
  2 10  2  0
  3  8  1  0
  3 10  1  0
  3 12  1  0
  4  7  1  0
  4 11  1  0
  4 13  1  0
  5  9  1  0
  5 10  1  0
  5 14  1  0
  6  8  1  0
  6 11  2  0
  7  8  2  0
  7  9  1  0
M  END
> <PUBCHEM_COMPOUND_CID>
2519

> <PUBCHEM_CONFORMER_RMSD>
0.4

> <PUBCHEM_CONFORMER_DIVERSEORDER>
1

> <PUBCHEM_MMFF94_PARTIAL_CHARGES>
15
1 -0.57
10 0.69
11 0.04
12 0.3
13 0.26
14 0.3
15 0.15
2 -0.57
3 -0.42
4 0.05
5 -0.42
6 -0.57
7 -0.24
8 0.29
9 0.71

> <PUBCHEM_EFFECTIVE_ROTOR_COUNT>
0

> <PUBCHEM_PHARMACOPHORE_FEATURES>
5
1 1 acceptor
1 2 acceptor
3 4 6 11 cation
5 4 6 7 8 11 rings
6 3 5 7 8 9 10 rings

> <PUBCHEM_HEAVY_ATOM_COUNT>
14

> <PUBCHEM_ATOM_DEF_STEREO_COUNT>
0

> <PUBCHEM_ATOM_UDEF_STEREO_COUNT>
0

> <PUBCHEM_BOND_DEF_STEREO_COUNT>
0

> <PUBCHEM_BOND_UDEF_STEREO_COUNT>
0

> <PUBCHEM_ISOTOPIC_ATOM_COUNT>
0

> <PUBCHEM_COMPONENT_COUNT>
1

> <PUBCHEM_CACTVS_TAUTO_COUNT>
1

> <PUBCHEM_CONFORMER_ID>
000009D700000001

> <PUBCHEM_MMFF94_ENERGY>
22.901

> <PUBCHEM_FEATURE_SELFOVERLAP>
25.487

> <PUBCHEM_SHAPE_FINGERPRINT>
10967382 1 18338799025773621285
11132069 177 18339075025094499008
12524768 44 18342463625094026902
13140716 1 17978511158789908153
16945 1 18338517550775811621
193761 8 15816500986559935910
20588541 1 18339082691204868851
21501502 16 18338796715286957384
22802520 49 18128840606503503494
2334 1 18338516344016692929
23402539 116 18270382932679789735
23552423 10 18262240993325675966
23559900 14 18199193898169584358
241688 4 18266458702623303353
2748010 2 18266180539182415717
5084963 1 17698433339235542986
528886 8 18267580380709240570
53812653 166 18198902694142226312
66348 1 18339079396917369615

> <PUBCHEM_SHAPE_MULTIPOLES>
256.45
4.01
2.83
0.58
0.71
0.08
0
-0.48
0
-0.81
0
0.01
0
0

> <PUBCHEM_SHAPE_SELFOVERLAP>
550.88

> <PUBCHEM_SHAPE_VOLUME>
143.9

> <PUBCHEM_COORDINATE_TYPE>
2
5
10

> <Energy>
-122.511

> <minimizedAffinity>
-5.35519

> <CNNscore>
0.4874190688

> <CNNaffinity>
4.9978537560

> <CNN_VS>
2.4360492229

> <CNNaffinity_variance>
0.1678781509

$$$$
2519


 14 15  0  0  0  0  0  0  0  0999 V2000
    3.2009   -2.3889   -4.0658 O   0  0  0  0  0  0  0  0  0  0  0  0
    3.7682    1.9808   -2.6446 O   0  0  0  0  0  0  0  0  0  0  0  0
    5.4572    1.0224   -3.8834 N   0  0  0  0  0  0  0  0  0  0  0  0
    5.8948   -2.1156   -5.3347 N   0  0  0  0  0  0  0  0  0  0  0  0
    3.4649   -0.1953   -3.3415 N   0  0  0  0  0  0  0  0  0  0  0  0
    7.0784   -0.2365   -5.2053 N   0  0  0  0  0  0  0  0  0  0  0  0
    5.1454   -1.2358   -4.6078 C   0  0  0  0  0  0  0  0  0  0  0  0
    5.8943   -0.1005   -4.5464 C   0  0  0  0  0  0  0  0  0  0  0  0
    3.8668   -1.3599   -4.0027 C   0  0  0  0  0  0  0  0  0  0  0  0
    4.2100    1.0014   -3.2539 C   0  0  0  0  0  0  0  0  0  0  0  0
    7.0538   -1.4686   -5.6741 C   0  0  0  0  0  0  0  0  0  0  0  0
    6.2898    2.2121   -3.8438 C   0  0  0  0  0  0  0  0  0  0  0  0
    5.5422   -3.4681   -5.6836 C   0  0  0  0  0  0  0  0  0  0  0  0
    2.1721   -0.2021   -2.6844 C   0  0  0  0  0  0  0  0  0  0  0  0
  1  9  2  0
  2 10  2  0
  3  8  1  0
  3 10  1  0
  3 12  1  0
  4  7  1  0
  4 11  1  0
  4 13  1  0
  5  9  1  0
  5 10  1  0
  5 14  1  0
  6  8  1  0
  6 11  2  0
  7  8  2  0
  7  9  1  0
M  END
> <PUBCHEM_COMPOUND_CID>
2519

> <PUBCHEM_CONFORMER_RMSD>
0.4

> <PUBCHEM_CONFORMER_DIVERSEORDER>
1

> <PUBCHEM_MMFF94_PARTIAL_CHARGES>
15
1 -0.57
10 0.69
11 0.04
12 0.3
13 0.26
14 0.3
15 0.15
2 -0.57
3 -0.42
4 0.05
5 -0.42
6 -0.57
7 -0.24
8 0.29
9 0.71

> <PUBCHEM_EFFECTIVE_ROTOR_COUNT>
0

> <PUBCHEM_PHARMACOPHORE_FEATURES>
5
1 1 acceptor
1 2 acceptor
3 4 6 11 cation
5 4 6 7 8 11 rings
6 3 5 7 8 9 10 rings

> <PUBCHEM_HEAVY_ATOM_COUNT>
14

> <PUBCHEM_ATOM_DEF_STEREO_COUNT>
0

> <PUBCHEM_ATOM_UDEF_STEREO_COUNT>
0

> <PUBCHEM_BOND_DEF_STEREO_COUNT>
0

> <PUBCHEM_BOND_UDEF_STEREO_COUNT>
0

> <PUBCHEM_ISOTOPIC_ATOM_COUNT>
0

> <PUBCHEM_COMPONENT_COUNT>
1

> <PUBCHEM_CACTVS_TAUTO_COUNT>
1

> <PUBCHEM_CONFORMER_ID>
000009D700000001

> <PUBCHEM_MMFF94_ENERGY>
22.901

> <PUBCHEM_FEATURE_SELFOVERLAP>
25.487

> <PUBCHEM_SHAPE_FINGERPRINT>
10967382 1 18338799025773621285
11132069 177 18339075025094499008
12524768 44 18342463625094026902
13140716 1 17978511158789908153
16945 1 18338517550775811621
193761 8 15816500986559935910
20588541 1 18339082691204868851
21501502 16 18338796715286957384
22802520 49 18128840606503503494
2334 1 18338516344016692929
23402539 116 18270382932679789735
23552423 10 18262240993325675966
23559900 14 18199193898169584358
241688 4 18266458702623303353
2748010 2 18266180539182415717
5084963 1 17698433339235542986
528886 8 18267580380709240570
53812653 166 18198902694142226312
66348 1 18339079396917369615

> <PUBCHEM_SHAPE_MULTIPOLES>
256.45
4.01
2.83
0.58
0.71
0.08
0
-0.48
0
-0.81
0
0.01
0
0

> <PUBCHEM_SHAPE_SELFOVERLAP>
550.88

> <PUBCHEM_SHAPE_VOLUME>
143.9

> <PUBCHEM_COORDINATE_TYPE>
2
5
10

> <Energy>
-122.511

> <minimizedAffinity>
-5.75158

> <CNNscore>
0.4750037789

> <CNNaffinity>
4.9485278130

> <CNN_VS>
2.3505694866

> <CNNaffinity_variance>
0.0660206005

$$$$
2519


 14 15  0  0  0  0  0  0  0  0999 V2000
    6.7360    1.8597   -3.2180 O   0  0  0  0  0  0  0  0  0  0  0  0
    3.0747   -0.3615   -4.9775 O   0  0  0  0  0  0  0  0  0  0  0  0
    5.1024   -0.6158   -6.0400 N   0  0  0  0  0  0  0  0  0  0  0  0
    8.3017    0.6346   -5.4518 N   0  0  0  0  0  0  0  0  0  0  0  0
    4.8838    0.7533   -4.0847 N   0  0  0  0  0  0  0  0  0  0  0  0
    7.3627   -0.7057   -6.9586 N   0  0  0  0  0  0  0  0  0  0  0  0
    6.9817    0.5400   -5.1161 C   0  0  0  0  0  0  0  0  0  0  0  0
    6.4368   -0.2832   -6.0536 C   0  0  0  0  0  0  0  0  0  0  0  0
    6.2329    1.1194   -4.0576 C   0  0  0  0  0  0  0  0  0  0  0  0
    4.2794   -0.0962   -5.0376 C   0  0  0  0  0  0  0  0  0  0  0  0
    8.4858   -0.1339   -6.5709 C   0  0  0  0  0  0  0  0  0  0  0  0
    4.5640   -1.4983   -7.0606 C   0  0  0  0  0  0  0  0  0  0  0  0
    9.3150    1.3949   -4.7660 C   0  0  0  0  0  0  0  0  0  0  0  0
    4.0177    1.2843   -3.0498 C   0  0  0  0  0  0  0  0  0  0  0  0
  1  9  2  0
  2 10  2  0
  3  8  1  0
  3 10  1  0
  3 12  1  0
  4  7  1  0
  4 11  1  0
  4 13  1  0
  5  9  1  0
  5 10  1  0
  5 14  1  0
  6  8  1  0
  6 11  2  0
  7  8  2  0
  7  9  1  0
M  END
> <PUBCHEM_COMPOUND_CID>
2519

> <PUBCHEM_CONFORMER_RMSD>
0.4

> <PUBCHEM_CONFORMER_DIVERSEORDER>
1

> <PUBCHEM_MMFF94_PARTIAL_CHARGES>
15
1 -0.57
10 0.69
11 0.04
12 0.3
13 0.26
14 0.3
15 0.15
2 -0.57
3 -0.42
4 0.05
5 -0.42
6 -0.57
7 -0.24
8 0.29
9 0.71

> <PUBCHEM_EFFECTIVE_ROTOR_COUNT>
0

> <PUBCHEM_PHARMACOPHORE_FEATURES>
5
1 1 acceptor
1 2 acceptor
3 4 6 11 cation
5 4 6 7 8 11 rings
6 3 5 7 8 9 10 rings

> <PUBCHEM_HEAVY_ATOM_COUNT>
14

> <PUBCHEM_ATOM_DEF_STEREO_COUNT>
0

> <PUBCHEM_ATOM_UDEF_STEREO_COUNT>
0

> <PUBCHEM_BOND_DEF_STEREO_COUNT>
0

> <PUBCHEM_BOND_UDEF_STEREO_COUNT>
0

> <PUBCHEM_ISOTOPIC_ATOM_COUNT>
0

> <PUBCHEM_COMPONENT_COUNT>
1

> <PUBCHEM_CACTVS_TAUTO_COUNT>
1

> <PUBCHEM_CONFORMER_ID>
000009D700000001

> <PUBCHEM_MMFF94_ENERGY>
22.901

> <PUBCHEM_FEATURE_SELFOVERLAP>
25.487

> <PUBCHEM_SHAPE_FINGERPRINT>
10967382 1 18338799025773621285
11132069 177 18339075025094499008
12524768 44 18342463625094026902
13140716 1 17978511158789908153
16945 1 18338517550775811621
193761 8 15816500986559935910
20588541 1 18339082691204868851
21501502 16 18338796715286957384
22802520 49 18128840606503503494
2334 1 18338516344016692929
23402539 116 18270382932679789735
23552423 10 18262240993325675966
23559900 14 18199193898169584358
241688 4 18266458702623303353
2748010 2 18266180539182415717
5084963 1 17698433339235542986
528886 8 18267580380709240570
53812653 166 18198902694142226312
66348 1 18339079396917369615

> <PUBCHEM_SHAPE_MULTIPOLES>
256.45
4.01
2.83
0.58
0.71
0.08
0
-0.48
0
-0.81
0
0.01
0
0

> <PUBCHEM_SHAPE_SELFOVERLAP>
550.88

> <PUBCHEM_SHAPE_VOLUME>
143.9

> <PUBCHEM_COORDINATE_TYPE>
2
5
10

> <Energy>
-122.511

> <minimizedAffinity>
-5.57261

> <CNNscore>
0.4646859467

> <CNNaffinity>
5.0132818222

> <CNN_VS>
2.3296015263

> <CNNaffinity_variance>
0.2125102133

$$$$
2519


 14 15  0  0  0  0  0  0  0  0999 V2000
    7.5713   -1.2452   -5.9506 O   0  0  0  0  0  0  0  0  0  0  0  0
    6.3628    2.6829   -3.8188 O   0  0  0  0  0  0  0  0  0  0  0  0
    4.9077    0.9013   -3.7015 N   0  0  0  0  0  0  0  0  0  0  0  0
    4.9738   -2.3476   -4.9607 N   0  0  0  0  0  0  0  0  0  0  0  0
    6.9843    0.7374   -4.8873 N   0  0  0  0  0  0  0  0  0  0  0  0
    3.5629   -1.1361   -3.7399 N   0  0  0  0  0  0  0  0  0  0  0  0
    5.5498   -1.1190   -4.8095 C   0  0  0  0  0  0  0  0  0  0  0  0
    4.6653   -0.4038   -4.0614 C   0  0  0  0  0  0  0  0  0  0  0  0
    6.7818   -0.5899   -5.2773 C   0  0  0  0  0  0  0  0  0  0  0  0
    6.0940    1.5139   -4.1132 C   0  0  0  0  0  0  0  0  0  0  0  0
    3.7752   -2.3116   -4.2982 C   0  0  0  0  0  0  0  0  0  0  0  0
    3.9354    1.6261   -2.9019 C   0  0  0  0  0  0  0  0  0  0  0  0
    5.5158   -3.4732   -5.6780 C   0  0  0  0  0  0  0  0  0  0  0  0
    8.2118    1.3860   -5.3065 C   0  0  0  0  0  0  0  0  0  0  0  0
  1  9  2  0
  2 10  2  0
  3  8  1  0
  3 10  1  0
  3 12  1  0
  4  7  1  0
  4 11  1  0
  4 13  1  0
  5  9  1  0
  5 10  1  0
  5 14  1  0
  6  8  1  0
  6 11  2  0
  7  8  2  0
  7  9  1  0
M  END
> <PUBCHEM_COMPOUND_CID>
2519

> <PUBCHEM_CONFORMER_RMSD>
0.4

> <PUBCHEM_CONFORMER_DIVERSEORDER>
1

> <PUBCHEM_MMFF94_PARTIAL_CHARGES>
15
1 -0.57
10 0.69
11 0.04
12 0.3
13 0.26
14 0.3
15 0.15
2 -0.57
3 -0.42
4 0.05
5 -0.42
6 -0.57
7 -0.24
8 0.29
9 0.71

> <PUBCHEM_EFFECTIVE_ROTOR_COUNT>
0

> <PUBCHEM_PHARMACOPHORE_FEATURES>
5
1 1 acceptor
1 2 acceptor
3 4 6 11 cation
5 4 6 7 8 11 rings
6 3 5 7 8 9 10 rings

> <PUBCHEM_HEAVY_ATOM_COUNT>
14

> <PUBCHEM_ATOM_DEF_STEREO_COUNT>
0

> <PUBCHEM_ATOM_UDEF_STEREO_COUNT>
0

> <PUBCHEM_BOND_DEF_STEREO_COUNT>
0

> <PUBCHEM_BOND_UDEF_STEREO_COUNT>
0

> <PUBCHEM_ISOTOPIC_ATOM_COUNT>
0

> <PUBCHEM_COMPONENT_COUNT>
1

> <PUBCHEM_CACTVS_TAUTO_COUNT>
1

> <PUBCHEM_CONFORMER_ID>
000009D700000001

> <PUBCHEM_MMFF94_ENERGY>
22.901

> <PUBCHEM_FEATURE_SELFOVERLAP>
25.487

> <PUBCHEM_SHAPE_FINGERPRINT>
10967382 1 18338799025773621285
11132069 177 18339075025094499008
12524768 44 18342463625094026902
13140716 1 17978511158789908153
16945 1 18338517550775811621
193761 8 15816500986559935910
20588541 1 18339082691204868851
21501502 16 18338796715286957384
22802520 49 18128840606503503494
2334 1 18338516344016692929
23402539 116 18270382932679789735
23552423 10 18262240993325675966
23559900 14 18199193898169584358
241688 4 18266458702623303353
2748010 2 18266180539182415717
5084963 1 17698433339235542986
528886 8 18267580380709240570
53812653 166 18198902694142226312
66348 1 18339079396917369615

> <PUBCHEM_SHAPE_MULTIPOLES>
256.45
4.01
2.83
0.58
0.71
0.08
0
-0.48
0
-0.81
0
0.01
0
0

> <PUBCHEM_SHAPE_SELFOVERLAP>
550.88

> <PUBCHEM_SHAPE_VOLUME>
143.9

> <PUBCHEM_COORDINATE_TYPE>
2
5
10

> <Energy>
-122.511

> <minimizedAffinity>
-5.58603

> <CNNscore>
0.4575386047

> <CNNaffinity>
5.0404777527

> <CNN_VS>
2.3062131405

> <CNNaffinity_variance>
0.1018145680

$$$$
2519


 14 15  0  0  0  0  0  0  0  0999 V2000
    5.6443    0.2944   -3.5539 O   0  0  0  0  0  0  0  0  0  0  0  0
    1.1489   -0.3329   -2.6413 O   0  0  0  0  0  0  0  0  0  0  0  0
    1.9703   -1.1570   -4.6291 N   0  0  0  0  0  0  0  0  0  0  0  0
    5.1215   -1.1537   -6.1174 N   0  0  0  0  0  0  0  0  0  0  0  0
    3.3894   -0.0093   -3.0752 N   0  0  0  0  0  0  0  0  0  0  0  0
    3.1036   -1.9230   -6.6514 N   0  0  0  0  0  0  0  0  0  0  0  0
    4.2950   -0.8226   -5.0824 C   0  0  0  0  0  0  0  0  0  0  0  0
    3.0726   -1.3048   -5.4383 C   0  0  0  0  0  0  0  0  0  0  0  0
    4.5372   -0.1351   -3.8636 C   0  0  0  0  0  0  0  0  0  0  0  0
    2.1048   -0.4939   -3.4066 C   0  0  0  0  0  0  0  0  0  0  0  0
    4.3585   -1.8169   -7.0421 C   0  0  0  0  0  0  0  0  0  0  0  0
    0.6852   -1.6880   -5.0492 C   0  0  0  0  0  0  0  0  0  0  0  0
    6.5288   -0.8652   -6.2253 C   0  0  0  0  0  0  0  0  0  0  0  0
    3.5140    0.6759   -1.8032 C   0  0  0  0  0  0  0  0  0  0  0  0
  1  9  2  0
  2 10  2  0
  3  8  1  0
  3 10  1  0
  3 12  1  0
  4  7  1  0
  4 11  1  0
  4 13  1  0
  5  9  1  0
  5 10  1  0
  5 14  1  0
  6  8  1  0
  6 11  2  0
  7  8  2  0
  7  9  1  0
M  END
> <PUBCHEM_COMPOUND_CID>
2519

> <PUBCHEM_CONFORMER_RMSD>
0.4

> <PUBCHEM_CONFORMER_DIVERSEORDER>
1

> <PUBCHEM_MMFF94_PARTIAL_CHARGES>
15
1 -0.57
10 0.69
11 0.04
12 0.3
13 0.26
14 0.3
15 0.15
2 -0.57
3 -0.42
4 0.05
5 -0.42
6 -0.57
7 -0.24
8 0.29
9 0.71

> <PUBCHEM_EFFECTIVE_ROTOR_COUNT>
0

> <PUBCHEM_PHARMACOPHORE_FEATURES>
5
1 1 acceptor
1 2 acceptor
3 4 6 11 cation
5 4 6 7 8 11 rings
6 3 5 7 8 9 10 rings

> <PUBCHEM_HEAVY_ATOM_COUNT>
14

> <PUBCHEM_ATOM_DEF_STEREO_COUNT>
0

> <PUBCHEM_ATOM_UDEF_STEREO_COUNT>
0

> <PUBCHEM_BOND_DEF_STEREO_COUNT>
0

> <PUBCHEM_BOND_UDEF_STEREO_COUNT>
0

> <PUBCHEM_ISOTOPIC_ATOM_COUNT>
0

> <PUBCHEM_COMPONENT_COUNT>
1

> <PUBCHEM_CACTVS_TAUTO_COUNT>
1

> <PUBCHEM_CONFORMER_ID>
000009D700000001

> <PUBCHEM_MMFF94_ENERGY>
22.901

> <PUBCHEM_FEATURE_SELFOVERLAP>
25.487

> <PUBCHEM_SHAPE_FINGERPRINT>
10967382 1 18338799025773621285
11132069 177 18339075025094499008
12524768 44 18342463625094026902
13140716 1 17978511158789908153
16945 1 18338517550775811621
193761 8 15816500986559935910
20588541 1 18339082691204868851
21501502 16 18338796715286957384
22802520 49 18128840606503503494
2334 1 18338516344016692929
23402539 116 18270382932679789735
23552423 10 18262240993325675966
23559900 14 18199193898169584358
241688 4 18266458702623303353
2748010 2 18266180539182415717
5084963 1 17698433339235542986
528886 8 18267580380709240570
53812653 166 18198902694142226312
66348 1 18339079396917369615

> <PUBCHEM_SHAPE_MULTIPOLES>
256.45
4.01
2.83
0.58
0.71
0.08
0
-0.48
0
-0.81
0
0.01
0
0

> <PUBCHEM_SHAPE_SELFOVERLAP>
550.88

> <PUBCHEM_SHAPE_VOLUME>
143.9

> <PUBCHEM_COORDINATE_TYPE>
2
5
10

> <Energy>
-122.511

> <minimizedAffinity>
-5.36934

> <CNNscore>
0.4562320709

> <CNNaffinity>
4.7034525871

> <CNN_VS>
2.1458659172

> <CNNaffinity_variance>
0.5990575552

$$$$
2519


 14 15  0  0  0  0  0  0  0  0999 V2000
    4.0610    1.4689   -2.5106 O   0  0  0  0  0  0  0  0  0  0  0  0
    1.9577   -2.1696   -4.4529 O   0  0  0  0  0  0  0  0  0  0  0  0
    4.0923   -1.6591   -5.1517 N   0  0  0  0  0  0  0  0  0  0  0  0
    6.3815    0.8203   -4.2817 N   0  0  0  0  0  0  0  0  0  0  0  0
    2.9858   -0.3542   -3.4728 N   0  0  0  0  0  0  0  0  0  0  0  0
    6.3451   -0.8938   -5.6991 N   0  0  0  0  0  0  0  0  0  0  0  0
    5.1617    0.2244   -4.1367 C   0  0  0  0  0  0  0  0  0  0  0  0
    5.1705   -0.8164   -5.0143 C   0  0  0  0  0  0  0  0  0  0  0  0
    4.0564    0.5279   -3.2984 C   0  0  0  0  0  0  0  0  0  0  0  0
    2.9539   -1.4442   -4.3705 C   0  0  0  0  0  0  0  0  0  0  0  0
    7.0622    0.1111   -5.2359 C   0  0  0  0  0  0  0  0  0  0  0  0
    4.1459   -2.7574   -6.1008 C   0  0  0  0  0  0  0  0  0  0  0  0
    6.8687    1.9748   -3.5709 C   0  0  0  0  0  0  0  0  0  0  0  0
    1.7979   -0.1441   -2.6680 C   0  0  0  0  0  0  0  0  0  0  0  0
  1  9  2  0
  2 10  2  0
  3  8  1  0
  3 10  1  0
  3 12  1  0
  4  7  1  0
  4 11  1  0
  4 13  1  0
  5  9  1  0
  5 10  1  0
  5 14  1  0
  6  8  1  0
  6 11  2  0
  7  8  2  0
  7  9  1  0
M  END
> <PUBCHEM_COMPOUND_CID>
2519

> <PUBCHEM_CONFORMER_RMSD>
0.4

> <PUBCHEM_CONFORMER_DIVERSEORDER>
1

> <PUBCHEM_MMFF94_PARTIAL_CHARGES>
15
1 -0.57
10 0.69
11 0.04
12 0.3
13 0.26
14 0.3
15 0.15
2 -0.57
3 -0.42
4 0.05
5 -0.42
6 -0.57
7 -0.24
8 0.29
9 0.71

> <PUBCHEM_EFFECTIVE_ROTOR_COUNT>
0

> <PUBCHEM_PHARMACOPHORE_FEATURES>
5
1 1 acceptor
1 2 acceptor
3 4 6 11 cation
5 4 6 7 8 11 rings
6 3 5 7 8 9 10 rings

> <PUBCHEM_HEAVY_ATOM_COUNT>
14

> <PUBCHEM_ATOM_DEF_STEREO_COUNT>
0

> <PUBCHEM_ATOM_UDEF_STEREO_COUNT>
0

> <PUBCHEM_BOND_DEF_STEREO_COUNT>
0

> <PUBCHEM_BOND_UDEF_STEREO_COUNT>
0

> <PUBCHEM_ISOTOPIC_ATOM_COUNT>
0

> <PUBCHEM_COMPONENT_COUNT>
1

> <PUBCHEM_CACTVS_TAUTO_COUNT>
1

> <PUBCHEM_CONFORMER_ID>
000009D700000001

> <PUBCHEM_MMFF94_ENERGY>
22.901

> <PUBCHEM_FEATURE_SELFOVERLAP>
25.487

> <PUBCHEM_SHAPE_FINGERPRINT>
10967382 1 18338799025773621285
11132069 177 18339075025094499008
12524768 44 18342463625094026902
13140716 1 17978511158789908153
16945 1 18338517550775811621
193761 8 15816500986559935910
20588541 1 18339082691204868851
21501502 16 18338796715286957384
22802520 49 18128840606503503494
2334 1 18338516344016692929
23402539 116 18270382932679789735
23552423 10 18262240993325675966
23559900 14 18199193898169584358
241688 4 18266458702623303353
2748010 2 18266180539182415717
5084963 1 17698433339235542986
528886 8 18267580380709240570
53812653 166 18198902694142226312
66348 1 18339079396917369615

> <PUBCHEM_SHAPE_MULTIPOLES>
256.45
4.01
2.83
0.58
0.71
0.08
0
-0.48
0
-0.81
0
0.01
0
0

> <PUBCHEM_SHAPE_SELFOVERLAP>
550.88

> <PUBCHEM_SHAPE_VOLUME>
143.9

> <PUBCHEM_COORDINATE_TYPE>
2
5
10

> <Energy>
-122.511

> <minimizedAffinity>
-5.49086

> <CNNscore>
0.4264348745

> <CNNaffinity>
4.9487776756

> <CNN_VS>
2.1103312969

> <CNNaffinity_variance>
0.1052713320

$$$$
2519


 14 15  0  0  0  0  0  0  0  0999 V2000
    5.3534   -1.4711   -7.2248 O   0  0  0  0  0  0  0  0  0  0  0  0
    8.3164    1.6385   -5.4966 O   0  0  0  0  0  0  0  0  0  0  0  0
    6.3802    1.2246   -4.3196 N   0  0  0  0  0  0  0  0  0  0  0  0
    3.6531   -0.8826   -4.8364 N   0  0  0  0  0  0  0  0  0  0  0  0
    6.8556    0.0870   -6.3752 N   0  0  0  0  0  0  0  0  0  0  0  0
    4.2606    0.5925   -3.2860 N   0  0  0  0  0  0  0  0  0  0  0  0
    4.8621   -0.3848   -5.2290 C   0  0  0  0  0  0  0  0  0  0  0  0
    5.2053    0.5119   -4.2637 C   0  0  0  0  0  0  0  0  0  0  0  0
    5.6736   -0.6597   -6.3615 C   0  0  0  0  0  0  0  0  0  0  0  0
    7.2488    1.0258   -5.3959 C   0  0  0  0  0  0  0  0  0  0  0  0
    3.3292   -0.2635   -3.6580 C   0  0  0  0  0  0  0  0  0  0  0  0
    6.7058    2.1710   -3.2668 C   0  0  0  0  0  0  0  0  0  0  0  0
    2.8615   -1.8709   -5.5235 C   0  0  0  0  0  0  0  0  0  0  0  0
    7.7673   -0.1096   -7.4857 C   0  0  0  0  0  0  0  0  0  0  0  0
  1  9  2  0
  2 10  2  0
  3  8  1  0
  3 10  1  0
  3 12  1  0
  4  7  1  0
  4 11  1  0
  4 13  1  0
  5  9  1  0
  5 10  1  0
  5 14  1  0
  6  8  1  0
  6 11  2  0
  7  8  2  0
  7  9  1  0
M  END
> <PUBCHEM_COMPOUND_CID>
2519

> <PUBCHEM_CONFORMER_RMSD>
0.4

> <PUBCHEM_CONFORMER_DIVERSEORDER>
1

> <PUBCHEM_MMFF94_PARTIAL_CHARGES>
15
1 -0.57
10 0.69
11 0.04
12 0.3
13 0.26
14 0.3
15 0.15
2 -0.57
3 -0.42
4 0.05
5 -0.42
6 -0.57
7 -0.24
8 0.29
9 0.71

> <PUBCHEM_EFFECTIVE_ROTOR_COUNT>
0

> <PUBCHEM_PHARMACOPHORE_FEATURES>
5
1 1 acceptor
1 2 acceptor
3 4 6 11 cation
5 4 6 7 8 11 rings
6 3 5 7 8 9 10 rings

> <PUBCHEM_HEAVY_ATOM_COUNT>
14

> <PUBCHEM_ATOM_DEF_STEREO_COUNT>
0

> <PUBCHEM_ATOM_UDEF_STEREO_COUNT>
0

> <PUBCHEM_BOND_DEF_STEREO_COUNT>
0

> <PUBCHEM_BOND_UDEF_STEREO_COUNT>
0

> <PUBCHEM_ISOTOPIC_ATOM_COUNT>
0

> <PUBCHEM_COMPONENT_COUNT>
1

> <PUBCHEM_CACTVS_TAUTO_COUNT>
1

> <PUBCHEM_CONFORMER_ID>
000009D700000001

> <PUBCHEM_MMFF94_ENERGY>
22.901

> <PUBCHEM_FEATURE_SELFOVERLAP>
25.487

> <PUBCHEM_SHAPE_FINGERPRINT>
10967382 1 18338799025773621285
11132069 177 18339075025094499008
12524768 44 18342463625094026902
13140716 1 17978511158789908153
16945 1 18338517550775811621
193761 8 15816500986559935910
20588541 1 18339082691204868851
21501502 16 18338796715286957384
22802520 49 18128840606503503494
2334 1 18338516344016692929
23402539 116 18270382932679789735
23552423 10 18262240993325675966
23559900 14 18199193898169584358
241688 4 18266458702623303353
2748010 2 18266180539182415717
5084963 1 17698433339235542986
528886 8 18267580380709240570
53812653 166 18198902694142226312
66348 1 18339079396917369615

> <PUBCHEM_SHAPE_MULTIPOLES>
256.45
4.01
2.83
0.58
0.71
0.08
0
-0.48
0
-0.81
0
0.01
0
0

> <PUBCHEM_SHAPE_SELFOVERLAP>
550.88

> <PUBCHEM_SHAPE_VOLUME>
143.9

> <PUBCHEM_COORDINATE_TYPE>
2
5
10

> <Energy>
-122.511

> <minimizedAffinity>
-5.39563

> <CNNscore>
0.3986164927

> <CNNaffinity>
4.8744573593

> <CNN_VS>
1.9430390596

> <CNNaffinity_variance>
0.1381524354

$$$$
