8814


 16 16  0  0  0  0  0  0  0  0999 V2000
   -5.4082   -5.9731   20.8077 C   0  0  0  0  0  0  0  0  0  0  0  0
   -5.5569   -7.5248   20.7625 C   0  0  0  0  0  0  0  0  0  0  0  0
   -6.3028   -5.4593   19.6556 C   0  0  0  0  0  0  0  0  0  0  0  0
    0.1588   -4.9103   20.0795 O   0  0  0  0  0  0  0  0  0  0  0  0
   -3.9148   -5.6633   20.6249 C   0  0  0  0  0  0  0  0  0  0  0  0
   -3.3665   -5.5636   19.3281 C   0  0  0  0  0  0  0  0  0  0  0  0
   -3.0438   -5.4781   21.7117 C   0  0  0  0  0  0  0  0  0  0  0  0
   -2.0069   -5.3110   19.1275 C   0  0  0  0  0  0  0  0  0  0  0  0
   -1.6842   -5.2273   21.5137 C   0  0  0  0  0  0  0  0  0  0  0  0
   -1.1759   -5.1492   20.2247 C   0  0  0  0  0  0  0  0  0  0  0  0
    0.5338   -4.8516   19.2228 H   0  0  0  0  0  0  0  0  0  0  0  0
   -5.9623   -5.4955   22.1983 C   0  0  0  0  0  0  0  0  0  0  0  0
   -6.3041   -4.0010   22.5221 C   0  0  0  0  0  0  0  0  0  0  0  0
   -6.2136   -3.2234   21.1850 C   0  0  0  0  0  0  0  0  0  0  0  0
   -5.3092   -3.3572   23.4981 C   0  0  0  0  0  0  0  0  0  0  0  0
   -7.7285   -3.7932   23.0603 C   0  0  0  0  0  0  0  0  0  0  0  0
  4 10  1  0
  4 11  1  0
  1 12  1  0
  1  5  1  0
  1  2  1  0
  1  3  1  0
 13 12  1  0
 13 14  1  0
 13 15  1  0
 13 16  1  0
  5  6  2  0
  5  7  1  0
  6  8  1  0
  7  9  2  0
  8 10  2  0
  9 10  1  0
M  END
> <PUBCHEM_COMPOUND_CID>
8814

> <PUBCHEM_CONFORMER_RMSD>
0.6

> <PUBCHEM_CONFORMER_DIVERSEORDER>
1
5
4
3
2

> <PUBCHEM_MMFF94_PARTIAL_CHARGES>
13
1 -0.53
11 -0.15
12 -0.15
13 -0.15
14 -0.15
15 0.08
2 0.14
33 0.15
34 0.15
35 0.15
36 0.15
37 0.45
5 -0.14

> <PUBCHEM_EFFECTIVE_ROTOR_COUNT>
3

> <PUBCHEM_PHARMACOPHORE_FEATURES>
4
1 1 donor
3 2 6 7 hydrophobe
4 3 8 9 10 hydrophobe
6 5 11 12 13 14 15 rings

> <PUBCHEM_HEAVY_ATOM_COUNT>
15

> <PUBCHEM_ATOM_DEF_STEREO_COUNT>
0

> <PUBCHEM_ATOM_UDEF_STEREO_COUNT>
0

> <PUBCHEM_BOND_DEF_STEREO_COUNT>
0

> <PUBCHEM_BOND_UDEF_STEREO_COUNT>
0

> <PUBCHEM_ISOTOPIC_ATOM_COUNT>
0

> <PUBCHEM_COMPONENT_COUNT>
1

> <PUBCHEM_CACTVS_TAUTO_COUNT>
2

> <PUBCHEM_CONFORMER_ID>
0000226E00000001

> <PUBCHEM_MMFF94_ENERGY>
60.6732

> <PUBCHEM_FEATURE_SELFOVERLAP>
20.297

> <PUBCHEM_SHAPE_FINGERPRINT>
1 1 18122065299635933247
11471102 22 13984658170435925480
12138202 97 18272929444633088966
12251169 10 14923953348599690641
12423570 1 15084294979065354379
124424 183 18201999928641116818
12491281 212 18273493468196309381
12532896 13 18409735040726507851
13299463 15 16200422598337566991
13538477 17 17822291326855117498
13764800 53 18335714831507604569
13839132 238 18413110537123213324
14817 1 11689340854733718479
15375462 478 15647061443078261877
15775835 57 18339078194495494345
16945 1 17988065786023185643
18186145 218 18200036118541666588
18534176 82 18271243927656786518
19837323 101 18335708272823803859
20525323 117 18337111292773698462
20645476 183 17894351081266785547
21296965 12 18260545576729377063
21501502 16 18271800211963701222
21524375 3 18339638928324873163
21947302 44 18059017168310697110
22802520 49 18199766781279703998
23402539 116 18267296706830970519
23419403 2 17194099544908694927
23557571 272 18198918083120765556
23559900 14 18342742906418193234
25 1 17845383149850037993
2748010 2 18262817159083630983
276578 36 18189342281366350763
305870 269 18040992882718168402
430814 3 18041565736850213531
549884 4 17416683544816290937
6333449 129 18343582975122638285
6442390 28 18269297706777891659
7364860 26 17834677097914689979
81228 2 18191593162379223291

> <PUBCHEM_SHAPE_MULTIPOLES>
302.82
5.29
2.15
1.39
2.11
0.81
0.13
-3.45
0.34
-1.29
-0.24
-0.12
0.26
0.01

> <PUBCHEM_SHAPE_SELFOVERLAP>
615.427

> <PUBCHEM_SHAPE_VOLUME>
178.4

> <PUBCHEM_COORDINATE_TYPE>
2
5
10

> <Energy>
46.4329

> <minimizedAffinity>
-7.48889

> <CNNscore>
0.9351885319

> <CNNaffinity>
6.8697161674

> <CNN_VS>
6.4244799614

> <CNNaffinity_variance>
0.4050509930

$$$$
8814


 16 16  0  0  0  0  0  0  0  0999 V2000
   -5.4235   -5.9933   20.7948 C   0  0  0  0  0  0  0  0  0  0  0  0
   -5.6169   -7.5407   20.7905 C   0  0  0  0  0  0  0  0  0  0  0  0
   -6.3145   -5.4832   19.6383 C   0  0  0  0  0  0  0  0  0  0  0  0
    0.1452   -4.9291   20.0813 O   0  0  0  0  0  0  0  0  0  0  0  0
   -3.9237   -5.7314   20.5902 C   0  0  0  0  0  0  0  0  0  0  0  0
   -3.0759   -5.5641   21.7062 C   0  0  0  0  0  0  0  0  0  0  0  0
   -3.3408   -5.6391   19.3151 C   0  0  0  0  0  0  0  0  0  0  0  0
   -1.7129   -5.2967   21.5543 C   0  0  0  0  0  0  0  0  0  0  0  0
   -1.9790   -5.3701   19.1607 C   0  0  0  0  0  0  0  0  0  0  0  0
   -1.1769   -5.1977   20.2801 C   0  0  0  0  0  0  0  0  0  0  0  0
    0.7142   -4.8072   20.8157 H   0  0  0  0  0  0  0  0  0  0  0  0
   -5.9496   -5.4650   22.1779 C   0  0  0  0  0  0  0  0  0  0  0  0
   -6.2756   -3.9580   22.4568 C   0  0  0  0  0  0  0  0  0  0  0  0
   -7.7194   -3.9107   23.0172 C   0  0  0  0  0  0  0  0  0  0  0  0
   -6.2450   -3.0941   21.1881 C   0  0  0  0  0  0  0  0  0  0  0  0
   -5.3677   -3.3128   23.5156 C   0  0  0  0  0  0  0  0  0  0  0  0
  4 10  1  0
  4 11  1  0
  1 12  1  0
  1  5  1  0
  1  2  1  0
  1  3  1  0
 13 12  1  0
 13 14  1  0
 13 15  1  0
 13 16  1  0
  5  6  2  0
  5  7  1  0
  6  8  1  0
  7  9  2  0
  8 10  2  0
  9 10  1  0
M  END
> <PUBCHEM_COMPOUND_CID>
8814

> <PUBCHEM_CONFORMER_RMSD>
0.6

> <PUBCHEM_CONFORMER_DIVERSEORDER>
1
5
4
3
2

> <PUBCHEM_MMFF94_PARTIAL_CHARGES>
13
1 -0.53
11 -0.15
12 -0.15
13 -0.15
14 -0.15
15 0.08
2 0.14
33 0.15
34 0.15
35 0.15
36 0.15
37 0.45
5 -0.14

> <PUBCHEM_EFFECTIVE_ROTOR_COUNT>
3

> <PUBCHEM_PHARMACOPHORE_FEATURES>
4
1 1 donor
3 2 6 7 hydrophobe
4 3 8 9 10 hydrophobe
6 5 11 12 13 14 15 rings

> <PUBCHEM_HEAVY_ATOM_COUNT>
15

> <PUBCHEM_ATOM_DEF_STEREO_COUNT>
0

> <PUBCHEM_ATOM_UDEF_STEREO_COUNT>
0

> <PUBCHEM_BOND_DEF_STEREO_COUNT>
0

> <PUBCHEM_BOND_UDEF_STEREO_COUNT>
0

> <PUBCHEM_ISOTOPIC_ATOM_COUNT>
0

> <PUBCHEM_COMPONENT_COUNT>
1

> <PUBCHEM_CACTVS_TAUTO_COUNT>
2

> <PUBCHEM_CONFORMER_ID>
0000226E00000001

> <PUBCHEM_MMFF94_ENERGY>
60.6732

> <PUBCHEM_FEATURE_SELFOVERLAP>
20.297

> <PUBCHEM_SHAPE_FINGERPRINT>
1 1 18122065299635933247
11471102 22 13984658170435925480
12138202 97 18272929444633088966
12251169 10 14923953348599690641
12423570 1 15084294979065354379
124424 183 18201999928641116818
12491281 212 18273493468196309381
12532896 13 18409735040726507851
13299463 15 16200422598337566991
13538477 17 17822291326855117498
13764800 53 18335714831507604569
13839132 238 18413110537123213324
14817 1 11689340854733718479
15375462 478 15647061443078261877
15775835 57 18339078194495494345
16945 1 17988065786023185643
18186145 218 18200036118541666588
18534176 82 18271243927656786518
19837323 101 18335708272823803859
20525323 117 18337111292773698462
20645476 183 17894351081266785547
21296965 12 18260545576729377063
21501502 16 18271800211963701222
21524375 3 18339638928324873163
21947302 44 18059017168310697110
22802520 49 18199766781279703998
23402539 116 18267296706830970519
23419403 2 17194099544908694927
23557571 272 18198918083120765556
23559900 14 18342742906418193234
25 1 17845383149850037993
2748010 2 18262817159083630983
276578 36 18189342281366350763
305870 269 18040992882718168402
430814 3 18041565736850213531
549884 4 17416683544816290937
6333449 129 18343582975122638285
6442390 28 18269297706777891659
7364860 26 17834677097914689979
81228 2 18191593162379223291

> <PUBCHEM_SHAPE_MULTIPOLES>
302.82
5.29
2.15
1.39
2.11
0.81
0.13
-3.45
0.34
-1.29
-0.24
-0.12
0.26
0.01

> <PUBCHEM_SHAPE_SELFOVERLAP>
615.427

> <PUBCHEM_SHAPE_VOLUME>
178.4

> <PUBCHEM_COORDINATE_TYPE>
2
5
10

> <Energy>
46.4329

> <minimizedAffinity>
-7.48737

> <CNNscore>
0.9309790730

> <CNNaffinity>
6.8382229805

> <CNN_VS>
6.3662424088

> <CNNaffinity_variance>
0.4321319163

$$$$
8814


 16 16  0  0  0  0  0  0  0  0999 V2000
   -5.4616   -5.3138   20.5612 C   0  0  0  0  0  0  0  0  0  0  0  0
   -5.9783   -5.8382   19.1865 C   0  0  0  0  0  0  0  0  0  0  0  0
   -6.1516   -3.9417   20.7424 C   0  0  0  0  0  0  0  0  0  0  0  0
    0.2333   -5.1095   20.1388 O   0  0  0  0  0  0  0  0  0  0  0  0
   -3.9307   -5.2347   20.4608 C   0  0  0  0  0  0  0  0  0  0  0  0
   -3.3050   -5.2083   19.1958 C   0  0  0  0  0  0  0  0  0  0  0  0
   -3.1011   -5.1951   21.5940 C   0  0  0  0  0  0  0  0  0  0  0  0
   -1.9141   -5.1650   19.0698 C   0  0  0  0  0  0  0  0  0  0  0  0
   -1.7105   -5.1537   21.4706 C   0  0  0  0  0  0  0  0  0  0  0  0
   -1.1281   -5.1425   20.2109 C   0  0  0  0  0  0  0  0  0  0  0  0
    0.6582   -5.1012   19.3037 H   0  0  0  0  0  0  0  0  0  0  0  0
   -5.9471   -6.3304   21.6565 C   0  0  0  0  0  0  0  0  0  0  0  0
   -7.1883   -7.2685   21.4713 C   0  0  0  0  0  0  0  0  0  0  0  0
   -6.6677   -8.5720   20.8149 C   0  0  0  0  0  0  0  0  0  0  0  0
   -8.2529   -6.6756   20.5375 C   0  0  0  0  0  0  0  0  0  0  0  0
   -7.8609   -7.6751   22.7918 C   0  0  0  0  0  0  0  0  0  0  0  0
  4 10  1  0
  4 11  1  0
  1 12  1  0
  1  5  1  0
  1  2  1  0
  1  3  1  0
 13 12  1  0
 13 14  1  0
 13 15  1  0
 13 16  1  0
  5  6  2  0
  5  7  1  0
  6  8  1  0
  7  9  2  0
  8 10  2  0
  9 10  1  0
M  END
> <PUBCHEM_COMPOUND_CID>
8814

> <PUBCHEM_CONFORMER_RMSD>
0.6

> <PUBCHEM_CONFORMER_DIVERSEORDER>
1
5
4
3
2

> <PUBCHEM_MMFF94_PARTIAL_CHARGES>
13
1 -0.53
11 -0.15
12 -0.15
13 -0.15
14 -0.15
15 0.08
2 0.14
33 0.15
34 0.15
35 0.15
36 0.15
37 0.45
5 -0.14

> <PUBCHEM_EFFECTIVE_ROTOR_COUNT>
3

> <PUBCHEM_PHARMACOPHORE_FEATURES>
4
1 1 donor
3 2 6 7 hydrophobe
4 3 8 9 10 hydrophobe
6 5 11 12 13 14 15 rings

> <PUBCHEM_HEAVY_ATOM_COUNT>
15

> <PUBCHEM_ATOM_DEF_STEREO_COUNT>
0

> <PUBCHEM_ATOM_UDEF_STEREO_COUNT>
0

> <PUBCHEM_BOND_DEF_STEREO_COUNT>
0

> <PUBCHEM_BOND_UDEF_STEREO_COUNT>
0

> <PUBCHEM_ISOTOPIC_ATOM_COUNT>
0

> <PUBCHEM_COMPONENT_COUNT>
1

> <PUBCHEM_CACTVS_TAUTO_COUNT>
2

> <PUBCHEM_CONFORMER_ID>
0000226E00000001

> <PUBCHEM_MMFF94_ENERGY>
60.6732

> <PUBCHEM_FEATURE_SELFOVERLAP>
20.297

> <PUBCHEM_SHAPE_FINGERPRINT>
1 1 18122065299635933247
11471102 22 13984658170435925480
12138202 97 18272929444633088966
12251169 10 14923953348599690641
12423570 1 15084294979065354379
124424 183 18201999928641116818
12491281 212 18273493468196309381
12532896 13 18409735040726507851
13299463 15 16200422598337566991
13538477 17 17822291326855117498
13764800 53 18335714831507604569
13839132 238 18413110537123213324
14817 1 11689340854733718479
15375462 478 15647061443078261877
15775835 57 18339078194495494345
16945 1 17988065786023185643
18186145 218 18200036118541666588
18534176 82 18271243927656786518
19837323 101 18335708272823803859
20525323 117 18337111292773698462
20645476 183 17894351081266785547
21296965 12 18260545576729377063
21501502 16 18271800211963701222
21524375 3 18339638928324873163
21947302 44 18059017168310697110
22802520 49 18199766781279703998
23402539 116 18267296706830970519
23419403 2 17194099544908694927
23557571 272 18198918083120765556
23559900 14 18342742906418193234
25 1 17845383149850037993
2748010 2 18262817159083630983
276578 36 18189342281366350763
305870 269 18040992882718168402
430814 3 18041565736850213531
549884 4 17416683544816290937
6333449 129 18343582975122638285
6442390 28 18269297706777891659
7364860 26 17834677097914689979
81228 2 18191593162379223291

> <PUBCHEM_SHAPE_MULTIPOLES>
302.82
5.29
2.15
1.39
2.11
0.81
0.13
-3.45
0.34
-1.29
-0.24
-0.12
0.26
0.01

> <PUBCHEM_SHAPE_SELFOVERLAP>
615.427

> <PUBCHEM_SHAPE_VOLUME>
178.4

> <PUBCHEM_COORDINATE_TYPE>
2
5
10

> <Energy>
46.4329

> <minimizedAffinity>
-8.11163

> <CNNscore>
0.8934568763

> <CNNaffinity>
6.6775112152

> <CNN_VS>
5.9660682678

> <CNNaffinity_variance>
0.2441763431

$$$$
8814


 16 16  0  0  0  0  0  0  0  0999 V2000
   -5.4100   -6.0601   20.7954 C   0  0  0  0  0  0  0  0  0  0  0  0
   -5.6620   -7.5974   20.7254 C   0  0  0  0  0  0  0  0  0  0  0  0
   -6.2536   -5.4710   19.6407 C   0  0  0  0  0  0  0  0  0  0  0  0
    0.2060   -5.1762   20.2205 O   0  0  0  0  0  0  0  0  0  0  0  0
   -3.8970   -5.8490   20.6343 C   0  0  0  0  0  0  0  0  0  0  0  0
   -3.1219   -5.4178   21.7323 C   0  0  0  0  0  0  0  0  0  0  0  0
   -3.2309   -6.0608   19.4155 C   0  0  0  0  0  0  0  0  0  0  0  0
   -1.7487   -5.1893   21.6120 C   0  0  0  0  0  0  0  0  0  0  0  0
   -1.8587   -5.8313   19.2923 C   0  0  0  0  0  0  0  0  0  0  0  0
   -1.1295   -5.3945   20.3893 C   0  0  0  0  0  0  0  0  0  0  0  0
    0.7272   -4.8809   20.9411 H   0  0  0  0  0  0  0  0  0  0  0  0
   -5.9481   -5.5658   22.1864 C   0  0  0  0  0  0  0  0  0  0  0  0
   -7.4338   -5.7479   22.6495 C   0  0  0  0  0  0  0  0  0  0  0  0
   -7.5903   -4.9506   23.9688 C   0  0  0  0  0  0  0  0  0  0  0  0
   -7.7925   -7.2102   22.9493 C   0  0  0  0  0  0  0  0  0  0  0  0
   -8.4652   -5.1788   21.6626 C   0  0  0  0  0  0  0  0  0  0  0  0
  4 10  1  0
  4 11  1  0
  1 12  1  0
  1  5  1  0
  1  2  1  0
  1  3  1  0
 13 12  1  0
 13 14  1  0
 13 15  1  0
 13 16  1  0
  5  6  2  0
  5  7  1  0
  6  8  1  0
  7  9  2  0
  8 10  2  0
  9 10  1  0
M  END
> <PUBCHEM_COMPOUND_CID>
8814

> <PUBCHEM_CONFORMER_RMSD>
0.6

> <PUBCHEM_CONFORMER_DIVERSEORDER>
1
5
4
3
2

> <PUBCHEM_MMFF94_PARTIAL_CHARGES>
13
1 -0.53
11 -0.15
12 -0.15
13 -0.15
14 -0.15
15 0.08
2 0.14
33 0.15
34 0.15
35 0.15
36 0.15
37 0.45
5 -0.14

> <PUBCHEM_EFFECTIVE_ROTOR_COUNT>
3

> <PUBCHEM_PHARMACOPHORE_FEATURES>
4
1 1 donor
3 2 6 7 hydrophobe
4 3 8 9 10 hydrophobe
6 5 11 12 13 14 15 rings

> <PUBCHEM_HEAVY_ATOM_COUNT>
15

> <PUBCHEM_ATOM_DEF_STEREO_COUNT>
0

> <PUBCHEM_ATOM_UDEF_STEREO_COUNT>
0

> <PUBCHEM_BOND_DEF_STEREO_COUNT>
0

> <PUBCHEM_BOND_UDEF_STEREO_COUNT>
0

> <PUBCHEM_ISOTOPIC_ATOM_COUNT>
0

> <PUBCHEM_COMPONENT_COUNT>
1

> <PUBCHEM_CACTVS_TAUTO_COUNT>
2

> <PUBCHEM_CONFORMER_ID>
0000226E00000001

> <PUBCHEM_MMFF94_ENERGY>
60.6732

> <PUBCHEM_FEATURE_SELFOVERLAP>
20.297

> <PUBCHEM_SHAPE_FINGERPRINT>
1 1 18122065299635933247
11471102 22 13984658170435925480
12138202 97 18272929444633088966
12251169 10 14923953348599690641
12423570 1 15084294979065354379
124424 183 18201999928641116818
12491281 212 18273493468196309381
12532896 13 18409735040726507851
13299463 15 16200422598337566991
13538477 17 17822291326855117498
13764800 53 18335714831507604569
13839132 238 18413110537123213324
14817 1 11689340854733718479
15375462 478 15647061443078261877
15775835 57 18339078194495494345
16945 1 17988065786023185643
18186145 218 18200036118541666588
18534176 82 18271243927656786518
19837323 101 18335708272823803859
20525323 117 18337111292773698462
20645476 183 17894351081266785547
21296965 12 18260545576729377063
21501502 16 18271800211963701222
21524375 3 18339638928324873163
21947302 44 18059017168310697110
22802520 49 18199766781279703998
23402539 116 18267296706830970519
23419403 2 17194099544908694927
23557571 272 18198918083120765556
23559900 14 18342742906418193234
25 1 17845383149850037993
2748010 2 18262817159083630983
276578 36 18189342281366350763
305870 269 18040992882718168402
430814 3 18041565736850213531
549884 4 17416683544816290937
6333449 129 18343582975122638285
6442390 28 18269297706777891659
7364860 26 17834677097914689979
81228 2 18191593162379223291

> <PUBCHEM_SHAPE_MULTIPOLES>
302.82
5.29
2.15
1.39
2.11
0.81
0.13
-3.45
0.34
-1.29
-0.24
-0.12
0.26
0.01

> <PUBCHEM_SHAPE_SELFOVERLAP>
615.427

> <PUBCHEM_SHAPE_VOLUME>
178.4

> <PUBCHEM_COORDINATE_TYPE>
2
5
10

> <Energy>
46.4329

> <minimizedAffinity>
-7.68113

> <CNNscore>
0.8902500272

> <CNNaffinity>
6.7797050476

> <CNN_VS>
6.0356326103

> <CNNaffinity_variance>
0.4552773535

$$$$
8814


 16 16  0  0  0  0  0  0  0  0999 V2000
   -5.4769   -5.2853   20.5414 C   0  0  0  0  0  0  0  0  0  0  0  0
   -5.9836   -5.8642   19.1850 C   0  0  0  0  0  0  0  0  0  0  0  0
   -6.1542   -3.8996   20.6544 C   0  0  0  0  0  0  0  0  0  0  0  0
    0.2239   -5.1553   20.1723 O   0  0  0  0  0  0  0  0  0  0  0  0
   -3.9442   -5.2264   20.4557 C   0  0  0  0  0  0  0  0  0  0  0  0
   -3.3069   -5.1889   19.1969 C   0  0  0  0  0  0  0  0  0  0  0  0
   -3.1243   -5.2165   21.5967 C   0  0  0  0  0  0  0  0  0  0  0  0
   -1.9144   -5.1634   19.0838 C   0  0  0  0  0  0  0  0  0  0  0  0
   -1.7322   -5.1929   21.4862 C   0  0  0  0  0  0  0  0  0  0  0  0
   -1.1384   -5.1701   20.2320 C   0  0  0  0  0  0  0  0  0  0  0  0
    0.6563   -5.1398   19.3412 H   0  0  0  0  0  0  0  0  0  0  0  0
   -5.9857   -6.2478   21.6743 C   0  0  0  0  0  0  0  0  0  0  0  0
   -7.1118   -7.3153   21.4564 C   0  0  0  0  0  0  0  0  0  0  0  0
   -8.2015   -6.6419   20.5846 C   0  0  0  0  0  0  0  0  0  0  0  0
   -7.7784   -7.7584   22.7664 C   0  0  0  0  0  0  0  0  0  0  0  0
   -6.6431   -8.5644   20.6937 C   0  0  0  0  0  0  0  0  0  0  0  0
  4 10  1  0
  4 11  1  0
  1 12  1  0
  1  5  1  0
  1  2  1  0
  1  3  1  0
 13 12  1  0
 13 14  1  0
 13 15  1  0
 13 16  1  0
  5  6  2  0
  5  7  1  0
  6  8  1  0
  7  9  2  0
  8 10  2  0
  9 10  1  0
M  END
> <PUBCHEM_COMPOUND_CID>
8814

> <PUBCHEM_CONFORMER_RMSD>
0.6

> <PUBCHEM_CONFORMER_DIVERSEORDER>
1
5
4
3
2

> <PUBCHEM_MMFF94_PARTIAL_CHARGES>
13
1 -0.53
11 -0.15
12 -0.15
13 -0.15
14 -0.15
15 0.08
2 0.14
33 0.15
34 0.15
35 0.15
36 0.15
37 0.45
5 -0.14

> <PUBCHEM_EFFECTIVE_ROTOR_COUNT>
3

> <PUBCHEM_PHARMACOPHORE_FEATURES>
4
1 1 donor
3 2 6 7 hydrophobe
4 3 8 9 10 hydrophobe
6 5 11 12 13 14 15 rings

> <PUBCHEM_HEAVY_ATOM_COUNT>
15

> <PUBCHEM_ATOM_DEF_STEREO_COUNT>
0

> <PUBCHEM_ATOM_UDEF_STEREO_COUNT>
0

> <PUBCHEM_BOND_DEF_STEREO_COUNT>
0

> <PUBCHEM_BOND_UDEF_STEREO_COUNT>
0

> <PUBCHEM_ISOTOPIC_ATOM_COUNT>
0

> <PUBCHEM_COMPONENT_COUNT>
1

> <PUBCHEM_CACTVS_TAUTO_COUNT>
2

> <PUBCHEM_CONFORMER_ID>
0000226E00000001

> <PUBCHEM_MMFF94_ENERGY>
60.6732

> <PUBCHEM_FEATURE_SELFOVERLAP>
20.297

> <PUBCHEM_SHAPE_FINGERPRINT>
1 1 18122065299635933247
11471102 22 13984658170435925480
12138202 97 18272929444633088966
12251169 10 14923953348599690641
12423570 1 15084294979065354379
124424 183 18201999928641116818
12491281 212 18273493468196309381
12532896 13 18409735040726507851
13299463 15 16200422598337566991
13538477 17 17822291326855117498
13764800 53 18335714831507604569
13839132 238 18413110537123213324
14817 1 11689340854733718479
15375462 478 15647061443078261877
15775835 57 18339078194495494345
16945 1 17988065786023185643
18186145 218 18200036118541666588
18534176 82 18271243927656786518
19837323 101 18335708272823803859
20525323 117 18337111292773698462
20645476 183 17894351081266785547
21296965 12 18260545576729377063
21501502 16 18271800211963701222
21524375 3 18339638928324873163
21947302 44 18059017168310697110
22802520 49 18199766781279703998
23402539 116 18267296706830970519
23419403 2 17194099544908694927
23557571 272 18198918083120765556
23559900 14 18342742906418193234
25 1 17845383149850037993
2748010 2 18262817159083630983
276578 36 18189342281366350763
305870 269 18040992882718168402
430814 3 18041565736850213531
549884 4 17416683544816290937
6333449 129 18343582975122638285
6442390 28 18269297706777891659
7364860 26 17834677097914689979
81228 2 18191593162379223291

> <PUBCHEM_SHAPE_MULTIPOLES>
302.82
5.29
2.15
1.39
2.11
0.81
0.13
-3.45
0.34
-1.29
-0.24
-0.12
0.26
0.01

> <PUBCHEM_SHAPE_SELFOVERLAP>
615.427

> <PUBCHEM_SHAPE_VOLUME>
178.4

> <PUBCHEM_COORDINATE_TYPE>
2
5
10

> <Energy>
46.4329

> <minimizedAffinity>
-8.09353

> <CNNscore>
0.8899902701

> <CNNaffinity>
6.7027640343

> <CNN_VS>
5.9653949738

> <CNNaffinity_variance>
0.2589145601

$$$$
8814


 16 16  0  0  0  0  0  0  0  0999 V2000
   -5.4653   -5.2498   20.5700 C   0  0  0  0  0  0  0  0  0  0  0  0
   -5.9818   -5.7728   19.1947 C   0  0  0  0  0  0  0  0  0  0  0  0
   -6.1281   -3.8625   20.7364 C   0  0  0  0  0  0  0  0  0  0  0  0
    0.2358   -5.1668   20.1927 O   0  0  0  0  0  0  0  0  0  0  0  0
   -3.9325   -5.2033   20.4816 C   0  0  0  0  0  0  0  0  0  0  0  0
   -3.2963   -5.1959   19.2216 C   0  0  0  0  0  0  0  0  0  0  0  0
   -3.1112   -5.1758   21.6213 C   0  0  0  0  0  0  0  0  0  0  0  0
   -1.9038   -5.1823   19.1066 C   0  0  0  0  0  0  0  0  0  0  0  0
   -1.7191   -5.1641   21.5089 C   0  0  0  0  0  0  0  0  0  0  0  0
   -1.1266   -5.1709   20.2540 C   0  0  0  0  0  0  0  0  0  0  0  0
    0.6673   -5.1712   19.3610 H   0  0  0  0  0  0  0  0  0  0  0  0
   -5.9808   -6.2485   21.6681 C   0  0  0  0  0  0  0  0  0  0  0  0
   -7.1711   -7.2413   21.4390 C   0  0  0  0  0  0  0  0  0  0  0  0
   -7.7805   -7.5357   22.8328 C   0  0  0  0  0  0  0  0  0  0  0  0
   -6.7253   -8.5820   20.8384 C   0  0  0  0  0  0  0  0  0  0  0  0
   -8.3022   -6.6642   20.5735 C   0  0  0  0  0  0  0  0  0  0  0  0
  4 10  1  0
  4 11  1  0
  1 12  1  0
  1  5  1  0
  1  2  1  0
  1  3  1  0
 13 12  1  0
 13 14  1  0
 13 15  1  0
 13 16  1  0
  5  6  2  0
  5  7  1  0
  6  8  1  0
  7  9  2  0
  8 10  2  0
  9 10  1  0
M  END
> <PUBCHEM_COMPOUND_CID>
8814

> <PUBCHEM_CONFORMER_RMSD>
0.6

> <PUBCHEM_CONFORMER_DIVERSEORDER>
1
5
4
3
2

> <PUBCHEM_MMFF94_PARTIAL_CHARGES>
13
1 -0.53
11 -0.15
12 -0.15
13 -0.15
14 -0.15
15 0.08
2 0.14
33 0.15
34 0.15
35 0.15
36 0.15
37 0.45
5 -0.14

> <PUBCHEM_EFFECTIVE_ROTOR_COUNT>
3

> <PUBCHEM_PHARMACOPHORE_FEATURES>
4
1 1 donor
3 2 6 7 hydrophobe
4 3 8 9 10 hydrophobe
6 5 11 12 13 14 15 rings

> <PUBCHEM_HEAVY_ATOM_COUNT>
15

> <PUBCHEM_ATOM_DEF_STEREO_COUNT>
0

> <PUBCHEM_ATOM_UDEF_STEREO_COUNT>
0

> <PUBCHEM_BOND_DEF_STEREO_COUNT>
0

> <PUBCHEM_BOND_UDEF_STEREO_COUNT>
0

> <PUBCHEM_ISOTOPIC_ATOM_COUNT>
0

> <PUBCHEM_COMPONENT_COUNT>
1

> <PUBCHEM_CACTVS_TAUTO_COUNT>
2

> <PUBCHEM_CONFORMER_ID>
0000226E00000001

> <PUBCHEM_MMFF94_ENERGY>
60.6732

> <PUBCHEM_FEATURE_SELFOVERLAP>
20.297

> <PUBCHEM_SHAPE_FINGERPRINT>
1 1 18122065299635933247
11471102 22 13984658170435925480
12138202 97 18272929444633088966
12251169 10 14923953348599690641
12423570 1 15084294979065354379
124424 183 18201999928641116818
12491281 212 18273493468196309381
12532896 13 18409735040726507851
13299463 15 16200422598337566991
13538477 17 17822291326855117498
13764800 53 18335714831507604569
13839132 238 18413110537123213324
14817 1 11689340854733718479
15375462 478 15647061443078261877
15775835 57 18339078194495494345
16945 1 17988065786023185643
18186145 218 18200036118541666588
18534176 82 18271243927656786518
19837323 101 18335708272823803859
20525323 117 18337111292773698462
20645476 183 17894351081266785547
21296965 12 18260545576729377063
21501502 16 18271800211963701222
21524375 3 18339638928324873163
21947302 44 18059017168310697110
22802520 49 18199766781279703998
23402539 116 18267296706830970519
23419403 2 17194099544908694927
23557571 272 18198918083120765556
23559900 14 18342742906418193234
25 1 17845383149850037993
2748010 2 18262817159083630983
276578 36 18189342281366350763
305870 269 18040992882718168402
430814 3 18041565736850213531
549884 4 17416683544816290937
6333449 129 18343582975122638285
6442390 28 18269297706777891659
7364860 26 17834677097914689979
81228 2 18191593162379223291

> <PUBCHEM_SHAPE_MULTIPOLES>
302.82
5.29
2.15
1.39
2.11
0.81
0.13
-3.45
0.34
-1.29
-0.24
-0.12
0.26
0.01

> <PUBCHEM_SHAPE_SELFOVERLAP>
615.427

> <PUBCHEM_SHAPE_VOLUME>
178.4

> <PUBCHEM_COORDINATE_TYPE>
2
5
10

> <Energy>
46.4329

> <minimizedAffinity>
-8.12759

> <CNNscore>
0.8874710798

> <CNNaffinity>
6.6884198189

> <CNN_VS>
5.9357790947

> <CNNaffinity_variance>
0.2522765100

$$$$
8814


 16 16  0  0  0  0  0  0  0  0999 V2000
   -5.3310   -4.5400   21.7038 C   0  0  0  0  0  0  0  0  0  0  0  0
   -6.3737   -3.5728   21.0643 C   0  0  0  0  0  0  0  0  0  0  0  0
   -4.6299   -3.6963   22.7940 C   0  0  0  0  0  0  0  0  0  0  0  0
   -1.7854   -6.1917   17.5381 O   0  0  0  0  0  0  0  0  0  0  0  0
   -4.3979   -4.9996   20.5733 C   0  0  0  0  0  0  0  0  0  0  0  0
   -3.2135   -5.7051   20.8762 C   0  0  0  0  0  0  0  0  0  0  0  0
   -4.6672   -4.7383   19.2193 C   0  0  0  0  0  0  0  0  0  0  0  0
   -2.3295   -6.1125   19.8737 C   0  0  0  0  0  0  0  0  0  0  0  0
   -3.7842   -5.1429   18.2156 C   0  0  0  0  0  0  0  0  0  0  0  0
   -2.6217   -5.8231   18.5503 C   0  0  0  0  0  0  0  0  0  0  0  0
   -0.9923   -6.6523   17.7299 H   0  0  0  0  0  0  0  0  0  0  0  0
   -6.1346   -5.7262   22.3487 C   0  0  0  0  0  0  0  0  0  0  0  0
   -6.9319   -6.7828   21.5103 C   0  0  0  0  0  0  0  0  0  0  0  0
   -7.8449   -7.5436   22.5046 C   0  0  0  0  0  0  0  0  0  0  0  0
   -6.0235   -7.8189   20.8334 C   0  0  0  0  0  0  0  0  0  0  0  0
   -7.8530   -6.1640   20.4472 C   0  0  0  0  0  0  0  0  0  0  0  0
  4 10  1  0
  4 11  1  0
  1 12  1  0
  1  5  1  0
  1  2  1  0
  1  3  1  0
 13 12  1  0
 13 14  1  0
 13 15  1  0
 13 16  1  0
  5  6  2  0
  5  7  1  0
  6  8  1  0
  7  9  2  0
  8 10  2  0
  9 10  1  0
M  END
> <PUBCHEM_COMPOUND_CID>
8814

> <PUBCHEM_CONFORMER_RMSD>
0.6

> <PUBCHEM_CONFORMER_DIVERSEORDER>
1
5
4
3
2

> <PUBCHEM_MMFF94_PARTIAL_CHARGES>
13
1 -0.53
11 -0.15
12 -0.15
13 -0.15
14 -0.15
15 0.08
2 0.14
33 0.15
34 0.15
35 0.15
36 0.15
37 0.45
5 -0.14

> <PUBCHEM_EFFECTIVE_ROTOR_COUNT>
3

> <PUBCHEM_PHARMACOPHORE_FEATURES>
4
1 1 donor
3 2 6 7 hydrophobe
4 3 8 9 10 hydrophobe
6 5 11 12 13 14 15 rings

> <PUBCHEM_HEAVY_ATOM_COUNT>
15

> <PUBCHEM_ATOM_DEF_STEREO_COUNT>
0

> <PUBCHEM_ATOM_UDEF_STEREO_COUNT>
0

> <PUBCHEM_BOND_DEF_STEREO_COUNT>
0

> <PUBCHEM_BOND_UDEF_STEREO_COUNT>
0

> <PUBCHEM_ISOTOPIC_ATOM_COUNT>
0

> <PUBCHEM_COMPONENT_COUNT>
1

> <PUBCHEM_CACTVS_TAUTO_COUNT>
2

> <PUBCHEM_CONFORMER_ID>
0000226E00000001

> <PUBCHEM_MMFF94_ENERGY>
60.6732

> <PUBCHEM_FEATURE_SELFOVERLAP>
20.297

> <PUBCHEM_SHAPE_FINGERPRINT>
1 1 18122065299635933247
11471102 22 13984658170435925480
12138202 97 18272929444633088966
12251169 10 14923953348599690641
12423570 1 15084294979065354379
124424 183 18201999928641116818
12491281 212 18273493468196309381
12532896 13 18409735040726507851
13299463 15 16200422598337566991
13538477 17 17822291326855117498
13764800 53 18335714831507604569
13839132 238 18413110537123213324
14817 1 11689340854733718479
15375462 478 15647061443078261877
15775835 57 18339078194495494345
16945 1 17988065786023185643
18186145 218 18200036118541666588
18534176 82 18271243927656786518
19837323 101 18335708272823803859
20525323 117 18337111292773698462
20645476 183 17894351081266785547
21296965 12 18260545576729377063
21501502 16 18271800211963701222
21524375 3 18339638928324873163
21947302 44 18059017168310697110
22802520 49 18199766781279703998
23402539 116 18267296706830970519
23419403 2 17194099544908694927
23557571 272 18198918083120765556
23559900 14 18342742906418193234
25 1 17845383149850037993
2748010 2 18262817159083630983
276578 36 18189342281366350763
305870 269 18040992882718168402
430814 3 18041565736850213531
549884 4 17416683544816290937
6333449 129 18343582975122638285
6442390 28 18269297706777891659
7364860 26 17834677097914689979
81228 2 18191593162379223291

> <PUBCHEM_SHAPE_MULTIPOLES>
302.82
5.29
2.15
1.39
2.11
0.81
0.13
-3.45
0.34
-1.29
-0.24
-0.12
0.26
0.01

> <PUBCHEM_SHAPE_SELFOVERLAP>
615.427

> <PUBCHEM_SHAPE_VOLUME>
178.4

> <PUBCHEM_COORDINATE_TYPE>
2
5
10

> <Energy>
46.4329

> <minimizedAffinity>
-7.62562

> <CNNscore>
0.8811604381

> <CNNaffinity>
6.6303973198

> <CNN_VS>
5.8424439430

> <CNNaffinity_variance>
0.3647175729

$$$$
8814


 16 16  0  0  0  0  0  0  0  0999 V2000
   -5.4889   -5.2555   20.5563 C   0  0  0  0  0  0  0  0  0  0  0  0
   -6.0388   -5.8199   19.2106 C   0  0  0  0  0  0  0  0  0  0  0  0
   -6.1182   -3.8481   20.6781 C   0  0  0  0  0  0  0  0  0  0  0  0
    0.2119   -5.1353   20.1848 O   0  0  0  0  0  0  0  0  0  0  0  0
   -3.9570   -5.2471   20.4428 C   0  0  0  0  0  0  0  0  0  0  0  0
   -3.1610   -5.2617   21.6083 C   0  0  0  0  0  0  0  0  0  0  0  0
   -3.2920   -5.2159   19.2054 C   0  0  0  0  0  0  0  0  0  0  0  0
   -1.7658   -5.2262   21.5404 C   0  0  0  0  0  0  0  0  0  0  0  0
   -1.8976   -5.1785   19.1350 C   0  0  0  0  0  0  0  0  0  0  0  0
   -1.1460   -5.1804   20.3017 C   0  0  0  0  0  0  0  0  0  0  0  0
    0.7486   -5.1352   20.9529 H   0  0  0  0  0  0  0  0  0  0  0  0
   -6.0084   -6.1987   21.7005 C   0  0  0  0  0  0  0  0  0  0  0  0
   -7.1413   -7.2611   21.4932 C   0  0  0  0  0  0  0  0  0  0  0  0
   -8.2519   -6.5718   20.6612 C   0  0  0  0  0  0  0  0  0  0  0  0
   -7.7748   -7.7258   22.8122 C   0  0  0  0  0  0  0  0  0  0  0  0
   -6.6941   -8.4974   20.6976 C   0  0  0  0  0  0  0  0  0  0  0  0
  4 10  1  0
  4 11  1  0
  1 12  1  0
  1  5  1  0
  1  2  1  0
  1  3  1  0
 13 12  1  0
 13 14  1  0
 13 15  1  0
 13 16  1  0
  5  6  2  0
  5  7  1  0
  6  8  1  0
  7  9  2  0
  8 10  2  0
  9 10  1  0
M  END
> <PUBCHEM_COMPOUND_CID>
8814

> <PUBCHEM_CONFORMER_RMSD>
0.6

> <PUBCHEM_CONFORMER_DIVERSEORDER>
1
5
4
3
2

> <PUBCHEM_MMFF94_PARTIAL_CHARGES>
13
1 -0.53
11 -0.15
12 -0.15
13 -0.15
14 -0.15
15 0.08
2 0.14
33 0.15
34 0.15
35 0.15
36 0.15
37 0.45
5 -0.14

> <PUBCHEM_EFFECTIVE_ROTOR_COUNT>
3

> <PUBCHEM_PHARMACOPHORE_FEATURES>
4
1 1 donor
3 2 6 7 hydrophobe
4 3 8 9 10 hydrophobe
6 5 11 12 13 14 15 rings

> <PUBCHEM_HEAVY_ATOM_COUNT>
15

> <PUBCHEM_ATOM_DEF_STEREO_COUNT>
0

> <PUBCHEM_ATOM_UDEF_STEREO_COUNT>
0

> <PUBCHEM_BOND_DEF_STEREO_COUNT>
0

> <PUBCHEM_BOND_UDEF_STEREO_COUNT>
0

> <PUBCHEM_ISOTOPIC_ATOM_COUNT>
0

> <PUBCHEM_COMPONENT_COUNT>
1

> <PUBCHEM_CACTVS_TAUTO_COUNT>
2

> <PUBCHEM_CONFORMER_ID>
0000226E00000001

> <PUBCHEM_MMFF94_ENERGY>
60.6732

> <PUBCHEM_FEATURE_SELFOVERLAP>
20.297

> <PUBCHEM_SHAPE_FINGERPRINT>
1 1 18122065299635933247
11471102 22 13984658170435925480
12138202 97 18272929444633088966
12251169 10 14923953348599690641
12423570 1 15084294979065354379
124424 183 18201999928641116818
12491281 212 18273493468196309381
12532896 13 18409735040726507851
13299463 15 16200422598337566991
13538477 17 17822291326855117498
13764800 53 18335714831507604569
13839132 238 18413110537123213324
14817 1 11689340854733718479
15375462 478 15647061443078261877
15775835 57 18339078194495494345
16945 1 17988065786023185643
18186145 218 18200036118541666588
18534176 82 18271243927656786518
19837323 101 18335708272823803859
20525323 117 18337111292773698462
20645476 183 17894351081266785547
21296965 12 18260545576729377063
21501502 16 18271800211963701222
21524375 3 18339638928324873163
21947302 44 18059017168310697110
22802520 49 18199766781279703998
23402539 116 18267296706830970519
23419403 2 17194099544908694927
23557571 272 18198918083120765556
23559900 14 18342742906418193234
25 1 17845383149850037993
2748010 2 18262817159083630983
276578 36 18189342281366350763
305870 269 18040992882718168402
430814 3 18041565736850213531
549884 4 17416683544816290937
6333449 129 18343582975122638285
6442390 28 18269297706777891659
7364860 26 17834677097914689979
81228 2 18191593162379223291

> <PUBCHEM_SHAPE_MULTIPOLES>
302.82
5.29
2.15
1.39
2.11
0.81
0.13
-3.45
0.34
-1.29
-0.24
-0.12
0.26
0.01

> <PUBCHEM_SHAPE_SELFOVERLAP>
615.427

> <PUBCHEM_SHAPE_VOLUME>
178.4

> <PUBCHEM_COORDINATE_TYPE>
2
5
10

> <Energy>
46.4329

> <minimizedAffinity>
-8.09796

> <CNNscore>
0.8797979355

> <CNNaffinity>
6.5855813026

> <CNN_VS>
5.7939805984

> <CNNaffinity_variance>
0.2293035388

$$$$
8814


 16 16  0  0  0  0  0  0  0  0999 V2000
   -5.4777   -5.2485   20.5436 C   0  0  0  0  0  0  0  0  0  0  0  0
   -6.0285   -5.7633   19.1786 C   0  0  0  0  0  0  0  0  0  0  0  0
   -6.1018   -3.8439   20.7143 C   0  0  0  0  0  0  0  0  0  0  0  0
    0.2234   -5.1332   20.1746 O   0  0  0  0  0  0  0  0  0  0  0  0
   -3.9456   -5.2419   20.4316 C   0  0  0  0  0  0  0  0  0  0  0  0
   -3.1510   -5.2156   21.5979 C   0  0  0  0  0  0  0  0  0  0  0  0
   -3.2793   -5.2522   19.1946 C   0  0  0  0  0  0  0  0  0  0  0  0
   -1.7558   -5.1805   21.5303 C   0  0  0  0  0  0  0  0  0  0  0  0
   -1.8849   -5.2153   19.1245 C   0  0  0  0  0  0  0  0  0  0  0  0
   -1.1346   -5.1762   20.2915 C   0  0  0  0  0  0  0  0  0  0  0  0
    0.7592   -5.1062   20.9428 H   0  0  0  0  0  0  0  0  0  0  0  0
   -6.0017   -6.2293   21.6537 C   0  0  0  0  0  0  0  0  0  0  0  0
   -7.1766   -7.2405   21.4250 C   0  0  0  0  0  0  0  0  0  0  0  0
   -7.7733   -7.5534   22.8203 C   0  0  0  0  0  0  0  0  0  0  0  0
   -6.7119   -8.5699   20.8138 C   0  0  0  0  0  0  0  0  0  0  0  0
   -8.3220   -6.6771   20.5693 C   0  0  0  0  0  0  0  0  0  0  0  0
  4 10  1  0
  4 11  1  0
  1 12  1  0
  1  5  1  0
  1  2  1  0
  1  3  1  0
 13 12  1  0
 13 14  1  0
 13 15  1  0
 13 16  1  0
  5  6  2  0
  5  7  1  0
  6  8  1  0
  7  9  2  0
  8 10  2  0
  9 10  1  0
M  END
> <PUBCHEM_COMPOUND_CID>
8814

> <PUBCHEM_CONFORMER_RMSD>
0.6

> <PUBCHEM_CONFORMER_DIVERSEORDER>
1
5
4
3
2

> <PUBCHEM_MMFF94_PARTIAL_CHARGES>
13
1 -0.53
11 -0.15
12 -0.15
13 -0.15
14 -0.15
15 0.08
2 0.14
33 0.15
34 0.15
35 0.15
36 0.15
37 0.45
5 -0.14

> <PUBCHEM_EFFECTIVE_ROTOR_COUNT>
3

> <PUBCHEM_PHARMACOPHORE_FEATURES>
4
1 1 donor
3 2 6 7 hydrophobe
4 3 8 9 10 hydrophobe
6 5 11 12 13 14 15 rings

> <PUBCHEM_HEAVY_ATOM_COUNT>
15

> <PUBCHEM_ATOM_DEF_STEREO_COUNT>
0

> <PUBCHEM_ATOM_UDEF_STEREO_COUNT>
0

> <PUBCHEM_BOND_DEF_STEREO_COUNT>
0

> <PUBCHEM_BOND_UDEF_STEREO_COUNT>
0

> <PUBCHEM_ISOTOPIC_ATOM_COUNT>
0

> <PUBCHEM_COMPONENT_COUNT>
1

> <PUBCHEM_CACTVS_TAUTO_COUNT>
2

> <PUBCHEM_CONFORMER_ID>
0000226E00000001

> <PUBCHEM_MMFF94_ENERGY>
60.6732

> <PUBCHEM_FEATURE_SELFOVERLAP>
20.297

> <PUBCHEM_SHAPE_FINGERPRINT>
1 1 18122065299635933247
11471102 22 13984658170435925480
12138202 97 18272929444633088966
12251169 10 14923953348599690641
12423570 1 15084294979065354379
124424 183 18201999928641116818
12491281 212 18273493468196309381
12532896 13 18409735040726507851
13299463 15 16200422598337566991
13538477 17 17822291326855117498
13764800 53 18335714831507604569
13839132 238 18413110537123213324
14817 1 11689340854733718479
15375462 478 15647061443078261877
15775835 57 18339078194495494345
16945 1 17988065786023185643
18186145 218 18200036118541666588
18534176 82 18271243927656786518
19837323 101 18335708272823803859
20525323 117 18337111292773698462
20645476 183 17894351081266785547
21296965 12 18260545576729377063
21501502 16 18271800211963701222
21524375 3 18339638928324873163
21947302 44 18059017168310697110
22802520 49 18199766781279703998
23402539 116 18267296706830970519
23419403 2 17194099544908694927
23557571 272 18198918083120765556
23559900 14 18342742906418193234
25 1 17845383149850037993
2748010 2 18262817159083630983
276578 36 18189342281366350763
305870 269 18040992882718168402
430814 3 18041565736850213531
549884 4 17416683544816290937
6333449 129 18343582975122638285
6442390 28 18269297706777891659
7364860 26 17834677097914689979
81228 2 18191593162379223291

> <PUBCHEM_SHAPE_MULTIPOLES>
302.82
5.29
2.15
1.39
2.11
0.81
0.13
-3.45
0.34
-1.29
-0.24
-0.12
0.26
0.01

> <PUBCHEM_SHAPE_SELFOVERLAP>
615.427

> <PUBCHEM_SHAPE_VOLUME>
178.4

> <PUBCHEM_COORDINATE_TYPE>
2
5
10

> <Energy>
46.4329

> <minimizedAffinity>
-8.13928

> <CNNscore>
0.8792984486

> <CNNaffinity>
6.5745921135

> <CNN_VS>
5.7810287476

> <CNNaffinity_variance>
0.2103141993

$$$$
