6013


 22 25  0  0  0  0  0  0  0  0999 V2000
   -9.3111   -4.1538   22.8177 O   0  0  0  0  0  0  0  0  0  0  0  0
    0.2465   -1.1774   18.6182 O   0  0  0  0  0  0  0  0  0  0  0  0
   -5.9362   -2.7540   22.8163 C   0  0  0  0  0  0  0  0  0  0  0  0
   -6.9283   -3.7884   22.2500 C   0  0  0  0  0  0  0  0  0  0  0  0
   -4.4831   -3.0699   22.4501 C   0  0  0  0  0  0  0  0  0  0  0  0
   -4.3473   -3.0783   20.8946 C   0  0  0  0  0  0  0  0  0  0  0  0
   -2.8722   -3.3533   20.4109 C   0  0  0  0  0  0  0  0  0  0  0  0
   -6.8446   -3.7356   20.7191 C   0  0  0  0  0  0  0  0  0  0  0  0
   -5.4097   -3.9930   20.2241 C   0  0  0  0  0  0  0  0  0  0  0  0
   -8.2384   -3.2313   22.8432 C   0  0  0  0  0  0  0  0  0  0  0  0
   -6.3272   -2.6544   24.2887 C   0  0  0  0  0  0  0  0  0  0  0  0
   -3.5171   -2.0454   23.0585 C   0  0  0  0  0  0  0  0  0  0  0  0
   -7.8567   -2.8270   24.2821 C   0  0  0  0  0  0  0  0  0  0  0  0
   -1.9061   -2.4297   21.1661 C   0  0  0  0  0  0  0  0  0  0  0  0
   -2.0767   -2.3450   22.6647 C   0  0  0  0  0  0  0  0  0  0  0  0
   -6.6935   -5.2416   22.7317 C   0  0  0  0  0  0  0  0  0  0  0  0
   -2.7964   -3.0661   18.8822 C   0  0  0  0  0  0  0  0  0  0  0  0
   -2.4398   -4.8142   20.6676 C   0  0  0  0  0  0  0  0  0  0  0  0
   -1.3761   -2.9241   18.3549 C   0  0  0  0  0  0  0  0  0  0  0  0
   -0.9257   -1.7276   20.5725 C   0  0  0  0  0  0  0  0  0  0  0  0
   -0.6350   -1.8642   19.1259 C   0  0  0  0  0  0  0  0  0  0  0  0
   -9.5197   -4.3819   21.8983 H   0  0  0  0  0  0  0  0  0  0  0  0
  1 10  1  0
  1 22  1  0
  2 21  2  0
  3  4  1  0
  3  5  1  0
  3 11  1  0
  4  8  1  0
  4 10  1  0
  4 16  1  0
  5  6  1  0
  5 12  1  0
  6  7  1  0
  6  9  1  0
  7 14  1  0
  7 17  1  0
  7 18  1  0
  8  9  1  0
 10 13  1  0
 11 13  1  0
 12 15  1  0
 14 15  1  0
 14 20  2  0
 17 19  1  0
 19 21  1  0
 20 21  1  0
M  END
> <PUBCHEM_COMPOUND_CID>
6013

> <PUBCHEM_CONFORMER_RMSD>
0.6

> <PUBCHEM_CONFORMER_DIVERSEORDER>
1

> <PUBCHEM_MMFF94_PARTIAL_CHARGES>
11
1 -0.68
10 0.28
14 -0.28
15 0.14
19 0.06
2 -0.57
20 -0.14
21 0.49
48 0.15
49 0.4
7 0.14

> <PUBCHEM_EFFECTIVE_ROTOR_COUNT>
1.8

> <PUBCHEM_PHARMACOPHORE_FEATURES>
7
1 1 acceptor
1 1 donor
1 2 acceptor
5 3 4 10 11 13 rings
6 3 4 5 6 8 9 rings
6 5 6 7 12 14 15 rings
6 7 14 17 19 20 21 rings

> <PUBCHEM_HEAVY_ATOM_COUNT>
21

> <PUBCHEM_ATOM_DEF_STEREO_COUNT>
6

> <PUBCHEM_ATOM_UDEF_STEREO_COUNT>
0

> <PUBCHEM_BOND_DEF_STEREO_COUNT>
0

> <PUBCHEM_BOND_UDEF_STEREO_COUNT>
0

> <PUBCHEM_ISOTOPIC_ATOM_COUNT>
0

> <PUBCHEM_COMPONENT_COUNT>
1

> <PUBCHEM_CACTVS_TAUTO_COUNT>
5

> <PUBCHEM_CONFORMER_ID>
0000177D00000001

> <PUBCHEM_MMFF94_ENERGY>
67.5416

> <PUBCHEM_FEATURE_SELFOVERLAP>
35.618

> <PUBCHEM_SHAPE_FINGERPRINT>
10062212 137 18336825385559829163
10759866 29 17897457309511876188
10967382 1 18412548682291571786
11132069 177 18410018732180467827
11370993 70 18410569557056084199
11578080 2 16735503067342509174
12011746 2 18412547592124142406
12236239 1 18040155136873436768
12251169 10 18410008845387181634
12403259 226 18410006624652160988
12403259 415 18408880746209696412
12403260 363 18340481291412090749
12403814 3 17894914044785590877
12507557 5 18408881845467772304
12633257 1 18341888602346167976
12839892 36 18340758291450253690
13140716 1 18339643467883616216
13214271 11 18272369780793716703
13224815 77 18411987974316295335
13675066 3 18187087269080573787
14178342 30 18338527339117458393
14223421 5 18341052895787930134
14341114 176 18411985737129035682
14787075 74 18339640165090922602
14790565 3 18050014594947639924
15163728 17 14691189929019880809
15196674 1 18411420639180230811
15375358 24 18413110541697833299
15536298 74 18272376330249831326
15788980 27 17167859768361771669
16945 1 18267308633664624303
17349148 13 18260547844245275310
17492 89 18410012108956776131
1813 80 17168144512515476742
18186145 218 18411423903503023558
18522853 276 18412546492037592553
19050596 39 18410858775858764633
19784866 9 18412265021155473810
200 152 18202274819337965375
20715895 44 18116989984517715477
21033648 29 18262779827106925672
21267235 1 18410302427354843602
21421861 104 18042966467372004754
21637258 2 15647319828885568714
22182313 1 18189614934485510503
22854114 111 18409735070690792279
22854114 59 18343022189864506130
23402539 116 18272925046486162621
23557571 272 18059303161493107767
23559900 14 18343023255612643838
26918003 58 18409728456589012017
2748010 2 18410304609229794207
2838139 119 14835541671104639250
296302 2 16343984710473737934
335352 9 18411702045432157758
34934 24 18341610383102269379
350125 39 18410857681354741304
351380 180 18413386540454065762
3545911 37 18411703166439727155
42 15 18260548935156425576
5104073 3 18410294747868572393
59755656 215 18339930311854621398
633830 44 17988931080225984300
69090 78 18413386557386229218
7364860 26 18200601276388112774
9709674 26 18341058445033876271

> <PUBCHEM_SHAPE_MULTIPOLES>
420.43
9.43
2.1
1.06
1.16
0.42
0.43
-0.59
-2.56
-0.22
0.02
0.09
-0.22
0.11

> <PUBCHEM_SHAPE_SELFOVERLAP>
902.625

> <PUBCHEM_SHAPE_VOLUME>
230.1

> <PUBCHEM_COORDINATE_TYPE>
2
5
10

> <Energy>
71.9966

> <minimizedAffinity>
-9.17176

> <CNNscore>
0.8879251480

> <CNNaffinity>
7.9189796448

> <CNN_VS>
7.0314612389

> <CNNaffinity_variance>
0.4387206733

$$$$
6013


 22 25  0  0  0  0  0  0  0  0999 V2000
    0.6370   -2.0837   20.2531 O   0  0  0  0  0  0  0  0  0  0  0  0
   -9.4712   -3.2215   24.0442 O   0  0  0  0  0  0  0  0  0  0  0  0
   -2.9715   -2.6292   20.0770 C   0  0  0  0  0  0  0  0  0  0  0  0
   -1.6526   -2.8134   20.8525 C   0  0  0  0  0  0  0  0  0  0  0  0
   -4.1018   -3.5081   20.6206 C   0  0  0  0  0  0  0  0  0  0  0  0
   -4.3557   -3.1331   22.1149 C   0  0  0  0  0  0  0  0  0  0  0  0
   -5.5361   -3.9556   22.7599 C   0  0  0  0  0  0  0  0  0  0  0  0
   -1.8897   -2.3695   22.3018 C   0  0  0  0  0  0  0  0  0  0  0  0
   -3.0450   -3.1543   22.9495 C   0  0  0  0  0  0  0  0  0  0  0  0
   -0.7449   -1.8748   20.0316 C   0  0  0  0  0  0  0  0  0  0  0  0
   -2.5502   -2.7780   18.6172 C   0  0  0  0  0  0  0  0  0  0  0  0
   -5.3895   -3.3310   19.8060 C   0  0  0  0  0  0  0  0  0  0  0  0
   -1.1450   -2.1518   18.5677 C   0  0  0  0  0  0  0  0  0  0  0  0
   -6.7603   -3.9034   21.8351 C   0  0  0  0  0  0  0  0  0  0  0  0
   -6.5195   -4.1823   20.3701 C   0  0  0  0  0  0  0  0  0  0  0  0
   -1.0895   -4.2562   20.8384 C   0  0  0  0  0  0  0  0  0  0  0  0
   -5.8827   -3.3171   24.1373 C   0  0  0  0  0  0  0  0  0  0  0  0
   -5.1600   -5.4385   22.9761 C   0  0  0  0  0  0  0  0  0  0  0  0
   -7.2267   -3.7593   24.6970 C   0  0  0  0  0  0  0  0  0  0  0  0
   -8.0091   -3.6492   22.2622 C   0  0  0  0  0  0  0  0  0  0  0  0
   -8.3232   -3.4879   23.7014 C   0  0  0  0  0  0  0  0  0  0  0  0
    0.8471   -1.8997   21.1820 H   0  0  0  0  0  0  0  0  0  0  0  0
  1 10  1  0
  1 22  1  0
  2 21  2  0
  3  4  1  0
  3  5  1  0
  3 11  1  0
  4  8  1  0
  4 10  1  0
  4 16  1  0
  5  6  1  0
  5 12  1  0
  6  7  1  0
  6  9  1  0
  7 14  1  0
  7 17  1  0
  7 18  1  0
  8  9  1  0
 10 13  1  0
 11 13  1  0
 12 15  1  0
 14 15  1  0
 14 20  2  0
 17 19  1  0
 19 21  1  0
 20 21  1  0
M  END
> <PUBCHEM_COMPOUND_CID>
6013

> <PUBCHEM_CONFORMER_RMSD>
0.6

> <PUBCHEM_CONFORMER_DIVERSEORDER>
1

> <PUBCHEM_MMFF94_PARTIAL_CHARGES>
11
1 -0.68
10 0.28
14 -0.28
15 0.14
19 0.06
2 -0.57
20 -0.14
21 0.49
48 0.15
49 0.4
7 0.14

> <PUBCHEM_EFFECTIVE_ROTOR_COUNT>
1.8

> <PUBCHEM_PHARMACOPHORE_FEATURES>
7
1 1 acceptor
1 1 donor
1 2 acceptor
5 3 4 10 11 13 rings
6 3 4 5 6 8 9 rings
6 5 6 7 12 14 15 rings
6 7 14 17 19 20 21 rings

> <PUBCHEM_HEAVY_ATOM_COUNT>
21

> <PUBCHEM_ATOM_DEF_STEREO_COUNT>
6

> <PUBCHEM_ATOM_UDEF_STEREO_COUNT>
0

> <PUBCHEM_BOND_DEF_STEREO_COUNT>
0

> <PUBCHEM_BOND_UDEF_STEREO_COUNT>
0

> <PUBCHEM_ISOTOPIC_ATOM_COUNT>
0

> <PUBCHEM_COMPONENT_COUNT>
1

> <PUBCHEM_CACTVS_TAUTO_COUNT>
5

> <PUBCHEM_CONFORMER_ID>
0000177D00000001

> <PUBCHEM_MMFF94_ENERGY>
67.5416

> <PUBCHEM_FEATURE_SELFOVERLAP>
35.618

> <PUBCHEM_SHAPE_FINGERPRINT>
10062212 137 18336825385559829163
10759866 29 17897457309511876188
10967382 1 18412548682291571786
11132069 177 18410018732180467827
11370993 70 18410569557056084199
11578080 2 16735503067342509174
12011746 2 18412547592124142406
12236239 1 18040155136873436768
12251169 10 18410008845387181634
12403259 226 18410006624652160988
12403259 415 18408880746209696412
12403260 363 18340481291412090749
12403814 3 17894914044785590877
12507557 5 18408881845467772304
12633257 1 18341888602346167976
12839892 36 18340758291450253690
13140716 1 18339643467883616216
13214271 11 18272369780793716703
13224815 77 18411987974316295335
13675066 3 18187087269080573787
14178342 30 18338527339117458393
14223421 5 18341052895787930134
14341114 176 18411985737129035682
14787075 74 18339640165090922602
14790565 3 18050014594947639924
15163728 17 14691189929019880809
15196674 1 18411420639180230811
15375358 24 18413110541697833299
15536298 74 18272376330249831326
15788980 27 17167859768361771669
16945 1 18267308633664624303
17349148 13 18260547844245275310
17492 89 18410012108956776131
1813 80 17168144512515476742
18186145 218 18411423903503023558
18522853 276 18412546492037592553
19050596 39 18410858775858764633
19784866 9 18412265021155473810
200 152 18202274819337965375
20715895 44 18116989984517715477
21033648 29 18262779827106925672
21267235 1 18410302427354843602
21421861 104 18042966467372004754
21637258 2 15647319828885568714
22182313 1 18189614934485510503
22854114 111 18409735070690792279
22854114 59 18343022189864506130
23402539 116 18272925046486162621
23557571 272 18059303161493107767
23559900 14 18343023255612643838
26918003 58 18409728456589012017
2748010 2 18410304609229794207
2838139 119 14835541671104639250
296302 2 16343984710473737934
335352 9 18411702045432157758
34934 24 18341610383102269379
350125 39 18410857681354741304
351380 180 18413386540454065762
3545911 37 18411703166439727155
42 15 18260548935156425576
5104073 3 18410294747868572393
59755656 215 18339930311854621398
633830 44 17988931080225984300
69090 78 18413386557386229218
7364860 26 18200601276388112774
9709674 26 18341058445033876271

> <PUBCHEM_SHAPE_MULTIPOLES>
420.43
9.43
2.1
1.06
1.16
0.42
0.43
-0.59
-2.56
-0.22
0.02
0.09
-0.22
0.11

> <PUBCHEM_SHAPE_SELFOVERLAP>
902.625

> <PUBCHEM_SHAPE_VOLUME>
230.1

> <PUBCHEM_COORDINATE_TYPE>
2
5
10

> <Energy>
71.9966

> <minimizedAffinity>
-9.26069

> <CNNscore>
0.7431192994

> <CNNaffinity>
7.6041655540

> <CNN_VS>
5.6508021355

> <CNNaffinity_variance>
0.1919155866

$$$$
6013


 22 25  0  0  0  0  0  0  0  0999 V2000
   -0.3748   -4.7413   19.4391 O   0  0  0  0  0  0  0  0  0  0  0  0
   -9.5921   -2.7201   24.8056 O   0  0  0  0  0  0  0  0  0  0  0  0
   -2.6512   -2.8980   21.6231 C   0  0  0  0  0  0  0  0  0  0  0  0
   -2.4609   -3.8110   20.3963 C   0  0  0  0  0  0  0  0  0  0  0  0
   -4.0509   -2.2796   21.6855 C   0  0  0  0  0  0  0  0  0  0  0  0
   -5.1051   -3.4288   21.7620 C   0  0  0  0  0  0  0  0  0  0  0  0
   -6.5846   -2.8953   21.8733 C   0  0  0  0  0  0  0  0  0  0  0  0
   -3.4474   -4.9796   20.5185 C   0  0  0  0  0  0  0  0  0  0  0  0
   -4.8992   -4.4813   20.6374 C   0  0  0  0  0  0  0  0  0  0  0  0
   -0.9804   -4.1942   20.5952 C   0  0  0  0  0  0  0  0  0  0  0  0
   -1.4334   -1.9785   21.5751 C   0  0  0  0  0  0  0  0  0  0  0  0
   -4.1976   -1.3476   22.8950 C   0  0  0  0  0  0  0  0  0  0  0  0
   -0.3074   -2.8770   21.0330 C   0  0  0  0  0  0  0  0  0  0  0  0
   -6.6633   -1.8345   22.9802 C   0  0  0  0  0  0  0  0  0  0  0  0
   -5.6010   -0.7605   22.9709 C   0  0  0  0  0  0  0  0  0  0  0  0
   -2.6572   -3.1085   19.0299 C   0  0  0  0  0  0  0  0  0  0  0  0
   -7.5134   -4.0960   22.2207 C   0  0  0  0  0  0  0  0  0  0  0  0
   -7.0703   -2.2518   20.5554 C   0  0  0  0  0  0  0  0  0  0  0  0
   -8.8883   -3.6817   22.7240 C   0  0  0  0  0  0  0  0  0  0  0  0
   -7.6233   -1.8054   23.9205 C   0  0  0  0  0  0  0  0  0  0  0  0
   -8.7568   -2.7598   23.9072 C   0  0  0  0  0  0  0  0  0  0  0  0
   -0.8253   -5.5656   19.1973 H   0  0  0  0  0  0  0  0  0  0  0  0
  1 10  1  0
  1 22  1  0
  2 21  2  0
  3  4  1  0
  3  5  1  0
  3 11  1  0
  4  8  1  0
  4 10  1  0
  4 16  1  0
  5  6  1  0
  5 12  1  0
  6  7  1  0
  6  9  1  0
  7 14  1  0
  7 17  1  0
  7 18  1  0
  8  9  1  0
 10 13  1  0
 11 13  1  0
 12 15  1  0
 14 15  1  0
 14 20  2  0
 17 19  1  0
 19 21  1  0
 20 21  1  0
M  END
> <PUBCHEM_COMPOUND_CID>
6013

> <PUBCHEM_CONFORMER_RMSD>
0.6

> <PUBCHEM_CONFORMER_DIVERSEORDER>
1

> <PUBCHEM_MMFF94_PARTIAL_CHARGES>
11
1 -0.68
10 0.28
14 -0.28
15 0.14
19 0.06
2 -0.57
20 -0.14
21 0.49
48 0.15
49 0.4
7 0.14

> <PUBCHEM_EFFECTIVE_ROTOR_COUNT>
1.8

> <PUBCHEM_PHARMACOPHORE_FEATURES>
7
1 1 acceptor
1 1 donor
1 2 acceptor
5 3 4 10 11 13 rings
6 3 4 5 6 8 9 rings
6 5 6 7 12 14 15 rings
6 7 14 17 19 20 21 rings

> <PUBCHEM_HEAVY_ATOM_COUNT>
21

> <PUBCHEM_ATOM_DEF_STEREO_COUNT>
6

> <PUBCHEM_ATOM_UDEF_STEREO_COUNT>
0

> <PUBCHEM_BOND_DEF_STEREO_COUNT>
0

> <PUBCHEM_BOND_UDEF_STEREO_COUNT>
0

> <PUBCHEM_ISOTOPIC_ATOM_COUNT>
0

> <PUBCHEM_COMPONENT_COUNT>
1

> <PUBCHEM_CACTVS_TAUTO_COUNT>
5

> <PUBCHEM_CONFORMER_ID>
0000177D00000001

> <PUBCHEM_MMFF94_ENERGY>
67.5416

> <PUBCHEM_FEATURE_SELFOVERLAP>
35.618

> <PUBCHEM_SHAPE_FINGERPRINT>
10062212 137 18336825385559829163
10759866 29 17897457309511876188
10967382 1 18412548682291571786
11132069 177 18410018732180467827
11370993 70 18410569557056084199
11578080 2 16735503067342509174
12011746 2 18412547592124142406
12236239 1 18040155136873436768
12251169 10 18410008845387181634
12403259 226 18410006624652160988
12403259 415 18408880746209696412
12403260 363 18340481291412090749
12403814 3 17894914044785590877
12507557 5 18408881845467772304
12633257 1 18341888602346167976
12839892 36 18340758291450253690
13140716 1 18339643467883616216
13214271 11 18272369780793716703
13224815 77 18411987974316295335
13675066 3 18187087269080573787
14178342 30 18338527339117458393
14223421 5 18341052895787930134
14341114 176 18411985737129035682
14787075 74 18339640165090922602
14790565 3 18050014594947639924
15163728 17 14691189929019880809
15196674 1 18411420639180230811
15375358 24 18413110541697833299
15536298 74 18272376330249831326
15788980 27 17167859768361771669
16945 1 18267308633664624303
17349148 13 18260547844245275310
17492 89 18410012108956776131
1813 80 17168144512515476742
18186145 218 18411423903503023558
18522853 276 18412546492037592553
19050596 39 18410858775858764633
19784866 9 18412265021155473810
200 152 18202274819337965375
20715895 44 18116989984517715477
21033648 29 18262779827106925672
21267235 1 18410302427354843602
21421861 104 18042966467372004754
21637258 2 15647319828885568714
22182313 1 18189614934485510503
22854114 111 18409735070690792279
22854114 59 18343022189864506130
23402539 116 18272925046486162621
23557571 272 18059303161493107767
23559900 14 18343023255612643838
26918003 58 18409728456589012017
2748010 2 18410304609229794207
2838139 119 14835541671104639250
296302 2 16343984710473737934
335352 9 18411702045432157758
34934 24 18341610383102269379
350125 39 18410857681354741304
351380 180 18413386540454065762
3545911 37 18411703166439727155
42 15 18260548935156425576
5104073 3 18410294747868572393
59755656 215 18339930311854621398
633830 44 17988931080225984300
69090 78 18413386557386229218
7364860 26 18200601276388112774
9709674 26 18341058445033876271

> <PUBCHEM_SHAPE_MULTIPOLES>
420.43
9.43
2.1
1.06
1.16
0.42
0.43
-0.59
-2.56
-0.22
0.02
0.09
-0.22
0.11

> <PUBCHEM_SHAPE_SELFOVERLAP>
902.625

> <PUBCHEM_SHAPE_VOLUME>
230.1

> <PUBCHEM_COORDINATE_TYPE>
2
5
10

> <Energy>
71.9966

> <minimizedAffinity>
-7.61042

> <CNNscore>
0.6519554853

> <CNNaffinity>
7.5666480064

> <CNN_VS>
4.9331178665

> <CNNaffinity_variance>
0.3641014099

$$$$
6013


 22 25  0  0  0  0  0  0  0  0999 V2000
    0.0196   -2.1405   22.0426 O   0  0  0  0  0  0  0  0  0  0  0  0
  -10.7685   -1.9953   23.2420 O   0  0  0  0  0  0  0  0  0  0  0  0
   -3.4593   -2.8887   21.2138 C   0  0  0  0  0  0  0  0  0  0  0  0
   -2.3917   -2.6449   22.2980 C   0  0  0  0  0  0  0  0  0  0  0  0
   -4.7473   -3.4930   21.7811 C   0  0  0  0  0  0  0  0  0  0  0  0
   -5.3397   -2.5101   22.8397 C   0  0  0  0  0  0  0  0  0  0  0  0
   -6.6974   -3.0217   23.4569 C   0  0  0  0  0  0  0  0  0  0  0  0
   -2.9520   -1.6193   23.2919 C   0  0  0  0  0  0  0  0  0  0  0  0
   -4.2835   -2.0946   23.9012 C   0  0  0  0  0  0  0  0  0  0  0  0
   -1.2456   -2.1208   21.4090 C   0  0  0  0  0  0  0  0  0  0  0  0
   -2.6982   -3.6453   20.1281 C   0  0  0  0  0  0  0  0  0  0  0  0
   -5.7755   -3.7589   20.6743 C   0  0  0  0  0  0  0  0  0  0  0  0
   -1.2855   -3.0354   20.1674 C   0  0  0  0  0  0  0  0  0  0  0  0
   -7.6455   -3.4449   22.3261 C   0  0  0  0  0  0  0  0  0  0  0  0
   -7.0663   -4.3294   21.2471 C   0  0  0  0  0  0  0  0  0  0  0  0
   -1.9434   -3.9153   23.0623 C   0  0  0  0  0  0  0  0  0  0  0  0
   -7.3321   -1.8590   24.2757 C   0  0  0  0  0  0  0  0  0  0  0  0
   -6.4900   -4.2357   24.3899 C   0  0  0  0  0  0  0  0  0  0  0  0
   -8.8005   -2.0757   24.6108 C   0  0  0  0  0  0  0  0  0  0  0  0
   -8.9408   -3.0916   22.2654 C   0  0  0  0  0  0  0  0  0  0  0  0
   -9.5924   -2.3274   23.3551 C   0  0  0  0  0  0  0  0  0  0  0  0
    0.0032   -1.5549   22.8157 H   0  0  0  0  0  0  0  0  0  0  0  0
  1 10  1  0
  1 22  1  0
  2 21  2  0
  3  4  1  0
  3  5  1  0
  3 11  1  0
  4  8  1  0
  4 10  1  0
  4 16  1  0
  5  6  1  0
  5 12  1  0
  6  7  1  0
  6  9  1  0
  7 14  1  0
  7 17  1  0
  7 18  1  0
  8  9  1  0
 10 13  1  0
 11 13  1  0
 12 15  1  0
 14 15  1  0
 14 20  2  0
 17 19  1  0
 19 21  1  0
 20 21  1  0
M  END
> <PUBCHEM_COMPOUND_CID>
6013

> <PUBCHEM_CONFORMER_RMSD>
0.6

> <PUBCHEM_CONFORMER_DIVERSEORDER>
1

> <PUBCHEM_MMFF94_PARTIAL_CHARGES>
11
1 -0.68
10 0.28
14 -0.28
15 0.14
19 0.06
2 -0.57
20 -0.14
21 0.49
48 0.15
49 0.4
7 0.14

> <PUBCHEM_EFFECTIVE_ROTOR_COUNT>
1.8

> <PUBCHEM_PHARMACOPHORE_FEATURES>
7
1 1 acceptor
1 1 donor
1 2 acceptor
5 3 4 10 11 13 rings
6 3 4 5 6 8 9 rings
6 5 6 7 12 14 15 rings
6 7 14 17 19 20 21 rings

> <PUBCHEM_HEAVY_ATOM_COUNT>
21

> <PUBCHEM_ATOM_DEF_STEREO_COUNT>
6

> <PUBCHEM_ATOM_UDEF_STEREO_COUNT>
0

> <PUBCHEM_BOND_DEF_STEREO_COUNT>
0

> <PUBCHEM_BOND_UDEF_STEREO_COUNT>
0

> <PUBCHEM_ISOTOPIC_ATOM_COUNT>
0

> <PUBCHEM_COMPONENT_COUNT>
1

> <PUBCHEM_CACTVS_TAUTO_COUNT>
5

> <PUBCHEM_CONFORMER_ID>
0000177D00000001

> <PUBCHEM_MMFF94_ENERGY>
67.5416

> <PUBCHEM_FEATURE_SELFOVERLAP>
35.618

> <PUBCHEM_SHAPE_FINGERPRINT>
10062212 137 18336825385559829163
10759866 29 17897457309511876188
10967382 1 18412548682291571786
11132069 177 18410018732180467827
11370993 70 18410569557056084199
11578080 2 16735503067342509174
12011746 2 18412547592124142406
12236239 1 18040155136873436768
12251169 10 18410008845387181634
12403259 226 18410006624652160988
12403259 415 18408880746209696412
12403260 363 18340481291412090749
12403814 3 17894914044785590877
12507557 5 18408881845467772304
12633257 1 18341888602346167976
12839892 36 18340758291450253690
13140716 1 18339643467883616216
13214271 11 18272369780793716703
13224815 77 18411987974316295335
13675066 3 18187087269080573787
14178342 30 18338527339117458393
14223421 5 18341052895787930134
14341114 176 18411985737129035682
14787075 74 18339640165090922602
14790565 3 18050014594947639924
15163728 17 14691189929019880809
15196674 1 18411420639180230811
15375358 24 18413110541697833299
15536298 74 18272376330249831326
15788980 27 17167859768361771669
16945 1 18267308633664624303
17349148 13 18260547844245275310
17492 89 18410012108956776131
1813 80 17168144512515476742
18186145 218 18411423903503023558
18522853 276 18412546492037592553
19050596 39 18410858775858764633
19784866 9 18412265021155473810
200 152 18202274819337965375
20715895 44 18116989984517715477
21033648 29 18262779827106925672
21267235 1 18410302427354843602
21421861 104 18042966467372004754
21637258 2 15647319828885568714
22182313 1 18189614934485510503
22854114 111 18409735070690792279
22854114 59 18343022189864506130
23402539 116 18272925046486162621
23557571 272 18059303161493107767
23559900 14 18343023255612643838
26918003 58 18409728456589012017
2748010 2 18410304609229794207
2838139 119 14835541671104639250
296302 2 16343984710473737934
335352 9 18411702045432157758
34934 24 18341610383102269379
350125 39 18410857681354741304
351380 180 18413386540454065762
3545911 37 18411703166439727155
42 15 18260548935156425576
5104073 3 18410294747868572393
59755656 215 18339930311854621398
633830 44 17988931080225984300
69090 78 18413386557386229218
7364860 26 18200601276388112774
9709674 26 18341058445033876271

> <PUBCHEM_SHAPE_MULTIPOLES>
420.43
9.43
2.1
1.06
1.16
0.42
0.43
-0.59
-2.56
-0.22
0.02
0.09
-0.22
0.11

> <PUBCHEM_SHAPE_SELFOVERLAP>
902.625

> <PUBCHEM_SHAPE_VOLUME>
230.1

> <PUBCHEM_COORDINATE_TYPE>
2
5
10

> <Energy>
71.9966

> <minimizedAffinity>
-2.64502

> <CNNscore>
0.5593696833

> <CNNaffinity>
7.3667297363

> <CNN_VS>
4.1207251549

> <CNNaffinity_variance>
0.4144000113

$$$$
6013


 22 25  0  0  0  0  0  0  0  0999 V2000
   -6.6783   -5.8443   24.7822 O   0  0  0  0  0  0  0  0  0  0  0  0
    1.1646   -2.0101   18.3300 O   0  0  0  0  0  0  0  0  0  0  0  0
   -5.1721   -4.6591   21.6716 C   0  0  0  0  0  0  0  0  0  0  0  0
   -5.2460   -4.5771   23.2087 C   0  0  0  0  0  0  0  0  0  0  0  0
   -4.4060   -3.4848   21.0553 C   0  0  0  0  0  0  0  0  0  0  0  0
   -2.9490   -3.4854   21.6165 C   0  0  0  0  0  0  0  0  0  0  0  0
   -2.0591   -2.3343   21.0090 C   0  0  0  0  0  0  0  0  0  0  0  0
   -3.8150   -4.6562   23.7562 C   0  0  0  0  0  0  0  0  0  0  0  0
   -2.9249   -3.5457   23.1691 C   0  0  0  0  0  0  0  0  0  0  0  0
   -6.1117   -5.8230   23.4857 C   0  0  0  0  0  0  0  0  0  0  0  0
   -6.6215   -4.9006   21.2577 C   0  0  0  0  0  0  0  0  0  0  0  0
   -4.3818   -3.5742   19.5242 C   0  0  0  0  0  0  0  0  0  0  0  0
   -7.1899   -5.7835   22.3832 C   0  0  0  0  0  0  0  0  0  0  0  0
   -2.1916   -2.3392   19.4795 C   0  0  0  0  0  0  0  0  0  0  0  0
   -3.5914   -2.4221   18.9176 C   0  0  0  0  0  0  0  0  0  0  0  0
   -5.9403   -3.3054   23.7563 C   0  0  0  0  0  0  0  0  0  0  0  0
   -0.5783   -2.5939   21.4150 C   0  0  0  0  0  0  0  0  0  0  0  0
   -2.4822   -0.9404   21.5237 C   0  0  0  0  0  0  0  0  0  0  0  0
    0.4293   -1.7936   20.6028 C   0  0  0  0  0  0  0  0  0  0  0  0
   -1.1468   -2.2526   18.6386 C   0  0  0  0  0  0  0  0  0  0  0  0
    0.2357   -2.0480   19.1314 C   0  0  0  0  0  0  0  0  0  0  0  0
   -5.9700   -5.8688   25.4444 H   0  0  0  0  0  0  0  0  0  0  0  0
  1 10  1  0
  1 22  1  0
  2 21  2  0
  3  4  1  0
  3  5  1  0
  3 11  1  0
  4  8  1  0
  4 10  1  0
  4 16  1  0
  5  6  1  0
  5 12  1  0
  6  7  1  0
  6  9  1  0
  7 14  1  0
  7 17  1  0
  7 18  1  0
  8  9  1  0
 10 13  1  0
 11 13  1  0
 12 15  1  0
 14 15  1  0
 14 20  2  0
 17 19  1  0
 19 21  1  0
 20 21  1  0
M  END
> <PUBCHEM_COMPOUND_CID>
6013

> <PUBCHEM_CONFORMER_RMSD>
0.6

> <PUBCHEM_CONFORMER_DIVERSEORDER>
1

> <PUBCHEM_MMFF94_PARTIAL_CHARGES>
11
1 -0.68
10 0.28
14 -0.28
15 0.14
19 0.06
2 -0.57
20 -0.14
21 0.49
48 0.15
49 0.4
7 0.14

> <PUBCHEM_EFFECTIVE_ROTOR_COUNT>
1.8

> <PUBCHEM_PHARMACOPHORE_FEATURES>
7
1 1 acceptor
1 1 donor
1 2 acceptor
5 3 4 10 11 13 rings
6 3 4 5 6 8 9 rings
6 5 6 7 12 14 15 rings
6 7 14 17 19 20 21 rings

> <PUBCHEM_HEAVY_ATOM_COUNT>
21

> <PUBCHEM_ATOM_DEF_STEREO_COUNT>
6

> <PUBCHEM_ATOM_UDEF_STEREO_COUNT>
0

> <PUBCHEM_BOND_DEF_STEREO_COUNT>
0

> <PUBCHEM_BOND_UDEF_STEREO_COUNT>
0

> <PUBCHEM_ISOTOPIC_ATOM_COUNT>
0

> <PUBCHEM_COMPONENT_COUNT>
1

> <PUBCHEM_CACTVS_TAUTO_COUNT>
5

> <PUBCHEM_CONFORMER_ID>
0000177D00000001

> <PUBCHEM_MMFF94_ENERGY>
67.5416

> <PUBCHEM_FEATURE_SELFOVERLAP>
35.618

> <PUBCHEM_SHAPE_FINGERPRINT>
10062212 137 18336825385559829163
10759866 29 17897457309511876188
10967382 1 18412548682291571786
11132069 177 18410018732180467827
11370993 70 18410569557056084199
11578080 2 16735503067342509174
12011746 2 18412547592124142406
12236239 1 18040155136873436768
12251169 10 18410008845387181634
12403259 226 18410006624652160988
12403259 415 18408880746209696412
12403260 363 18340481291412090749
12403814 3 17894914044785590877
12507557 5 18408881845467772304
12633257 1 18341888602346167976
12839892 36 18340758291450253690
13140716 1 18339643467883616216
13214271 11 18272369780793716703
13224815 77 18411987974316295335
13675066 3 18187087269080573787
14178342 30 18338527339117458393
14223421 5 18341052895787930134
14341114 176 18411985737129035682
14787075 74 18339640165090922602
14790565 3 18050014594947639924
15163728 17 14691189929019880809
15196674 1 18411420639180230811
15375358 24 18413110541697833299
15536298 74 18272376330249831326
15788980 27 17167859768361771669
16945 1 18267308633664624303
17349148 13 18260547844245275310
17492 89 18410012108956776131
1813 80 17168144512515476742
18186145 218 18411423903503023558
18522853 276 18412546492037592553
19050596 39 18410858775858764633
19784866 9 18412265021155473810
200 152 18202274819337965375
20715895 44 18116989984517715477
21033648 29 18262779827106925672
21267235 1 18410302427354843602
21421861 104 18042966467372004754
21637258 2 15647319828885568714
22182313 1 18189614934485510503
22854114 111 18409735070690792279
22854114 59 18343022189864506130
23402539 116 18272925046486162621
23557571 272 18059303161493107767
23559900 14 18343023255612643838
26918003 58 18409728456589012017
2748010 2 18410304609229794207
2838139 119 14835541671104639250
296302 2 16343984710473737934
335352 9 18411702045432157758
34934 24 18341610383102269379
350125 39 18410857681354741304
351380 180 18413386540454065762
3545911 37 18411703166439727155
42 15 18260548935156425576
5104073 3 18410294747868572393
59755656 215 18339930311854621398
633830 44 17988931080225984300
69090 78 18413386557386229218
7364860 26 18200601276388112774
9709674 26 18341058445033876271

> <PUBCHEM_SHAPE_MULTIPOLES>
420.43
9.43
2.1
1.06
1.16
0.42
0.43
-0.59
-2.56
-0.22
0.02
0.09
-0.22
0.11

> <PUBCHEM_SHAPE_SELFOVERLAP>
902.625

> <PUBCHEM_SHAPE_VOLUME>
230.1

> <PUBCHEM_COORDINATE_TYPE>
2
5
10

> <Energy>
71.9966

> <minimizedAffinity>
3.71303

> <CNNscore>
0.1685482264

> <CNNaffinity>
6.0559234619

> <CNN_VS>
1.0207151175

> <CNNaffinity_variance>
0.0964352712

$$$$
6013


 22 25  0  0  0  0  0  0  0  0999 V2000
   -8.7545   -4.1754   21.5197 O   0  0  0  0  0  0  0  0  0  0  0  0
    1.8108   -1.7772   20.8360 O   0  0  0  0  0  0  0  0  0  0  0  0
   -5.1566   -4.7925   21.6731 C   0  0  0  0  0  0  0  0  0  0  0  0
   -6.3329   -4.0430   21.0179 C   0  0  0  0  0  0  0  0  0  0  0  0
   -3.8628   -4.6830   20.8607 C   0  0  0  0  0  0  0  0  0  0  0  0
   -3.4743   -3.1759   20.7353 C   0  0  0  0  0  0  0  0  0  0  0  0
   -2.1260   -2.9553   19.9484 C   0  0  0  0  0  0  0  0  0  0  0  0
   -5.9754   -2.5519   20.9687 C   0  0  0  0  0  0  0  0  0  0  0  0
   -4.6563   -2.3134   20.2117 C   0  0  0  0  0  0  0  0  0  0  0  0
   -7.4500   -4.4051   22.0176 C   0  0  0  0  0  0  0  0  0  0  0  0
   -5.7347   -6.1744   21.9680 C   0  0  0  0  0  0  0  0  0  0  0  0
   -2.7212   -5.4692   21.5177 C   0  0  0  0  0  0  0  0  0  0  0  0
   -7.2041   -5.8953   22.3314 C   0  0  0  0  0  0  0  0  0  0  0  0
   -1.0444   -3.8844   20.5173 C   0  0  0  0  0  0  0  0  0  0  0  0
   -1.4288   -5.3307   20.7237 C   0  0  0  0  0  0  0  0  0  0  0  0
   -6.7018   -4.5341   19.5960 C   0  0  0  0  0  0  0  0  0  0  0  0
   -1.6951   -1.4689   20.1220 C   0  0  0  0  0  0  0  0  0  0  0  0
   -2.2770   -3.2598   18.4412 C   0  0  0  0  0  0  0  0  0  0  0  0
   -0.2456   -1.2028   19.7431 C   0  0  0  0  0  0  0  0  0  0  0  0
    0.2046   -3.4848   20.8119 C   0  0  0  0  0  0  0  0  0  0  0  0
    0.6730   -2.1100   20.5178 C   0  0  0  0  0  0  0  0  0  0  0  0
   -8.8685   -3.2300   21.3355 H   0  0  0  0  0  0  0  0  0  0  0  0
  1 10  1  0
  1 22  1  0
  2 21  2  0
  3  4  1  0
  3  5  1  0
  3 11  1  0
  4  8  1  0
  4 10  1  0
  4 16  1  0
  5  6  1  0
  5 12  1  0
  6  7  1  0
  6  9  1  0
  7 14  1  0
  7 17  1  0
  7 18  1  0
  8  9  1  0
 10 13  1  0
 11 13  1  0
 12 15  1  0
 14 15  1  0
 14 20  2  0
 17 19  1  0
 19 21  1  0
 20 21  1  0
M  END
> <PUBCHEM_COMPOUND_CID>
6013

> <PUBCHEM_CONFORMER_RMSD>
0.6

> <PUBCHEM_CONFORMER_DIVERSEORDER>
1

> <PUBCHEM_MMFF94_PARTIAL_CHARGES>
11
1 -0.68
10 0.28
14 -0.28
15 0.14
19 0.06
2 -0.57
20 -0.14
21 0.49
48 0.15
49 0.4
7 0.14

> <PUBCHEM_EFFECTIVE_ROTOR_COUNT>
1.8

> <PUBCHEM_PHARMACOPHORE_FEATURES>
7
1 1 acceptor
1 1 donor
1 2 acceptor
5 3 4 10 11 13 rings
6 3 4 5 6 8 9 rings
6 5 6 7 12 14 15 rings
6 7 14 17 19 20 21 rings

> <PUBCHEM_HEAVY_ATOM_COUNT>
21

> <PUBCHEM_ATOM_DEF_STEREO_COUNT>
6

> <PUBCHEM_ATOM_UDEF_STEREO_COUNT>
0

> <PUBCHEM_BOND_DEF_STEREO_COUNT>
0

> <PUBCHEM_BOND_UDEF_STEREO_COUNT>
0

> <PUBCHEM_ISOTOPIC_ATOM_COUNT>
0

> <PUBCHEM_COMPONENT_COUNT>
1

> <PUBCHEM_CACTVS_TAUTO_COUNT>
5

> <PUBCHEM_CONFORMER_ID>
0000177D00000001

> <PUBCHEM_MMFF94_ENERGY>
67.5416

> <PUBCHEM_FEATURE_SELFOVERLAP>
35.618

> <PUBCHEM_SHAPE_FINGERPRINT>
10062212 137 18336825385559829163
10759866 29 17897457309511876188
10967382 1 18412548682291571786
11132069 177 18410018732180467827
11370993 70 18410569557056084199
11578080 2 16735503067342509174
12011746 2 18412547592124142406
12236239 1 18040155136873436768
12251169 10 18410008845387181634
12403259 226 18410006624652160988
12403259 415 18408880746209696412
12403260 363 18340481291412090749
12403814 3 17894914044785590877
12507557 5 18408881845467772304
12633257 1 18341888602346167976
12839892 36 18340758291450253690
13140716 1 18339643467883616216
13214271 11 18272369780793716703
13224815 77 18411987974316295335
13675066 3 18187087269080573787
14178342 30 18338527339117458393
14223421 5 18341052895787930134
14341114 176 18411985737129035682
14787075 74 18339640165090922602
14790565 3 18050014594947639924
15163728 17 14691189929019880809
15196674 1 18411420639180230811
15375358 24 18413110541697833299
15536298 74 18272376330249831326
15788980 27 17167859768361771669
16945 1 18267308633664624303
17349148 13 18260547844245275310
17492 89 18410012108956776131
1813 80 17168144512515476742
18186145 218 18411423903503023558
18522853 276 18412546492037592553
19050596 39 18410858775858764633
19784866 9 18412265021155473810
200 152 18202274819337965375
20715895 44 18116989984517715477
21033648 29 18262779827106925672
21267235 1 18410302427354843602
21421861 104 18042966467372004754
21637258 2 15647319828885568714
22182313 1 18189614934485510503
22854114 111 18409735070690792279
22854114 59 18343022189864506130
23402539 116 18272925046486162621
23557571 272 18059303161493107767
23559900 14 18343023255612643838
26918003 58 18409728456589012017
2748010 2 18410304609229794207
2838139 119 14835541671104639250
296302 2 16343984710473737934
335352 9 18411702045432157758
34934 24 18341610383102269379
350125 39 18410857681354741304
351380 180 18413386540454065762
3545911 37 18411703166439727155
42 15 18260548935156425576
5104073 3 18410294747868572393
59755656 215 18339930311854621398
633830 44 17988931080225984300
69090 78 18413386557386229218
7364860 26 18200601276388112774
9709674 26 18341058445033876271

> <PUBCHEM_SHAPE_MULTIPOLES>
420.43
9.43
2.1
1.06
1.16
0.42
0.43
-0.59
-2.56
-0.22
0.02
0.09
-0.22
0.11

> <PUBCHEM_SHAPE_SELFOVERLAP>
902.625

> <PUBCHEM_SHAPE_VOLUME>
230.1

> <PUBCHEM_COORDINATE_TYPE>
2
5
10

> <Energy>
71.9966

> <minimizedAffinity>
-2.16830

> <CNNscore>
0.1635614932

> <CNNaffinity>
6.3881773949

> <CNN_VS>
1.0448598862

> <CNNaffinity_variance>
0.4247612953

$$$$
6013


 22 25  0  0  0  0  0  0  0  0999 V2000
   -4.5853   -8.1408   18.6164 O   0  0  0  0  0  0  0  0  0  0  0  0
  -10.3036   -1.6136   25.1386 O   0  0  0  0  0  0  0  0  0  0  0  0
   -5.4311   -6.3941   21.7121 C   0  0  0  0  0  0  0  0  0  0  0  0
   -5.4161   -6.4012   20.1711 C   0  0  0  0  0  0  0  0  0  0  0  0
   -5.7188   -5.0060   22.2918 C   0  0  0  0  0  0  0  0  0  0  0  0
   -7.1173   -4.5303   21.7861 C   0  0  0  0  0  0  0  0  0  0  0  0
   -7.5297   -3.1221   22.3630 C   0  0  0  0  0  0  0  0  0  0  0  0
   -6.8160   -6.0076   19.6824 C   0  0  0  0  0  0  0  0  0  0  0  0
   -7.2435   -4.6382   20.2410 C   0  0  0  0  0  0  0  0  0  0  0  0
   -5.0409   -7.8775   19.9300 C   0  0  0  0  0  0  0  0  0  0  0  0
   -4.1297   -7.1002   22.0842 C   0  0  0  0  0  0  0  0  0  0  0  0
   -5.6899   -5.0230   23.8254 C   0  0  0  0  0  0  0  0  0  0  0  0
   -3.9559   -8.1665   20.9879 C   0  0  0  0  0  0  0  0  0  0  0  0
   -7.3250   -3.1133   23.8844 C   0  0  0  0  0  0  0  0  0  0  0  0
   -6.0086   -3.6479   24.3975 C   0  0  0  0  0  0  0  0  0  0  0  0
   -4.3616   -5.4653   19.5298 C   0  0  0  0  0  0  0  0  0  0  0  0
   -9.0302   -2.8755   22.0271 C   0  0  0  0  0  0  0  0  0  0  0  0
   -6.6867   -1.9774   21.7580 C   0  0  0  0  0  0  0  0  0  0  0  0
   -9.6612   -1.7486   22.8316 C   0  0  0  0  0  0  0  0  0  0  0  0
   -8.2318   -2.6427   24.7578 C   0  0  0  0  0  0  0  0  0  0  0  0
   -9.4871   -1.9972   24.3065 C   0  0  0  0  0  0  0  0  0  0  0  0
   -5.2943   -7.9472   17.9834 H   0  0  0  0  0  0  0  0  0  0  0  0
  1 10  1  0
  1 22  1  0
  2 21  2  0
  3  4  1  0
  3  5  1  0
  3 11  1  0
  4  8  1  0
  4 10  1  0
  4 16  1  0
  5  6  1  0
  5 12  1  0
  6  7  1  0
  6  9  1  0
  7 14  1  0
  7 17  1  0
  7 18  1  0
  8  9  1  0
 10 13  1  0
 11 13  1  0
 12 15  1  0
 14 15  1  0
 14 20  2  0
 17 19  1  0
 19 21  1  0
 20 21  1  0
M  END
> <PUBCHEM_COMPOUND_CID>
6013

> <PUBCHEM_CONFORMER_RMSD>
0.6

> <PUBCHEM_CONFORMER_DIVERSEORDER>
1

> <PUBCHEM_MMFF94_PARTIAL_CHARGES>
11
1 -0.68
10 0.28
14 -0.28
15 0.14
19 0.06
2 -0.57
20 -0.14
21 0.49
48 0.15
49 0.4
7 0.14

> <PUBCHEM_EFFECTIVE_ROTOR_COUNT>
1.8

> <PUBCHEM_PHARMACOPHORE_FEATURES>
7
1 1 acceptor
1 1 donor
1 2 acceptor
5 3 4 10 11 13 rings
6 3 4 5 6 8 9 rings
6 5 6 7 12 14 15 rings
6 7 14 17 19 20 21 rings

> <PUBCHEM_HEAVY_ATOM_COUNT>
21

> <PUBCHEM_ATOM_DEF_STEREO_COUNT>
6

> <PUBCHEM_ATOM_UDEF_STEREO_COUNT>
0

> <PUBCHEM_BOND_DEF_STEREO_COUNT>
0

> <PUBCHEM_BOND_UDEF_STEREO_COUNT>
0

> <PUBCHEM_ISOTOPIC_ATOM_COUNT>
0

> <PUBCHEM_COMPONENT_COUNT>
1

> <PUBCHEM_CACTVS_TAUTO_COUNT>
5

> <PUBCHEM_CONFORMER_ID>
0000177D00000001

> <PUBCHEM_MMFF94_ENERGY>
67.5416

> <PUBCHEM_FEATURE_SELFOVERLAP>
35.618

> <PUBCHEM_SHAPE_FINGERPRINT>
10062212 137 18336825385559829163
10759866 29 17897457309511876188
10967382 1 18412548682291571786
11132069 177 18410018732180467827
11370993 70 18410569557056084199
11578080 2 16735503067342509174
12011746 2 18412547592124142406
12236239 1 18040155136873436768
12251169 10 18410008845387181634
12403259 226 18410006624652160988
12403259 415 18408880746209696412
12403260 363 18340481291412090749
12403814 3 17894914044785590877
12507557 5 18408881845467772304
12633257 1 18341888602346167976
12839892 36 18340758291450253690
13140716 1 18339643467883616216
13214271 11 18272369780793716703
13224815 77 18411987974316295335
13675066 3 18187087269080573787
14178342 30 18338527339117458393
14223421 5 18341052895787930134
14341114 176 18411985737129035682
14787075 74 18339640165090922602
14790565 3 18050014594947639924
15163728 17 14691189929019880809
15196674 1 18411420639180230811
15375358 24 18413110541697833299
15536298 74 18272376330249831326
15788980 27 17167859768361771669
16945 1 18267308633664624303
17349148 13 18260547844245275310
17492 89 18410012108956776131
1813 80 17168144512515476742
18186145 218 18411423903503023558
18522853 276 18412546492037592553
19050596 39 18410858775858764633
19784866 9 18412265021155473810
200 152 18202274819337965375
20715895 44 18116989984517715477
21033648 29 18262779827106925672
21267235 1 18410302427354843602
21421861 104 18042966467372004754
21637258 2 15647319828885568714
22182313 1 18189614934485510503
22854114 111 18409735070690792279
22854114 59 18343022189864506130
23402539 116 18272925046486162621
23557571 272 18059303161493107767
23559900 14 18343023255612643838
26918003 58 18409728456589012017
2748010 2 18410304609229794207
2838139 119 14835541671104639250
296302 2 16343984710473737934
335352 9 18411702045432157758
34934 24 18341610383102269379
350125 39 18410857681354741304
351380 180 18413386540454065762
3545911 37 18411703166439727155
42 15 18260548935156425576
5104073 3 18410294747868572393
59755656 215 18339930311854621398
633830 44 17988931080225984300
69090 78 18413386557386229218
7364860 26 18200601276388112774
9709674 26 18341058445033876271

> <PUBCHEM_SHAPE_MULTIPOLES>
420.43
9.43
2.1
1.06
1.16
0.42
0.43
-0.59
-2.56
-0.22
0.02
0.09
-0.22
0.11

> <PUBCHEM_SHAPE_SELFOVERLAP>
902.625

> <PUBCHEM_SHAPE_VOLUME>
230.1

> <PUBCHEM_COORDINATE_TYPE>
2
5
10

> <Energy>
71.9966

> <minimizedAffinity>
4.13653

> <CNNscore>
0.1303589344

> <CNNaffinity>
5.9786505699

> <CNN_VS>
0.7793705463

> <CNNaffinity_variance>
0.1567055583

$$$$
6013


 22 25  0  0  0  0  0  0  0  0999 V2000
   -8.8811   -2.0150   24.2261 O   0  0  0  0  0  0  0  0  0  0  0  0
    1.3611   -2.8947   20.7379 O   0  0  0  0  0  0  0  0  0  0  0  0
   -5.7378   -3.7027   23.4377 C   0  0  0  0  0  0  0  0  0  0  0  0
   -6.7510   -2.5912   23.1016 C   0  0  0  0  0  0  0  0  0  0  0  0
   -4.7273   -3.9386   22.3113 C   0  0  0  0  0  0  0  0  0  0  0  0
   -3.9374   -2.6155   22.0595 C   0  0  0  0  0  0  0  0  0  0  0  0
   -2.8360   -2.7640   20.9412 C   0  0  0  0  0  0  0  0  0  0  0  0
   -5.9749   -1.2788   22.9319 C   0  0  0  0  0  0  0  0  0  0  0  0
   -4.8871   -1.4034   21.8497 C   0  0  0  0  0  0  0  0  0  0  0  0
   -7.6299   -2.6611   24.3669 C   0  0  0  0  0  0  0  0  0  0  0  0
   -6.6193   -4.8601   23.9005 C   0  0  0  0  0  0  0  0  0  0  0  0
   -3.7568   -5.0745   22.6588 C   0  0  0  0  0  0  0  0  0  0  0  0
   -7.7855   -4.1726   24.6328 C   0  0  0  0  0  0  0  0  0  0  0  0
   -1.9872   -4.0119   21.2224 C   0  0  0  0  0  0  0  0  0  0  0  0
   -2.7339   -5.2836   21.5500 C   0  0  0  0  0  0  0  0  0  0  0  0
   -7.6051   -2.8549   21.8366 C   0  0  0  0  0  0  0  0  0  0  0  0
   -1.9370   -1.4927   20.9671 C   0  0  0  0  0  0  0  0  0  0  0  0
   -3.4546   -2.9108   19.5330 C   0  0  0  0  0  0  0  0  0  0  0  0
   -0.6244   -1.6548   20.2148 C   0  0  0  0  0  0  0  0  0  0  0  0
   -0.6443   -4.0296   21.1699 C   0  0  0  0  0  0  0  0  0  0  0  0
    0.1347   -2.8457   20.7370 C   0  0  0  0  0  0  0  0  0  0  0  0
   -8.7402   -1.0697   24.0607 H   0  0  0  0  0  0  0  0  0  0  0  0
  1 10  1  0
  1 22  1  0
  2 21  2  0
  3  4  1  0
  3  5  1  0
  3 11  1  0
  4  8  1  0
  4 10  1  0
  4 16  1  0
  5  6  1  0
  5 12  1  0
  6  7  1  0
  6  9  1  0
  7 14  1  0
  7 17  1  0
  7 18  1  0
  8  9  1  0
 10 13  1  0
 11 13  1  0
 12 15  1  0
 14 15  1  0
 14 20  2  0
 17 19  1  0
 19 21  1  0
 20 21  1  0
M  END
> <PUBCHEM_COMPOUND_CID>
6013

> <PUBCHEM_CONFORMER_RMSD>
0.6

> <PUBCHEM_CONFORMER_DIVERSEORDER>
1

> <PUBCHEM_MMFF94_PARTIAL_CHARGES>
11
1 -0.68
10 0.28
14 -0.28
15 0.14
19 0.06
2 -0.57
20 -0.14
21 0.49
48 0.15
49 0.4
7 0.14

> <PUBCHEM_EFFECTIVE_ROTOR_COUNT>
1.8

> <PUBCHEM_PHARMACOPHORE_FEATURES>
7
1 1 acceptor
1 1 donor
1 2 acceptor
5 3 4 10 11 13 rings
6 3 4 5 6 8 9 rings
6 5 6 7 12 14 15 rings
6 7 14 17 19 20 21 rings

> <PUBCHEM_HEAVY_ATOM_COUNT>
21

> <PUBCHEM_ATOM_DEF_STEREO_COUNT>
6

> <PUBCHEM_ATOM_UDEF_STEREO_COUNT>
0

> <PUBCHEM_BOND_DEF_STEREO_COUNT>
0

> <PUBCHEM_BOND_UDEF_STEREO_COUNT>
0

> <PUBCHEM_ISOTOPIC_ATOM_COUNT>
0

> <PUBCHEM_COMPONENT_COUNT>
1

> <PUBCHEM_CACTVS_TAUTO_COUNT>
5

> <PUBCHEM_CONFORMER_ID>
0000177D00000001

> <PUBCHEM_MMFF94_ENERGY>
67.5416

> <PUBCHEM_FEATURE_SELFOVERLAP>
35.618

> <PUBCHEM_SHAPE_FINGERPRINT>
10062212 137 18336825385559829163
10759866 29 17897457309511876188
10967382 1 18412548682291571786
11132069 177 18410018732180467827
11370993 70 18410569557056084199
11578080 2 16735503067342509174
12011746 2 18412547592124142406
12236239 1 18040155136873436768
12251169 10 18410008845387181634
12403259 226 18410006624652160988
12403259 415 18408880746209696412
12403260 363 18340481291412090749
12403814 3 17894914044785590877
12507557 5 18408881845467772304
12633257 1 18341888602346167976
12839892 36 18340758291450253690
13140716 1 18339643467883616216
13214271 11 18272369780793716703
13224815 77 18411987974316295335
13675066 3 18187087269080573787
14178342 30 18338527339117458393
14223421 5 18341052895787930134
14341114 176 18411985737129035682
14787075 74 18339640165090922602
14790565 3 18050014594947639924
15163728 17 14691189929019880809
15196674 1 18411420639180230811
15375358 24 18413110541697833299
15536298 74 18272376330249831326
15788980 27 17167859768361771669
16945 1 18267308633664624303
17349148 13 18260547844245275310
17492 89 18410012108956776131
1813 80 17168144512515476742
18186145 218 18411423903503023558
18522853 276 18412546492037592553
19050596 39 18410858775858764633
19784866 9 18412265021155473810
200 152 18202274819337965375
20715895 44 18116989984517715477
21033648 29 18262779827106925672
21267235 1 18410302427354843602
21421861 104 18042966467372004754
21637258 2 15647319828885568714
22182313 1 18189614934485510503
22854114 111 18409735070690792279
22854114 59 18343022189864506130
23402539 116 18272925046486162621
23557571 272 18059303161493107767
23559900 14 18343023255612643838
26918003 58 18409728456589012017
2748010 2 18410304609229794207
2838139 119 14835541671104639250
296302 2 16343984710473737934
335352 9 18411702045432157758
34934 24 18341610383102269379
350125 39 18410857681354741304
351380 180 18413386540454065762
3545911 37 18411703166439727155
42 15 18260548935156425576
5104073 3 18410294747868572393
59755656 215 18339930311854621398
633830 44 17988931080225984300
69090 78 18413386557386229218
7364860 26 18200601276388112774
9709674 26 18341058445033876271

> <PUBCHEM_SHAPE_MULTIPOLES>
420.43
9.43
2.1
1.06
1.16
0.42
0.43
-0.59
-2.56
-0.22
0.02
0.09
-0.22
0.11

> <PUBCHEM_SHAPE_SELFOVERLAP>
902.625

> <PUBCHEM_SHAPE_VOLUME>
230.1

> <PUBCHEM_COORDINATE_TYPE>
2
5
10

> <Energy>
71.9966

> <minimizedAffinity>
-5.77423

> <CNNscore>
0.1284233332

> <CNNaffinity>
6.3939385414

> <CNN_VS>
0.8211308718

> <CNNaffinity_variance>
0.4931037724

$$$$
6013


 22 25  0  0  0  0  0  0  0  0999 V2000
   -0.4503   -0.7676   19.7644 O   0  0  0  0  0  0  0  0  0  0  0  0
   -7.7232   -8.8233   19.9942 O   0  0  0  0  0  0  0  0  0  0  0  0
   -1.8169   -4.0297   20.6813 C   0  0  0  0  0  0  0  0  0  0  0  0
   -2.0708   -2.5458   20.3523 C   0  0  0  0  0  0  0  0  0  0  0  0
   -3.0354   -4.7099   21.3123 C   0  0  0  0  0  0  0  0  0  0  0  0
   -4.2311   -4.6278   20.3116 C   0  0  0  0  0  0  0  0  0  0  0  0
   -5.5300   -5.3405   20.8507 C   0  0  0  0  0  0  0  0  0  0  0  0
   -3.1948   -2.4777   19.3102 C   0  0  0  0  0  0  0  0  0  0  0  0
   -4.4717   -3.1759   19.8125 C   0  0  0  0  0  0  0  0  0  0  0  0
   -0.6747   -2.1636   19.8200 C   0  0  0  0  0  0  0  0  0  0  0  0
   -0.4985   -4.0033   21.4507 C   0  0  0  0  0  0  0  0  0  0  0  0
   -2.7402   -6.1738   21.6628 C   0  0  0  0  0  0  0  0  0  0  0  0
    0.3007   -2.8689   20.7848 C   0  0  0  0  0  0  0  0  0  0  0  0
   -5.1700   -6.7447   21.3560 C   0  0  0  0  0  0  0  0  0  0  0  0
   -3.9647   -6.8548   22.2599 C   0  0  0  0  0  0  0  0  0  0  0  0
   -2.4419   -1.6666   21.5723 C   0  0  0  0  0  0  0  0  0  0  0  0
   -6.5538   -5.4424   19.6817 C   0  0  0  0  0  0  0  0  0  0  0  0
   -6.1780   -4.5614   22.0170 C   0  0  0  0  0  0  0  0  0  0  0  0
   -7.6855   -6.4256   19.9422 C   0  0  0  0  0  0  0  0  0  0  0  0
   -5.8738   -7.8499   21.0565 C   0  0  0  0  0  0  0  0  0  0  0  0
   -7.1313   -7.7855   20.2752 C   0  0  0  0  0  0  0  0  0  0  0  0
   -1.0816   -0.3628   19.1493 H   0  0  0  0  0  0  0  0  0  0  0  0
  1 10  1  0
  1 22  1  0
  2 21  2  0
  3  4  1  0
  3  5  1  0
  3 11  1  0
  4  8  1  0
  4 10  1  0
  4 16  1  0
  5  6  1  0
  5 12  1  0
  6  7  1  0
  6  9  1  0
  7 14  1  0
  7 17  1  0
  7 18  1  0
  8  9  1  0
 10 13  1  0
 11 13  1  0
 12 15  1  0
 14 15  1  0
 14 20  2  0
 17 19  1  0
 19 21  1  0
 20 21  1  0
M  END
> <PUBCHEM_COMPOUND_CID>
6013

> <PUBCHEM_CONFORMER_RMSD>
0.6

> <PUBCHEM_CONFORMER_DIVERSEORDER>
1

> <PUBCHEM_MMFF94_PARTIAL_CHARGES>
11
1 -0.68
10 0.28
14 -0.28
15 0.14
19 0.06
2 -0.57
20 -0.14
21 0.49
48 0.15
49 0.4
7 0.14

> <PUBCHEM_EFFECTIVE_ROTOR_COUNT>
1.8

> <PUBCHEM_PHARMACOPHORE_FEATURES>
7
1 1 acceptor
1 1 donor
1 2 acceptor
5 3 4 10 11 13 rings
6 3 4 5 6 8 9 rings
6 5 6 7 12 14 15 rings
6 7 14 17 19 20 21 rings

> <PUBCHEM_HEAVY_ATOM_COUNT>
21

> <PUBCHEM_ATOM_DEF_STEREO_COUNT>
6

> <PUBCHEM_ATOM_UDEF_STEREO_COUNT>
0

> <PUBCHEM_BOND_DEF_STEREO_COUNT>
0

> <PUBCHEM_BOND_UDEF_STEREO_COUNT>
0

> <PUBCHEM_ISOTOPIC_ATOM_COUNT>
0

> <PUBCHEM_COMPONENT_COUNT>
1

> <PUBCHEM_CACTVS_TAUTO_COUNT>
5

> <PUBCHEM_CONFORMER_ID>
0000177D00000001

> <PUBCHEM_MMFF94_ENERGY>
67.5416

> <PUBCHEM_FEATURE_SELFOVERLAP>
35.618

> <PUBCHEM_SHAPE_FINGERPRINT>
10062212 137 18336825385559829163
10759866 29 17897457309511876188
10967382 1 18412548682291571786
11132069 177 18410018732180467827
11370993 70 18410569557056084199
11578080 2 16735503067342509174
12011746 2 18412547592124142406
12236239 1 18040155136873436768
12251169 10 18410008845387181634
12403259 226 18410006624652160988
12403259 415 18408880746209696412
12403260 363 18340481291412090749
12403814 3 17894914044785590877
12507557 5 18408881845467772304
12633257 1 18341888602346167976
12839892 36 18340758291450253690
13140716 1 18339643467883616216
13214271 11 18272369780793716703
13224815 77 18411987974316295335
13675066 3 18187087269080573787
14178342 30 18338527339117458393
14223421 5 18341052895787930134
14341114 176 18411985737129035682
14787075 74 18339640165090922602
14790565 3 18050014594947639924
15163728 17 14691189929019880809
15196674 1 18411420639180230811
15375358 24 18413110541697833299
15536298 74 18272376330249831326
15788980 27 17167859768361771669
16945 1 18267308633664624303
17349148 13 18260547844245275310
17492 89 18410012108956776131
1813 80 17168144512515476742
18186145 218 18411423903503023558
18522853 276 18412546492037592553
19050596 39 18410858775858764633
19784866 9 18412265021155473810
200 152 18202274819337965375
20715895 44 18116989984517715477
21033648 29 18262779827106925672
21267235 1 18410302427354843602
21421861 104 18042966467372004754
21637258 2 15647319828885568714
22182313 1 18189614934485510503
22854114 111 18409735070690792279
22854114 59 18343022189864506130
23402539 116 18272925046486162621
23557571 272 18059303161493107767
23559900 14 18343023255612643838
26918003 58 18409728456589012017
2748010 2 18410304609229794207
2838139 119 14835541671104639250
296302 2 16343984710473737934
335352 9 18411702045432157758
34934 24 18341610383102269379
350125 39 18410857681354741304
351380 180 18413386540454065762
3545911 37 18411703166439727155
42 15 18260548935156425576
5104073 3 18410294747868572393
59755656 215 18339930311854621398
633830 44 17988931080225984300
69090 78 18413386557386229218
7364860 26 18200601276388112774
9709674 26 18341058445033876271

> <PUBCHEM_SHAPE_MULTIPOLES>
420.43
9.43
2.1
1.06
1.16
0.42
0.43
-0.59
-2.56
-0.22
0.02
0.09
-0.22
0.11

> <PUBCHEM_SHAPE_SELFOVERLAP>
902.625

> <PUBCHEM_SHAPE_VOLUME>
230.1

> <PUBCHEM_COORDINATE_TYPE>
2
5
10

> <Energy>
71.9966

> <minimizedAffinity>
-4.31121

> <CNNscore>
0.1263877302

> <CNNaffinity>
5.3396544456

> <CNN_VS>
0.6748667955

> <CNNaffinity_variance>
0.2197356969

$$$$
