2999413


 26 27  0  0  0  0  0  0  0  0999 V2000
   -8.6874   -6.4424   24.0048 O   0  0  0  0  0  0  0  0  0  0  0  0
   -4.2220   -2.7465   22.7870 O   0  0  0  0  0  0  0  0  0  0  0  0
   -2.9305   -4.0480   24.1917 O   0  0  0  0  0  0  0  0  0  0  0  0
   -1.6859   -1.5069   21.9504 O   0  0  0  0  0  0  0  0  0  0  0  0
   -0.1205   -4.3860   18.4671 O   0  0  0  0  0  0  0  0  0  0  0  0
   -8.2588   -5.5436   22.9824 C   0  0  0  0  0  0  0  0  0  0  0  0
   -7.4322   -6.3298   21.9546 C   0  0  0  0  0  0  0  0  0  0  0  0
   -7.5253   -4.3601   23.6318 C   0  0  0  0  0  0  0  0  0  0  0  0
   -6.2298   -7.0777   22.5502 C   0  0  0  0  0  0  0  0  0  0  0  0
   -7.1086   -3.2822   22.6282 C   0  0  0  0  0  0  0  0  0  0  0  0
   -5.2960   -7.6335   21.4676 C   0  0  0  0  0  0  0  0  0  0  0  0
   -6.4636   -2.0593   23.2935 C   0  0  0  0  0  0  0  0  0  0  0  0
   -4.3632   -6.5750   20.8637 C   0  0  0  0  0  0  0  0  0  0  0  0
   -5.0707   -2.3402   23.8750 C   0  0  0  0  0  0  0  0  0  0  0  0
   -3.1692   -6.2513   21.7743 C   0  0  0  0  0  0  0  0  0  0  0  0
   -2.3721   -5.0694   21.2665 C   0  0  0  0  0  0  0  0  0  0  0  0
   -4.4925   -1.0762   24.5070 C   0  0  0  0  0  0  0  0  0  0  0  0
   -2.4040   -3.7978   21.8771 C   0  0  0  0  0  0  0  0  0  0  0  0
   -3.1834   -3.5565   23.1057 C   0  0  0  0  0  0  0  0  0  0  0  0
   -1.5832   -5.2313   20.1134 C   0  0  0  0  0  0  0  0  0  0  0  0
   -1.6639   -2.7319   21.3390 C   0  0  0  0  0  0  0  0  0  0  0  0
   -0.8614   -4.1608   19.5900 C   0  0  0  0  0  0  0  0  0  0  0  0
   -0.8946   -2.9080   20.1906 C   0  0  0  0  0  0  0  0  0  0  0  0
   -9.1517   -7.1927   23.6020 H   0  0  0  0  0  0  0  0  0  0  0  0
   -2.2001   -1.3782   22.7231 H   0  0  0  0  0  0  0  0  0  0  0  0
   -0.1101   -5.2372   18.0757 H   0  0  0  0  0  0  0  0  0  0  0  0
  1  6  1  0
  1 24  1  0
  2 14  1  0
  2 19  1  0
  3 19  2  0
  4 21  1  0
  4 25  1  0
  5 22  1  0
  5 26  1  0
  6  7  1  0
  6  8  1  0
  7  9  1  0
  8 10  1  0
  9 11  1  0
 10 12  1  0
 11 13  1  0
 12 14  1  0
 13 15  1  0
 14 17  1  0
 15 16  1  0
 16 18  2  0
 16 20  1  0
 18 19  1  0
 18 21  1  0
 20 22  2  0
 21 23  2  0
 22 23  1  0
M  END
> <PUBCHEM_COMPOUND_CID>
2999413

> <PUBCHEM_CONFORMER_RMSD>
0.6

> <PUBCHEM_CONFORMER_DIVERSEORDER>
1
6
14
27
9
16
11
26
8
2
22
5
20
28
18
17
29
3
24
19
21
13
15
7
23
4
25
12
10

> <PUBCHEM_MMFF94_PARTIAL_CHARGES>
20
1 -0.68
14 0.28
15 0.14
16 -0.14
18 0.09
19 0.63
2 -0.43
20 -0.15
21 0.08
22 0.08
23 -0.15
3 -0.57
4 -0.53
45 0.4
46 0.15
47 0.15
48 0.45
49 0.45
5 -0.53
6 0.28

> <PUBCHEM_EFFECTIVE_ROTOR_COUNT>
2.2

> <PUBCHEM_PHARMACOPHORE_FEATURES>
6
1 1 acceptor
1 1 donor
1 3 acceptor
1 4 donor
1 5 donor
6 16 18 20 21 22 23 rings

> <PUBCHEM_HEAVY_ATOM_COUNT>
23

> <PUBCHEM_ATOM_DEF_STEREO_COUNT>
2

> <PUBCHEM_ATOM_UDEF_STEREO_COUNT>
0

> <PUBCHEM_BOND_DEF_STEREO_COUNT>
0

> <PUBCHEM_BOND_UDEF_STEREO_COUNT>
0

> <PUBCHEM_ISOTOPIC_ATOM_COUNT>
0

> <PUBCHEM_COMPONENT_COUNT>
1

> <PUBCHEM_CACTVS_TAUTO_COUNT>
25

> <PUBCHEM_CONFORMER_ID>
002DC47500000001

> <PUBCHEM_MMFF94_ENERGY>
51.6521

> <PUBCHEM_FEATURE_SELFOVERLAP>
30.446

> <PUBCHEM_SHAPE_FINGERPRINT>
104564 63 18340206271993051459
10498660 4 18187631549186102207
10577160 183 17606693423048979742
10616163 171 18266175029013727061
10759866 29 17750229218859711762
108634 29 18411143511243732574
1100329 8 17185877190433830119
11578080 2 17058915861662947194
116883 192 18412832382636582198
12011746 2 18335696144590423807
12054548 360 18337387261554875763
12156800 1 11695045847065978403
12553582 1 18337941355723699521
12788726 201 18339079272527017530
12954195 1 18196384628153038830
13402501 40 18410292523613913767
13533116 47 17911794988931237615
13941206 138 17823424798885047762
14178342 30 17618481208803059632
14251740 79 18268155262187636390
14251745 187 18265888240930317283
14251751 93 18337386020182837502
14251757 17 18340208496912958262
14251757 5 18336274478600052878
14289585 56 17025448677686211638
14363568 33 17831602116089395611
14790565 3 18338242566191680045
14931854 50 18192983829844991199
15081414 286 18267592488269592273
15210252 30 18041841838786063412
17093844 170 18338788043621724272
17357779 13 18338788026679147463
19591789 44 18410009931708134251
20775438 99 17121094438368206175
21141583 151 18411697703262438637
21634736 98 18410570674064001468
221357 26 18411697699342485711
221490 88 18411139126039522364
22393880 68 18190738627232927852
22907989 373 17973200346140242700
23379529 103 18202007594804787190
23419403 2 17703496796872386008
23559900 14 18341611543049219120
23566358 2 18411982468764321124
238 59 17976219553578124023
2871803 45 18335692832737868381
3014063 31 18410290320121227783
6287921 2 17544481216121896507

> <PUBCHEM_SHAPE_MULTIPOLES>
443.98
8.13
4.23
1.13
0.08
1.63
0.2
-3.4
-2.74
-1.52
0.36
0
0.19
0.73

> <PUBCHEM_SHAPE_SELFOVERLAP>
910.639

> <PUBCHEM_SHAPE_VOLUME>
254.2

> <PUBCHEM_COORDINATE_TYPE>
2
5
10

> <Energy>
43.3336

> <minimizedAffinity>
-6.98394

> <CNNscore>
0.6184200048

> <CNNaffinity>
6.2168140411

> <CNN_VS>
3.8446021080

> <CNNaffinity_variance>
0.4344470799

$$$$
2999413


 26 27  0  0  0  0  0  0  0  0999 V2000
   -8.7669   -5.1821   23.1932 O   0  0  0  0  0  0  0  0  0  0  0  0
   -3.5041   -2.4946   22.7907 O   0  0  0  0  0  0  0  0  0  0  0  0
   -2.6109   -4.3741   23.7932 O   0  0  0  0  0  0  0  0  0  0  0  0
   -0.7182   -1.7395   22.2102 O   0  0  0  0  0  0  0  0  0  0  0  0
    0.2147   -3.9647   18.0809 O   0  0  0  0  0  0  0  0  0  0  0  0
   -8.1015   -4.1909   22.4111 C   0  0  0  0  0  0  0  0  0  0  0  0
   -7.4572   -4.8764   21.1974 C   0  0  0  0  0  0  0  0  0  0  0  0
   -7.1246   -3.4172   23.3098 C   0  0  0  0  0  0  0  0  0  0  0  0
   -6.4908   -6.0158   21.5549 C   0  0  0  0  0  0  0  0  0  0  0  0
   -6.4280   -2.2597   22.5903 C   0  0  0  0  0  0  0  0  0  0  0  0
   -5.6852   -6.4974   20.3418 C   0  0  0  0  0  0  0  0  0  0  0  0
   -5.5280   -1.4315   23.5166 C   0  0  0  0  0  0  0  0  0  0  0  0
   -4.5054   -5.5813   19.9895 C   0  0  0  0  0  0  0  0  0  0  0  0
   -4.2635   -2.1752   23.9698 C   0  0  0  0  0  0  0  0  0  0  0  0
   -3.2981   -5.7903   20.9161 C   0  0  0  0  0  0  0  0  0  0  0  0
   -2.2232   -4.7491   20.6914 C   0  0  0  0  0  0  0  0  0  0  0  0
   -3.4173   -1.2841   24.8760 C   0  0  0  0  0  0  0  0  0  0  0  0
   -1.9661   -3.6978   21.5968 C   0  0  0  0  0  0  0  0  0  0  0  0
   -2.7027   -3.5846   22.8694 C   0  0  0  0  0  0  0  0  0  0  0  0
   -1.4606   -4.8086   19.5111 C   0  0  0  0  0  0  0  0  0  0  0  0
   -0.9736   -2.7443   21.3158 C   0  0  0  0  0  0  0  0  0  0  0  0
   -0.4851   -3.8499   19.2460 C   0  0  0  0  0  0  0  0  0  0  0  0
   -0.2335   -2.8135   20.1372 C   0  0  0  0  0  0  0  0  0  0  0  0
   -9.3858   -5.6749   22.6320 H   0  0  0  0  0  0  0  0  0  0  0  0
   -1.2103   -1.6840   23.0056 H   0  0  0  0  0  0  0  0  0  0  0  0
    0.0315   -4.6700   17.4919 H   0  0  0  0  0  0  0  0  0  0  0  0
  1  6  1  0
  1 24  1  0
  2 14  1  0
  2 19  1  0
  3 19  2  0
  4 21  1  0
  4 25  1  0
  5 22  1  0
  5 26  1  0
  6  7  1  0
  6  8  1  0
  7  9  1  0
  8 10  1  0
  9 11  1  0
 10 12  1  0
 11 13  1  0
 12 14  1  0
 13 15  1  0
 14 17  1  0
 15 16  1  0
 16 18  2  0
 16 20  1  0
 18 19  1  0
 18 21  1  0
 20 22  2  0
 21 23  2  0
 22 23  1  0
M  END
> <PUBCHEM_COMPOUND_CID>
2999413

> <PUBCHEM_CONFORMER_RMSD>
0.6

> <PUBCHEM_CONFORMER_DIVERSEORDER>
1
6
14
27
9
16
11
26
8
2
22
5
20
28
18
17
29
3
24
19
21
13
15
7
23
4
25
12
10

> <PUBCHEM_MMFF94_PARTIAL_CHARGES>
20
1 -0.68
14 0.28
15 0.14
16 -0.14
18 0.09
19 0.63
2 -0.43
20 -0.15
21 0.08
22 0.08
23 -0.15
3 -0.57
4 -0.53
45 0.4
46 0.15
47 0.15
48 0.45
49 0.45
5 -0.53
6 0.28

> <PUBCHEM_EFFECTIVE_ROTOR_COUNT>
2.2

> <PUBCHEM_PHARMACOPHORE_FEATURES>
6
1 1 acceptor
1 1 donor
1 3 acceptor
1 4 donor
1 5 donor
6 16 18 20 21 22 23 rings

> <PUBCHEM_HEAVY_ATOM_COUNT>
23

> <PUBCHEM_ATOM_DEF_STEREO_COUNT>
2

> <PUBCHEM_ATOM_UDEF_STEREO_COUNT>
0

> <PUBCHEM_BOND_DEF_STEREO_COUNT>
0

> <PUBCHEM_BOND_UDEF_STEREO_COUNT>
0

> <PUBCHEM_ISOTOPIC_ATOM_COUNT>
0

> <PUBCHEM_COMPONENT_COUNT>
1

> <PUBCHEM_CACTVS_TAUTO_COUNT>
25

> <PUBCHEM_CONFORMER_ID>
002DC47500000001

> <PUBCHEM_MMFF94_ENERGY>
51.6521

> <PUBCHEM_FEATURE_SELFOVERLAP>
30.446

> <PUBCHEM_SHAPE_FINGERPRINT>
104564 63 18340206271993051459
10498660 4 18187631549186102207
10577160 183 17606693423048979742
10616163 171 18266175029013727061
10759866 29 17750229218859711762
108634 29 18411143511243732574
1100329 8 17185877190433830119
11578080 2 17058915861662947194
116883 192 18412832382636582198
12011746 2 18335696144590423807
12054548 360 18337387261554875763
12156800 1 11695045847065978403
12553582 1 18337941355723699521
12788726 201 18339079272527017530
12954195 1 18196384628153038830
13402501 40 18410292523613913767
13533116 47 17911794988931237615
13941206 138 17823424798885047762
14178342 30 17618481208803059632
14251740 79 18268155262187636390
14251745 187 18265888240930317283
14251751 93 18337386020182837502
14251757 17 18340208496912958262
14251757 5 18336274478600052878
14289585 56 17025448677686211638
14363568 33 17831602116089395611
14790565 3 18338242566191680045
14931854 50 18192983829844991199
15081414 286 18267592488269592273
15210252 30 18041841838786063412
17093844 170 18338788043621724272
17357779 13 18338788026679147463
19591789 44 18410009931708134251
20775438 99 17121094438368206175
21141583 151 18411697703262438637
21634736 98 18410570674064001468
221357 26 18411697699342485711
221490 88 18411139126039522364
22393880 68 18190738627232927852
22907989 373 17973200346140242700
23379529 103 18202007594804787190
23419403 2 17703496796872386008
23559900 14 18341611543049219120
23566358 2 18411982468764321124
238 59 17976219553578124023
2871803 45 18335692832737868381
3014063 31 18410290320121227783
6287921 2 17544481216121896507

> <PUBCHEM_SHAPE_MULTIPOLES>
443.98
8.13
4.23
1.13
0.08
1.63
0.2
-3.4
-2.74
-1.52
0.36
0
0.19
0.73

> <PUBCHEM_SHAPE_SELFOVERLAP>
910.639

> <PUBCHEM_SHAPE_VOLUME>
254.2

> <PUBCHEM_COORDINATE_TYPE>
2
5
10

> <Energy>
43.3336

> <minimizedAffinity>
-5.71130

> <CNNscore>
0.5942667127

> <CNNaffinity>
6.6570434570

> <CNN_VS>
3.9560592175

> <CNNaffinity_variance>
0.3932900727

$$$$
2999413


 26 27  0  0  0  0  0  0  0  0999 V2000
   -8.5911   -4.7768   24.7659 O   0  0  0  0  0  0  0  0  0  0  0  0
   -3.9934   -5.7330   21.1562 O   0  0  0  0  0  0  0  0  0  0  0  0
   -4.8153   -4.0062   19.8609 O   0  0  0  0  0  0  0  0  0  0  0  0
   -1.5596   -5.5255   19.5125 O   0  0  0  0  0  0  0  0  0  0  0  0
    1.0039   -2.1436   21.7180 O   0  0  0  0  0  0  0  0  0  0  0  0
   -7.2688   -5.3129   24.7967 C   0  0  0  0  0  0  0  0  0  0  0  0
   -6.2937   -4.1891   25.1766 C   0  0  0  0  0  0  0  0  0  0  0  0
   -6.9745   -5.9963   23.4526 C   0  0  0  0  0  0  0  0  0  0  0  0
   -6.3539   -2.9622   24.2542 C   0  0  0  0  0  0  0  0  0  0  0  0
   -5.6128   -6.6943   23.4141 C   0  0  0  0  0  0  0  0  0  0  0  0
   -5.2012   -1.9836   24.5119 C   0  0  0  0  0  0  0  0  0  0  0  0
   -5.3654   -7.4563   22.1056 C   0  0  0  0  0  0  0  0  0  0  0  0
   -3.8750   -2.4212   23.8755 C   0  0  0  0  0  0  0  0  0  0  0  0
   -5.1545   -6.5398   20.8919 C   0  0  0  0  0  0  0  0  0  0  0  0
   -3.8221   -2.1380   22.3666 C   0  0  0  0  0  0  0  0  0  0  0  0
   -2.6019   -2.7530   21.7162 C   0  0  0  0  0  0  0  0  0  0  0  0
   -4.9038   -7.3695   19.6349 C   0  0  0  0  0  0  0  0  0  0  0  0
   -2.6621   -3.8912   20.8844 C   0  0  0  0  0  0  0  0  0  0  0  0
   -3.9496   -4.5248   20.5440 C   0  0  0  0  0  0  0  0  0  0  0  0
   -1.3408   -2.1859   21.9731 C   0  0  0  0  0  0  0  0  0  0  0  0
   -1.4884   -4.4327   20.3345 C   0  0  0  0  0  0  0  0  0  0  0  0
   -0.1867   -2.7410   21.4245 C   0  0  0  0  0  0  0  0  0  0  0  0
   -0.2462   -3.8632   20.6069 C   0  0  0  0  0  0  0  0  0  0  0  0
   -8.7841   -4.3434   25.6119 H   0  0  0  0  0  0  0  0  0  0  0  0
   -2.3900   -5.9160   19.3231 H   0  0  0  0  0  0  0  0  0  0  0  0
    1.0250   -1.3877   22.2712 H   0  0  0  0  0  0  0  0  0  0  0  0
  1  6  1  0
  1 24  1  0
  2 14  1  0
  2 19  1  0
  3 19  2  0
  4 21  1  0
  4 25  1  0
  5 22  1  0
  5 26  1  0
  6  7  1  0
  6  8  1  0
  7  9  1  0
  8 10  1  0
  9 11  1  0
 10 12  1  0
 11 13  1  0
 12 14  1  0
 13 15  1  0
 14 17  1  0
 15 16  1  0
 16 18  2  0
 16 20  1  0
 18 19  1  0
 18 21  1  0
 20 22  2  0
 21 23  2  0
 22 23  1  0
M  END
> <PUBCHEM_COMPOUND_CID>
2999413

> <PUBCHEM_CONFORMER_RMSD>
0.6

> <PUBCHEM_CONFORMER_DIVERSEORDER>
1
6
14
27
9
16
11
26
8
2
22
5
20
28
18
17
29
3
24
19
21
13
15
7
23
4
25
12
10

> <PUBCHEM_MMFF94_PARTIAL_CHARGES>
20
1 -0.68
14 0.28
15 0.14
16 -0.14
18 0.09
19 0.63
2 -0.43
20 -0.15
21 0.08
22 0.08
23 -0.15
3 -0.57
4 -0.53
45 0.4
46 0.15
47 0.15
48 0.45
49 0.45
5 -0.53
6 0.28

> <PUBCHEM_EFFECTIVE_ROTOR_COUNT>
2.2

> <PUBCHEM_PHARMACOPHORE_FEATURES>
6
1 1 acceptor
1 1 donor
1 3 acceptor
1 4 donor
1 5 donor
6 16 18 20 21 22 23 rings

> <PUBCHEM_HEAVY_ATOM_COUNT>
23

> <PUBCHEM_ATOM_DEF_STEREO_COUNT>
2

> <PUBCHEM_ATOM_UDEF_STEREO_COUNT>
0

> <PUBCHEM_BOND_DEF_STEREO_COUNT>
0

> <PUBCHEM_BOND_UDEF_STEREO_COUNT>
0

> <PUBCHEM_ISOTOPIC_ATOM_COUNT>
0

> <PUBCHEM_COMPONENT_COUNT>
1

> <PUBCHEM_CACTVS_TAUTO_COUNT>
25

> <PUBCHEM_CONFORMER_ID>
002DC47500000001

> <PUBCHEM_MMFF94_ENERGY>
51.6521

> <PUBCHEM_FEATURE_SELFOVERLAP>
30.446

> <PUBCHEM_SHAPE_FINGERPRINT>
104564 63 18340206271993051459
10498660 4 18187631549186102207
10577160 183 17606693423048979742
10616163 171 18266175029013727061
10759866 29 17750229218859711762
108634 29 18411143511243732574
1100329 8 17185877190433830119
11578080 2 17058915861662947194
116883 192 18412832382636582198
12011746 2 18335696144590423807
12054548 360 18337387261554875763
12156800 1 11695045847065978403
12553582 1 18337941355723699521
12788726 201 18339079272527017530
12954195 1 18196384628153038830
13402501 40 18410292523613913767
13533116 47 17911794988931237615
13941206 138 17823424798885047762
14178342 30 17618481208803059632
14251740 79 18268155262187636390
14251745 187 18265888240930317283
14251751 93 18337386020182837502
14251757 17 18340208496912958262
14251757 5 18336274478600052878
14289585 56 17025448677686211638
14363568 33 17831602116089395611
14790565 3 18338242566191680045
14931854 50 18192983829844991199
15081414 286 18267592488269592273
15210252 30 18041841838786063412
17093844 170 18338788043621724272
17357779 13 18338788026679147463
19591789 44 18410009931708134251
20775438 99 17121094438368206175
21141583 151 18411697703262438637
21634736 98 18410570674064001468
221357 26 18411697699342485711
221490 88 18411139126039522364
22393880 68 18190738627232927852
22907989 373 17973200346140242700
23379529 103 18202007594804787190
23419403 2 17703496796872386008
23559900 14 18341611543049219120
23566358 2 18411982468764321124
238 59 17976219553578124023
2871803 45 18335692832737868381
3014063 31 18410290320121227783
6287921 2 17544481216121896507

> <PUBCHEM_SHAPE_MULTIPOLES>
443.98
8.13
4.23
1.13
0.08
1.63
0.2
-3.4
-2.74
-1.52
0.36
0
0.19
0.73

> <PUBCHEM_SHAPE_SELFOVERLAP>
910.639

> <PUBCHEM_SHAPE_VOLUME>
254.2

> <PUBCHEM_COORDINATE_TYPE>
2
5
10

> <Energy>
43.3336

> <minimizedAffinity>
-8.17166

> <CNNscore>
0.4719203711

> <CNNaffinity>
6.1678352356

> <CNN_VS>
2.9107270241

> <CNNaffinity_variance>
0.2502124608

$$$$
2999413


 26 27  0  0  0  0  0  0  0  0999 V2000
   -6.9875   -4.0665   26.2355 O   0  0  0  0  0  0  0  0  0  0  0  0
   -2.4518   -2.0731   22.9896 O   0  0  0  0  0  0  0  0  0  0  0  0
   -1.3307   -3.9955   23.6079 O   0  0  0  0  0  0  0  0  0  0  0  0
   -0.2909   -1.6979   21.0254 O   0  0  0  0  0  0  0  0  0  0  0  0
   -1.7580   -4.2265   17.2404 O   0  0  0  0  0  0  0  0  0  0  0  0
   -6.7307   -3.2058   25.1265 C   0  0  0  0  0  0  0  0  0  0  0  0
   -6.8465   -4.0258   23.8334 C   0  0  0  0  0  0  0  0  0  0  0  0
   -5.3744   -2.5142   25.3333 C   0  0  0  0  0  0  0  0  0  0  0  0
   -5.9284   -5.2563   23.7815 C   0  0  0  0  0  0  0  0  0  0  0  0
   -5.0456   -1.4894   24.2451 C   0  0  0  0  0  0  0  0  0  0  0  0
   -5.8888   -5.8943   22.3872 C   0  0  0  0  0  0  0  0  0  0  0  0
   -3.7369   -0.7330   24.5082 C   0  0  0  0  0  0  0  0  0  0  0  0
   -4.9789   -5.1497   21.4007 C   0  0  0  0  0  0  0  0  0  0  0  0
   -2.4821   -1.6033   24.3488 C   0  0  0  0  0  0  0  0  0  0  0  0
   -3.4905   -5.4592   21.6210 C   0  0  0  0  0  0  0  0  0  0  0  0
   -2.5962   -4.5713   20.7832 C   0  0  0  0  0  0  0  0  0  0  0  0
   -1.2247   -0.7790   24.6146 C   0  0  0  0  0  0  0  0  0  0  0  0
   -1.8322   -3.5156   21.3242 C   0  0  0  0  0  0  0  0  0  0  0  0
   -1.8124   -3.2483   22.7744 C   0  0  0  0  0  0  0  0  0  0  0  0
   -2.5426   -4.7840   19.3940 C   0  0  0  0  0  0  0  0  0  0  0  0
   -1.0441   -2.7073   20.4881 C   0  0  0  0  0  0  0  0  0  0  0  0
   -1.7608   -3.9676   18.5795 C   0  0  0  0  0  0  0  0  0  0  0  0
   -1.0099   -2.9267   19.1125 C   0  0  0  0  0  0  0  0  0  0  0  0
   -7.8429   -4.5068   26.1118 H   0  0  0  0  0  0  0  0  0  0  0  0
   -0.3070   -1.5421   21.9492 H   0  0  0  0  0  0  0  0  0  0  0  0
   -2.2704   -4.9326   16.8987 H   0  0  0  0  0  0  0  0  0  0  0  0
  1  6  1  0
  1 24  1  0
  2 14  1  0
  2 19  1  0
  3 19  2  0
  4 21  1  0
  4 25  1  0
  5 22  1  0
  5 26  1  0
  6  7  1  0
  6  8  1  0
  7  9  1  0
  8 10  1  0
  9 11  1  0
 10 12  1  0
 11 13  1  0
 12 14  1  0
 13 15  1  0
 14 17  1  0
 15 16  1  0
 16 18  2  0
 16 20  1  0
 18 19  1  0
 18 21  1  0
 20 22  2  0
 21 23  2  0
 22 23  1  0
M  END
> <PUBCHEM_COMPOUND_CID>
2999413

> <PUBCHEM_CONFORMER_RMSD>
0.6

> <PUBCHEM_CONFORMER_DIVERSEORDER>
1
6
14
27
9
16
11
26
8
2
22
5
20
28
18
17
29
3
24
19
21
13
15
7
23
4
25
12
10

> <PUBCHEM_MMFF94_PARTIAL_CHARGES>
20
1 -0.68
14 0.28
15 0.14
16 -0.14
18 0.09
19 0.63
2 -0.43
20 -0.15
21 0.08
22 0.08
23 -0.15
3 -0.57
4 -0.53
45 0.4
46 0.15
47 0.15
48 0.45
49 0.45
5 -0.53
6 0.28

> <PUBCHEM_EFFECTIVE_ROTOR_COUNT>
2.2

> <PUBCHEM_PHARMACOPHORE_FEATURES>
6
1 1 acceptor
1 1 donor
1 3 acceptor
1 4 donor
1 5 donor
6 16 18 20 21 22 23 rings

> <PUBCHEM_HEAVY_ATOM_COUNT>
23

> <PUBCHEM_ATOM_DEF_STEREO_COUNT>
2

> <PUBCHEM_ATOM_UDEF_STEREO_COUNT>
0

> <PUBCHEM_BOND_DEF_STEREO_COUNT>
0

> <PUBCHEM_BOND_UDEF_STEREO_COUNT>
0

> <PUBCHEM_ISOTOPIC_ATOM_COUNT>
0

> <PUBCHEM_COMPONENT_COUNT>
1

> <PUBCHEM_CACTVS_TAUTO_COUNT>
25

> <PUBCHEM_CONFORMER_ID>
002DC47500000001

> <PUBCHEM_MMFF94_ENERGY>
51.6521

> <PUBCHEM_FEATURE_SELFOVERLAP>
30.446

> <PUBCHEM_SHAPE_FINGERPRINT>
104564 63 18340206271993051459
10498660 4 18187631549186102207
10577160 183 17606693423048979742
10616163 171 18266175029013727061
10759866 29 17750229218859711762
108634 29 18411143511243732574
1100329 8 17185877190433830119
11578080 2 17058915861662947194
116883 192 18412832382636582198
12011746 2 18335696144590423807
12054548 360 18337387261554875763
12156800 1 11695045847065978403
12553582 1 18337941355723699521
12788726 201 18339079272527017530
12954195 1 18196384628153038830
13402501 40 18410292523613913767
13533116 47 17911794988931237615
13941206 138 17823424798885047762
14178342 30 17618481208803059632
14251740 79 18268155262187636390
14251745 187 18265888240930317283
14251751 93 18337386020182837502
14251757 17 18340208496912958262
14251757 5 18336274478600052878
14289585 56 17025448677686211638
14363568 33 17831602116089395611
14790565 3 18338242566191680045
14931854 50 18192983829844991199
15081414 286 18267592488269592273
15210252 30 18041841838786063412
17093844 170 18338788043621724272
17357779 13 18338788026679147463
19591789 44 18410009931708134251
20775438 99 17121094438368206175
21141583 151 18411697703262438637
21634736 98 18410570674064001468
221357 26 18411697699342485711
221490 88 18411139126039522364
22393880 68 18190738627232927852
22907989 373 17973200346140242700
23379529 103 18202007594804787190
23419403 2 17703496796872386008
23559900 14 18341611543049219120
23566358 2 18411982468764321124
238 59 17976219553578124023
2871803 45 18335692832737868381
3014063 31 18410290320121227783
6287921 2 17544481216121896507

> <PUBCHEM_SHAPE_MULTIPOLES>
443.98
8.13
4.23
1.13
0.08
1.63
0.2
-3.4
-2.74
-1.52
0.36
0
0.19
0.73

> <PUBCHEM_SHAPE_SELFOVERLAP>
910.639

> <PUBCHEM_SHAPE_VOLUME>
254.2

> <PUBCHEM_COORDINATE_TYPE>
2
5
10

> <Energy>
43.3336

> <minimizedAffinity>
0.13331

> <CNNscore>
0.3022295833

> <CNNaffinity>
5.9831376076

> <CNN_VS>
1.8082811832

> <CNNaffinity_variance>
0.1087133884

$$$$
2999413


 26 27  0  0  0  0  0  0  0  0999 V2000
  -11.4188   -9.4854   17.2390 O   0  0  0  0  0  0  0  0  0  0  0  0
   -7.8489   -6.4220   20.8381 O   0  0  0  0  0  0  0  0  0  0  0  0
   -8.2828   -8.0358   22.4326 O   0  0  0  0  0  0  0  0  0  0  0  0
   -5.7094   -5.5135   22.6452 O   0  0  0  0  0  0  0  0  0  0  0  0
   -1.9782   -8.2513   21.4389 O   0  0  0  0  0  0  0  0  0  0  0  0
  -10.3262   -8.5694   17.1762 C   0  0  0  0  0  0  0  0  0  0  0  0
   -9.0175   -9.3711   17.1266 C   0  0  0  0  0  0  0  0  0  0  0  0
  -10.4340   -7.5809   18.3474 C   0  0  0  0  0  0  0  0  0  0  0  0
   -8.8313  -10.3491   18.2965 C   0  0  0  0  0  0  0  0  0  0  0  0
   -9.3620   -6.4888   18.3181 C   0  0  0  0  0  0  0  0  0  0  0  0
   -7.4148  -10.9355   18.3447 C   0  0  0  0  0  0  0  0  0  0  0  0
   -9.5328   -5.4495   19.4338 C   0  0  0  0  0  0  0  0  0  0  0  0
   -6.3788   -9.9803   18.9529 C   0  0  0  0  0  0  0  0  0  0  0  0
   -9.2228   -5.9962   20.8346 C   0  0  0  0  0  0  0  0  0  0  0  0
   -6.4475   -9.9335   20.4868 C   0  0  0  0  0  0  0  0  0  0  0  0
   -5.5667   -8.8453   21.0613 C   0  0  0  0  0  0  0  0  0  0  0  0
   -9.4038   -4.9030   21.8852 C   0  0  0  0  0  0  0  0  0  0  0  0
   -6.0766   -7.6485   21.6081 C   0  0  0  0  0  0  0  0  0  0  0  0
   -7.5282   -7.4092   21.7093 C   0  0  0  0  0  0  0  0  0  0  0  0
   -4.1711   -9.0153   21.0244 C   0  0  0  0  0  0  0  0  0  0  0  0
   -5.2042   -6.6627   22.0985 C   0  0  0  0  0  0  0  0  0  0  0  0
   -3.3212   -8.0235   21.5092 C   0  0  0  0  0  0  0  0  0  0  0  0
   -3.8236   -6.8440   22.0458 C   0  0  0  0  0  0  0  0  0  0  0  0
  -11.3573  -10.1130   16.5019 H   0  0  0  0  0  0  0  0  0  0  0  0
   -6.6362   -5.3819   22.6853 H   0  0  0  0  0  0  0  0  0  0  0  0
   -1.6574   -9.0523   21.0738 H   0  0  0  0  0  0  0  0  0  0  0  0
  1  6  1  0
  1 24  1  0
  2 14  1  0
  2 19  1  0
  3 19  2  0
  4 21  1  0
  4 25  1  0
  5 22  1  0
  5 26  1  0
  6  7  1  0
  6  8  1  0
  7  9  1  0
  8 10  1  0
  9 11  1  0
 10 12  1  0
 11 13  1  0
 12 14  1  0
 13 15  1  0
 14 17  1  0
 15 16  1  0
 16 18  2  0
 16 20  1  0
 18 19  1  0
 18 21  1  0
 20 22  2  0
 21 23  2  0
 22 23  1  0
M  END
> <PUBCHEM_COMPOUND_CID>
2999413

> <PUBCHEM_CONFORMER_RMSD>
0.6

> <PUBCHEM_CONFORMER_DIVERSEORDER>
1
6
14
27
9
16
11
26
8
2
22
5
20
28
18
17
29
3
24
19
21
13
15
7
23
4
25
12
10

> <PUBCHEM_MMFF94_PARTIAL_CHARGES>
20
1 -0.68
14 0.28
15 0.14
16 -0.14
18 0.09
19 0.63
2 -0.43
20 -0.15
21 0.08
22 0.08
23 -0.15
3 -0.57
4 -0.53
45 0.4
46 0.15
47 0.15
48 0.45
49 0.45
5 -0.53
6 0.28

> <PUBCHEM_EFFECTIVE_ROTOR_COUNT>
2.2

> <PUBCHEM_PHARMACOPHORE_FEATURES>
6
1 1 acceptor
1 1 donor
1 3 acceptor
1 4 donor
1 5 donor
6 16 18 20 21 22 23 rings

> <PUBCHEM_HEAVY_ATOM_COUNT>
23

> <PUBCHEM_ATOM_DEF_STEREO_COUNT>
2

> <PUBCHEM_ATOM_UDEF_STEREO_COUNT>
0

> <PUBCHEM_BOND_DEF_STEREO_COUNT>
0

> <PUBCHEM_BOND_UDEF_STEREO_COUNT>
0

> <PUBCHEM_ISOTOPIC_ATOM_COUNT>
0

> <PUBCHEM_COMPONENT_COUNT>
1

> <PUBCHEM_CACTVS_TAUTO_COUNT>
25

> <PUBCHEM_CONFORMER_ID>
002DC47500000001

> <PUBCHEM_MMFF94_ENERGY>
51.6521

> <PUBCHEM_FEATURE_SELFOVERLAP>
30.446

> <PUBCHEM_SHAPE_FINGERPRINT>
104564 63 18340206271993051459
10498660 4 18187631549186102207
10577160 183 17606693423048979742
10616163 171 18266175029013727061
10759866 29 17750229218859711762
108634 29 18411143511243732574
1100329 8 17185877190433830119
11578080 2 17058915861662947194
116883 192 18412832382636582198
12011746 2 18335696144590423807
12054548 360 18337387261554875763
12156800 1 11695045847065978403
12553582 1 18337941355723699521
12788726 201 18339079272527017530
12954195 1 18196384628153038830
13402501 40 18410292523613913767
13533116 47 17911794988931237615
13941206 138 17823424798885047762
14178342 30 17618481208803059632
14251740 79 18268155262187636390
14251745 187 18265888240930317283
14251751 93 18337386020182837502
14251757 17 18340208496912958262
14251757 5 18336274478600052878
14289585 56 17025448677686211638
14363568 33 17831602116089395611
14790565 3 18338242566191680045
14931854 50 18192983829844991199
15081414 286 18267592488269592273
15210252 30 18041841838786063412
17093844 170 18338788043621724272
17357779 13 18338788026679147463
19591789 44 18410009931708134251
20775438 99 17121094438368206175
21141583 151 18411697703262438637
21634736 98 18410570674064001468
221357 26 18411697699342485711
221490 88 18411139126039522364
22393880 68 18190738627232927852
22907989 373 17973200346140242700
23379529 103 18202007594804787190
23419403 2 17703496796872386008
23559900 14 18341611543049219120
23566358 2 18411982468764321124
238 59 17976219553578124023
2871803 45 18335692832737868381
3014063 31 18410290320121227783
6287921 2 17544481216121896507

> <PUBCHEM_SHAPE_MULTIPOLES>
443.98
8.13
4.23
1.13
0.08
1.63
0.2
-3.4
-2.74
-1.52
0.36
0
0.19
0.73

> <PUBCHEM_SHAPE_SELFOVERLAP>
910.639

> <PUBCHEM_SHAPE_VOLUME>
254.2

> <PUBCHEM_COORDINATE_TYPE>
2
5
10

> <Energy>
43.3336

> <minimizedAffinity>
52.75340

> <CNNscore>
0.2746228874

> <CNNaffinity>
5.0109343529

> <CNN_VS>
1.3761172295

> <CNNaffinity_variance>
0.2491172105

$$$$
2999413


 26 27  0  0  0  0  0  0  0  0999 V2000
    0.2646   -3.4713   21.0378 O   0  0  0  0  0  0  0  0  0  0  0  0
   -5.2016   -5.7241   21.3933 O   0  0  0  0  0  0  0  0  0  0  0  0
   -4.4926   -6.8080   23.3058 O   0  0  0  0  0  0  0  0  0  0  0  0
   -7.9182   -6.5171   22.2057 O   0  0  0  0  0  0  0  0  0  0  0  0
   -9.2802   -3.0089   25.1570 O   0  0  0  0  0  0  0  0  0  0  0  0
   -1.0697   -3.1751   20.6271 C   0  0  0  0  0  0  0  0  0  0  0  0
   -1.7314   -2.3038   21.7046 C   0  0  0  0  0  0  0  0  0  0  0  0
   -1.8024   -4.4902   20.3203 C   0  0  0  0  0  0  0  0  0  0  0  0
   -1.7277   -2.9253   23.1094 C   0  0  0  0  0  0  0  0  0  0  0  0
   -3.2167   -4.2815   19.7736 C   0  0  0  0  0  0  0  0  0  0  0  0
   -2.6125   -2.1476   24.0919 C   0  0  0  0  0  0  0  0  0  0  0  0
   -3.9073   -5.5933   19.3782 C   0  0  0  0  0  0  0  0  0  0  0  0
   -4.1088   -2.4531   23.9395 C   0  0  0  0  0  0  0  0  0  0  0  0
   -4.2846   -6.4743   20.5777 C   0  0  0  0  0  0  0  0  0  0  0  0
   -4.5078   -3.7885   24.5855 C   0  0  0  0  0  0  0  0  0  0  0  0
   -5.9333   -4.1748   24.2560 C   0  0  0  0  0  0  0  0  0  0  0  0
   -4.9752   -7.7512   20.1045 C   0  0  0  0  0  0  0  0  0  0  0  0
   -6.2636   -5.2086   23.3542 C   0  0  0  0  0  0  0  0  0  0  0  0
   -5.2196   -6.0298   22.7135 C   0  0  0  0  0  0  0  0  0  0  0  0
   -6.9839   -3.4531   24.8505 C   0  0  0  0  0  0  0  0  0  0  0  0
   -7.6077   -5.4990   23.0670 C   0  0  0  0  0  0  0  0  0  0  0  0
   -8.3110   -3.7508   24.5483 C   0  0  0  0  0  0  0  0  0  0  0  0
   -8.6359   -4.7677   23.6585 C   0  0  0  0  0  0  0  0  0  0  0  0
    0.7337   -2.6451   21.2333 H   0  0  0  0  0  0  0  0  0  0  0  0
   -7.2342   -7.0148   21.8027 H   0  0  0  0  0  0  0  0  0  0  0  0
   -9.0426   -2.3271   25.7541 H   0  0  0  0  0  0  0  0  0  0  0  0
  1  6  1  0
  1 24  1  0
  2 14  1  0
  2 19  1  0
  3 19  2  0
  4 21  1  0
  4 25  1  0
  5 22  1  0
  5 26  1  0
  6  7  1  0
  6  8  1  0
  7  9  1  0
  8 10  1  0
  9 11  1  0
 10 12  1  0
 11 13  1  0
 12 14  1  0
 13 15  1  0
 14 17  1  0
 15 16  1  0
 16 18  2  0
 16 20  1  0
 18 19  1  0
 18 21  1  0
 20 22  2  0
 21 23  2  0
 22 23  1  0
M  END
> <PUBCHEM_COMPOUND_CID>
2999413

> <PUBCHEM_CONFORMER_RMSD>
0.6

> <PUBCHEM_CONFORMER_DIVERSEORDER>
1
6
14
27
9
16
11
26
8
2
22
5
20
28
18
17
29
3
24
19
21
13
15
7
23
4
25
12
10

> <PUBCHEM_MMFF94_PARTIAL_CHARGES>
20
1 -0.68
14 0.28
15 0.14
16 -0.14
18 0.09
19 0.63
2 -0.43
20 -0.15
21 0.08
22 0.08
23 -0.15
3 -0.57
4 -0.53
45 0.4
46 0.15
47 0.15
48 0.45
49 0.45
5 -0.53
6 0.28

> <PUBCHEM_EFFECTIVE_ROTOR_COUNT>
2.2

> <PUBCHEM_PHARMACOPHORE_FEATURES>
6
1 1 acceptor
1 1 donor
1 3 acceptor
1 4 donor
1 5 donor
6 16 18 20 21 22 23 rings

> <PUBCHEM_HEAVY_ATOM_COUNT>
23

> <PUBCHEM_ATOM_DEF_STEREO_COUNT>
2

> <PUBCHEM_ATOM_UDEF_STEREO_COUNT>
0

> <PUBCHEM_BOND_DEF_STEREO_COUNT>
0

> <PUBCHEM_BOND_UDEF_STEREO_COUNT>
0

> <PUBCHEM_ISOTOPIC_ATOM_COUNT>
0

> <PUBCHEM_COMPONENT_COUNT>
1

> <PUBCHEM_CACTVS_TAUTO_COUNT>
25

> <PUBCHEM_CONFORMER_ID>
002DC47500000001

> <PUBCHEM_MMFF94_ENERGY>
51.6521

> <PUBCHEM_FEATURE_SELFOVERLAP>
30.446

> <PUBCHEM_SHAPE_FINGERPRINT>
104564 63 18340206271993051459
10498660 4 18187631549186102207
10577160 183 17606693423048979742
10616163 171 18266175029013727061
10759866 29 17750229218859711762
108634 29 18411143511243732574
1100329 8 17185877190433830119
11578080 2 17058915861662947194
116883 192 18412832382636582198
12011746 2 18335696144590423807
12054548 360 18337387261554875763
12156800 1 11695045847065978403
12553582 1 18337941355723699521
12788726 201 18339079272527017530
12954195 1 18196384628153038830
13402501 40 18410292523613913767
13533116 47 17911794988931237615
13941206 138 17823424798885047762
14178342 30 17618481208803059632
14251740 79 18268155262187636390
14251745 187 18265888240930317283
14251751 93 18337386020182837502
14251757 17 18340208496912958262
14251757 5 18336274478600052878
14289585 56 17025448677686211638
14363568 33 17831602116089395611
14790565 3 18338242566191680045
14931854 50 18192983829844991199
15081414 286 18267592488269592273
15210252 30 18041841838786063412
17093844 170 18338788043621724272
17357779 13 18338788026679147463
19591789 44 18410009931708134251
20775438 99 17121094438368206175
21141583 151 18411697703262438637
21634736 98 18410570674064001468
221357 26 18411697699342485711
221490 88 18411139126039522364
22393880 68 18190738627232927852
22907989 373 17973200346140242700
23379529 103 18202007594804787190
23419403 2 17703496796872386008
23559900 14 18341611543049219120
23566358 2 18411982468764321124
238 59 17976219553578124023
2871803 45 18335692832737868381
3014063 31 18410290320121227783
6287921 2 17544481216121896507

> <PUBCHEM_SHAPE_MULTIPOLES>
443.98
8.13
4.23
1.13
0.08
1.63
0.2
-3.4
-2.74
-1.52
0.36
0
0.19
0.73

> <PUBCHEM_SHAPE_SELFOVERLAP>
910.639

> <PUBCHEM_SHAPE_VOLUME>
254.2

> <PUBCHEM_COORDINATE_TYPE>
2
5
10

> <Energy>
43.3336

> <minimizedAffinity>
-5.03227

> <CNNscore>
0.1405615360

> <CNNaffinity>
5.8814334869

> <CNN_VS>
0.8267033100

> <CNNaffinity_variance>
0.0014344803

$$$$
2999413


 26 27  0  0  0  0  0  0  0  0999 V2000
    0.8837   -1.9690   20.5752 O   0  0  0  0  0  0  0  0  0  0  0  0
   -4.2122   -3.0205   23.4051 O   0  0  0  0  0  0  0  0  0  0  0  0
   -5.1808   -1.5027   21.9585 O   0  0  0  0  0  0  0  0  0  0  0  0
   -6.9661   -3.7373   24.1604 O   0  0  0  0  0  0  0  0  0  0  0  0
   -8.2001   -7.0336   20.9224 O   0  0  0  0  0  0  0  0  0  0  0  0
    0.2511   -2.9893   21.3470 C   0  0  0  0  0  0  0  0  0  0  0  0
   -0.4826   -3.9417   20.3917 C   0  0  0  0  0  0  0  0  0  0  0  0
   -0.6388   -2.3313   22.4127 C   0  0  0  0  0  0  0  0  0  0  0  0
   -1.5035   -3.2526   19.4737 C   0  0  0  0  0  0  0  0  0  0  0  0
   -1.2896   -3.3388   23.3635 C   0  0  0  0  0  0  0  0  0  0  0  0
   -2.3854   -4.2597   18.7249 C   0  0  0  0  0  0  0  0  0  0  0  0
   -2.0983   -2.6715   24.4836 C   0  0  0  0  0  0  0  0  0  0  0  0
   -3.5185   -4.8365   19.5844 C   0  0  0  0  0  0  0  0  0  0  0  0
   -3.3879   -1.9985   23.9925 C   0  0  0  0  0  0  0  0  0  0  0  0
   -4.6987   -3.8648   19.7352 C   0  0  0  0  0  0  0  0  0  0  0  0
   -5.7143   -4.3575   20.7431 C   0  0  0  0  0  0  0  0  0  0  0  0
   -4.1399   -1.3696   25.1631 C   0  0  0  0  0  0  0  0  0  0  0  0
   -5.8688   -3.7873   22.0244 C   0  0  0  0  0  0  0  0  0  0  0  0
   -5.0765   -2.6159   22.4430 C   0  0  0  0  0  0  0  0  0  0  0  0
   -6.5254   -5.4553   20.4040 C   0  0  0  0  0  0  0  0  0  0  0  0
   -6.8100   -4.3103   22.9266 C   0  0  0  0  0  0  0  0  0  0  0  0
   -7.4487   -5.9649   21.3144 C   0  0  0  0  0  0  0  0  0  0  0  0
   -7.5992   -5.4042   22.5771 C   0  0  0  0  0  0  0  0  0  0  0  0
    1.4477   -2.3773   19.8998 H   0  0  0  0  0  0  0  0  0  0  0  0
   -6.4403   -3.0014   24.4051 H   0  0  0  0  0  0  0  0  0  0  0  0
   -8.0850   -7.3987   20.0672 H   0  0  0  0  0  0  0  0  0  0  0  0
  1  6  1  0
  1 24  1  0
  2 14  1  0
  2 19  1  0
  3 19  2  0
  4 21  1  0
  4 25  1  0
  5 22  1  0
  5 26  1  0
  6  7  1  0
  6  8  1  0
  7  9  1  0
  8 10  1  0
  9 11  1  0
 10 12  1  0
 11 13  1  0
 12 14  1  0
 13 15  1  0
 14 17  1  0
 15 16  1  0
 16 18  2  0
 16 20  1  0
 18 19  1  0
 18 21  1  0
 20 22  2  0
 21 23  2  0
 22 23  1  0
M  END
> <PUBCHEM_COMPOUND_CID>
2999413

> <PUBCHEM_CONFORMER_RMSD>
0.6

> <PUBCHEM_CONFORMER_DIVERSEORDER>
1
6
14
27
9
16
11
26
8
2
22
5
20
28
18
17
29
3
24
19
21
13
15
7
23
4
25
12
10

> <PUBCHEM_MMFF94_PARTIAL_CHARGES>
20
1 -0.68
14 0.28
15 0.14
16 -0.14
18 0.09
19 0.63
2 -0.43
20 -0.15
21 0.08
22 0.08
23 -0.15
3 -0.57
4 -0.53
45 0.4
46 0.15
47 0.15
48 0.45
49 0.45
5 -0.53
6 0.28

> <PUBCHEM_EFFECTIVE_ROTOR_COUNT>
2.2

> <PUBCHEM_PHARMACOPHORE_FEATURES>
6
1 1 acceptor
1 1 donor
1 3 acceptor
1 4 donor
1 5 donor
6 16 18 20 21 22 23 rings

> <PUBCHEM_HEAVY_ATOM_COUNT>
23

> <PUBCHEM_ATOM_DEF_STEREO_COUNT>
2

> <PUBCHEM_ATOM_UDEF_STEREO_COUNT>
0

> <PUBCHEM_BOND_DEF_STEREO_COUNT>
0

> <PUBCHEM_BOND_UDEF_STEREO_COUNT>
0

> <PUBCHEM_ISOTOPIC_ATOM_COUNT>
0

> <PUBCHEM_COMPONENT_COUNT>
1

> <PUBCHEM_CACTVS_TAUTO_COUNT>
25

> <PUBCHEM_CONFORMER_ID>
002DC47500000001

> <PUBCHEM_MMFF94_ENERGY>
51.6521

> <PUBCHEM_FEATURE_SELFOVERLAP>
30.446

> <PUBCHEM_SHAPE_FINGERPRINT>
104564 63 18340206271993051459
10498660 4 18187631549186102207
10577160 183 17606693423048979742
10616163 171 18266175029013727061
10759866 29 17750229218859711762
108634 29 18411143511243732574
1100329 8 17185877190433830119
11578080 2 17058915861662947194
116883 192 18412832382636582198
12011746 2 18335696144590423807
12054548 360 18337387261554875763
12156800 1 11695045847065978403
12553582 1 18337941355723699521
12788726 201 18339079272527017530
12954195 1 18196384628153038830
13402501 40 18410292523613913767
13533116 47 17911794988931237615
13941206 138 17823424798885047762
14178342 30 17618481208803059632
14251740 79 18268155262187636390
14251745 187 18265888240930317283
14251751 93 18337386020182837502
14251757 17 18340208496912958262
14251757 5 18336274478600052878
14289585 56 17025448677686211638
14363568 33 17831602116089395611
14790565 3 18338242566191680045
14931854 50 18192983829844991199
15081414 286 18267592488269592273
15210252 30 18041841838786063412
17093844 170 18338788043621724272
17357779 13 18338788026679147463
19591789 44 18410009931708134251
20775438 99 17121094438368206175
21141583 151 18411697703262438637
21634736 98 18410570674064001468
221357 26 18411697699342485711
221490 88 18411139126039522364
22393880 68 18190738627232927852
22907989 373 17973200346140242700
23379529 103 18202007594804787190
23419403 2 17703496796872386008
23559900 14 18341611543049219120
23566358 2 18411982468764321124
238 59 17976219553578124023
2871803 45 18335692832737868381
3014063 31 18410290320121227783
6287921 2 17544481216121896507

> <PUBCHEM_SHAPE_MULTIPOLES>
443.98
8.13
4.23
1.13
0.08
1.63
0.2
-3.4
-2.74
-1.52
0.36
0
0.19
0.73

> <PUBCHEM_SHAPE_SELFOVERLAP>
910.639

> <PUBCHEM_SHAPE_VOLUME>
254.2

> <PUBCHEM_COORDINATE_TYPE>
2
5
10

> <Energy>
43.3336

> <minimizedAffinity>
-6.02700

> <CNNscore>
0.1316406131

> <CNNaffinity>
5.7594809532

> <CNN_VS>
0.7581816316

> <CNNaffinity_variance>
0.0495443828

$$$$
2999413


 26 27  0  0  0  0  0  0  0  0999 V2000
   -0.1740   -1.9425   19.9632 O   0  0  0  0  0  0  0  0  0  0  0  0
   -5.0147   -2.8085   23.2646 O   0  0  0  0  0  0  0  0  0  0  0  0
   -6.1361   -3.2122   21.2861 O   0  0  0  0  0  0  0  0  0  0  0  0
   -7.4109   -3.8830   24.5959 O   0  0  0  0  0  0  0  0  0  0  0  0
   -6.6345   -8.6014   24.6757 O   0  0  0  0  0  0  0  0  0  0  0  0
   -0.5406   -2.3290   21.2872 C   0  0  0  0  0  0  0  0  0  0  0  0
   -0.6539   -3.8596   21.3367 C   0  0  0  0  0  0  0  0  0  0  0  0
   -1.8151   -1.5736   21.6941 C   0  0  0  0  0  0  0  0  0  0  0  0
   -1.6338   -4.4537   20.3135 C   0  0  0  0  0  0  0  0  0  0  0  0
   -2.2412   -1.8408   23.1398 C   0  0  0  0  0  0  0  0  0  0  0  0
   -1.9055   -5.9422   20.5647 C   0  0  0  0  0  0  0  0  0  0  0  0
   -3.4572   -1.0102   23.5706 C   0  0  0  0  0  0  0  0  0  0  0  0
   -2.9062   -6.1972   21.7001 C   0  0  0  0  0  0  0  0  0  0  0  0
   -4.7661   -1.4412   22.8936 C   0  0  0  0  0  0  0  0  0  0  0  0
   -4.3622   -5.9705   21.2661 C   0  0  0  0  0  0  0  0  0  0  0  0
   -5.3187   -6.0262   22.4374 C   0  0  0  0  0  0  0  0  0  0  0  0
   -5.9274   -0.5781   23.3810 C   0  0  0  0  0  0  0  0  0  0  0  0
   -5.9410   -4.8821   22.9804 C   0  0  0  0  0  0  0  0  0  0  0  0
   -5.7395   -3.5463   22.3889 C   0  0  0  0  0  0  0  0  0  0  0  0
   -5.5811   -7.2710   23.0372 C   0  0  0  0  0  0  0  0  0  0  0  0
   -6.7964   -4.9966   24.0887 C   0  0  0  0  0  0  0  0  0  0  0  0
   -6.4270   -7.3642   24.1403 C   0  0  0  0  0  0  0  0  0  0  0  0
   -7.0381   -6.2368   24.6761 C   0  0  0  0  0  0  0  0  0  0  0  0
    0.6305   -2.4158   19.6993 H   0  0  0  0  0  0  0  0  0  0  0  0
   -7.2550   -3.0444   24.2081 H   0  0  0  0  0  0  0  0  0  0  0  0
   -6.2140   -9.3504   24.3014 H   0  0  0  0  0  0  0  0  0  0  0  0
  1  6  1  0
  1 24  1  0
  2 14  1  0
  2 19  1  0
  3 19  2  0
  4 21  1  0
  4 25  1  0
  5 22  1  0
  5 26  1  0
  6  7  1  0
  6  8  1  0
  7  9  1  0
  8 10  1  0
  9 11  1  0
 10 12  1  0
 11 13  1  0
 12 14  1  0
 13 15  1  0
 14 17  1  0
 15 16  1  0
 16 18  2  0
 16 20  1  0
 18 19  1  0
 18 21  1  0
 20 22  2  0
 21 23  2  0
 22 23  1  0
M  END
> <PUBCHEM_COMPOUND_CID>
2999413

> <PUBCHEM_CONFORMER_RMSD>
0.6

> <PUBCHEM_CONFORMER_DIVERSEORDER>
1
6
14
27
9
16
11
26
8
2
22
5
20
28
18
17
29
3
24
19
21
13
15
7
23
4
25
12
10

> <PUBCHEM_MMFF94_PARTIAL_CHARGES>
20
1 -0.68
14 0.28
15 0.14
16 -0.14
18 0.09
19 0.63
2 -0.43
20 -0.15
21 0.08
22 0.08
23 -0.15
3 -0.57
4 -0.53
45 0.4
46 0.15
47 0.15
48 0.45
49 0.45
5 -0.53
6 0.28

> <PUBCHEM_EFFECTIVE_ROTOR_COUNT>
2.2

> <PUBCHEM_PHARMACOPHORE_FEATURES>
6
1 1 acceptor
1 1 donor
1 3 acceptor
1 4 donor
1 5 donor
6 16 18 20 21 22 23 rings

> <PUBCHEM_HEAVY_ATOM_COUNT>
23

> <PUBCHEM_ATOM_DEF_STEREO_COUNT>
2

> <PUBCHEM_ATOM_UDEF_STEREO_COUNT>
0

> <PUBCHEM_BOND_DEF_STEREO_COUNT>
0

> <PUBCHEM_BOND_UDEF_STEREO_COUNT>
0

> <PUBCHEM_ISOTOPIC_ATOM_COUNT>
0

> <PUBCHEM_COMPONENT_COUNT>
1

> <PUBCHEM_CACTVS_TAUTO_COUNT>
25

> <PUBCHEM_CONFORMER_ID>
002DC47500000001

> <PUBCHEM_MMFF94_ENERGY>
51.6521

> <PUBCHEM_FEATURE_SELFOVERLAP>
30.446

> <PUBCHEM_SHAPE_FINGERPRINT>
104564 63 18340206271993051459
10498660 4 18187631549186102207
10577160 183 17606693423048979742
10616163 171 18266175029013727061
10759866 29 17750229218859711762
108634 29 18411143511243732574
1100329 8 17185877190433830119
11578080 2 17058915861662947194
116883 192 18412832382636582198
12011746 2 18335696144590423807
12054548 360 18337387261554875763
12156800 1 11695045847065978403
12553582 1 18337941355723699521
12788726 201 18339079272527017530
12954195 1 18196384628153038830
13402501 40 18410292523613913767
13533116 47 17911794988931237615
13941206 138 17823424798885047762
14178342 30 17618481208803059632
14251740 79 18268155262187636390
14251745 187 18265888240930317283
14251751 93 18337386020182837502
14251757 17 18340208496912958262
14251757 5 18336274478600052878
14289585 56 17025448677686211638
14363568 33 17831602116089395611
14790565 3 18338242566191680045
14931854 50 18192983829844991199
15081414 286 18267592488269592273
15210252 30 18041841838786063412
17093844 170 18338788043621724272
17357779 13 18338788026679147463
19591789 44 18410009931708134251
20775438 99 17121094438368206175
21141583 151 18411697703262438637
21634736 98 18410570674064001468
221357 26 18411697699342485711
221490 88 18411139126039522364
22393880 68 18190738627232927852
22907989 373 17973200346140242700
23379529 103 18202007594804787190
23419403 2 17703496796872386008
23559900 14 18341611543049219120
23566358 2 18411982468764321124
238 59 17976219553578124023
2871803 45 18335692832737868381
3014063 31 18410290320121227783
6287921 2 17544481216121896507

> <PUBCHEM_SHAPE_MULTIPOLES>
443.98
8.13
4.23
1.13
0.08
1.63
0.2
-3.4
-2.74
-1.52
0.36
0
0.19
0.73

> <PUBCHEM_SHAPE_SELFOVERLAP>
910.639

> <PUBCHEM_SHAPE_VOLUME>
254.2

> <PUBCHEM_COORDINATE_TYPE>
2
5
10

> <Energy>
43.3336

> <minimizedAffinity>
-5.02701

> <CNNscore>
0.1208870113

> <CNNaffinity>
5.9192218781

> <CNN_VS>
0.7155570388

> <CNNaffinity_variance>
0.1616008580

$$$$
2999413


 26 27  0  0  0  0  0  0  0  0999 V2000
   -6.5990    0.0150   21.7106 O   0  0  0  0  0  0  0  0  0  0  0  0
   -6.0853   -5.0110   24.8021 O   0  0  0  0  0  0  0  0  0  0  0  0
   -8.3221   -5.3679   24.3496 O   0  0  0  0  0  0  0  0  0  0  0  0
   -6.0437   -7.8066   25.7249 O   0  0  0  0  0  0  0  0  0  0  0  0
   -5.2286  -10.3005   21.7263 O   0  0  0  0  0  0  0  0  0  0  0  0
   -5.6073   -0.9366   22.0949 C   0  0  0  0  0  0  0  0  0  0  0  0
   -5.5040   -2.0062   20.9980 C   0  0  0  0  0  0  0  0  0  0  0  0
   -5.9467   -1.4761   23.4929 C   0  0  0  0  0  0  0  0  0  0  0  0
   -6.8301   -2.7126   20.6779 C   0  0  0  0  0  0  0  0  0  0  0  0
   -4.8885   -2.4344   24.0449 C   0  0  0  0  0  0  0  0  0  0  0  0
   -6.6344   -3.9338   19.7707 C   0  0  0  0  0  0  0  0  0  0  0  0
   -5.1839   -2.8937   25.4787 C   0  0  0  0  0  0  0  0  0  0  0  0
   -6.1310   -5.1758   20.5187 C   0  0  0  0  0  0  0  0  0  0  0  0
   -6.3868   -3.8420   25.5841 C   0  0  0  0  0  0  0  0  0  0  0  0
   -7.2471   -5.8902   21.2956 C   0  0  0  0  0  0  0  0  0  0  0  0
   -6.7059   -6.9871   22.1866 C   0  0  0  0  0  0  0  0  0  0  0  0
   -6.6086   -4.2621   27.0351 C   0  0  0  0  0  0  0  0  0  0  0  0
   -6.6332   -6.8744   23.5913 C   0  0  0  0  0  0  0  0  0  0  0  0
   -7.1462   -5.6828   24.2925 C   0  0  0  0  0  0  0  0  0  0  0  0
   -6.2229   -8.1657   21.5903 C   0  0  0  0  0  0  0  0  0  0  0  0
   -6.0916   -7.9173   24.3610 C   0  0  0  0  0  0  0  0  0  0  0  0
   -5.6827   -9.1866   22.3694 C   0  0  0  0  0  0  0  0  0  0  0  0
   -5.6094   -9.0745   23.7527 C   0  0  0  0  0  0  0  0  0  0  0  0
   -6.3911    0.3602   20.8282 H   0  0  0  0  0  0  0  0  0  0  0  0
   -6.3653   -7.0325   26.1437 H   0  0  0  0  0  0  0  0  0  0  0  0
   -5.2860  -10.3586   20.7929 H   0  0  0  0  0  0  0  0  0  0  0  0
  1  6  1  0
  1 24  1  0
  2 14  1  0
  2 19  1  0
  3 19  2  0
  4 21  1  0
  4 25  1  0
  5 22  1  0
  5 26  1  0
  6  7  1  0
  6  8  1  0
  7  9  1  0
  8 10  1  0
  9 11  1  0
 10 12  1  0
 11 13  1  0
 12 14  1  0
 13 15  1  0
 14 17  1  0
 15 16  1  0
 16 18  2  0
 16 20  1  0
 18 19  1  0
 18 21  1  0
 20 22  2  0
 21 23  2  0
 22 23  1  0
M  END
> <PUBCHEM_COMPOUND_CID>
2999413

> <PUBCHEM_CONFORMER_RMSD>
0.6

> <PUBCHEM_CONFORMER_DIVERSEORDER>
1
6
14
27
9
16
11
26
8
2
22
5
20
28
18
17
29
3
24
19
21
13
15
7
23
4
25
12
10

> <PUBCHEM_MMFF94_PARTIAL_CHARGES>
20
1 -0.68
14 0.28
15 0.14
16 -0.14
18 0.09
19 0.63
2 -0.43
20 -0.15
21 0.08
22 0.08
23 -0.15
3 -0.57
4 -0.53
45 0.4
46 0.15
47 0.15
48 0.45
49 0.45
5 -0.53
6 0.28

> <PUBCHEM_EFFECTIVE_ROTOR_COUNT>
2.2

> <PUBCHEM_PHARMACOPHORE_FEATURES>
6
1 1 acceptor
1 1 donor
1 3 acceptor
1 4 donor
1 5 donor
6 16 18 20 21 22 23 rings

> <PUBCHEM_HEAVY_ATOM_COUNT>
23

> <PUBCHEM_ATOM_DEF_STEREO_COUNT>
2

> <PUBCHEM_ATOM_UDEF_STEREO_COUNT>
0

> <PUBCHEM_BOND_DEF_STEREO_COUNT>
0

> <PUBCHEM_BOND_UDEF_STEREO_COUNT>
0

> <PUBCHEM_ISOTOPIC_ATOM_COUNT>
0

> <PUBCHEM_COMPONENT_COUNT>
1

> <PUBCHEM_CACTVS_TAUTO_COUNT>
25

> <PUBCHEM_CONFORMER_ID>
002DC47500000001

> <PUBCHEM_MMFF94_ENERGY>
51.6521

> <PUBCHEM_FEATURE_SELFOVERLAP>
30.446

> <PUBCHEM_SHAPE_FINGERPRINT>
104564 63 18340206271993051459
10498660 4 18187631549186102207
10577160 183 17606693423048979742
10616163 171 18266175029013727061
10759866 29 17750229218859711762
108634 29 18411143511243732574
1100329 8 17185877190433830119
11578080 2 17058915861662947194
116883 192 18412832382636582198
12011746 2 18335696144590423807
12054548 360 18337387261554875763
12156800 1 11695045847065978403
12553582 1 18337941355723699521
12788726 201 18339079272527017530
12954195 1 18196384628153038830
13402501 40 18410292523613913767
13533116 47 17911794988931237615
13941206 138 17823424798885047762
14178342 30 17618481208803059632
14251740 79 18268155262187636390
14251745 187 18265888240930317283
14251751 93 18337386020182837502
14251757 17 18340208496912958262
14251757 5 18336274478600052878
14289585 56 17025448677686211638
14363568 33 17831602116089395611
14790565 3 18338242566191680045
14931854 50 18192983829844991199
15081414 286 18267592488269592273
15210252 30 18041841838786063412
17093844 170 18338788043621724272
17357779 13 18338788026679147463
19591789 44 18410009931708134251
20775438 99 17121094438368206175
21141583 151 18411697703262438637
21634736 98 18410570674064001468
221357 26 18411697699342485711
221490 88 18411139126039522364
22393880 68 18190738627232927852
22907989 373 17973200346140242700
23379529 103 18202007594804787190
23419403 2 17703496796872386008
23559900 14 18341611543049219120
23566358 2 18411982468764321124
238 59 17976219553578124023
2871803 45 18335692832737868381
3014063 31 18410290320121227783
6287921 2 17544481216121896507

> <PUBCHEM_SHAPE_MULTIPOLES>
443.98
8.13
4.23
1.13
0.08
1.63
0.2
-3.4
-2.74
-1.52
0.36
0
0.19
0.73

> <PUBCHEM_SHAPE_SELFOVERLAP>
910.639

> <PUBCHEM_SHAPE_VOLUME>
254.2

> <PUBCHEM_COORDINATE_TYPE>
2
5
10

> <Energy>
43.3336

> <minimizedAffinity>
8.52498

> <CNNscore>
0.0870093405

> <CNNaffinity>
4.5312004089

> <CNN_VS>
0.3942567706

> <CNNaffinity_variance>
0.8937063217

$$$$
