5991


 24 27  0  0  0  0  0  0  0  0999 V2000
   26.0916    1.9200    3.6627 O   0  0  0  0  0  0  0  0  0  0  0  0
   16.1021    5.2579    6.7627 O   0  0  0  0  0  0  0  0  0  0  0  0
   23.9993    3.0537    4.3345 C   0  0  0  0  0  0  0  0  0  0  0  0
   23.5286    4.5045    4.0810 C   0  0  0  0  0  0  0  0  0  0  0  0
   22.0167    4.6713    4.2516 C   0  0  0  0  0  0  0  0  0  0  0  0
   25.5125    3.1814    3.9735 C   0  0  0  0  0  0  0  0  0  0  0  0
   21.6307    4.3029    5.7157 C   0  0  0  0  0  0  0  0  0  0  0  0
   23.6466    2.6859    5.7881 C   0  0  0  0  0  0  0  0  0  0  0  0
   24.1572    4.8534    2.7343 C   0  0  0  0  0  0  0  0  0  0  0  0
   22.1497    2.8913    6.0944 C   0  0  0  0  0  0  0  0  0  0  0  0
   25.4917    4.0832    2.7107 C   0  0  0  0  0  0  0  0  0  0  0  0
   21.5488    6.0988    3.9582 C   0  0  0  0  0  0  0  0  0  0  0  0
   23.3309    2.0073    3.3945 C   0  0  0  0  0  0  0  0  0  0  0  0
   20.1415    4.5329    5.9701 C   0  0  0  0  0  0  0  0  0  0  0  0
   20.0253    6.1625    3.9988 C   0  0  0  0  0  0  0  0  0  0  0  0
   19.4127    5.4463    5.1765 C   0  0  0  0  0  0  0  0  0  0  0  0
   19.4840    3.9183    7.0496 C   0  0  0  0  0  0  0  0  0  0  0  0
   18.0488    5.6745    5.4415 C   0  0  0  0  0  0  0  0  0  0  0  0
   18.1286    4.1619    7.3090 C   0  0  0  0  0  0  0  0  0  0  0  0
   17.4209    5.0356    6.4983 C   0  0  0  0  0  0  0  0  0  0  0  0
   25.5720    1.4882    2.9667 H   0  0  0  0  0  0  0  0  0  0  0  0
   15.6089    5.8454    6.2246 H   0  0  0  0  0  0  0  0  0  0  0  0
   26.3255    3.8087    5.0325 C   0  0  0  0  0  0  0  0  0  0  0  0
   26.9759    4.3240    5.9040 C   0  0  0  0  0  0  0  0  0  0  0  0
  1  6  1  0
  1 21  1  0
  2 20  1  0
  2 22  1  0
  3  4  1  0
  3  6  1  0
  3  8  1  0
  3 13  1  0
  4  5  1  0
  4  9  1  0
  5  7  1  0
  5 12  1  0
  6 11  1  0
  6 23  1  0
  7 10  1  0
  7 14  1  0
  8 10  1  0
  9 11  1  0
 12 15  1  0
 14 16  2  0
 14 17  1  0
 15 16  1  0
 16 18  1  0
 23 24  3  0
 17 19  2  0
 18 20  2  0
 19 20  1  0
M  END
> <PUBCHEM_COMPOUND_CID>
5991

> <PUBCHEM_CONFORMER_RMSD>
0.6

> <PUBCHEM_CONFORMER_DIVERSEORDER>
1

> <PUBCHEM_MMFF94_PARTIAL_CHARGES>
19
1 -0.68
14 -0.14
15 0.14
16 -0.14
17 -0.2
18 -0.15
19 -0.15
2 -0.53
20 -0.15
21 0.08
22 -0.18
41 0.4
42 0.15
43 0.15
44 0.15
45 0.18
46 0.45
6 0.48
7 0.14

> <PUBCHEM_EFFECTIVE_ROTOR_COUNT>
1.4

> <PUBCHEM_PHARMACOPHORE_FEATURES>
8
1 1 acceptor
1 1 donor
1 2 donor
1 22 hydrophobe
5 3 4 6 9 11 rings
6 14 16 18 19 20 21 rings
6 3 4 5 7 8 10 rings
6 5 7 12 14 15 16 rings

> <PUBCHEM_HEAVY_ATOM_COUNT>
22

> <PUBCHEM_ATOM_DEF_STEREO_COUNT>
5

> <PUBCHEM_ATOM_UDEF_STEREO_COUNT>
0

> <PUBCHEM_BOND_DEF_STEREO_COUNT>
0

> <PUBCHEM_BOND_UDEF_STEREO_COUNT>
0

> <PUBCHEM_ISOTOPIC_ATOM_COUNT>
0

> <PUBCHEM_COMPONENT_COUNT>
1

> <PUBCHEM_CACTVS_TAUTO_COUNT>
9

> <PUBCHEM_CONFORMER_ID>
0000176700000001

> <PUBCHEM_MMFF94_ENERGY>
75.3654

> <PUBCHEM_FEATURE_SELFOVERLAP>
40.689

> <PUBCHEM_SHAPE_FINGERPRINT>
10498660 4 18334565854482978588
10616163 171 18412261769892000550
10906281 52 18268729332496851400
10967382 1 18409163299196382730
11132069 177 18260823830106114581
11315181 36 17846777438100329984
11552529 35 18058445585631877095
11578080 2 16952518088400902894
11796584 16 15123796154675551020
12107183 9 17697047933183828707
12236239 1 17917992754997443209
12403259 415 18260540148118003532
12403814 3 17531241756051219503
12633257 1 18411416168188185458
12644460 14 18260827060354363322
12788726 201 17059505002047033793
128620 24 17385724690407290772
13140716 1 18264499557760559337
13224815 77 18408318891198213202
13675066 3 17749393654488776519
14790565 3 18338806709892665688
15163728 17 15481289097577292713
15183329 4 18408605830407435614
15196674 1 18337388339818468438
15209289 33 18341332270467662817
15209294 21 18059584555192331817
15309172 13 18409451371427638915
15536298 74 18341610425830279326
15788980 27 17749105603943632888
16945 1 18265320738190372627
17349148 13 18114176445825312880
1813 80 17530976782159466655
18186145 218 18409161126111612646
19489759 90 15410896249631894657
19591789 44 18193273216009210722
200 152 17918273168974754922
21033648 29 17968079933063946356
21267235 1 18338240469814837151
21623110 236 18263368155990106261
23402539 116 18410566319162361766
23402655 69 18201721773563375622
23559900 14 18341325700027887232
335352 9 18410007719541319564
34934 24 18335695014618288215
350125 39 18408603674022772468
3545911 37 18408602569419241710
3680242 22 18335416829913620042
4214541 1 18412824715549947695
474 4 18408605889666299408
5104073 3 18339077194179428906
542803 24 17561084709247609168
59755656 215 18335983078396721054
633830 44 18202282537272954908
9709674 26 18410014338397756278

> <PUBCHEM_SHAPE_MULTIPOLES>
441.01
10.64
2.03
1.22
7.18
0.55
-0.05
-1.94
-1.01
0.21
-0.15
-1.94
-0.33
-0.49

> <PUBCHEM_SHAPE_SELFOVERLAP>
961.464

> <PUBCHEM_SHAPE_VOLUME>
238.8

> <PUBCHEM_COORDINATE_TYPE>
2
5
10

> <Energy>
61.5647

> <minimizedAffinity>
-9.20811

> <CNNscore>
0.8810847998

> <CNNaffinity>
8.1509351730

> <CNN_VS>
7.1816649437

> <CNNaffinity_variance>
0.6841773987

$$$$
5991


 24 27  0  0  0  0  0  0  0  0999 V2000
   26.4730    4.9038    3.4665 O   0  0  0  0  0  0  0  0  0  0  0  0
   16.1807    5.8605    7.1672 O   0  0  0  0  0  0  0  0  0  0  0  0
   24.2345    4.7704    4.5083 C   0  0  0  0  0  0  0  0  0  0  0  0
   23.7755    4.0353    5.7888 C   0  0  0  0  0  0  0  0  0  0  0  0
   22.4466    4.5686    6.3296 C   0  0  0  0  0  0  0  0  0  0  0  0
   25.6283    4.1044    4.2854 C   0  0  0  0  0  0  0  0  0  0  0  0
   21.3428    4.3609    5.2494 C   0  0  0  0  0  0  0  0  0  0  0  0
   23.1631    4.5508    3.4235 C   0  0  0  0  0  0  0  0  0  0  0  0
   25.0068    4.0858    6.6898 C   0  0  0  0  0  0  0  0  0  0  0  0
   21.7606    4.9860    3.8929 C   0  0  0  0  0  0  0  0  0  0  0  0
   26.2054    4.0208    5.7236 C   0  0  0  0  0  0  0  0  0  0  0  0
   22.0170    3.8679    7.6207 C   0  0  0  0  0  0  0  0  0  0  0  0
   24.4203    6.3045    4.7017 C   0  0  0  0  0  0  0  0  0  0  0  0
   19.9728    4.7978    5.7669 C   0  0  0  0  0  0  0  0  0  0  0  0
   20.7715    4.5430    8.1860 C   0  0  0  0  0  0  0  0  0  0  0  0
   19.7107    4.8354    7.1543 C   0  0  0  0  0  0  0  0  0  0  0  0
   18.9175    5.0814    4.8831 C   0  0  0  0  0  0  0  0  0  0  0  0
   18.4344    5.2078    7.6182 C   0  0  0  0  0  0  0  0  0  0  0  0
   17.6488    5.4407    5.3576 C   0  0  0  0  0  0  0  0  0  0  0  0
   17.4198    5.5054    6.7232 C   0  0  0  0  0  0  0  0  0  0  0  0
   26.5360    5.7963    3.8410 H   0  0  0  0  0  0  0  0  0  0  0  0
   16.0089    5.9092    8.0871 H   0  0  0  0  0  0  0  0  0  0  0  0
   25.5552    2.7575    3.6883 C   0  0  0  0  0  0  0  0  0  0  0  0
   25.4819    1.6566    3.2081 C   0  0  0  0  0  0  0  0  0  0  0  0
  1  6  1  0
  1 21  1  0
  2 20  1  0
  2 22  1  0
  3  4  1  0
  3  6  1  0
  3  8  1  0
  3 13  1  0
  4  5  1  0
  4  9  1  0
  5  7  1  0
  5 12  1  0
  6 11  1  0
  6 23  1  0
  7 10  1  0
  7 14  1  0
  8 10  1  0
  9 11  1  0
 12 15  1  0
 14 16  2  0
 14 17  1  0
 15 16  1  0
 16 18  1  0
 23 24  3  0
 17 19  2  0
 18 20  2  0
 19 20  1  0
M  END
> <PUBCHEM_COMPOUND_CID>
5991

> <PUBCHEM_CONFORMER_RMSD>
0.6

> <PUBCHEM_CONFORMER_DIVERSEORDER>
1

> <PUBCHEM_MMFF94_PARTIAL_CHARGES>
19
1 -0.68
14 -0.14
15 0.14
16 -0.14
17 -0.2
18 -0.15
19 -0.15
2 -0.53
20 -0.15
21 0.08
22 -0.18
41 0.4
42 0.15
43 0.15
44 0.15
45 0.18
46 0.45
6 0.48
7 0.14

> <PUBCHEM_EFFECTIVE_ROTOR_COUNT>
1.4

> <PUBCHEM_PHARMACOPHORE_FEATURES>
8
1 1 acceptor
1 1 donor
1 2 donor
1 22 hydrophobe
5 3 4 6 9 11 rings
6 14 16 18 19 20 21 rings
6 3 4 5 7 8 10 rings
6 5 7 12 14 15 16 rings

> <PUBCHEM_HEAVY_ATOM_COUNT>
22

> <PUBCHEM_ATOM_DEF_STEREO_COUNT>
5

> <PUBCHEM_ATOM_UDEF_STEREO_COUNT>
0

> <PUBCHEM_BOND_DEF_STEREO_COUNT>
0

> <PUBCHEM_BOND_UDEF_STEREO_COUNT>
0

> <PUBCHEM_ISOTOPIC_ATOM_COUNT>
0

> <PUBCHEM_COMPONENT_COUNT>
1

> <PUBCHEM_CACTVS_TAUTO_COUNT>
9

> <PUBCHEM_CONFORMER_ID>
0000176700000001

> <PUBCHEM_MMFF94_ENERGY>
75.3654

> <PUBCHEM_FEATURE_SELFOVERLAP>
40.689

> <PUBCHEM_SHAPE_FINGERPRINT>
10498660 4 18334565854482978588
10616163 171 18412261769892000550
10906281 52 18268729332496851400
10967382 1 18409163299196382730
11132069 177 18260823830106114581
11315181 36 17846777438100329984
11552529 35 18058445585631877095
11578080 2 16952518088400902894
11796584 16 15123796154675551020
12107183 9 17697047933183828707
12236239 1 17917992754997443209
12403259 415 18260540148118003532
12403814 3 17531241756051219503
12633257 1 18411416168188185458
12644460 14 18260827060354363322
12788726 201 17059505002047033793
128620 24 17385724690407290772
13140716 1 18264499557760559337
13224815 77 18408318891198213202
13675066 3 17749393654488776519
14790565 3 18338806709892665688
15163728 17 15481289097577292713
15183329 4 18408605830407435614
15196674 1 18337388339818468438
15209289 33 18341332270467662817
15209294 21 18059584555192331817
15309172 13 18409451371427638915
15536298 74 18341610425830279326
15788980 27 17749105603943632888
16945 1 18265320738190372627
17349148 13 18114176445825312880
1813 80 17530976782159466655
18186145 218 18409161126111612646
19489759 90 15410896249631894657
19591789 44 18193273216009210722
200 152 17918273168974754922
21033648 29 17968079933063946356
21267235 1 18338240469814837151
21623110 236 18263368155990106261
23402539 116 18410566319162361766
23402655 69 18201721773563375622
23559900 14 18341325700027887232
335352 9 18410007719541319564
34934 24 18335695014618288215
350125 39 18408603674022772468
3545911 37 18408602569419241710
3680242 22 18335416829913620042
4214541 1 18412824715549947695
474 4 18408605889666299408
5104073 3 18339077194179428906
542803 24 17561084709247609168
59755656 215 18335983078396721054
633830 44 18202282537272954908
9709674 26 18410014338397756278

> <PUBCHEM_SHAPE_MULTIPOLES>
441.01
10.64
2.03
1.22
7.18
0.55
-0.05
-1.94
-1.01
0.21
-0.15
-1.94
-0.33
-0.49

> <PUBCHEM_SHAPE_SELFOVERLAP>
961.464

> <PUBCHEM_SHAPE_VOLUME>
238.8

> <PUBCHEM_COORDINATE_TYPE>
2
5
10

> <Energy>
61.5647

> <minimizedAffinity>
-8.21541

> <CNNscore>
0.4326381385

> <CNNaffinity>
7.4591813087

> <CNN_VS>
3.2271263599

> <CNNaffinity_variance>
0.3308766782

$$$$
5991


 24 27  0  0  0  0  0  0  0  0999 V2000
   16.9933    6.0635    6.0645 O   0  0  0  0  0  0  0  0  0  0  0  0
   26.8728    2.2783    3.1300 O   0  0  0  0  0  0  0  0  0  0  0  0
   19.2214    5.0307    5.7763 C   0  0  0  0  0  0  0  0  0  0  0  0
   19.8515    3.8104    6.4867 C   0  0  0  0  0  0  0  0  0  0  0  0
   21.0372    3.2270    5.7143 C   0  0  0  0  0  0  0  0  0  0  0  0
   18.0067    5.3076    6.7164 C   0  0  0  0  0  0  0  0  0  0  0  0
   22.1429    4.3178    5.5883 C   0  0  0  0  0  0  0  0  0  0  0  0
   20.2980    6.1271    5.6686 C   0  0  0  0  0  0  0  0  0  0  0  0
   18.6537    2.9107    6.7801 C   0  0  0  0  0  0  0  0  0  0  0  0
   21.5761    5.6222    4.9699 C   0  0  0  0  0  0  0  0  0  0  0  0
   17.4846    3.8815    7.0358 C   0  0  0  0  0  0  0  0  0  0  0  0
   21.6312    1.9935    6.3987 C   0  0  0  0  0  0  0  0  0  0  0  0
   18.7030    4.7186    4.3412 C   0  0  0  0  0  0  0  0  0  0  0  0
   23.3897    3.7650    4.8987 C   0  0  0  0  0  0  0  0  0  0  0  0
   22.7046    1.3747    5.5089 C   0  0  0  0  0  0  0  0  0  0  0  0
   23.6582    2.3783    4.9100 C   0  0  0  0  0  0  0  0  0  0  0  0
   24.3422    4.6219    4.3209 C   0  0  0  0  0  0  0  0  0  0  0  0
   24.8271    1.8842    4.2998 C   0  0  0  0  0  0  0  0  0  0  0  0
   25.5068    4.1182    3.7260 C   0  0  0  0  0  0  0  0  0  0  0  0
   25.7367    2.7512    3.7166 C   0  0  0  0  0  0  0  0  0  0  0  0
   16.7398    5.6206    5.2396 H   0  0  0  0  0  0  0  0  0  0  0  0
   27.0436    1.3571    3.1148 H   0  0  0  0  0  0  0  0  0  0  0  0
   18.3675    6.0078    7.9636 C   0  0  0  0  0  0  0  0  0  0  0  0
   18.6507    6.5714    8.9884 C   0  0  0  0  0  0  0  0  0  0  0  0
  1  6  1  0
  1 21  1  0
  2 20  1  0
  2 22  1  0
  3  4  1  0
  3  6  1  0
  3  8  1  0
  3 13  1  0
  4  5  1  0
  4  9  1  0
  5  7  1  0
  5 12  1  0
  6 11  1  0
  6 23  1  0
  7 10  1  0
  7 14  1  0
  8 10  1  0
  9 11  1  0
 12 15  1  0
 14 16  2  0
 14 17  1  0
 15 16  1  0
 16 18  1  0
 23 24  3  0
 17 19  2  0
 18 20  2  0
 19 20  1  0
M  END
> <PUBCHEM_COMPOUND_CID>
5991

> <PUBCHEM_CONFORMER_RMSD>
0.6

> <PUBCHEM_CONFORMER_DIVERSEORDER>
1

> <PUBCHEM_MMFF94_PARTIAL_CHARGES>
19
1 -0.68
14 -0.14
15 0.14
16 -0.14
17 -0.2
18 -0.15
19 -0.15
2 -0.53
20 -0.15
21 0.08
22 -0.18
41 0.4
42 0.15
43 0.15
44 0.15
45 0.18
46 0.45
6 0.48
7 0.14

> <PUBCHEM_EFFECTIVE_ROTOR_COUNT>
1.4

> <PUBCHEM_PHARMACOPHORE_FEATURES>
8
1 1 acceptor
1 1 donor
1 2 donor
1 22 hydrophobe
5 3 4 6 9 11 rings
6 14 16 18 19 20 21 rings
6 3 4 5 7 8 10 rings
6 5 7 12 14 15 16 rings

> <PUBCHEM_HEAVY_ATOM_COUNT>
22

> <PUBCHEM_ATOM_DEF_STEREO_COUNT>
5

> <PUBCHEM_ATOM_UDEF_STEREO_COUNT>
0

> <PUBCHEM_BOND_DEF_STEREO_COUNT>
0

> <PUBCHEM_BOND_UDEF_STEREO_COUNT>
0

> <PUBCHEM_ISOTOPIC_ATOM_COUNT>
0

> <PUBCHEM_COMPONENT_COUNT>
1

> <PUBCHEM_CACTVS_TAUTO_COUNT>
9

> <PUBCHEM_CONFORMER_ID>
0000176700000001

> <PUBCHEM_MMFF94_ENERGY>
75.3654

> <PUBCHEM_FEATURE_SELFOVERLAP>
40.689

> <PUBCHEM_SHAPE_FINGERPRINT>
10498660 4 18334565854482978588
10616163 171 18412261769892000550
10906281 52 18268729332496851400
10967382 1 18409163299196382730
11132069 177 18260823830106114581
11315181 36 17846777438100329984
11552529 35 18058445585631877095
11578080 2 16952518088400902894
11796584 16 15123796154675551020
12107183 9 17697047933183828707
12236239 1 17917992754997443209
12403259 415 18260540148118003532
12403814 3 17531241756051219503
12633257 1 18411416168188185458
12644460 14 18260827060354363322
12788726 201 17059505002047033793
128620 24 17385724690407290772
13140716 1 18264499557760559337
13224815 77 18408318891198213202
13675066 3 17749393654488776519
14790565 3 18338806709892665688
15163728 17 15481289097577292713
15183329 4 18408605830407435614
15196674 1 18337388339818468438
15209289 33 18341332270467662817
15209294 21 18059584555192331817
15309172 13 18409451371427638915
15536298 74 18341610425830279326
15788980 27 17749105603943632888
16945 1 18265320738190372627
17349148 13 18114176445825312880
1813 80 17530976782159466655
18186145 218 18409161126111612646
19489759 90 15410896249631894657
19591789 44 18193273216009210722
200 152 17918273168974754922
21033648 29 17968079933063946356
21267235 1 18338240469814837151
21623110 236 18263368155990106261
23402539 116 18410566319162361766
23402655 69 18201721773563375622
23559900 14 18341325700027887232
335352 9 18410007719541319564
34934 24 18335695014618288215
350125 39 18408603674022772468
3545911 37 18408602569419241710
3680242 22 18335416829913620042
4214541 1 18412824715549947695
474 4 18408605889666299408
5104073 3 18339077194179428906
542803 24 17561084709247609168
59755656 215 18335983078396721054
633830 44 18202282537272954908
9709674 26 18410014338397756278

> <PUBCHEM_SHAPE_MULTIPOLES>
441.01
10.64
2.03
1.22
7.18
0.55
-0.05
-1.94
-1.01
0.21
-0.15
-1.94
-0.33
-0.49

> <PUBCHEM_SHAPE_SELFOVERLAP>
961.464

> <PUBCHEM_SHAPE_VOLUME>
238.8

> <PUBCHEM_COORDINATE_TYPE>
2
5
10

> <Energy>
61.5647

> <minimizedAffinity>
-4.71584

> <CNNscore>
0.2451958805

> <CNNaffinity>
7.2189917564

> <CNN_VS>
1.7700670958

> <CNNaffinity_variance>
0.5321773887

$$$$
5991


 24 27  0  0  0  0  0  0  0  0999 V2000
   17.4490    4.9672    6.7924 O   0  0  0  0  0  0  0  0  0  0  0  0
   27.1529    4.1252    1.7260 O   0  0  0  0  0  0  0  0  0  0  0  0
   19.7419    4.5385    5.9719 C   0  0  0  0  0  0  0  0  0  0  0  0
   20.7179    3.3862    6.3040 C   0  0  0  0  0  0  0  0  0  0  0  0
   21.8294    3.2374    5.2622 C   0  0  0  0  0  0  0  0  0  0  0  0
   18.6931    4.3572    7.1135 C   0  0  0  0  0  0  0  0  0  0  0  0
   22.6590    4.5557    5.2180 C   0  0  0  0  0  0  0  0  0  0  0  0
   20.5458    5.8522    5.9508 C   0  0  0  0  0  0  0  0  0  0  0  0
   19.7936    2.1996    6.5643 C   0  0  0  0  0  0  0  0  0  0  0  0
   21.7447    5.7864    4.9839 C   0  0  0  0  0  0  0  0  0  0  0  0
   18.5267    2.8161    7.1885 C   0  0  0  0  0  0  0  0  0  0  0  0
   22.7684    2.0689    5.5714 C   0  0  0  0  0  0  0  0  0  0  0  0
   19.0360    4.3808    4.5926 C   0  0  0  0  0  0  0  0  0  0  0  0
   23.8389    4.4352    4.2541 C   0  0  0  0  0  0  0  0  0  0  0  0
   23.7567    1.8819    4.4247 C   0  0  0  0  0  0  0  0  0  0  0  0
   24.3688    3.1675    3.9268 C   0  0  0  0  0  0  0  0  0  0  0  0
   24.4823    5.5763    3.7450 C   0  0  0  0  0  0  0  0  0  0  0  0
   25.4769    3.0711    3.0634 C   0  0  0  0  0  0  0  0  0  0  0  0
   25.5910    5.4670    2.8949 C   0  0  0  0  0  0  0  0  0  0  0  0
   26.0760    4.2131    2.5573 C   0  0  0  0  0  0  0  0  0  0  0  0
   17.1372    4.6346    5.9362 H   0  0  0  0  0  0  0  0  0  0  0  0
   27.4935    3.2855    1.4877 H   0  0  0  0  0  0  0  0  0  0  0  0
   19.1370    4.8842    8.4178 C   0  0  0  0  0  0  0  0  0  0  0  0
   19.4851    5.3203    9.4840 C   0  0  0  0  0  0  0  0  0  0  0  0
  1  6  1  0
  1 21  1  0
  2 20  1  0
  2 22  1  0
  3  4  1  0
  3  6  1  0
  3  8  1  0
  3 13  1  0
  4  5  1  0
  4  9  1  0
  5  7  1  0
  5 12  1  0
  6 11  1  0
  6 23  1  0
  7 10  1  0
  7 14  1  0
  8 10  1  0
  9 11  1  0
 12 15  1  0
 14 16  2  0
 14 17  1  0
 15 16  1  0
 16 18  1  0
 23 24  3  0
 17 19  2  0
 18 20  2  0
 19 20  1  0
M  END
> <PUBCHEM_COMPOUND_CID>
5991

> <PUBCHEM_CONFORMER_RMSD>
0.6

> <PUBCHEM_CONFORMER_DIVERSEORDER>
1

> <PUBCHEM_MMFF94_PARTIAL_CHARGES>
19
1 -0.68
14 -0.14
15 0.14
16 -0.14
17 -0.2
18 -0.15
19 -0.15
2 -0.53
20 -0.15
21 0.08
22 -0.18
41 0.4
42 0.15
43 0.15
44 0.15
45 0.18
46 0.45
6 0.48
7 0.14

> <PUBCHEM_EFFECTIVE_ROTOR_COUNT>
1.4

> <PUBCHEM_PHARMACOPHORE_FEATURES>
8
1 1 acceptor
1 1 donor
1 2 donor
1 22 hydrophobe
5 3 4 6 9 11 rings
6 14 16 18 19 20 21 rings
6 3 4 5 7 8 10 rings
6 5 7 12 14 15 16 rings

> <PUBCHEM_HEAVY_ATOM_COUNT>
22

> <PUBCHEM_ATOM_DEF_STEREO_COUNT>
5

> <PUBCHEM_ATOM_UDEF_STEREO_COUNT>
0

> <PUBCHEM_BOND_DEF_STEREO_COUNT>
0

> <PUBCHEM_BOND_UDEF_STEREO_COUNT>
0

> <PUBCHEM_ISOTOPIC_ATOM_COUNT>
0

> <PUBCHEM_COMPONENT_COUNT>
1

> <PUBCHEM_CACTVS_TAUTO_COUNT>
9

> <PUBCHEM_CONFORMER_ID>
0000176700000001

> <PUBCHEM_MMFF94_ENERGY>
75.3654

> <PUBCHEM_FEATURE_SELFOVERLAP>
40.689

> <PUBCHEM_SHAPE_FINGERPRINT>
10498660 4 18334565854482978588
10616163 171 18412261769892000550
10906281 52 18268729332496851400
10967382 1 18409163299196382730
11132069 177 18260823830106114581
11315181 36 17846777438100329984
11552529 35 18058445585631877095
11578080 2 16952518088400902894
11796584 16 15123796154675551020
12107183 9 17697047933183828707
12236239 1 17917992754997443209
12403259 415 18260540148118003532
12403814 3 17531241756051219503
12633257 1 18411416168188185458
12644460 14 18260827060354363322
12788726 201 17059505002047033793
128620 24 17385724690407290772
13140716 1 18264499557760559337
13224815 77 18408318891198213202
13675066 3 17749393654488776519
14790565 3 18338806709892665688
15163728 17 15481289097577292713
15183329 4 18408605830407435614
15196674 1 18337388339818468438
15209289 33 18341332270467662817
15209294 21 18059584555192331817
15309172 13 18409451371427638915
15536298 74 18341610425830279326
15788980 27 17749105603943632888
16945 1 18265320738190372627
17349148 13 18114176445825312880
1813 80 17530976782159466655
18186145 218 18409161126111612646
19489759 90 15410896249631894657
19591789 44 18193273216009210722
200 152 17918273168974754922
21033648 29 17968079933063946356
21267235 1 18338240469814837151
21623110 236 18263368155990106261
23402539 116 18410566319162361766
23402655 69 18201721773563375622
23559900 14 18341325700027887232
335352 9 18410007719541319564
34934 24 18335695014618288215
350125 39 18408603674022772468
3545911 37 18408602569419241710
3680242 22 18335416829913620042
4214541 1 18412824715549947695
474 4 18408605889666299408
5104073 3 18339077194179428906
542803 24 17561084709247609168
59755656 215 18335983078396721054
633830 44 18202282537272954908
9709674 26 18410014338397756278

> <PUBCHEM_SHAPE_MULTIPOLES>
441.01
10.64
2.03
1.22
7.18
0.55
-0.05
-1.94
-1.01
0.21
-0.15
-1.94
-0.33
-0.49

> <PUBCHEM_SHAPE_SELFOVERLAP>
961.464

> <PUBCHEM_SHAPE_VOLUME>
238.8

> <PUBCHEM_COORDINATE_TYPE>
2
5
10

> <Energy>
61.5647

> <minimizedAffinity>
-2.87134

> <CNNscore>
0.2396534085

> <CNNaffinity>
7.0845713615

> <CNN_VS>
1.6978416443

> <CNNaffinity_variance>
0.4165389240

$$$$
5991


 24 27  0  0  0  0  0  0  0  0999 V2000
   17.8432    5.5961    8.8898 O   0  0  0  0  0  0  0  0  0  0  0  0
   26.5188    2.0183    3.1911 O   0  0  0  0  0  0  0  0  0  0  0  0
   19.5848    4.9132    7.2728 C   0  0  0  0  0  0  0  0  0  0  0  0
   19.8433    5.3954    5.8267 C   0  0  0  0  0  0  0  0  0  0  0  0
   21.2600    5.0751    5.3437 C   0  0  0  0  0  0  0  0  0  0  0  0
   18.1486    5.4783    7.5056 C   0  0  0  0  0  0  0  0  0  0  0  0
   21.4631    3.5303    5.3654 C   0  0  0  0  0  0  0  0  0  0  0  0
   19.7571    3.3828    7.3023 C   0  0  0  0  0  0  0  0  0  0  0  0
   19.3887    6.8525    5.8498 C   0  0  0  0  0  0  0  0  0  0  0  0
   21.1311    2.9404    6.7608 C   0  0  0  0  0  0  0  0  0  0  0  0
   18.2211    6.8853    6.8549 C   0  0  0  0  0  0  0  0  0  0  0  0
   21.5261    5.5918    3.9277 C   0  0  0  0  0  0  0  0  0  0  0  0
   20.5584    5.5302    8.3201 C   0  0  0  0  0  0  0  0  0  0  0  0
   22.8339    3.1443    4.8109 C   0  0  0  0  0  0  0  0  0  0  0  0
   22.9918    5.3754    3.5649 C   0  0  0  0  0  0  0  0  0  0  0  0
   23.5186    4.0097    3.9293 C   0  0  0  0  0  0  0  0  0  0  0  0
   23.4032    1.8891    5.0860 C   0  0  0  0  0  0  0  0  0  0  0  0
   24.7660    3.6287    3.3988 C   0  0  0  0  0  0  0  0  0  0  0  0
   24.6407    1.5177    4.5432 C   0  0  0  0  0  0  0  0  0  0  0  0
   25.3143    2.3944    3.7070 C   0  0  0  0  0  0  0  0  0  0  0  0
   18.5313    6.1196    9.3294 H   0  0  0  0  0  0  0  0  0  0  0  0
   26.9874    2.5988    2.6241 H   0  0  0  0  0  0  0  0  0  0  0  0
   17.0846    4.6786    6.8696 C   0  0  0  0  0  0  0  0  0  0  0  0
   16.2062    4.0360    6.3564 C   0  0  0  0  0  0  0  0  0  0  0  0
  1  6  1  0
  1 21  1  0
  2 20  1  0
  2 22  1  0
  3  4  1  0
  3  6  1  0
  3  8  1  0
  3 13  1  0
  4  5  1  0
  4  9  1  0
  5  7  1  0
  5 12  1  0
  6 11  1  0
  6 23  1  0
  7 10  1  0
  7 14  1  0
  8 10  1  0
  9 11  1  0
 12 15  1  0
 14 16  2  0
 14 17  1  0
 15 16  1  0
 16 18  1  0
 23 24  3  0
 17 19  2  0
 18 20  2  0
 19 20  1  0
M  END
> <PUBCHEM_COMPOUND_CID>
5991

> <PUBCHEM_CONFORMER_RMSD>
0.6

> <PUBCHEM_CONFORMER_DIVERSEORDER>
1

> <PUBCHEM_MMFF94_PARTIAL_CHARGES>
19
1 -0.68
14 -0.14
15 0.14
16 -0.14
17 -0.2
18 -0.15
19 -0.15
2 -0.53
20 -0.15
21 0.08
22 -0.18
41 0.4
42 0.15
43 0.15
44 0.15
45 0.18
46 0.45
6 0.48
7 0.14

> <PUBCHEM_EFFECTIVE_ROTOR_COUNT>
1.4

> <PUBCHEM_PHARMACOPHORE_FEATURES>
8
1 1 acceptor
1 1 donor
1 2 donor
1 22 hydrophobe
5 3 4 6 9 11 rings
6 14 16 18 19 20 21 rings
6 3 4 5 7 8 10 rings
6 5 7 12 14 15 16 rings

> <PUBCHEM_HEAVY_ATOM_COUNT>
22

> <PUBCHEM_ATOM_DEF_STEREO_COUNT>
5

> <PUBCHEM_ATOM_UDEF_STEREO_COUNT>
0

> <PUBCHEM_BOND_DEF_STEREO_COUNT>
0

> <PUBCHEM_BOND_UDEF_STEREO_COUNT>
0

> <PUBCHEM_ISOTOPIC_ATOM_COUNT>
0

> <PUBCHEM_COMPONENT_COUNT>
1

> <PUBCHEM_CACTVS_TAUTO_COUNT>
9

> <PUBCHEM_CONFORMER_ID>
0000176700000001

> <PUBCHEM_MMFF94_ENERGY>
75.3654

> <PUBCHEM_FEATURE_SELFOVERLAP>
40.689

> <PUBCHEM_SHAPE_FINGERPRINT>
10498660 4 18334565854482978588
10616163 171 18412261769892000550
10906281 52 18268729332496851400
10967382 1 18409163299196382730
11132069 177 18260823830106114581
11315181 36 17846777438100329984
11552529 35 18058445585631877095
11578080 2 16952518088400902894
11796584 16 15123796154675551020
12107183 9 17697047933183828707
12236239 1 17917992754997443209
12403259 415 18260540148118003532
12403814 3 17531241756051219503
12633257 1 18411416168188185458
12644460 14 18260827060354363322
12788726 201 17059505002047033793
128620 24 17385724690407290772
13140716 1 18264499557760559337
13224815 77 18408318891198213202
13675066 3 17749393654488776519
14790565 3 18338806709892665688
15163728 17 15481289097577292713
15183329 4 18408605830407435614
15196674 1 18337388339818468438
15209289 33 18341332270467662817
15209294 21 18059584555192331817
15309172 13 18409451371427638915
15536298 74 18341610425830279326
15788980 27 17749105603943632888
16945 1 18265320738190372627
17349148 13 18114176445825312880
1813 80 17530976782159466655
18186145 218 18409161126111612646
19489759 90 15410896249631894657
19591789 44 18193273216009210722
200 152 17918273168974754922
21033648 29 17968079933063946356
21267235 1 18338240469814837151
21623110 236 18263368155990106261
23402539 116 18410566319162361766
23402655 69 18201721773563375622
23559900 14 18341325700027887232
335352 9 18410007719541319564
34934 24 18335695014618288215
350125 39 18408603674022772468
3545911 37 18408602569419241710
3680242 22 18335416829913620042
4214541 1 18412824715549947695
474 4 18408605889666299408
5104073 3 18339077194179428906
542803 24 17561084709247609168
59755656 215 18335983078396721054
633830 44 18202282537272954908
9709674 26 18410014338397756278

> <PUBCHEM_SHAPE_MULTIPOLES>
441.01
10.64
2.03
1.22
7.18
0.55
-0.05
-1.94
-1.01
0.21
-0.15
-1.94
-0.33
-0.49

> <PUBCHEM_SHAPE_SELFOVERLAP>
961.464

> <PUBCHEM_SHAPE_VOLUME>
238.8

> <PUBCHEM_COORDINATE_TYPE>
2
5
10

> <Energy>
61.5647

> <minimizedAffinity>
-2.70773

> <CNNscore>
0.2230176628

> <CNNaffinity>
7.1358103752

> <CNN_VS>
1.5914117098

> <CNNaffinity_variance>
0.6795503497

$$$$
5991


 24 27  0  0  0  0  0  0  0  0999 V2000
   17.4123    5.2740    8.1062 O   0  0  0  0  0  0  0  0  0  0  0  0
   25.5863    4.1377    0.8649 O   0  0  0  0  0  0  0  0  0  0  0  0
   19.4659    4.8591    6.7930 C   0  0  0  0  0  0  0  0  0  0  0  0
   20.6315    3.8770    7.0531 C   0  0  0  0  0  0  0  0  0  0  0  0
   21.4601    3.6005    5.7962 C   0  0  0  0  0  0  0  0  0  0  0  0
   18.7640    4.8388    8.1869 C   0  0  0  0  0  0  0  0  0  0  0  0
   22.0794    4.9399    5.2958 C   0  0  0  0  0  0  0  0  0  0  0  0
   20.0669    6.1969    6.3220 C   0  0  0  0  0  0  0  0  0  0  0  0
   19.9580    2.7034    7.7599 C   0  0  0  0  0  0  0  0  0  0  0  0
   20.9876    6.0234    5.0977 C   0  0  0  0  0  0  0  0  0  0  0  0
   18.8176    3.3383    8.5791 C   0  0  0  0  0  0  0  0  0  0  0  0
   22.5865    2.5951    6.0476 C   0  0  0  0  0  0  0  0  0  0  0  0
   18.4664    4.3675    5.7045 C   0  0  0  0  0  0  0  0  0  0  0  0
   22.9894    4.7123    4.0892 C   0  0  0  0  0  0  0  0  0  0  0  0
   23.2756    2.2504    4.7312 C   0  0  0  0  0  0  0  0  0  0  0  0
   23.5778    3.4479    3.8652 C   0  0  0  0  0  0  0  0  0  0  0  0
   23.3372    5.7689    3.2302 C   0  0  0  0  0  0  0  0  0  0  0  0
   24.4408    3.2591    2.7687 C   0  0  0  0  0  0  0  0  0  0  0  0
   24.2056    5.5704    2.1484 C   0  0  0  0  0  0  0  0  0  0  0  0
   24.7466    4.3139    1.9243 C   0  0  0  0  0  0  0  0  0  0  0  0
   16.9430    4.7494    7.4388 H   0  0  0  0  0  0  0  0  0  0  0  0
   25.9608    3.2949    0.6990 H   0  0  0  0  0  0  0  0  0  0  0  0
   19.4465    5.6556    9.2082 C   0  0  0  0  0  0  0  0  0  0  0  0
   20.0151    6.3120   10.0412 C   0  0  0  0  0  0  0  0  0  0  0  0
  1  6  1  0
  1 21  1  0
  2 20  1  0
  2 22  1  0
  3  4  1  0
  3  6  1  0
  3  8  1  0
  3 13  1  0
  4  5  1  0
  4  9  1  0
  5  7  1  0
  5 12  1  0
  6 11  1  0
  6 23  1  0
  7 10  1  0
  7 14  1  0
  8 10  1  0
  9 11  1  0
 12 15  1  0
 14 16  2  0
 14 17  1  0
 15 16  1  0
 16 18  1  0
 23 24  3  0
 17 19  2  0
 18 20  2  0
 19 20  1  0
M  END
> <PUBCHEM_COMPOUND_CID>
5991

> <PUBCHEM_CONFORMER_RMSD>
0.6

> <PUBCHEM_CONFORMER_DIVERSEORDER>
1

> <PUBCHEM_MMFF94_PARTIAL_CHARGES>
19
1 -0.68
14 -0.14
15 0.14
16 -0.14
17 -0.2
18 -0.15
19 -0.15
2 -0.53
20 -0.15
21 0.08
22 -0.18
41 0.4
42 0.15
43 0.15
44 0.15
45 0.18
46 0.45
6 0.48
7 0.14

> <PUBCHEM_EFFECTIVE_ROTOR_COUNT>
1.4

> <PUBCHEM_PHARMACOPHORE_FEATURES>
8
1 1 acceptor
1 1 donor
1 2 donor
1 22 hydrophobe
5 3 4 6 9 11 rings
6 14 16 18 19 20 21 rings
6 3 4 5 7 8 10 rings
6 5 7 12 14 15 16 rings

> <PUBCHEM_HEAVY_ATOM_COUNT>
22

> <PUBCHEM_ATOM_DEF_STEREO_COUNT>
5

> <PUBCHEM_ATOM_UDEF_STEREO_COUNT>
0

> <PUBCHEM_BOND_DEF_STEREO_COUNT>
0

> <PUBCHEM_BOND_UDEF_STEREO_COUNT>
0

> <PUBCHEM_ISOTOPIC_ATOM_COUNT>
0

> <PUBCHEM_COMPONENT_COUNT>
1

> <PUBCHEM_CACTVS_TAUTO_COUNT>
9

> <PUBCHEM_CONFORMER_ID>
0000176700000001

> <PUBCHEM_MMFF94_ENERGY>
75.3654

> <PUBCHEM_FEATURE_SELFOVERLAP>
40.689

> <PUBCHEM_SHAPE_FINGERPRINT>
10498660 4 18334565854482978588
10616163 171 18412261769892000550
10906281 52 18268729332496851400
10967382 1 18409163299196382730
11132069 177 18260823830106114581
11315181 36 17846777438100329984
11552529 35 18058445585631877095
11578080 2 16952518088400902894
11796584 16 15123796154675551020
12107183 9 17697047933183828707
12236239 1 17917992754997443209
12403259 415 18260540148118003532
12403814 3 17531241756051219503
12633257 1 18411416168188185458
12644460 14 18260827060354363322
12788726 201 17059505002047033793
128620 24 17385724690407290772
13140716 1 18264499557760559337
13224815 77 18408318891198213202
13675066 3 17749393654488776519
14790565 3 18338806709892665688
15163728 17 15481289097577292713
15183329 4 18408605830407435614
15196674 1 18337388339818468438
15209289 33 18341332270467662817
15209294 21 18059584555192331817
15309172 13 18409451371427638915
15536298 74 18341610425830279326
15788980 27 17749105603943632888
16945 1 18265320738190372627
17349148 13 18114176445825312880
1813 80 17530976782159466655
18186145 218 18409161126111612646
19489759 90 15410896249631894657
19591789 44 18193273216009210722
200 152 17918273168974754922
21033648 29 17968079933063946356
21267235 1 18338240469814837151
21623110 236 18263368155990106261
23402539 116 18410566319162361766
23402655 69 18201721773563375622
23559900 14 18341325700027887232
335352 9 18410007719541319564
34934 24 18335695014618288215
350125 39 18408603674022772468
3545911 37 18408602569419241710
3680242 22 18335416829913620042
4214541 1 18412824715549947695
474 4 18408605889666299408
5104073 3 18339077194179428906
542803 24 17561084709247609168
59755656 215 18335983078396721054
633830 44 18202282537272954908
9709674 26 18410014338397756278

> <PUBCHEM_SHAPE_MULTIPOLES>
441.01
10.64
2.03
1.22
7.18
0.55
-0.05
-1.94
-1.01
0.21
-0.15
-1.94
-0.33
-0.49

> <PUBCHEM_SHAPE_SELFOVERLAP>
961.464

> <PUBCHEM_SHAPE_VOLUME>
238.8

> <PUBCHEM_COORDINATE_TYPE>
2
5
10

> <Energy>
61.5647

> <minimizedAffinity>
1.84111

> <CNNscore>
0.1642399579

> <CNNaffinity>
6.6218056679

> <CNN_VS>
1.0875650644

> <CNNaffinity_variance>
0.2771885097

$$$$
5991


 24 27  0  0  0  0  0  0  0  0999 V2000
   24.9525    1.0399    7.6124 O   0  0  0  0  0  0  0  0  0  0  0  0
   23.2271    7.6947   -0.9479 O   0  0  0  0  0  0  0  0  0  0  0  0
   24.1621    2.4866    5.7695 C   0  0  0  0  0  0  0  0  0  0  0  0
   22.8177    3.2301    5.5952 C   0  0  0  0  0  0  0  0  0  0  0  0
   22.8990    4.3605    4.5664 C   0  0  0  0  0  0  0  0  0  0  0  0
   23.7960    1.5112    6.9317 C   0  0  0  0  0  0  0  0  0  0  0  0
   23.2826    3.7561    3.1823 C   0  0  0  0  0  0  0  0  0  0  0  0
   24.5399    1.8619    4.4131 C   0  0  0  0  0  0  0  0  0  0  0  0
   22.4097    3.5696    7.0265 C   0  0  0  0  0  0  0  0  0  0  0  0
   24.5766    2.9068    3.2802 C   0  0  0  0  0  0  0  0  0  0  0  0
   22.9481    2.4030    7.8773 C   0  0  0  0  0  0  0  0  0  0  0  0
   21.5783    5.1217    4.4280 C   0  0  0  0  0  0  0  0  0  0  0  0
   25.3325    3.4101    6.2199 C   0  0  0  0  0  0  0  0  0  0  0  0
   23.2953    4.8291    2.0941 C   0  0  0  0  0  0  0  0  0  0  0  0
   21.7670    6.3216    3.5054 C   0  0  0  0  0  0  0  0  0  0  0  0
   22.5395    6.0125    2.2472 C   0  0  0  0  0  0  0  0  0  0  0  0
   23.9781    4.6285    0.8822 C   0  0  0  0  0  0  0  0  0  0  0  0
   22.5329    6.9791    1.2234 C   0  0  0  0  0  0  0  0  0  0  0  0
   23.9550    5.5940   -0.1334 C   0  0  0  0  0  0  0  0  0  0  0  0
   23.2353    6.7646    0.0488 C   0  0  0  0  0  0  0  0  0  0  0  0
   25.4850    1.7955    7.9065 H   0  0  0  0  0  0  0  0  0  0  0  0
   22.7458    8.4915   -0.8412 H   0  0  0  0  0  0  0  0  0  0  0  0
   23.0112    0.3393    6.4995 C   0  0  0  0  0  0  0  0  0  0  0  0
   22.3610   -0.6073    6.1401 C   0  0  0  0  0  0  0  0  0  0  0  0
  1  6  1  0
  1 21  1  0
  2 20  1  0
  2 22  1  0
  3  4  1  0
  3  6  1  0
  3  8  1  0
  3 13  1  0
  4  5  1  0
  4  9  1  0
  5  7  1  0
  5 12  1  0
  6 11  1  0
  6 23  1  0
  7 10  1  0
  7 14  1  0
  8 10  1  0
  9 11  1  0
 12 15  1  0
 14 16  2  0
 14 17  1  0
 15 16  1  0
 16 18  1  0
 23 24  3  0
 17 19  2  0
 18 20  2  0
 19 20  1  0
M  END
> <PUBCHEM_COMPOUND_CID>
5991

> <PUBCHEM_CONFORMER_RMSD>
0.6

> <PUBCHEM_CONFORMER_DIVERSEORDER>
1

> <PUBCHEM_MMFF94_PARTIAL_CHARGES>
19
1 -0.68
14 -0.14
15 0.14
16 -0.14
17 -0.2
18 -0.15
19 -0.15
2 -0.53
20 -0.15
21 0.08
22 -0.18
41 0.4
42 0.15
43 0.15
44 0.15
45 0.18
46 0.45
6 0.48
7 0.14

> <PUBCHEM_EFFECTIVE_ROTOR_COUNT>
1.4

> <PUBCHEM_PHARMACOPHORE_FEATURES>
8
1 1 acceptor
1 1 donor
1 2 donor
1 22 hydrophobe
5 3 4 6 9 11 rings
6 14 16 18 19 20 21 rings
6 3 4 5 7 8 10 rings
6 5 7 12 14 15 16 rings

> <PUBCHEM_HEAVY_ATOM_COUNT>
22

> <PUBCHEM_ATOM_DEF_STEREO_COUNT>
5

> <PUBCHEM_ATOM_UDEF_STEREO_COUNT>
0

> <PUBCHEM_BOND_DEF_STEREO_COUNT>
0

> <PUBCHEM_BOND_UDEF_STEREO_COUNT>
0

> <PUBCHEM_ISOTOPIC_ATOM_COUNT>
0

> <PUBCHEM_COMPONENT_COUNT>
1

> <PUBCHEM_CACTVS_TAUTO_COUNT>
9

> <PUBCHEM_CONFORMER_ID>
0000176700000001

> <PUBCHEM_MMFF94_ENERGY>
75.3654

> <PUBCHEM_FEATURE_SELFOVERLAP>
40.689

> <PUBCHEM_SHAPE_FINGERPRINT>
10498660 4 18334565854482978588
10616163 171 18412261769892000550
10906281 52 18268729332496851400
10967382 1 18409163299196382730
11132069 177 18260823830106114581
11315181 36 17846777438100329984
11552529 35 18058445585631877095
11578080 2 16952518088400902894
11796584 16 15123796154675551020
12107183 9 17697047933183828707
12236239 1 17917992754997443209
12403259 415 18260540148118003532
12403814 3 17531241756051219503
12633257 1 18411416168188185458
12644460 14 18260827060354363322
12788726 201 17059505002047033793
128620 24 17385724690407290772
13140716 1 18264499557760559337
13224815 77 18408318891198213202
13675066 3 17749393654488776519
14790565 3 18338806709892665688
15163728 17 15481289097577292713
15183329 4 18408605830407435614
15196674 1 18337388339818468438
15209289 33 18341332270467662817
15209294 21 18059584555192331817
15309172 13 18409451371427638915
15536298 74 18341610425830279326
15788980 27 17749105603943632888
16945 1 18265320738190372627
17349148 13 18114176445825312880
1813 80 17530976782159466655
18186145 218 18409161126111612646
19489759 90 15410896249631894657
19591789 44 18193273216009210722
200 152 17918273168974754922
21033648 29 17968079933063946356
21267235 1 18338240469814837151
21623110 236 18263368155990106261
23402539 116 18410566319162361766
23402655 69 18201721773563375622
23559900 14 18341325700027887232
335352 9 18410007719541319564
34934 24 18335695014618288215
350125 39 18408603674022772468
3545911 37 18408602569419241710
3680242 22 18335416829913620042
4214541 1 18412824715549947695
474 4 18408605889666299408
5104073 3 18339077194179428906
542803 24 17561084709247609168
59755656 215 18335983078396721054
633830 44 18202282537272954908
9709674 26 18410014338397756278

> <PUBCHEM_SHAPE_MULTIPOLES>
441.01
10.64
2.03
1.22
7.18
0.55
-0.05
-1.94
-1.01
0.21
-0.15
-1.94
-0.33
-0.49

> <PUBCHEM_SHAPE_SELFOVERLAP>
961.464

> <PUBCHEM_SHAPE_VOLUME>
238.8

> <PUBCHEM_COORDINATE_TYPE>
2
5
10

> <Energy>
61.5647

> <minimizedAffinity>
7.93936

> <CNNscore>
0.1419892162

> <CNNaffinity>
5.0142674446

> <CNN_VS>
0.7119718790

> <CNNaffinity_variance>
1.0657988787

$$$$
5991


 24 27  0  0  0  0  0  0  0  0999 V2000
   24.9232    1.3325    4.4685 O   0  0  0  0  0  0  0  0  0  0  0  0
   15.8052    6.8115    7.1858 O   0  0  0  0  0  0  0  0  0  0  0  0
   22.9691    2.4691    5.4704 C   0  0  0  0  0  0  0  0  0  0  0  0
   22.7569    3.0026    6.9060 C   0  0  0  0  0  0  0  0  0  0  0  0
   21.6221    4.0262    6.9920 C   0  0  0  0  0  0  0  0  0  0  0  0
   24.2287    1.5730    5.6863 C   0  0  0  0  0  0  0  0  0  0  0  0
   20.2938    3.3452    6.5445 C   0  0  0  0  0  0  0  0  0  0  0  0
   21.6705    1.7701    5.0256 C   0  0  0  0  0  0  0  0  0  0  0  0
   24.1583    3.4237    7.3408 C   0  0  0  0  0  0  0  0  0  0  0  0
   20.4415    2.6930    5.1452 C   0  0  0  0  0  0  0  0  0  0  0  0
   25.1043    2.4309    6.6379 C   0  0  0  0  0  0  0  0  0  0  0  0
   21.4432    4.5839    8.4061 C   0  0  0  0  0  0  0  0  0  0  0  0
   23.2994    3.5826    4.4329 C   0  0  0  0  0  0  0  0  0  0  0  0
   19.1071    4.2970    6.6913 C   0  0  0  0  0  0  0  0  0  0  0  0
   20.4048    5.7011    8.3941 C   0  0  0  0  0  0  0  0  0  0  0  0
   19.1637    5.3764    7.6005 C   0  0  0  0  0  0  0  0  0  0  0  0
   17.9038    4.0717    6.0009 C   0  0  0  0  0  0  0  0  0  0  0  0
   18.0519    6.2270    7.7511 C   0  0  0  0  0  0  0  0  0  0  0  0
   16.8006    4.9198    6.1675 C   0  0  0  0  0  0  0  0  0  0  0  0
   16.8865    5.9944    7.0390 C   0  0  0  0  0  0  0  0  0  0  0  0
   25.1298    2.1785    4.0415 H   0  0  0  0  0  0  0  0  0  0  0  0
   15.8462    7.5424    7.7706 H   0  0  0  0  0  0  0  0  0  0  0  0
   23.9311    0.2686    6.3076 C   0  0  0  0  0  0  0  0  0  0  0  0
   23.6987   -0.7925    6.8253 C   0  0  0  0  0  0  0  0  0  0  0  0
  1  6  1  0
  1 21  1  0
  2 20  1  0
  2 22  1  0
  3  4  1  0
  3  6  1  0
  3  8  1  0
  3 13  1  0
  4  5  1  0
  4  9  1  0
  5  7  1  0
  5 12  1  0
  6 11  1  0
  6 23  1  0
  7 10  1  0
  7 14  1  0
  8 10  1  0
  9 11  1  0
 12 15  1  0
 14 16  2  0
 14 17  1  0
 15 16  1  0
 16 18  1  0
 23 24  3  0
 17 19  2  0
 18 20  2  0
 19 20  1  0
M  END
> <PUBCHEM_COMPOUND_CID>
5991

> <PUBCHEM_CONFORMER_RMSD>
0.6

> <PUBCHEM_CONFORMER_DIVERSEORDER>
1

> <PUBCHEM_MMFF94_PARTIAL_CHARGES>
19
1 -0.68
14 -0.14
15 0.14
16 -0.14
17 -0.2
18 -0.15
19 -0.15
2 -0.53
20 -0.15
21 0.08
22 -0.18
41 0.4
42 0.15
43 0.15
44 0.15
45 0.18
46 0.45
6 0.48
7 0.14

> <PUBCHEM_EFFECTIVE_ROTOR_COUNT>
1.4

> <PUBCHEM_PHARMACOPHORE_FEATURES>
8
1 1 acceptor
1 1 donor
1 2 donor
1 22 hydrophobe
5 3 4 6 9 11 rings
6 14 16 18 19 20 21 rings
6 3 4 5 7 8 10 rings
6 5 7 12 14 15 16 rings

> <PUBCHEM_HEAVY_ATOM_COUNT>
22

> <PUBCHEM_ATOM_DEF_STEREO_COUNT>
5

> <PUBCHEM_ATOM_UDEF_STEREO_COUNT>
0

> <PUBCHEM_BOND_DEF_STEREO_COUNT>
0

> <PUBCHEM_BOND_UDEF_STEREO_COUNT>
0

> <PUBCHEM_ISOTOPIC_ATOM_COUNT>
0

> <PUBCHEM_COMPONENT_COUNT>
1

> <PUBCHEM_CACTVS_TAUTO_COUNT>
9

> <PUBCHEM_CONFORMER_ID>
0000176700000001

> <PUBCHEM_MMFF94_ENERGY>
75.3654

> <PUBCHEM_FEATURE_SELFOVERLAP>
40.689

> <PUBCHEM_SHAPE_FINGERPRINT>
10498660 4 18334565854482978588
10616163 171 18412261769892000550
10906281 52 18268729332496851400
10967382 1 18409163299196382730
11132069 177 18260823830106114581
11315181 36 17846777438100329984
11552529 35 18058445585631877095
11578080 2 16952518088400902894
11796584 16 15123796154675551020
12107183 9 17697047933183828707
12236239 1 17917992754997443209
12403259 415 18260540148118003532
12403814 3 17531241756051219503
12633257 1 18411416168188185458
12644460 14 18260827060354363322
12788726 201 17059505002047033793
128620 24 17385724690407290772
13140716 1 18264499557760559337
13224815 77 18408318891198213202
13675066 3 17749393654488776519
14790565 3 18338806709892665688
15163728 17 15481289097577292713
15183329 4 18408605830407435614
15196674 1 18337388339818468438
15209289 33 18341332270467662817
15209294 21 18059584555192331817
15309172 13 18409451371427638915
15536298 74 18341610425830279326
15788980 27 17749105603943632888
16945 1 18265320738190372627
17349148 13 18114176445825312880
1813 80 17530976782159466655
18186145 218 18409161126111612646
19489759 90 15410896249631894657
19591789 44 18193273216009210722
200 152 17918273168974754922
21033648 29 17968079933063946356
21267235 1 18338240469814837151
21623110 236 18263368155990106261
23402539 116 18410566319162361766
23402655 69 18201721773563375622
23559900 14 18341325700027887232
335352 9 18410007719541319564
34934 24 18335695014618288215
350125 39 18408603674022772468
3545911 37 18408602569419241710
3680242 22 18335416829913620042
4214541 1 18412824715549947695
474 4 18408605889666299408
5104073 3 18339077194179428906
542803 24 17561084709247609168
59755656 215 18335983078396721054
633830 44 18202282537272954908
9709674 26 18410014338397756278

> <PUBCHEM_SHAPE_MULTIPOLES>
441.01
10.64
2.03
1.22
7.18
0.55
-0.05
-1.94
-1.01
0.21
-0.15
-1.94
-0.33
-0.49

> <PUBCHEM_SHAPE_SELFOVERLAP>
961.464

> <PUBCHEM_SHAPE_VOLUME>
238.8

> <PUBCHEM_COORDINATE_TYPE>
2
5
10

> <Energy>
61.5647

> <minimizedAffinity>
0.47428

> <CNNscore>
0.1328013241

> <CNNaffinity>
6.4976844788

> <CNN_VS>
0.8629010916

> <CNNaffinity_variance>
0.4281115830

$$$$
5991


 24 27  0  0  0  0  0  0  0  0999 V2000
   24.5414    1.7793    2.8792 O   0  0  0  0  0  0  0  0  0  0  0  0
   25.9682    9.7730   10.2688 O   0  0  0  0  0  0  0  0  0  0  0  0
   24.8002    3.8372    4.2254 C   0  0  0  0  0  0  0  0  0  0  0  0
   24.2901    5.2719    3.9572 C   0  0  0  0  0  0  0  0  0  0  0  0
   24.2608    6.1326    5.2226 C   0  0  0  0  0  0  0  0  0  0  0  0
   24.6005    3.1990    2.8151 C   0  0  0  0  0  0  0  0  0  0  0  0
   25.7085    6.2484    5.7873 C   0  0  0  0  0  0  0  0  0  0  0  0
   26.2414    3.9366    4.7601 C   0  0  0  0  0  0  0  0  0  0  0  0
   22.9884    5.0503    3.1913 C   0  0  0  0  0  0  0  0  0  0  0  0
   26.3418    4.8486    5.9990 C   0  0  0  0  0  0  0  0  0  0  0  0
   23.2279    3.7693    2.3689 C   0  0  0  0  0  0  0  0  0  0  0  0
   23.7149    7.5385    4.9614 C   0  0  0  0  0  0  0  0  0  0  0  0
   23.9489    3.0570    5.2704 C   0  0  0  0  0  0  0  0  0  0  0  0
   25.7552    7.1691    7.0062 C   0  0  0  0  0  0  0  0  0  0  0  0
   23.5712    8.2910    6.2804 C   0  0  0  0  0  0  0  0  0  0  0  0
   24.7612    8.1542    7.1973 C   0  0  0  0  0  0  0  0  0  0  0  0
   26.8289    7.1237    7.9121 C   0  0  0  0  0  0  0  0  0  0  0  0
   24.8329    9.0185    8.3066 C   0  0  0  0  0  0  0  0  0  0  0  0
   26.8939    7.9966    9.0064 C   0  0  0  0  0  0  0  0  0  0  0  0
   25.8910    8.9345    9.1967 C   0  0  0  0  0  0  0  0  0  0  0  0
   23.8592    1.5124    3.5151 H   0  0  0  0  0  0  0  0  0  0  0  0
   25.2988   10.4128   10.4123 H   0  0  0  0  0  0  0  0  0  0  0  0
   25.6452    3.5691    1.8416 C   0  0  0  0  0  0  0  0  0  0  0  0
   26.4927    3.8596    1.0383 C   0  0  0  0  0  0  0  0  0  0  0  0
  1  6  1  0
  1 21  1  0
  2 20  1  0
  2 22  1  0
  3  4  1  0
  3  6  1  0
  3  8  1  0
  3 13  1  0
  4  5  1  0
  4  9  1  0
  5  7  1  0
  5 12  1  0
  6 11  1  0
  6 23  1  0
  7 10  1  0
  7 14  1  0
  8 10  1  0
  9 11  1  0
 12 15  1  0
 14 16  2  0
 14 17  1  0
 15 16  1  0
 16 18  1  0
 23 24  3  0
 17 19  2  0
 18 20  2  0
 19 20  1  0
M  END
> <PUBCHEM_COMPOUND_CID>
5991

> <PUBCHEM_CONFORMER_RMSD>
0.6

> <PUBCHEM_CONFORMER_DIVERSEORDER>
1

> <PUBCHEM_MMFF94_PARTIAL_CHARGES>
19
1 -0.68
14 -0.14
15 0.14
16 -0.14
17 -0.2
18 -0.15
19 -0.15
2 -0.53
20 -0.15
21 0.08
22 -0.18
41 0.4
42 0.15
43 0.15
44 0.15
45 0.18
46 0.45
6 0.48
7 0.14

> <PUBCHEM_EFFECTIVE_ROTOR_COUNT>
1.4

> <PUBCHEM_PHARMACOPHORE_FEATURES>
8
1 1 acceptor
1 1 donor
1 2 donor
1 22 hydrophobe
5 3 4 6 9 11 rings
6 14 16 18 19 20 21 rings
6 3 4 5 7 8 10 rings
6 5 7 12 14 15 16 rings

> <PUBCHEM_HEAVY_ATOM_COUNT>
22

> <PUBCHEM_ATOM_DEF_STEREO_COUNT>
5

> <PUBCHEM_ATOM_UDEF_STEREO_COUNT>
0

> <PUBCHEM_BOND_DEF_STEREO_COUNT>
0

> <PUBCHEM_BOND_UDEF_STEREO_COUNT>
0

> <PUBCHEM_ISOTOPIC_ATOM_COUNT>
0

> <PUBCHEM_COMPONENT_COUNT>
1

> <PUBCHEM_CACTVS_TAUTO_COUNT>
9

> <PUBCHEM_CONFORMER_ID>
0000176700000001

> <PUBCHEM_MMFF94_ENERGY>
75.3654

> <PUBCHEM_FEATURE_SELFOVERLAP>
40.689

> <PUBCHEM_SHAPE_FINGERPRINT>
10498660 4 18334565854482978588
10616163 171 18412261769892000550
10906281 52 18268729332496851400
10967382 1 18409163299196382730
11132069 177 18260823830106114581
11315181 36 17846777438100329984
11552529 35 18058445585631877095
11578080 2 16952518088400902894
11796584 16 15123796154675551020
12107183 9 17697047933183828707
12236239 1 17917992754997443209
12403259 415 18260540148118003532
12403814 3 17531241756051219503
12633257 1 18411416168188185458
12644460 14 18260827060354363322
12788726 201 17059505002047033793
128620 24 17385724690407290772
13140716 1 18264499557760559337
13224815 77 18408318891198213202
13675066 3 17749393654488776519
14790565 3 18338806709892665688
15163728 17 15481289097577292713
15183329 4 18408605830407435614
15196674 1 18337388339818468438
15209289 33 18341332270467662817
15209294 21 18059584555192331817
15309172 13 18409451371427638915
15536298 74 18341610425830279326
15788980 27 17749105603943632888
16945 1 18265320738190372627
17349148 13 18114176445825312880
1813 80 17530976782159466655
18186145 218 18409161126111612646
19489759 90 15410896249631894657
19591789 44 18193273216009210722
200 152 17918273168974754922
21033648 29 17968079933063946356
21267235 1 18338240469814837151
21623110 236 18263368155990106261
23402539 116 18410566319162361766
23402655 69 18201721773563375622
23559900 14 18341325700027887232
335352 9 18410007719541319564
34934 24 18335695014618288215
350125 39 18408603674022772468
3545911 37 18408602569419241710
3680242 22 18335416829913620042
4214541 1 18412824715549947695
474 4 18408605889666299408
5104073 3 18339077194179428906
542803 24 17561084709247609168
59755656 215 18335983078396721054
633830 44 18202282537272954908
9709674 26 18410014338397756278

> <PUBCHEM_SHAPE_MULTIPOLES>
441.01
10.64
2.03
1.22
7.18
0.55
-0.05
-1.94
-1.01
0.21
-0.15
-1.94
-0.33
-0.49

> <PUBCHEM_SHAPE_SELFOVERLAP>
961.464

> <PUBCHEM_SHAPE_VOLUME>
238.8

> <PUBCHEM_COORDINATE_TYPE>
2
5
10

> <Energy>
61.5647

> <minimizedAffinity>
32.58234

> <CNNscore>
0.1317970157

> <CNNaffinity>
5.3127841949

> <CNN_VS>
0.7002090812

> <CNNaffinity_variance>
0.6108523607

$$$$
