5991


 24 27  0  0  0  0  0  0  0  0999 V2000
  -10.4629   -4.0001   21.8963 O   0  0  0  0  0  0  0  0  0  0  0  0
    0.3173   -1.9997   21.3241 O   0  0  0  0  0  0  0  0  0  0  0  0
   -8.0116   -3.9190   21.5819 C   0  0  0  0  0  0  0  0  0  0  0  0
   -7.1122   -4.6748   20.5766 C   0  0  0  0  0  0  0  0  0  0  0  0
   -5.7422   -4.0152   20.4009 C   0  0  0  0  0  0  0  0  0  0  0  0
   -9.3327   -4.7396   21.4500 C   0  0  0  0  0  0  0  0  0  0  0  0
   -5.0060   -4.0081   21.7743 C   0  0  0  0  0  0  0  0  0  0  0  0
   -7.3064   -3.9273   22.9513 C   0  0  0  0  0  0  0  0  0  0  0  0
   -8.0080   -4.8415   19.3519 C   0  0  0  0  0  0  0  0  0  0  0  0
   -5.8786   -3.3508   22.8751 C   0  0  0  0  0  0  0  0  0  0  0  0
   -9.4316   -4.9925   19.9221 C   0  0  0  0  0  0  0  0  0  0  0  0
   -4.8708   -4.7415   19.3733 C   0  0  0  0  0  0  0  0  0  0  0  0
   -8.2825   -2.4373   21.1858 C   0  0  0  0  0  0  0  0  0  0  0  0
   -3.5945   -3.4372   21.6428 C   0  0  0  0  0  0  0  0  0  0  0  0
   -3.5864   -3.9538   19.1351 C   0  0  0  0  0  0  0  0  0  0  0  0
   -2.9263   -3.4604   20.3986 C   0  0  0  0  0  0  0  0  0  0  0  0
   -2.8936   -2.9632   22.7650 C   0  0  0  0  0  0  0  0  0  0  0  0
   -1.6135   -2.9616   20.2968 C   0  0  0  0  0  0  0  0  0  0  0  0
   -1.5833   -2.4790   22.6523 C   0  0  0  0  0  0  0  0  0  0  0  0
   -0.9559   -2.4781   21.4162 C   0  0  0  0  0  0  0  0  0  0  0  0
  -10.4977   -3.1501   21.4304 H   0  0  0  0  0  0  0  0  0  0  0  0
    0.7561   -1.9919   20.4962 H   0  0  0  0  0  0  0  0  0  0  0  0
   -9.3107   -6.0230   22.1770 C   0  0  0  0  0  0  0  0  0  0  0  0
   -9.2925   -7.0773   22.7566 C   0  0  0  0  0  0  0  0  0  0  0  0
  1  6  1  0
  1 21  1  0
  2 20  1  0
  2 22  1  0
  3  4  1  0
  3  6  1  0
  3  8  1  0
  3 13  1  0
  4  5  1  0
  4  9  1  0
  5  7  1  0
  5 12  1  0
  6 11  1  0
  6 23  1  0
  7 10  1  0
  7 14  1  0
  8 10  1  0
  9 11  1  0
 12 15  1  0
 14 16  2  0
 14 17  1  0
 15 16  1  0
 16 18  1  0
 23 24  3  0
 17 19  2  0
 18 20  2  0
 19 20  1  0
M  END
> <PUBCHEM_COMPOUND_CID>
5991

> <PUBCHEM_CONFORMER_RMSD>
0.6

> <PUBCHEM_CONFORMER_DIVERSEORDER>
1

> <PUBCHEM_MMFF94_PARTIAL_CHARGES>
19
1 -0.68
14 -0.14
15 0.14
16 -0.14
17 -0.2
18 -0.15
19 -0.15
2 -0.53
20 -0.15
21 0.08
22 -0.18
41 0.4
42 0.15
43 0.15
44 0.15
45 0.18
46 0.45
6 0.48
7 0.14

> <PUBCHEM_EFFECTIVE_ROTOR_COUNT>
1.4

> <PUBCHEM_PHARMACOPHORE_FEATURES>
8
1 1 acceptor
1 1 donor
1 2 donor
1 22 hydrophobe
5 3 4 6 9 11 rings
6 14 16 18 19 20 21 rings
6 3 4 5 7 8 10 rings
6 5 7 12 14 15 16 rings

> <PUBCHEM_HEAVY_ATOM_COUNT>
22

> <PUBCHEM_ATOM_DEF_STEREO_COUNT>
5

> <PUBCHEM_ATOM_UDEF_STEREO_COUNT>
0

> <PUBCHEM_BOND_DEF_STEREO_COUNT>
0

> <PUBCHEM_BOND_UDEF_STEREO_COUNT>
0

> <PUBCHEM_ISOTOPIC_ATOM_COUNT>
0

> <PUBCHEM_COMPONENT_COUNT>
1

> <PUBCHEM_CACTVS_TAUTO_COUNT>
9

> <PUBCHEM_CONFORMER_ID>
0000176700000001

> <PUBCHEM_MMFF94_ENERGY>
75.3654

> <PUBCHEM_FEATURE_SELFOVERLAP>
40.689

> <PUBCHEM_SHAPE_FINGERPRINT>
10498660 4 18334565854482978588
10616163 171 18412261769892000550
10906281 52 18268729332496851400
10967382 1 18409163299196382730
11132069 177 18260823830106114581
11315181 36 17846777438100329984
11552529 35 18058445585631877095
11578080 2 16952518088400902894
11796584 16 15123796154675551020
12107183 9 17697047933183828707
12236239 1 17917992754997443209
12403259 415 18260540148118003532
12403814 3 17531241756051219503
12633257 1 18411416168188185458
12644460 14 18260827060354363322
12788726 201 17059505002047033793
128620 24 17385724690407290772
13140716 1 18264499557760559337
13224815 77 18408318891198213202
13675066 3 17749393654488776519
14790565 3 18338806709892665688
15163728 17 15481289097577292713
15183329 4 18408605830407435614
15196674 1 18337388339818468438
15209289 33 18341332270467662817
15209294 21 18059584555192331817
15309172 13 18409451371427638915
15536298 74 18341610425830279326
15788980 27 17749105603943632888
16945 1 18265320738190372627
17349148 13 18114176445825312880
1813 80 17530976782159466655
18186145 218 18409161126111612646
19489759 90 15410896249631894657
19591789 44 18193273216009210722
200 152 17918273168974754922
21033648 29 17968079933063946356
21267235 1 18338240469814837151
21623110 236 18263368155990106261
23402539 116 18410566319162361766
23402655 69 18201721773563375622
23559900 14 18341325700027887232
335352 9 18410007719541319564
34934 24 18335695014618288215
350125 39 18408603674022772468
3545911 37 18408602569419241710
3680242 22 18335416829913620042
4214541 1 18412824715549947695
474 4 18408605889666299408
5104073 3 18339077194179428906
542803 24 17561084709247609168
59755656 215 18335983078396721054
633830 44 18202282537272954908
9709674 26 18410014338397756278

> <PUBCHEM_SHAPE_MULTIPOLES>
441.01
10.64
2.03
1.22
7.18
0.55
-0.05
-1.94
-1.01
0.21
-0.15
-1.94
-0.33
-0.49

> <PUBCHEM_SHAPE_SELFOVERLAP>
961.464

> <PUBCHEM_SHAPE_VOLUME>
238.8

> <PUBCHEM_COORDINATE_TYPE>
2
5
10

> <Energy>
61.5647

> <minimizedAffinity>
12.76341

> <CNNscore>
0.7002263069

> <CNNaffinity>
7.5594849586

> <CNN_VS>
5.2933502197

> <CNNaffinity_variance>
1.3124059439

$$$$
5991


 24 27  0  0  0  0  0  0  0  0999 V2000
   -7.8963   -5.7589   24.5012 O   0  0  0  0  0  0  0  0  0  0  0  0
    0.0409   -1.7229   18.0783 O   0  0  0  0  0  0  0  0  0  0  0  0
   -6.0654   -4.5616   23.3487 C   0  0  0  0  0  0  0  0  0  0  0  0
   -4.9821   -3.6163   23.9175 C   0  0  0  0  0  0  0  0  0  0  0  0
   -3.7868   -3.4558   22.9750 C   0  0  0  0  0  0  0  0  0  0  0  0
   -7.0559   -4.6125   24.5538 C   0  0  0  0  0  0  0  0  0  0  0  0
   -4.2833   -2.8437   21.6308 C   0  0  0  0  0  0  0  0  0  0  0  0
   -6.5833   -3.9539   22.0314 C   0  0  0  0  0  0  0  0  0  0  0  0
   -4.7390   -4.1579   25.3239 C   0  0  0  0  0  0  0  0  0  0  0  0
   -5.4446   -3.6775   21.0296 C   0  0  0  0  0  0  0  0  0  0  0  0
   -6.1065   -4.7043   25.7779 C   0  0  0  0  0  0  0  0  0  0  0  0
   -2.6975   -2.5536   23.5601 C   0  0  0  0  0  0  0  0  0  0  0  0
   -5.5447   -5.9981   23.0473 C   0  0  0  0  0  0  0  0  0  0  0  0
   -3.1173   -2.5802   20.6785 C   0  0  0  0  0  0  0  0  0  0  0  0
   -1.4775   -2.5553   22.6446 C   0  0  0  0  0  0  0  0  0  0  0  0
   -1.8089   -2.4044   21.1807 C   0  0  0  0  0  0  0  0  0  0  0  0
   -3.3276   -2.4144   19.2988 C   0  0  0  0  0  0  0  0  0  0  0  0
   -0.7482   -2.1295   20.2966 C   0  0  0  0  0  0  0  0  0  0  0  0
   -2.2648   -2.1304   18.4306 C   0  0  0  0  0  0  0  0  0  0  0  0
   -0.9818   -1.9951   18.9377 C   0  0  0  0  0  0  0  0  0  0  0  0
   -7.3502   -6.5571   24.4266 H   0  0  0  0  0  0  0  0  0  0  0  0
    0.9142   -1.6284   18.4043 H   0  0  0  0  0  0  0  0  0  0  0  0
   -7.9168   -3.4200   24.6668 C   0  0  0  0  0  0  0  0  0  0  0  0
   -8.6182   -2.4482   24.7742 C   0  0  0  0  0  0  0  0  0  0  0  0
  1  6  1  0
  1 21  1  0
  2 20  1  0
  2 22  1  0
  3  4  1  0
  3  6  1  0
  3  8  1  0
  3 13  1  0
  4  5  1  0
  4  9  1  0
  5  7  1  0
  5 12  1  0
  6 11  1  0
  6 23  1  0
  7 10  1  0
  7 14  1  0
  8 10  1  0
  9 11  1  0
 12 15  1  0
 14 16  2  0
 14 17  1  0
 15 16  1  0
 16 18  1  0
 23 24  3  0
 17 19  2  0
 18 20  2  0
 19 20  1  0
M  END
> <PUBCHEM_COMPOUND_CID>
5991

> <PUBCHEM_CONFORMER_RMSD>
0.6

> <PUBCHEM_CONFORMER_DIVERSEORDER>
1

> <PUBCHEM_MMFF94_PARTIAL_CHARGES>
19
1 -0.68
14 -0.14
15 0.14
16 -0.14
17 -0.2
18 -0.15
19 -0.15
2 -0.53
20 -0.15
21 0.08
22 -0.18
41 0.4
42 0.15
43 0.15
44 0.15
45 0.18
46 0.45
6 0.48
7 0.14

> <PUBCHEM_EFFECTIVE_ROTOR_COUNT>
1.4

> <PUBCHEM_PHARMACOPHORE_FEATURES>
8
1 1 acceptor
1 1 donor
1 2 donor
1 22 hydrophobe
5 3 4 6 9 11 rings
6 14 16 18 19 20 21 rings
6 3 4 5 7 8 10 rings
6 5 7 12 14 15 16 rings

> <PUBCHEM_HEAVY_ATOM_COUNT>
22

> <PUBCHEM_ATOM_DEF_STEREO_COUNT>
5

> <PUBCHEM_ATOM_UDEF_STEREO_COUNT>
0

> <PUBCHEM_BOND_DEF_STEREO_COUNT>
0

> <PUBCHEM_BOND_UDEF_STEREO_COUNT>
0

> <PUBCHEM_ISOTOPIC_ATOM_COUNT>
0

> <PUBCHEM_COMPONENT_COUNT>
1

> <PUBCHEM_CACTVS_TAUTO_COUNT>
9

> <PUBCHEM_CONFORMER_ID>
0000176700000001

> <PUBCHEM_MMFF94_ENERGY>
75.3654

> <PUBCHEM_FEATURE_SELFOVERLAP>
40.689

> <PUBCHEM_SHAPE_FINGERPRINT>
10498660 4 18334565854482978588
10616163 171 18412261769892000550
10906281 52 18268729332496851400
10967382 1 18409163299196382730
11132069 177 18260823830106114581
11315181 36 17846777438100329984
11552529 35 18058445585631877095
11578080 2 16952518088400902894
11796584 16 15123796154675551020
12107183 9 17697047933183828707
12236239 1 17917992754997443209
12403259 415 18260540148118003532
12403814 3 17531241756051219503
12633257 1 18411416168188185458
12644460 14 18260827060354363322
12788726 201 17059505002047033793
128620 24 17385724690407290772
13140716 1 18264499557760559337
13224815 77 18408318891198213202
13675066 3 17749393654488776519
14790565 3 18338806709892665688
15163728 17 15481289097577292713
15183329 4 18408605830407435614
15196674 1 18337388339818468438
15209289 33 18341332270467662817
15209294 21 18059584555192331817
15309172 13 18409451371427638915
15536298 74 18341610425830279326
15788980 27 17749105603943632888
16945 1 18265320738190372627
17349148 13 18114176445825312880
1813 80 17530976782159466655
18186145 218 18409161126111612646
19489759 90 15410896249631894657
19591789 44 18193273216009210722
200 152 17918273168974754922
21033648 29 17968079933063946356
21267235 1 18338240469814837151
21623110 236 18263368155990106261
23402539 116 18410566319162361766
23402655 69 18201721773563375622
23559900 14 18341325700027887232
335352 9 18410007719541319564
34934 24 18335695014618288215
350125 39 18408603674022772468
3545911 37 18408602569419241710
3680242 22 18335416829913620042
4214541 1 18412824715549947695
474 4 18408605889666299408
5104073 3 18339077194179428906
542803 24 17561084709247609168
59755656 215 18335983078396721054
633830 44 18202282537272954908
9709674 26 18410014338397756278

> <PUBCHEM_SHAPE_MULTIPOLES>
441.01
10.64
2.03
1.22
7.18
0.55
-0.05
-1.94
-1.01
0.21
-0.15
-1.94
-0.33
-0.49

> <PUBCHEM_SHAPE_SELFOVERLAP>
961.464

> <PUBCHEM_SHAPE_VOLUME>
238.8

> <PUBCHEM_COORDINATE_TYPE>
2
5
10

> <Energy>
61.5647

> <minimizedAffinity>
-0.81659

> <CNNscore>
0.6712177992

> <CNNaffinity>
7.7682113647

> <CNN_VS>
5.2141618729

> <CNNaffinity_variance>
1.2287235260

$$$$
5991


 24 27  0  0  0  0  0  0  0  0999 V2000
   -7.6905   -6.1812   24.6888 O   0  0  0  0  0  0  0  0  0  0  0  0
    0.1813   -1.6785   18.4999 O   0  0  0  0  0  0  0  0  0  0  0  0
   -6.1532   -4.8268   23.3045 C   0  0  0  0  0  0  0  0  0  0  0  0
   -6.0058   -3.2916   23.1935 C   0  0  0  0  0  0  0  0  0  0  0  0
   -4.6625   -2.8710   22.5923 C   0  0  0  0  0  0  0  0  0  0  0  0
   -7.5255   -4.9255   24.0415 C   0  0  0  0  0  0  0  0  0  0  0  0
   -4.5483   -3.4576   21.1531 C   0  0  0  0  0  0  0  0  0  0  0  0
   -6.0680   -5.4171   21.8843 C   0  0  0  0  0  0  0  0  0  0  0  0
   -6.3709   -2.7963   24.5905 C   0  0  0  0  0  0  0  0  0  0  0  0
   -4.7797   -4.9912   21.1524 C   0  0  0  0  0  0  0  0  0  0  0  0
   -7.4337   -3.7909   25.0963 C   0  0  0  0  0  0  0  0  0  0  0  0
   -4.5028   -1.3503   22.5236 C   0  0  0  0  0  0  0  0  0  0  0  0
   -5.0502   -5.4985   24.1749 C   0  0  0  0  0  0  0  0  0  0  0  0
   -3.2612   -2.9986   20.4688 C   0  0  0  0  0  0  0  0  0  0  0  0
   -3.0934   -0.9986   22.0585 C   0  0  0  0  0  0  0  0  0  0  0  0
   -2.6144   -1.8131   20.8827 C   0  0  0  0  0  0  0  0  0  0  0  0
   -2.7421   -3.6862   19.3585 C   0  0  0  0  0  0  0  0  0  0  0  0
   -1.4473   -1.3826   20.2229 C   0  0  0  0  0  0  0  0  0  0  0  0
   -1.5855   -3.2415   18.7039 C   0  0  0  0  0  0  0  0  0  0  0  0
   -0.9448   -2.0944   19.1459 C   0  0  0  0  0  0  0  0  0  0  0  0
   -6.9344   -6.3453   25.2739 H   0  0  0  0  0  0  0  0  0  0  0  0
    0.6267   -0.9053   18.7857 H   0  0  0  0  0  0  0  0  0  0  0  0
   -8.6897   -4.7086   23.1620 C   0  0  0  0  0  0  0  0  0  0  0  0
   -9.6332   -4.5185   22.4398 C   0  0  0  0  0  0  0  0  0  0  0  0
  1  6  1  0
  1 21  1  0
  2 20  1  0
  2 22  1  0
  3  4  1  0
  3  6  1  0
  3  8  1  0
  3 13  1  0
  4  5  1  0
  4  9  1  0
  5  7  1  0
  5 12  1  0
  6 11  1  0
  6 23  1  0
  7 10  1  0
  7 14  1  0
  8 10  1  0
  9 11  1  0
 12 15  1  0
 14 16  2  0
 14 17  1  0
 15 16  1  0
 16 18  1  0
 23 24  3  0
 17 19  2  0
 18 20  2  0
 19 20  1  0
M  END
> <PUBCHEM_COMPOUND_CID>
5991

> <PUBCHEM_CONFORMER_RMSD>
0.6

> <PUBCHEM_CONFORMER_DIVERSEORDER>
1

> <PUBCHEM_MMFF94_PARTIAL_CHARGES>
19
1 -0.68
14 -0.14
15 0.14
16 -0.14
17 -0.2
18 -0.15
19 -0.15
2 -0.53
20 -0.15
21 0.08
22 -0.18
41 0.4
42 0.15
43 0.15
44 0.15
45 0.18
46 0.45
6 0.48
7 0.14

> <PUBCHEM_EFFECTIVE_ROTOR_COUNT>
1.4

> <PUBCHEM_PHARMACOPHORE_FEATURES>
8
1 1 acceptor
1 1 donor
1 2 donor
1 22 hydrophobe
5 3 4 6 9 11 rings
6 14 16 18 19 20 21 rings
6 3 4 5 7 8 10 rings
6 5 7 12 14 15 16 rings

> <PUBCHEM_HEAVY_ATOM_COUNT>
22

> <PUBCHEM_ATOM_DEF_STEREO_COUNT>
5

> <PUBCHEM_ATOM_UDEF_STEREO_COUNT>
0

> <PUBCHEM_BOND_DEF_STEREO_COUNT>
0

> <PUBCHEM_BOND_UDEF_STEREO_COUNT>
0

> <PUBCHEM_ISOTOPIC_ATOM_COUNT>
0

> <PUBCHEM_COMPONENT_COUNT>
1

> <PUBCHEM_CACTVS_TAUTO_COUNT>
9

> <PUBCHEM_CONFORMER_ID>
0000176700000001

> <PUBCHEM_MMFF94_ENERGY>
75.3654

> <PUBCHEM_FEATURE_SELFOVERLAP>
40.689

> <PUBCHEM_SHAPE_FINGERPRINT>
10498660 4 18334565854482978588
10616163 171 18412261769892000550
10906281 52 18268729332496851400
10967382 1 18409163299196382730
11132069 177 18260823830106114581
11315181 36 17846777438100329984
11552529 35 18058445585631877095
11578080 2 16952518088400902894
11796584 16 15123796154675551020
12107183 9 17697047933183828707
12236239 1 17917992754997443209
12403259 415 18260540148118003532
12403814 3 17531241756051219503
12633257 1 18411416168188185458
12644460 14 18260827060354363322
12788726 201 17059505002047033793
128620 24 17385724690407290772
13140716 1 18264499557760559337
13224815 77 18408318891198213202
13675066 3 17749393654488776519
14790565 3 18338806709892665688
15163728 17 15481289097577292713
15183329 4 18408605830407435614
15196674 1 18337388339818468438
15209289 33 18341332270467662817
15209294 21 18059584555192331817
15309172 13 18409451371427638915
15536298 74 18341610425830279326
15788980 27 17749105603943632888
16945 1 18265320738190372627
17349148 13 18114176445825312880
1813 80 17530976782159466655
18186145 218 18409161126111612646
19489759 90 15410896249631894657
19591789 44 18193273216009210722
200 152 17918273168974754922
21033648 29 17968079933063946356
21267235 1 18338240469814837151
21623110 236 18263368155990106261
23402539 116 18410566319162361766
23402655 69 18201721773563375622
23559900 14 18341325700027887232
335352 9 18410007719541319564
34934 24 18335695014618288215
350125 39 18408603674022772468
3545911 37 18408602569419241710
3680242 22 18335416829913620042
4214541 1 18412824715549947695
474 4 18408605889666299408
5104073 3 18339077194179428906
542803 24 17561084709247609168
59755656 215 18335983078396721054
633830 44 18202282537272954908
9709674 26 18410014338397756278

> <PUBCHEM_SHAPE_MULTIPOLES>
441.01
10.64
2.03
1.22
7.18
0.55
-0.05
-1.94
-1.01
0.21
-0.15
-1.94
-0.33
-0.49

> <PUBCHEM_SHAPE_SELFOVERLAP>
961.464

> <PUBCHEM_SHAPE_VOLUME>
238.8

> <PUBCHEM_COORDINATE_TYPE>
2
5
10

> <Energy>
61.5647

> <minimizedAffinity>
-0.18794

> <CNNscore>
0.6644623280

> <CNNaffinity>
7.9859490395

> <CNN_VS>
5.3063621521

> <CNNaffinity_variance>
1.5630154610

$$$$
5991


 24 27  0  0  0  0  0  0  0  0999 V2000
   -7.6475   -2.8716   25.4147 O   0  0  0  0  0  0  0  0  0  0  0  0
    0.6516   -1.5335   18.3523 O   0  0  0  0  0  0  0  0  0  0  0  0
   -5.8996   -2.9335   23.6667 C   0  0  0  0  0  0  0  0  0  0  0  0
   -5.8576   -3.7079   22.3291 C   0  0  0  0  0  0  0  0  0  0  0  0
   -4.8368   -3.1299   21.3460 C   0  0  0  0  0  0  0  0  0  0  0  0
   -7.0811   -3.6642   24.3783 C   0  0  0  0  0  0  0  0  0  0  0  0
   -3.4173   -3.2181   21.9828 C   0  0  0  0  0  0  0  0  0  0  0  0
   -4.5081   -3.0351   24.3195 C   0  0  0  0  0  0  0  0  0  0  0  0
   -7.3237   -3.7741   21.9091 C   0  0  0  0  0  0  0  0  0  0  0  0
   -3.3869   -2.5471   23.3807 C   0  0  0  0  0  0  0  0  0  0  0  0
   -8.1097   -3.8556   23.2320 C   0  0  0  0  0  0  0  0  0  0  0  0
   -4.8283   -3.8723   20.0075 C   0  0  0  0  0  0  0  0  0  0  0  0
   -6.2489   -1.4245   23.5038 C   0  0  0  0  0  0  0  0  0  0  0  0
   -2.3431   -2.7327   21.0102 C   0  0  0  0  0  0  0  0  0  0  0  0
   -3.9040   -3.1589   19.0260 C   0  0  0  0  0  0  0  0  0  0  0  0
   -2.5769   -2.7534   19.6173 C   0  0  0  0  0  0  0  0  0  0  0  0
   -1.0713   -2.3441   21.4650 C   0  0  0  0  0  0  0  0  0  0  0  0
   -1.5675   -2.3348   18.7293 C   0  0  0  0  0  0  0  0  0  0  0  0
   -0.0717   -1.9395   20.5700 C   0  0  0  0  0  0  0  0  0  0  0  0
   -0.3310   -1.9339   19.2083 C   0  0  0  0  0  0  0  0  0  0  0  0
   -7.8984   -2.0049   25.0586 H   0  0  0  0  0  0  0  0  0  0  0  0
    0.4931   -1.5237   17.4289 H   0  0  0  0  0  0  0  0  0  0  0  0
   -6.7119   -4.9716   24.9531 C   0  0  0  0  0  0  0  0  0  0  0  0
   -6.4158   -6.0450   25.4093 C   0  0  0  0  0  0  0  0  0  0  0  0
  1  6  1  0
  1 21  1  0
  2 20  1  0
  2 22  1  0
  3  4  1  0
  3  6  1  0
  3  8  1  0
  3 13  1  0
  4  5  1  0
  4  9  1  0
  5  7  1  0
  5 12  1  0
  6 11  1  0
  6 23  1  0
  7 10  1  0
  7 14  1  0
  8 10  1  0
  9 11  1  0
 12 15  1  0
 14 16  2  0
 14 17  1  0
 15 16  1  0
 16 18  1  0
 23 24  3  0
 17 19  2  0
 18 20  2  0
 19 20  1  0
M  END
> <PUBCHEM_COMPOUND_CID>
5991

> <PUBCHEM_CONFORMER_RMSD>
0.6

> <PUBCHEM_CONFORMER_DIVERSEORDER>
1

> <PUBCHEM_MMFF94_PARTIAL_CHARGES>
19
1 -0.68
14 -0.14
15 0.14
16 -0.14
17 -0.2
18 -0.15
19 -0.15
2 -0.53
20 -0.15
21 0.08
22 -0.18
41 0.4
42 0.15
43 0.15
44 0.15
45 0.18
46 0.45
6 0.48
7 0.14

> <PUBCHEM_EFFECTIVE_ROTOR_COUNT>
1.4

> <PUBCHEM_PHARMACOPHORE_FEATURES>
8
1 1 acceptor
1 1 donor
1 2 donor
1 22 hydrophobe
5 3 4 6 9 11 rings
6 14 16 18 19 20 21 rings
6 3 4 5 7 8 10 rings
6 5 7 12 14 15 16 rings

> <PUBCHEM_HEAVY_ATOM_COUNT>
22

> <PUBCHEM_ATOM_DEF_STEREO_COUNT>
5

> <PUBCHEM_ATOM_UDEF_STEREO_COUNT>
0

> <PUBCHEM_BOND_DEF_STEREO_COUNT>
0

> <PUBCHEM_BOND_UDEF_STEREO_COUNT>
0

> <PUBCHEM_ISOTOPIC_ATOM_COUNT>
0

> <PUBCHEM_COMPONENT_COUNT>
1

> <PUBCHEM_CACTVS_TAUTO_COUNT>
9

> <PUBCHEM_CONFORMER_ID>
0000176700000001

> <PUBCHEM_MMFF94_ENERGY>
75.3654

> <PUBCHEM_FEATURE_SELFOVERLAP>
40.689

> <PUBCHEM_SHAPE_FINGERPRINT>
10498660 4 18334565854482978588
10616163 171 18412261769892000550
10906281 52 18268729332496851400
10967382 1 18409163299196382730
11132069 177 18260823830106114581
11315181 36 17846777438100329984
11552529 35 18058445585631877095
11578080 2 16952518088400902894
11796584 16 15123796154675551020
12107183 9 17697047933183828707
12236239 1 17917992754997443209
12403259 415 18260540148118003532
12403814 3 17531241756051219503
12633257 1 18411416168188185458
12644460 14 18260827060354363322
12788726 201 17059505002047033793
128620 24 17385724690407290772
13140716 1 18264499557760559337
13224815 77 18408318891198213202
13675066 3 17749393654488776519
14790565 3 18338806709892665688
15163728 17 15481289097577292713
15183329 4 18408605830407435614
15196674 1 18337388339818468438
15209289 33 18341332270467662817
15209294 21 18059584555192331817
15309172 13 18409451371427638915
15536298 74 18341610425830279326
15788980 27 17749105603943632888
16945 1 18265320738190372627
17349148 13 18114176445825312880
1813 80 17530976782159466655
18186145 218 18409161126111612646
19489759 90 15410896249631894657
19591789 44 18193273216009210722
200 152 17918273168974754922
21033648 29 17968079933063946356
21267235 1 18338240469814837151
21623110 236 18263368155990106261
23402539 116 18410566319162361766
23402655 69 18201721773563375622
23559900 14 18341325700027887232
335352 9 18410007719541319564
34934 24 18335695014618288215
350125 39 18408603674022772468
3545911 37 18408602569419241710
3680242 22 18335416829913620042
4214541 1 18412824715549947695
474 4 18408605889666299408
5104073 3 18339077194179428906
542803 24 17561084709247609168
59755656 215 18335983078396721054
633830 44 18202282537272954908
9709674 26 18410014338397756278

> <PUBCHEM_SHAPE_MULTIPOLES>
441.01
10.64
2.03
1.22
7.18
0.55
-0.05
-1.94
-1.01
0.21
-0.15
-1.94
-0.33
-0.49

> <PUBCHEM_SHAPE_SELFOVERLAP>
961.464

> <PUBCHEM_SHAPE_VOLUME>
238.8

> <PUBCHEM_COORDINATE_TYPE>
2
5
10

> <Energy>
61.5647

> <minimizedAffinity>
-4.65635

> <CNNscore>
0.6238334179

> <CNNaffinity>
7.7169709206

> <CNN_VS>
4.8141045570

> <CNNaffinity_variance>
0.8278515935

$$$$
5991


 24 27  0  0  0  0  0  0  0  0999 V2000
   -8.2801   -5.2610   20.9223 O   0  0  0  0  0  0  0  0  0  0  0  0
    2.2565   -2.1755   20.9512 O   0  0  0  0  0  0  0  0  0  0  0  0
   -6.0304   -4.2709   21.1916 C   0  0  0  0  0  0  0  0  0  0  0  0
   -5.4576   -3.3987   22.3326 C   0  0  0  0  0  0  0  0  0  0  0  0
   -3.9272   -3.3784   22.3467 C   0  0  0  0  0  0  0  0  0  0  0  0
   -7.5556   -4.1889   21.5129 C   0  0  0  0  0  0  0  0  0  0  0  0
   -3.4185   -2.7811   21.0003 C   0  0  0  0  0  0  0  0  0  0  0  0
   -5.5556   -3.6751   19.8528 C   0  0  0  0  0  0  0  0  0  0  0  0
   -6.1954   -3.9017   23.5708 C   0  0  0  0  0  0  0  0  0  0  0  0
   -4.0216   -3.5369   19.7878 C   0  0  0  0  0  0  0  0  0  0  0  0
   -7.5901   -4.3114   23.0595 C   0  0  0  0  0  0  0  0  0  0  0  0
   -3.3638   -2.5489   23.5031 C   0  0  0  0  0  0  0  0  0  0  0  0
   -5.5695   -5.7574   21.2505 C   0  0  0  0  0  0  0  0  0  0  0  0
   -1.8953   -2.6561   20.9906 C   0  0  0  0  0  0  0  0  0  0  0  0
   -1.8458   -2.6910   23.5502 C   0  0  0  0  0  0  0  0  0  0  0  0
   -1.1766   -2.5718   22.2036 C   0  0  0  0  0  0  0  0  0  0  0  0
   -1.1831   -2.5289   19.7857 C   0  0  0  0  0  0  0  0  0  0  0  0
    0.2235   -2.4238   22.1816 C   0  0  0  0  0  0  0  0  0  0  0  0
    0.2094   -2.3714   19.7777 C   0  0  0  0  0  0  0  0  0  0  0  0
    0.9017   -2.3251   20.9777 C   0  0  0  0  0  0  0  0  0  0  0  0
   -7.8826   -6.1050   21.1879 H   0  0  0  0  0  0  0  0  0  0  0  0
    2.7399   -2.1423   21.7532 H   0  0  0  0  0  0  0  0  0  0  0  0
   -8.1854   -2.9241   21.0892 C   0  0  0  0  0  0  0  0  0  0  0  0
   -8.6852   -1.8864   20.7408 C   0  0  0  0  0  0  0  0  0  0  0  0
  1  6  1  0
  1 21  1  0
  2 20  1  0
  2 22  1  0
  3  4  1  0
  3  6  1  0
  3  8  1  0
  3 13  1  0
  4  5  1  0
  4  9  1  0
  5  7  1  0
  5 12  1  0
  6 11  1  0
  6 23  1  0
  7 10  1  0
  7 14  1  0
  8 10  1  0
  9 11  1  0
 12 15  1  0
 14 16  2  0
 14 17  1  0
 15 16  1  0
 16 18  1  0
 23 24  3  0
 17 19  2  0
 18 20  2  0
 19 20  1  0
M  END
> <PUBCHEM_COMPOUND_CID>
5991

> <PUBCHEM_CONFORMER_RMSD>
0.6

> <PUBCHEM_CONFORMER_DIVERSEORDER>
1

> <PUBCHEM_MMFF94_PARTIAL_CHARGES>
19
1 -0.68
14 -0.14
15 0.14
16 -0.14
17 -0.2
18 -0.15
19 -0.15
2 -0.53
20 -0.15
21 0.08
22 -0.18
41 0.4
42 0.15
43 0.15
44 0.15
45 0.18
46 0.45
6 0.48
7 0.14

> <PUBCHEM_EFFECTIVE_ROTOR_COUNT>
1.4

> <PUBCHEM_PHARMACOPHORE_FEATURES>
8
1 1 acceptor
1 1 donor
1 2 donor
1 22 hydrophobe
5 3 4 6 9 11 rings
6 14 16 18 19 20 21 rings
6 3 4 5 7 8 10 rings
6 5 7 12 14 15 16 rings

> <PUBCHEM_HEAVY_ATOM_COUNT>
22

> <PUBCHEM_ATOM_DEF_STEREO_COUNT>
5

> <PUBCHEM_ATOM_UDEF_STEREO_COUNT>
0

> <PUBCHEM_BOND_DEF_STEREO_COUNT>
0

> <PUBCHEM_BOND_UDEF_STEREO_COUNT>
0

> <PUBCHEM_ISOTOPIC_ATOM_COUNT>
0

> <PUBCHEM_COMPONENT_COUNT>
1

> <PUBCHEM_CACTVS_TAUTO_COUNT>
9

> <PUBCHEM_CONFORMER_ID>
0000176700000001

> <PUBCHEM_MMFF94_ENERGY>
75.3654

> <PUBCHEM_FEATURE_SELFOVERLAP>
40.689

> <PUBCHEM_SHAPE_FINGERPRINT>
10498660 4 18334565854482978588
10616163 171 18412261769892000550
10906281 52 18268729332496851400
10967382 1 18409163299196382730
11132069 177 18260823830106114581
11315181 36 17846777438100329984
11552529 35 18058445585631877095
11578080 2 16952518088400902894
11796584 16 15123796154675551020
12107183 9 17697047933183828707
12236239 1 17917992754997443209
12403259 415 18260540148118003532
12403814 3 17531241756051219503
12633257 1 18411416168188185458
12644460 14 18260827060354363322
12788726 201 17059505002047033793
128620 24 17385724690407290772
13140716 1 18264499557760559337
13224815 77 18408318891198213202
13675066 3 17749393654488776519
14790565 3 18338806709892665688
15163728 17 15481289097577292713
15183329 4 18408605830407435614
15196674 1 18337388339818468438
15209289 33 18341332270467662817
15209294 21 18059584555192331817
15309172 13 18409451371427638915
15536298 74 18341610425830279326
15788980 27 17749105603943632888
16945 1 18265320738190372627
17349148 13 18114176445825312880
1813 80 17530976782159466655
18186145 218 18409161126111612646
19489759 90 15410896249631894657
19591789 44 18193273216009210722
200 152 17918273168974754922
21033648 29 17968079933063946356
21267235 1 18338240469814837151
21623110 236 18263368155990106261
23402539 116 18410566319162361766
23402655 69 18201721773563375622
23559900 14 18341325700027887232
335352 9 18410007719541319564
34934 24 18335695014618288215
350125 39 18408603674022772468
3545911 37 18408602569419241710
3680242 22 18335416829913620042
4214541 1 18412824715549947695
474 4 18408605889666299408
5104073 3 18339077194179428906
542803 24 17561084709247609168
59755656 215 18335983078396721054
633830 44 18202282537272954908
9709674 26 18410014338397756278

> <PUBCHEM_SHAPE_MULTIPOLES>
441.01
10.64
2.03
1.22
7.18
0.55
-0.05
-1.94
-1.01
0.21
-0.15
-1.94
-0.33
-0.49

> <PUBCHEM_SHAPE_SELFOVERLAP>
961.464

> <PUBCHEM_SHAPE_VOLUME>
238.8

> <PUBCHEM_COORDINATE_TYPE>
2
5
10

> <Energy>
61.5647

> <minimizedAffinity>
-1.60496

> <CNNscore>
0.5337945819

> <CNNaffinity>
7.5845184326

> <CNN_VS>
4.0485749245

> <CNNaffinity_variance>
1.1010417938

$$$$
5991


 24 27  0  0  0  0  0  0  0  0999 V2000
   -9.3513   -3.9054   21.2890 O   0  0  0  0  0  0  0  0  0  0  0  0
    1.4986   -2.3139   20.7513 O   0  0  0  0  0  0  0  0  0  0  0  0
   -6.8805   -3.8982   21.3854 C   0  0  0  0  0  0  0  0  0  0  0  0
   -5.8908   -5.0630   21.6184 C   0  0  0  0  0  0  0  0  0  0  0  0
   -4.4704   -4.7305   21.1548 C   0  0  0  0  0  0  0  0  0  0  0  0
   -8.2168   -4.5706   21.8308 C   0  0  0  0  0  0  0  0  0  0  0  0
   -3.9498   -3.5048   21.9641 C   0  0  0  0  0  0  0  0  0  0  0  0
   -6.3908   -2.6870   22.2015 C   0  0  0  0  0  0  0  0  0  0  0  0
   -6.6014   -6.2641   20.9997 C   0  0  0  0  0  0  0  0  0  0  0  0
   -4.9337   -2.3099   21.8675 C   0  0  0  0  0  0  0  0  0  0  0  0
   -8.1012   -5.9982   21.2334 C   0  0  0  0  0  0  0  0  0  0  0  0
   -3.5031   -5.9009   21.3475 C   0  0  0  0  0  0  0  0  0  0  0  0
   -6.9932   -3.4635   19.8941 C   0  0  0  0  0  0  0  0  0  0  0  0
   -2.5008   -3.1787   21.6038 C   0  0  0  0  0  0  0  0  0  0  0  0
   -2.1497   -5.5603   20.7319 C   0  0  0  0  0  0  0  0  0  0  0  0
   -1.6564   -4.1739   21.0639 C   0  0  0  0  0  0  0  0  0  0  0  0
   -1.9473   -1.9176   21.8840 C   0  0  0  0  0  0  0  0  0  0  0  0
   -0.3139   -3.8706   20.7667 C   0  0  0  0  0  0  0  0  0  0  0  0
   -0.6066   -1.6315   21.5930 C   0  0  0  0  0  0  0  0  0  0  0  0
    0.1979   -2.6108   21.0316 C   0  0  0  0  0  0  0  0  0  0  0  0
   -9.2611   -3.8453   20.3250 H   0  0  0  0  0  0  0  0  0  0  0  0
    2.0562   -2.9642   20.3716 H   0  0  0  0  0  0  0  0  0  0  0  0
   -8.3864   -4.6444   23.2942 C   0  0  0  0  0  0  0  0  0  0  0  0
   -8.5266   -4.6894   24.4885 C   0  0  0  0  0  0  0  0  0  0  0  0
  1  6  1  0
  1 21  1  0
  2 20  1  0
  2 22  1  0
  3  4  1  0
  3  6  1  0
  3  8  1  0
  3 13  1  0
  4  5  1  0
  4  9  1  0
  5  7  1  0
  5 12  1  0
  6 11  1  0
  6 23  1  0
  7 10  1  0
  7 14  1  0
  8 10  1  0
  9 11  1  0
 12 15  1  0
 14 16  2  0
 14 17  1  0
 15 16  1  0
 16 18  1  0
 23 24  3  0
 17 19  2  0
 18 20  2  0
 19 20  1  0
M  END
> <PUBCHEM_COMPOUND_CID>
5991

> <PUBCHEM_CONFORMER_RMSD>
0.6

> <PUBCHEM_CONFORMER_DIVERSEORDER>
1

> <PUBCHEM_MMFF94_PARTIAL_CHARGES>
19
1 -0.68
14 -0.14
15 0.14
16 -0.14
17 -0.2
18 -0.15
19 -0.15
2 -0.53
20 -0.15
21 0.08
22 -0.18
41 0.4
42 0.15
43 0.15
44 0.15
45 0.18
46 0.45
6 0.48
7 0.14

> <PUBCHEM_EFFECTIVE_ROTOR_COUNT>
1.4

> <PUBCHEM_PHARMACOPHORE_FEATURES>
8
1 1 acceptor
1 1 donor
1 2 donor
1 22 hydrophobe
5 3 4 6 9 11 rings
6 14 16 18 19 20 21 rings
6 3 4 5 7 8 10 rings
6 5 7 12 14 15 16 rings

> <PUBCHEM_HEAVY_ATOM_COUNT>
22

> <PUBCHEM_ATOM_DEF_STEREO_COUNT>
5

> <PUBCHEM_ATOM_UDEF_STEREO_COUNT>
0

> <PUBCHEM_BOND_DEF_STEREO_COUNT>
0

> <PUBCHEM_BOND_UDEF_STEREO_COUNT>
0

> <PUBCHEM_ISOTOPIC_ATOM_COUNT>
0

> <PUBCHEM_COMPONENT_COUNT>
1

> <PUBCHEM_CACTVS_TAUTO_COUNT>
9

> <PUBCHEM_CONFORMER_ID>
0000176700000001

> <PUBCHEM_MMFF94_ENERGY>
75.3654

> <PUBCHEM_FEATURE_SELFOVERLAP>
40.689

> <PUBCHEM_SHAPE_FINGERPRINT>
10498660 4 18334565854482978588
10616163 171 18412261769892000550
10906281 52 18268729332496851400
10967382 1 18409163299196382730
11132069 177 18260823830106114581
11315181 36 17846777438100329984
11552529 35 18058445585631877095
11578080 2 16952518088400902894
11796584 16 15123796154675551020
12107183 9 17697047933183828707
12236239 1 17917992754997443209
12403259 415 18260540148118003532
12403814 3 17531241756051219503
12633257 1 18411416168188185458
12644460 14 18260827060354363322
12788726 201 17059505002047033793
128620 24 17385724690407290772
13140716 1 18264499557760559337
13224815 77 18408318891198213202
13675066 3 17749393654488776519
14790565 3 18338806709892665688
15163728 17 15481289097577292713
15183329 4 18408605830407435614
15196674 1 18337388339818468438
15209289 33 18341332270467662817
15209294 21 18059584555192331817
15309172 13 18409451371427638915
15536298 74 18341610425830279326
15788980 27 17749105603943632888
16945 1 18265320738190372627
17349148 13 18114176445825312880
1813 80 17530976782159466655
18186145 218 18409161126111612646
19489759 90 15410896249631894657
19591789 44 18193273216009210722
200 152 17918273168974754922
21033648 29 17968079933063946356
21267235 1 18338240469814837151
21623110 236 18263368155990106261
23402539 116 18410566319162361766
23402655 69 18201721773563375622
23559900 14 18341325700027887232
335352 9 18410007719541319564
34934 24 18335695014618288215
350125 39 18408603674022772468
3545911 37 18408602569419241710
3680242 22 18335416829913620042
4214541 1 18412824715549947695
474 4 18408605889666299408
5104073 3 18339077194179428906
542803 24 17561084709247609168
59755656 215 18335983078396721054
633830 44 18202282537272954908
9709674 26 18410014338397756278

> <PUBCHEM_SHAPE_MULTIPOLES>
441.01
10.64
2.03
1.22
7.18
0.55
-0.05
-1.94
-1.01
0.21
-0.15
-1.94
-0.33
-0.49

> <PUBCHEM_SHAPE_SELFOVERLAP>
961.464

> <PUBCHEM_SHAPE_VOLUME>
238.8

> <PUBCHEM_COORDINATE_TYPE>
2
5
10

> <Energy>
61.5647

> <minimizedAffinity>
-2.54742

> <CNNscore>
0.3494386077

> <CNNaffinity>
6.9659652710

> <CNN_VS>
2.4341771603

> <CNNaffinity_variance>
0.4360535145

$$$$
5991


 24 27  0  0  0  0  0  0  0  0999 V2000
   -8.3690   -5.7937   24.6496 O   0  0  0  0  0  0  0  0  0  0  0  0
    1.3175   -2.5124   20.6563 O   0  0  0  0  0  0  0  0  0  0  0  0
   -6.3963   -4.7264   23.6087 C   0  0  0  0  0  0  0  0  0  0  0  0
   -6.1475   -3.2470   23.2341 C   0  0  0  0  0  0  0  0  0  0  0  0
   -4.6624   -2.9296   23.0435 C   0  0  0  0  0  0  0  0  0  0  0  0
   -7.9386   -4.7012   23.8469 C   0  0  0  0  0  0  0  0  0  0  0  0
   -4.1042   -3.8067   21.8827 C   0  0  0  0  0  0  0  0  0  0  0  0
   -5.8718   -5.6039   22.4564 C   0  0  0  0  0  0  0  0  0  0  0  0
   -6.9324   -2.4746   24.2913 C   0  0  0  0  0  0  0  0  0  0  0  0
   -4.3948   -5.3106   22.1261 C   0  0  0  0  0  0  0  0  0  0  0  0
   -8.1489   -3.3656   24.6086 C   0  0  0  0  0  0  0  0  0  0  0  0
   -4.4168   -1.4550   22.7150 C   0  0  0  0  0  0  0  0  0  0  0  0
   -5.6787   -5.1679   24.9186 C   0  0  0  0  0  0  0  0  0  0  0  0
   -2.6425   -3.4709   21.5889 C   0  0  0  0  0  0  0  0  0  0  0  0
   -2.9179   -1.1741   22.6860 C   0  0  0  0  0  0  0  0  0  0  0  0
   -2.1144   -2.2080   21.9371 C   0  0  0  0  0  0  0  0  0  0  0  0
   -1.8170   -4.3660   20.8870 C   0  0  0  0  0  0  0  0  0  0  0  0
   -0.7753   -1.8981   21.6316 C   0  0  0  0  0  0  0  0  0  0  0  0
   -0.4888   -4.0413   20.5797 C   0  0  0  0  0  0  0  0  0  0  0  0
    0.0222   -2.8100   20.9598 C   0  0  0  0  0  0  0  0  0  0  0  0
   -7.8592   -5.8094   25.4746 H   0  0  0  0  0  0  0  0  0  0  0  0
    1.6788   -1.6846   20.9058 H   0  0  0  0  0  0  0  0  0  0  0  0
   -8.7324   -4.7074   22.6036 C   0  0  0  0  0  0  0  0  0  0  0  0
   -9.3744   -4.7265   21.5860 C   0  0  0  0  0  0  0  0  0  0  0  0
  1  6  1  0
  1 21  1  0
  2 20  1  0
  2 22  1  0
  3  4  1  0
  3  6  1  0
  3  8  1  0
  3 13  1  0
  4  5  1  0
  4  9  1  0
  5  7  1  0
  5 12  1  0
  6 11  1  0
  6 23  1  0
  7 10  1  0
  7 14  1  0
  8 10  1  0
  9 11  1  0
 12 15  1  0
 14 16  2  0
 14 17  1  0
 15 16  1  0
 16 18  1  0
 23 24  3  0
 17 19  2  0
 18 20  2  0
 19 20  1  0
M  END
> <PUBCHEM_COMPOUND_CID>
5991

> <PUBCHEM_CONFORMER_RMSD>
0.6

> <PUBCHEM_CONFORMER_DIVERSEORDER>
1

> <PUBCHEM_MMFF94_PARTIAL_CHARGES>
19
1 -0.68
14 -0.14
15 0.14
16 -0.14
17 -0.2
18 -0.15
19 -0.15
2 -0.53
20 -0.15
21 0.08
22 -0.18
41 0.4
42 0.15
43 0.15
44 0.15
45 0.18
46 0.45
6 0.48
7 0.14

> <PUBCHEM_EFFECTIVE_ROTOR_COUNT>
1.4

> <PUBCHEM_PHARMACOPHORE_FEATURES>
8
1 1 acceptor
1 1 donor
1 2 donor
1 22 hydrophobe
5 3 4 6 9 11 rings
6 14 16 18 19 20 21 rings
6 3 4 5 7 8 10 rings
6 5 7 12 14 15 16 rings

> <PUBCHEM_HEAVY_ATOM_COUNT>
22

> <PUBCHEM_ATOM_DEF_STEREO_COUNT>
5

> <PUBCHEM_ATOM_UDEF_STEREO_COUNT>
0

> <PUBCHEM_BOND_DEF_STEREO_COUNT>
0

> <PUBCHEM_BOND_UDEF_STEREO_COUNT>
0

> <PUBCHEM_ISOTOPIC_ATOM_COUNT>
0

> <PUBCHEM_COMPONENT_COUNT>
1

> <PUBCHEM_CACTVS_TAUTO_COUNT>
9

> <PUBCHEM_CONFORMER_ID>
0000176700000001

> <PUBCHEM_MMFF94_ENERGY>
75.3654

> <PUBCHEM_FEATURE_SELFOVERLAP>
40.689

> <PUBCHEM_SHAPE_FINGERPRINT>
10498660 4 18334565854482978588
10616163 171 18412261769892000550
10906281 52 18268729332496851400
10967382 1 18409163299196382730
11132069 177 18260823830106114581
11315181 36 17846777438100329984
11552529 35 18058445585631877095
11578080 2 16952518088400902894
11796584 16 15123796154675551020
12107183 9 17697047933183828707
12236239 1 17917992754997443209
12403259 415 18260540148118003532
12403814 3 17531241756051219503
12633257 1 18411416168188185458
12644460 14 18260827060354363322
12788726 201 17059505002047033793
128620 24 17385724690407290772
13140716 1 18264499557760559337
13224815 77 18408318891198213202
13675066 3 17749393654488776519
14790565 3 18338806709892665688
15163728 17 15481289097577292713
15183329 4 18408605830407435614
15196674 1 18337388339818468438
15209289 33 18341332270467662817
15209294 21 18059584555192331817
15309172 13 18409451371427638915
15536298 74 18341610425830279326
15788980 27 17749105603943632888
16945 1 18265320738190372627
17349148 13 18114176445825312880
1813 80 17530976782159466655
18186145 218 18409161126111612646
19489759 90 15410896249631894657
19591789 44 18193273216009210722
200 152 17918273168974754922
21033648 29 17968079933063946356
21267235 1 18338240469814837151
21623110 236 18263368155990106261
23402539 116 18410566319162361766
23402655 69 18201721773563375622
23559900 14 18341325700027887232
335352 9 18410007719541319564
34934 24 18335695014618288215
350125 39 18408603674022772468
3545911 37 18408602569419241710
3680242 22 18335416829913620042
4214541 1 18412824715549947695
474 4 18408605889666299408
5104073 3 18339077194179428906
542803 24 17561084709247609168
59755656 215 18335983078396721054
633830 44 18202282537272954908
9709674 26 18410014338397756278

> <PUBCHEM_SHAPE_MULTIPOLES>
441.01
10.64
2.03
1.22
7.18
0.55
-0.05
-1.94
-1.01
0.21
-0.15
-1.94
-0.33
-0.49

> <PUBCHEM_SHAPE_SELFOVERLAP>
961.464

> <PUBCHEM_SHAPE_VOLUME>
238.8

> <PUBCHEM_COORDINATE_TYPE>
2
5
10

> <Energy>
61.5647

> <minimizedAffinity>
-3.47762

> <CNNscore>
0.3336206675

> <CNNaffinity>
7.3189253807

> <CNN_VS>
2.4417448044

> <CNNaffinity_variance>
0.5889647603

$$$$
5991


 24 27  0  0  0  0  0  0  0  0999 V2000
   -8.4735   -5.0638   21.8831 O   0  0  0  0  0  0  0  0  0  0  0  0
    1.2073   -1.7009   17.9441 O   0  0  0  0  0  0  0  0  0  0  0  0
   -6.1674   -4.3199   21.3902 C   0  0  0  0  0  0  0  0  0  0  0  0
   -4.8659   -4.5096   22.2031 C   0  0  0  0  0  0  0  0  0  0  0  0
   -3.6075   -4.3123   21.3544 C   0  0  0  0  0  0  0  0  0  0  0  0
   -7.2308   -4.6958   22.4691 C   0  0  0  0  0  0  0  0  0  0  0  0
   -3.6010   -2.8588   20.7926 C   0  0  0  0  0  0  0  0  0  0  0  0
   -6.1855   -2.8773   20.8505 C   0  0  0  0  0  0  0  0  0  0  0  0
   -5.0750   -5.8498   22.9034 C   0  0  0  0  0  0  0  0  0  0  0  0
   -4.9186   -2.5430   20.0380 C   0  0  0  0  0  0  0  0  0  0  0  0
   -6.5905   -5.9217   23.1731 C   0  0  0  0  0  0  0  0  0  0  0  0
   -2.3218   -4.5430   22.1521 C   0  0  0  0  0  0  0  0  0  0  0  0
   -6.2946   -5.2914   20.1795 C   0  0  0  0  0  0  0  0  0  0  0  0
   -2.3222   -2.5756   20.0051 C   0  0  0  0  0  0  0  0  0  0  0  0
   -1.1161   -4.4795   21.2199 C   0  0  0  0  0  0  0  0  0  0  0  0
   -1.1493   -3.3227   20.2523 C   0  0  0  0  0  0  0  0  0  0  0  0
   -2.2524   -1.5125   19.0884 C   0  0  0  0  0  0  0  0  0  0  0  0
    0.0319   -3.0307   19.5438 C   0  0  0  0  0  0  0  0  0  0  0  0
   -1.0675   -1.2254   18.3973 C   0  0  0  0  0  0  0  0  0  0  0  0
    0.0645   -1.9916   18.6281 C   0  0  0  0  0  0  0  0  0  0  0  0
   -8.3283   -5.7693   21.2333 H   0  0  0  0  0  0  0  0  0  0  0  0
    1.9815   -2.2088   18.0881 H   0  0  0  0  0  0  0  0  0  0  0  0
   -7.4878   -3.6240   23.4494 C   0  0  0  0  0  0  0  0  0  0  0  0
   -7.6860   -2.7549   24.2578 C   0  0  0  0  0  0  0  0  0  0  0  0
  1  6  1  0
  1 21  1  0
  2 20  1  0
  2 22  1  0
  3  4  1  0
  3  6  1  0
  3  8  1  0
  3 13  1  0
  4  5  1  0
  4  9  1  0
  5  7  1  0
  5 12  1  0
  6 11  1  0
  6 23  1  0
  7 10  1  0
  7 14  1  0
  8 10  1  0
  9 11  1  0
 12 15  1  0
 14 16  2  0
 14 17  1  0
 15 16  1  0
 16 18  1  0
 23 24  3  0
 17 19  2  0
 18 20  2  0
 19 20  1  0
M  END
> <PUBCHEM_COMPOUND_CID>
5991

> <PUBCHEM_CONFORMER_RMSD>
0.6

> <PUBCHEM_CONFORMER_DIVERSEORDER>
1

> <PUBCHEM_MMFF94_PARTIAL_CHARGES>
19
1 -0.68
14 -0.14
15 0.14
16 -0.14
17 -0.2
18 -0.15
19 -0.15
2 -0.53
20 -0.15
21 0.08
22 -0.18
41 0.4
42 0.15
43 0.15
44 0.15
45 0.18
46 0.45
6 0.48
7 0.14

> <PUBCHEM_EFFECTIVE_ROTOR_COUNT>
1.4

> <PUBCHEM_PHARMACOPHORE_FEATURES>
8
1 1 acceptor
1 1 donor
1 2 donor
1 22 hydrophobe
5 3 4 6 9 11 rings
6 14 16 18 19 20 21 rings
6 3 4 5 7 8 10 rings
6 5 7 12 14 15 16 rings

> <PUBCHEM_HEAVY_ATOM_COUNT>
22

> <PUBCHEM_ATOM_DEF_STEREO_COUNT>
5

> <PUBCHEM_ATOM_UDEF_STEREO_COUNT>
0

> <PUBCHEM_BOND_DEF_STEREO_COUNT>
0

> <PUBCHEM_BOND_UDEF_STEREO_COUNT>
0

> <PUBCHEM_ISOTOPIC_ATOM_COUNT>
0

> <PUBCHEM_COMPONENT_COUNT>
1

> <PUBCHEM_CACTVS_TAUTO_COUNT>
9

> <PUBCHEM_CONFORMER_ID>
0000176700000001

> <PUBCHEM_MMFF94_ENERGY>
75.3654

> <PUBCHEM_FEATURE_SELFOVERLAP>
40.689

> <PUBCHEM_SHAPE_FINGERPRINT>
10498660 4 18334565854482978588
10616163 171 18412261769892000550
10906281 52 18268729332496851400
10967382 1 18409163299196382730
11132069 177 18260823830106114581
11315181 36 17846777438100329984
11552529 35 18058445585631877095
11578080 2 16952518088400902894
11796584 16 15123796154675551020
12107183 9 17697047933183828707
12236239 1 17917992754997443209
12403259 415 18260540148118003532
12403814 3 17531241756051219503
12633257 1 18411416168188185458
12644460 14 18260827060354363322
12788726 201 17059505002047033793
128620 24 17385724690407290772
13140716 1 18264499557760559337
13224815 77 18408318891198213202
13675066 3 17749393654488776519
14790565 3 18338806709892665688
15163728 17 15481289097577292713
15183329 4 18408605830407435614
15196674 1 18337388339818468438
15209289 33 18341332270467662817
15209294 21 18059584555192331817
15309172 13 18409451371427638915
15536298 74 18341610425830279326
15788980 27 17749105603943632888
16945 1 18265320738190372627
17349148 13 18114176445825312880
1813 80 17530976782159466655
18186145 218 18409161126111612646
19489759 90 15410896249631894657
19591789 44 18193273216009210722
200 152 17918273168974754922
21033648 29 17968079933063946356
21267235 1 18338240469814837151
21623110 236 18263368155990106261
23402539 116 18410566319162361766
23402655 69 18201721773563375622
23559900 14 18341325700027887232
335352 9 18410007719541319564
34934 24 18335695014618288215
350125 39 18408603674022772468
3545911 37 18408602569419241710
3680242 22 18335416829913620042
4214541 1 18412824715549947695
474 4 18408605889666299408
5104073 3 18339077194179428906
542803 24 17561084709247609168
59755656 215 18335983078396721054
633830 44 18202282537272954908
9709674 26 18410014338397756278

> <PUBCHEM_SHAPE_MULTIPOLES>
441.01
10.64
2.03
1.22
7.18
0.55
-0.05
-1.94
-1.01
0.21
-0.15
-1.94
-0.33
-0.49

> <PUBCHEM_SHAPE_SELFOVERLAP>
961.464

> <PUBCHEM_SHAPE_VOLUME>
238.8

> <PUBCHEM_COORDINATE_TYPE>
2
5
10

> <Energy>
61.5647

> <minimizedAffinity>
2.29430

> <CNNscore>
0.2253492624

> <CNNaffinity>
7.1234359741

> <CNN_VS>
1.6052610874

> <CNNaffinity_variance>
1.4936252832

$$$$
5991


 24 27  0  0  0  0  0  0  0  0999 V2000
   -6.3932   -6.2639   23.6142 O   0  0  0  0  0  0  0  0  0  0  0  0
  -10.6134    2.2848   18.1688 O   0  0  0  0  0  0  0  0  0  0  0  0
   -7.0828   -4.4471   22.0852 C   0  0  0  0  0  0  0  0  0  0  0  0
   -6.9550   -4.3385   20.5481 C   0  0  0  0  0  0  0  0  0  0  0  0
   -7.8967   -3.2896   19.9517 C   0  0  0  0  0  0  0  0  0  0  0  0
   -6.1194   -5.6430   22.3641 C   0  0  0  0  0  0  0  0  0  0  0  0
   -7.5427   -1.8952   20.5506 C   0  0  0  0  0  0  0  0  0  0  0  0
   -6.7099   -3.0810   22.6916 C   0  0  0  0  0  0  0  0  0  0  0  0
   -7.0767   -5.7853   20.0770 C   0  0  0  0  0  0  0  0  0  0  0  0
   -7.5513   -1.9321   22.1011 C   0  0  0  0  0  0  0  0  0  0  0  0
   -6.4381   -6.6217   21.2027 C   0  0  0  0  0  0  0  0  0  0  0  0
   -7.7983   -3.2150   18.4261 C   0  0  0  0  0  0  0  0  0  0  0  0
   -8.5168   -4.8158   22.5679 C   0  0  0  0  0  0  0  0  0  0  0  0
   -8.3962   -0.7918   19.9263 C   0  0  0  0  0  0  0  0  0  0  0  0
   -8.8618   -2.2650   17.8848 C   0  0  0  0  0  0  0  0  0  0  0  0
   -8.9736   -0.9697   18.6496 C   0  0  0  0  0  0  0  0  0  0  0  0
   -8.5513    0.4539   20.5583 C   0  0  0  0  0  0  0  0  0  0  0  0
   -9.7306    0.0667   18.0705 C   0  0  0  0  0  0  0  0  0  0  0  0
   -9.2986    1.4811   19.9665 C   0  0  0  0  0  0  0  0  0  0  0  0
   -9.8865    1.2761   18.7280 C   0  0  0  0  0  0  0  0  0  0  0  0
   -7.3292   -6.5155   23.6523 H   0  0  0  0  0  0  0  0  0  0  0  0
  -11.0175    2.1629   17.3322 H   0  0  0  0  0  0  0  0  0  0  0  0
   -4.6913   -5.2743   22.3404 C   0  0  0  0  0  0  0  0  0  0  0  0
   -3.5276   -4.9701   22.3061 C   0  0  0  0  0  0  0  0  0  0  0  0
  1  6  1  0
  1 21  1  0
  2 20  1  0
  2 22  1  0
  3  4  1  0
  3  6  1  0
  3  8  1  0
  3 13  1  0
  4  5  1  0
  4  9  1  0
  5  7  1  0
  5 12  1  0
  6 11  1  0
  6 23  1  0
  7 10  1  0
  7 14  1  0
  8 10  1  0
  9 11  1  0
 12 15  1  0
 14 16  2  0
 14 17  1  0
 15 16  1  0
 16 18  1  0
 23 24  3  0
 17 19  2  0
 18 20  2  0
 19 20  1  0
M  END
> <PUBCHEM_COMPOUND_CID>
5991

> <PUBCHEM_CONFORMER_RMSD>
0.6

> <PUBCHEM_CONFORMER_DIVERSEORDER>
1

> <PUBCHEM_MMFF94_PARTIAL_CHARGES>
19
1 -0.68
14 -0.14
15 0.14
16 -0.14
17 -0.2
18 -0.15
19 -0.15
2 -0.53
20 -0.15
21 0.08
22 -0.18
41 0.4
42 0.15
43 0.15
44 0.15
45 0.18
46 0.45
6 0.48
7 0.14

> <PUBCHEM_EFFECTIVE_ROTOR_COUNT>
1.4

> <PUBCHEM_PHARMACOPHORE_FEATURES>
8
1 1 acceptor
1 1 donor
1 2 donor
1 22 hydrophobe
5 3 4 6 9 11 rings
6 14 16 18 19 20 21 rings
6 3 4 5 7 8 10 rings
6 5 7 12 14 15 16 rings

> <PUBCHEM_HEAVY_ATOM_COUNT>
22

> <PUBCHEM_ATOM_DEF_STEREO_COUNT>
5

> <PUBCHEM_ATOM_UDEF_STEREO_COUNT>
0

> <PUBCHEM_BOND_DEF_STEREO_COUNT>
0

> <PUBCHEM_BOND_UDEF_STEREO_COUNT>
0

> <PUBCHEM_ISOTOPIC_ATOM_COUNT>
0

> <PUBCHEM_COMPONENT_COUNT>
1

> <PUBCHEM_CACTVS_TAUTO_COUNT>
9

> <PUBCHEM_CONFORMER_ID>
0000176700000001

> <PUBCHEM_MMFF94_ENERGY>
75.3654

> <PUBCHEM_FEATURE_SELFOVERLAP>
40.689

> <PUBCHEM_SHAPE_FINGERPRINT>
10498660 4 18334565854482978588
10616163 171 18412261769892000550
10906281 52 18268729332496851400
10967382 1 18409163299196382730
11132069 177 18260823830106114581
11315181 36 17846777438100329984
11552529 35 18058445585631877095
11578080 2 16952518088400902894
11796584 16 15123796154675551020
12107183 9 17697047933183828707
12236239 1 17917992754997443209
12403259 415 18260540148118003532
12403814 3 17531241756051219503
12633257 1 18411416168188185458
12644460 14 18260827060354363322
12788726 201 17059505002047033793
128620 24 17385724690407290772
13140716 1 18264499557760559337
13224815 77 18408318891198213202
13675066 3 17749393654488776519
14790565 3 18338806709892665688
15163728 17 15481289097577292713
15183329 4 18408605830407435614
15196674 1 18337388339818468438
15209289 33 18341332270467662817
15209294 21 18059584555192331817
15309172 13 18409451371427638915
15536298 74 18341610425830279326
15788980 27 17749105603943632888
16945 1 18265320738190372627
17349148 13 18114176445825312880
1813 80 17530976782159466655
18186145 218 18409161126111612646
19489759 90 15410896249631894657
19591789 44 18193273216009210722
200 152 17918273168974754922
21033648 29 17968079933063946356
21267235 1 18338240469814837151
21623110 236 18263368155990106261
23402539 116 18410566319162361766
23402655 69 18201721773563375622
23559900 14 18341325700027887232
335352 9 18410007719541319564
34934 24 18335695014618288215
350125 39 18408603674022772468
3545911 37 18408602569419241710
3680242 22 18335416829913620042
4214541 1 18412824715549947695
474 4 18408605889666299408
5104073 3 18339077194179428906
542803 24 17561084709247609168
59755656 215 18335983078396721054
633830 44 18202282537272954908
9709674 26 18410014338397756278

> <PUBCHEM_SHAPE_MULTIPOLES>
441.01
10.64
2.03
1.22
7.18
0.55
-0.05
-1.94
-1.01
0.21
-0.15
-1.94
-0.33
-0.49

> <PUBCHEM_SHAPE_SELFOVERLAP>
961.464

> <PUBCHEM_SHAPE_VOLUME>
238.8

> <PUBCHEM_COORDINATE_TYPE>
2
5
10

> <Energy>
61.5647

> <minimizedAffinity>
30.02526

> <CNNscore>
0.2250144780

> <CNNaffinity>
6.2301030159

> <CNN_VS>
1.4018633366

> <CNNaffinity_variance>
0.5960335135

$$$$
