6623


 19 20  0  0  0  0  0  0  0  0999 V2000
   -5.3289   -4.8569   21.4174 C   0  0  0  0  0  0  0  0  0  0  0  0
   -5.9890   -3.5275   20.9591 C   0  0  0  0  0  0  0  0  0  0  0  0
   -5.4554   -4.8661   22.9652 C   0  0  0  0  0  0  0  0  0  0  0  0
    0.2368   -5.2292   20.1240 O   0  0  0  0  0  0  0  0  0  0  0  0
   -3.8191   -4.9473   21.0886 C   0  0  0  0  0  0  0  0  0  0  0  0
   -3.4037   -5.0499   19.7433 C   0  0  0  0  0  0  0  0  0  0  0  0
   -2.8209   -4.9354   22.0780 C   0  0  0  0  0  0  0  0  0  0  0  0
   -2.0514   -5.1472   19.4024 C   0  0  0  0  0  0  0  0  0  0  0  0
   -1.4672   -5.0277   21.7379 C   0  0  0  0  0  0  0  0  0  0  0  0
   -1.0934   -5.1357   20.4064 C   0  0  0  0  0  0  0  0  0  0  0  0
    0.5228   -5.3033   19.2348 H   0  0  0  0  0  0  0  0  0  0  0  0
   -8.1079   -9.1556   18.8543 O   0  0  0  0  0  0  0  0  0  0  0  0
   -6.1074   -6.0010   20.7255 C   0  0  0  0  0  0  0  0  0  0  0  0
   -6.0387   -7.3095   21.2503 C   0  0  0  0  0  0  0  0  0  0  0  0
   -6.8842   -5.8037   19.5700 C   0  0  0  0  0  0  0  0  0  0  0  0
   -6.7008   -8.3768   20.6371 C   0  0  0  0  0  0  0  0  0  0  0  0
   -7.5510   -6.8695   18.9593 C   0  0  0  0  0  0  0  0  0  0  0  0
   -7.4501   -8.1460   19.4919 C   0  0  0  0  0  0  0  0  0  0  0  0
   -8.0604  -10.0298   19.1881 H   0  0  0  0  0  0  0  0  0  0  0  0
  4 10  1  0
  4 11  1  0
 12 18  1  0
 12 19  1  0
  1  5  1  0
  1 13  1  0
  1  2  1  0
  1  3  1  0
  5  6  2  0
  5  7  1  0
 13 14  2  0
 13 15  1  0
  6  8  1  0
 14 16  1  0
  7  9  2  0
 15 17  2  0
  8 10  2  0
 16 18  2  0
  9 10  1  0
 17 18  1  0
M  END
> <PUBCHEM_COMPOUND_CID>
6623

> <PUBCHEM_CONFORMER_RMSD>
0.6

> <PUBCHEM_CONFORMER_DIVERSEORDER>
1
3
2

> <PUBCHEM_MMFF94_PARTIAL_CHARGES>
25
1 -0.53
10 -0.15
11 -0.15
12 -0.15
13 -0.15
14 -0.15
15 -0.15
16 0.08
17 0.08
2 -0.53
24 0.15
25 0.15
26 0.15
27 0.15
28 0.15
29 0.15
3 0.29
30 0.15
31 0.15
32 0.45
33 0.45
4 -0.14
5 -0.14
8 -0.15
9 -0.15

> <PUBCHEM_EFFECTIVE_ROTOR_COUNT>
2

> <PUBCHEM_PHARMACOPHORE_FEATURES>
5
1 1 donor
1 2 donor
3 3 6 7 hydrophobe
6 4 8 10 12 14 16 rings
6 5 9 11 13 15 17 rings

> <PUBCHEM_HEAVY_ATOM_COUNT>
17

> <PUBCHEM_ATOM_DEF_STEREO_COUNT>
0

> <PUBCHEM_ATOM_UDEF_STEREO_COUNT>
0

> <PUBCHEM_BOND_DEF_STEREO_COUNT>
0

> <PUBCHEM_BOND_UDEF_STEREO_COUNT>
0

> <PUBCHEM_ISOTOPIC_ATOM_COUNT>
0

> <PUBCHEM_COMPONENT_COUNT>
1

> <PUBCHEM_CACTVS_TAUTO_COUNT>
3

> <PUBCHEM_CONFORMER_ID>
000019DF00000001

> <PUBCHEM_MMFF94_ENERGY>
64.1206

> <PUBCHEM_FEATURE_SELFOVERLAP>
25.372

> <PUBCHEM_SHAPE_FINGERPRINT>
10465860 228 18265052440146906875
10498660 4 17846494807956907777
10618630 7 8862950471944920352
11046707 91 8574440819802817220
11640471 11 18410569587104953028
12138202 97 17632297942700988494
12251169 10 15719115772587467277
12491281 212 18341893034625719138
12633257 1 15647059291015153984
12788726 201 18049710021441717058
12892183 10 15719384001885322888
13571099 52 18261397711031002503
13764800 53 18340221781019704851
14251764 38 17758668950351880149
14739800 52 17985806350554812304
15061688 2 18410575084673810317
15309172 13 17822005415182549066
15342168 16 18187090559068058613
15375462 189 9295287269996453078
15534591 1 18337673126062282338
15653759 3 15068339003624658237
15775835 57 18410853261110395364
15906896 17 18264490774389428130
16945 1 17917141818369727011
17357779 13 13899614313340361589
1741750 31 18337674225716062138
17804303 29 12829490320433961629
1813 80 17692251833473259110
18186145 218 18334012757179395950
19765921 60 18411697656461014379
19868273 293 17988923409424780430
20291156 8 9223230745321134917
20361792 2 9943803365827786299
204376 136 18186802491163379179
20645476 183 18339358668581405150
20671657 53 12751245791825749096
20871999 31 16988551447065141829
21499 59 18412825772344063143
21524375 3 18410855460138945163
21713013 43 13758065299356720749
21731228 192 17894352193594983955
23184049 59 17894627041684797236
23402539 116 17774993601125170188
23557571 272 16557885966252971863
23559900 14 17561366193283564332
298252 57 18202560691760254914
3472631 163 18202563986327517557
4028521 119 17846780714954732865
4340502 62 18114473262852369283
474 4 18336547123060049707
633830 44 18410010996606913815
7364860 26 17700693965181141591
83771 10 9223230749695054610
94968 8 10663806477749826557
9981440 41 18128808828214612290

> <PUBCHEM_SHAPE_MULTIPOLES>
338.11
7.28
2.04
1.32
0.26
0.87
0
-5.89
0
-0.06
0
0
0.27
-0.69

> <PUBCHEM_SHAPE_SELFOVERLAP>
731.212

> <PUBCHEM_SHAPE_VOLUME>
187.1

> <PUBCHEM_COORDINATE_TYPE>
2
5
10

> <Energy>
42.8498

> <minimizedAffinity>
-8.43493

> <CNNscore>
0.7975994349

> <CNNaffinity>
6.8623900414

> <CNN_VS>
5.4734382629

> <CNNaffinity_variance>
0.3927231729

$$$$
6623


 19 20  0  0  0  0  0  0  0  0999 V2000
   -5.3293   -4.8522   21.4086 C   0  0  0  0  0  0  0  0  0  0  0  0
   -5.4473   -4.8822   22.9573 C   0  0  0  0  0  0  0  0  0  0  0  0
   -5.9928   -3.5177   20.9718 C   0  0  0  0  0  0  0  0  0  0  0  0
   -8.1395   -9.1272   18.8364 O   0  0  0  0  0  0  0  0  0  0  0  0
   -6.1038   -5.9918   20.7037 C   0  0  0  0  0  0  0  0  0  0  0  0
   -6.0317   -7.3050   21.2170 C   0  0  0  0  0  0  0  0  0  0  0  0
   -6.8878   -5.7849   19.5556 C   0  0  0  0  0  0  0  0  0  0  0  0
   -6.7044   -8.3662   20.6041 C   0  0  0  0  0  0  0  0  0  0  0  0
   -7.5653   -6.8451   18.9443 C   0  0  0  0  0  0  0  0  0  0  0  0
   -7.4666   -8.1250   19.4698 C   0  0  0  0  0  0  0  0  0  0  0  0
   -8.0938  -10.0032   19.1657 H   0  0  0  0  0  0  0  0  0  0  0  0
    0.2331   -5.2435   20.1134 O   0  0  0  0  0  0  0  0  0  0  0  0
   -3.8203   -4.9314   21.0766 C   0  0  0  0  0  0  0  0  0  0  0  0
   -3.4056   -5.0331   19.7313 C   0  0  0  0  0  0  0  0  0  0  0  0
   -2.8211   -4.9209   22.0661 C   0  0  0  0  0  0  0  0  0  0  0  0
   -2.0542   -5.1391   19.3907 C   0  0  0  0  0  0  0  0  0  0  0  0
   -1.4691   -5.0214   21.7260 C   0  0  0  0  0  0  0  0  0  0  0  0
   -1.0964   -5.1356   20.3950 C   0  0  0  0  0  0  0  0  0  0  0  0
    0.5186   -5.3222   19.2244 H   0  0  0  0  0  0  0  0  0  0  0  0
  4 10  1  0
  4 11  1  0
 12 18  1  0
 12 19  1  0
  1  5  1  0
  1 13  1  0
  1  2  1  0
  1  3  1  0
  5  6  2  0
  5  7  1  0
 13 14  2  0
 13 15  1  0
  6  8  1  0
 14 16  1  0
  7  9  2  0
 15 17  2  0
  8 10  2  0
 16 18  2  0
  9 10  1  0
 17 18  1  0
M  END
> <PUBCHEM_COMPOUND_CID>
6623

> <PUBCHEM_CONFORMER_RMSD>
0.6

> <PUBCHEM_CONFORMER_DIVERSEORDER>
1
3
2

> <PUBCHEM_MMFF94_PARTIAL_CHARGES>
25
1 -0.53
10 -0.15
11 -0.15
12 -0.15
13 -0.15
14 -0.15
15 -0.15
16 0.08
17 0.08
2 -0.53
24 0.15
25 0.15
26 0.15
27 0.15
28 0.15
29 0.15
3 0.29
30 0.15
31 0.15
32 0.45
33 0.45
4 -0.14
5 -0.14
8 -0.15
9 -0.15

> <PUBCHEM_EFFECTIVE_ROTOR_COUNT>
2

> <PUBCHEM_PHARMACOPHORE_FEATURES>
5
1 1 donor
1 2 donor
3 3 6 7 hydrophobe
6 4 8 10 12 14 16 rings
6 5 9 11 13 15 17 rings

> <PUBCHEM_HEAVY_ATOM_COUNT>
17

> <PUBCHEM_ATOM_DEF_STEREO_COUNT>
0

> <PUBCHEM_ATOM_UDEF_STEREO_COUNT>
0

> <PUBCHEM_BOND_DEF_STEREO_COUNT>
0

> <PUBCHEM_BOND_UDEF_STEREO_COUNT>
0

> <PUBCHEM_ISOTOPIC_ATOM_COUNT>
0

> <PUBCHEM_COMPONENT_COUNT>
1

> <PUBCHEM_CACTVS_TAUTO_COUNT>
3

> <PUBCHEM_CONFORMER_ID>
000019DF00000001

> <PUBCHEM_MMFF94_ENERGY>
64.1206

> <PUBCHEM_FEATURE_SELFOVERLAP>
25.372

> <PUBCHEM_SHAPE_FINGERPRINT>
10465860 228 18265052440146906875
10498660 4 17846494807956907777
10618630 7 8862950471944920352
11046707 91 8574440819802817220
11640471 11 18410569587104953028
12138202 97 17632297942700988494
12251169 10 15719115772587467277
12491281 212 18341893034625719138
12633257 1 15647059291015153984
12788726 201 18049710021441717058
12892183 10 15719384001885322888
13571099 52 18261397711031002503
13764800 53 18340221781019704851
14251764 38 17758668950351880149
14739800 52 17985806350554812304
15061688 2 18410575084673810317
15309172 13 17822005415182549066
15342168 16 18187090559068058613
15375462 189 9295287269996453078
15534591 1 18337673126062282338
15653759 3 15068339003624658237
15775835 57 18410853261110395364
15906896 17 18264490774389428130
16945 1 17917141818369727011
17357779 13 13899614313340361589
1741750 31 18337674225716062138
17804303 29 12829490320433961629
1813 80 17692251833473259110
18186145 218 18334012757179395950
19765921 60 18411697656461014379
19868273 293 17988923409424780430
20291156 8 9223230745321134917
20361792 2 9943803365827786299
204376 136 18186802491163379179
20645476 183 18339358668581405150
20671657 53 12751245791825749096
20871999 31 16988551447065141829
21499 59 18412825772344063143
21524375 3 18410855460138945163
21713013 43 13758065299356720749
21731228 192 17894352193594983955
23184049 59 17894627041684797236
23402539 116 17774993601125170188
23557571 272 16557885966252971863
23559900 14 17561366193283564332
298252 57 18202560691760254914
3472631 163 18202563986327517557
4028521 119 17846780714954732865
4340502 62 18114473262852369283
474 4 18336547123060049707
633830 44 18410010996606913815
7364860 26 17700693965181141591
83771 10 9223230749695054610
94968 8 10663806477749826557
9981440 41 18128808828214612290

> <PUBCHEM_SHAPE_MULTIPOLES>
338.11
7.28
2.04
1.32
0.26
0.87
0
-5.89
0
-0.06
0
0
0.27
-0.69

> <PUBCHEM_SHAPE_SELFOVERLAP>
731.212

> <PUBCHEM_SHAPE_VOLUME>
187.1

> <PUBCHEM_COORDINATE_TYPE>
2
5
10

> <Energy>
42.8498

> <minimizedAffinity>
-8.42603

> <CNNscore>
0.7956552505

> <CNNaffinity>
6.8627853394

> <CNN_VS>
5.4604110718

> <CNNaffinity_variance>
0.3958217800

$$$$
6623


 19 20  0  0  0  0  0  0  0  0999 V2000
   -4.2761   -5.0701   21.6940 C   0  0  0  0  0  0  0  0  0  0  0  0
   -3.7775   -6.2052   22.6300 C   0  0  0  0  0  0  0  0  0  0  0  0
   -4.4023   -3.8156   22.6008 C   0  0  0  0  0  0  0  0  0  0  0  0
   -9.4862   -5.9609   19.4919 O   0  0  0  0  0  0  0  0  0  0  0  0
   -5.6770   -5.3319   21.0903 C   0  0  0  0  0  0  0  0  0  0  0  0
   -6.5325   -4.2428   20.8162 C   0  0  0  0  0  0  0  0  0  0  0  0
   -6.1527   -6.6217   20.7978 C   0  0  0  0  0  0  0  0  0  0  0  0
   -7.8107   -4.4348   20.2836 C   0  0  0  0  0  0  0  0  0  0  0  0
   -7.4296   -6.8147   20.2602 C   0  0  0  0  0  0  0  0  0  0  0  0
   -8.2482   -5.7231   20.0104 C   0  0  0  0  0  0  0  0  0  0  0  0
  -10.0639   -5.2456   19.3115 H   0  0  0  0  0  0  0  0  0  0  0  0
   -0.3340   -4.4102   17.5958 O   0  0  0  0  0  0  0  0  0  0  0  0
   -3.2187   -4.9210   20.5744 C   0  0  0  0  0  0  0  0  0  0  0  0
   -1.8897   -4.5835   20.9094 C   0  0  0  0  0  0  0  0  0  0  0  0
   -3.5222   -5.0942   19.2122 C   0  0  0  0  0  0  0  0  0  0  0  0
   -0.9120   -4.4079   19.9261 C   0  0  0  0  0  0  0  0  0  0  0  0
   -2.5436   -4.9241   18.2288 C   0  0  0  0  0  0  0  0  0  0  0  0
   -1.2506   -4.5772   18.5909 C   0  0  0  0  0  0  0  0  0  0  0  0
    0.5484   -4.1758   17.8062 H   0  0  0  0  0  0  0  0  0  0  0  0
  4 10  1  0
  4 11  1  0
 12 18  1  0
 12 19  1  0
  1  5  1  0
  1 13  1  0
  1  2  1  0
  1  3  1  0
  5  6  2  0
  5  7  1  0
 13 14  2  0
 13 15  1  0
  6  8  1  0
 14 16  1  0
  7  9  2  0
 15 17  2  0
  8 10  2  0
 16 18  2  0
  9 10  1  0
 17 18  1  0
M  END
> <PUBCHEM_COMPOUND_CID>
6623

> <PUBCHEM_CONFORMER_RMSD>
0.6

> <PUBCHEM_CONFORMER_DIVERSEORDER>
1
3
2

> <PUBCHEM_MMFF94_PARTIAL_CHARGES>
25
1 -0.53
10 -0.15
11 -0.15
12 -0.15
13 -0.15
14 -0.15
15 -0.15
16 0.08
17 0.08
2 -0.53
24 0.15
25 0.15
26 0.15
27 0.15
28 0.15
29 0.15
3 0.29
30 0.15
31 0.15
32 0.45
33 0.45
4 -0.14
5 -0.14
8 -0.15
9 -0.15

> <PUBCHEM_EFFECTIVE_ROTOR_COUNT>
2

> <PUBCHEM_PHARMACOPHORE_FEATURES>
5
1 1 donor
1 2 donor
3 3 6 7 hydrophobe
6 4 8 10 12 14 16 rings
6 5 9 11 13 15 17 rings

> <PUBCHEM_HEAVY_ATOM_COUNT>
17

> <PUBCHEM_ATOM_DEF_STEREO_COUNT>
0

> <PUBCHEM_ATOM_UDEF_STEREO_COUNT>
0

> <PUBCHEM_BOND_DEF_STEREO_COUNT>
0

> <PUBCHEM_BOND_UDEF_STEREO_COUNT>
0

> <PUBCHEM_ISOTOPIC_ATOM_COUNT>
0

> <PUBCHEM_COMPONENT_COUNT>
1

> <PUBCHEM_CACTVS_TAUTO_COUNT>
3

> <PUBCHEM_CONFORMER_ID>
000019DF00000001

> <PUBCHEM_MMFF94_ENERGY>
64.1206

> <PUBCHEM_FEATURE_SELFOVERLAP>
25.372

> <PUBCHEM_SHAPE_FINGERPRINT>
10465860 228 18265052440146906875
10498660 4 17846494807956907777
10618630 7 8862950471944920352
11046707 91 8574440819802817220
11640471 11 18410569587104953028
12138202 97 17632297942700988494
12251169 10 15719115772587467277
12491281 212 18341893034625719138
12633257 1 15647059291015153984
12788726 201 18049710021441717058
12892183 10 15719384001885322888
13571099 52 18261397711031002503
13764800 53 18340221781019704851
14251764 38 17758668950351880149
14739800 52 17985806350554812304
15061688 2 18410575084673810317
15309172 13 17822005415182549066
15342168 16 18187090559068058613
15375462 189 9295287269996453078
15534591 1 18337673126062282338
15653759 3 15068339003624658237
15775835 57 18410853261110395364
15906896 17 18264490774389428130
16945 1 17917141818369727011
17357779 13 13899614313340361589
1741750 31 18337674225716062138
17804303 29 12829490320433961629
1813 80 17692251833473259110
18186145 218 18334012757179395950
19765921 60 18411697656461014379
19868273 293 17988923409424780430
20291156 8 9223230745321134917
20361792 2 9943803365827786299
204376 136 18186802491163379179
20645476 183 18339358668581405150
20671657 53 12751245791825749096
20871999 31 16988551447065141829
21499 59 18412825772344063143
21524375 3 18410855460138945163
21713013 43 13758065299356720749
21731228 192 17894352193594983955
23184049 59 17894627041684797236
23402539 116 17774993601125170188
23557571 272 16557885966252971863
23559900 14 17561366193283564332
298252 57 18202560691760254914
3472631 163 18202563986327517557
4028521 119 17846780714954732865
4340502 62 18114473262852369283
474 4 18336547123060049707
633830 44 18410010996606913815
7364860 26 17700693965181141591
83771 10 9223230749695054610
94968 8 10663806477749826557
9981440 41 18128808828214612290

> <PUBCHEM_SHAPE_MULTIPOLES>
338.11
7.28
2.04
1.32
0.26
0.87
0
-5.89
0
-0.06
0
0
0.27
-0.69

> <PUBCHEM_SHAPE_SELFOVERLAP>
731.212

> <PUBCHEM_SHAPE_VOLUME>
187.1

> <PUBCHEM_COORDINATE_TYPE>
2
5
10

> <Energy>
42.8498

> <minimizedAffinity>
-7.09385

> <CNNscore>
0.7895689607

> <CNNaffinity>
6.9663619995

> <CNN_VS>
5.5004234314

> <CNNaffinity_variance>
0.7480276227

$$$$
6623


 19 20  0  0  0  0  0  0  0  0999 V2000
   -5.2991   -4.8833   21.3587 C   0  0  0  0  0  0  0  0  0  0  0  0
   -5.9708   -3.5698   20.8722 C   0  0  0  0  0  0  0  0  0  0  0  0
   -5.4391   -4.8679   22.9053 C   0  0  0  0  0  0  0  0  0  0  0  0
    0.2817   -5.2103   20.1192 O   0  0  0  0  0  0  0  0  0  0  0  0
   -3.7856   -4.9613   21.0445 C   0  0  0  0  0  0  0  0  0  0  0  0
   -3.3567   -5.0686   19.7038 C   0  0  0  0  0  0  0  0  0  0  0  0
   -2.7968   -4.9333   22.0430 C   0  0  0  0  0  0  0  0  0  0  0  0
   -2.0004   -5.1551   19.3761 C   0  0  0  0  0  0  0  0  0  0  0  0
   -1.4392   -5.0147   21.7160 C   0  0  0  0  0  0  0  0  0  0  0  0
   -1.0520   -5.1277   20.3888 C   0  0  0  0  0  0  0  0  0  0  0  0
    0.5766   -5.2874   19.2332 H   0  0  0  0  0  0  0  0  0  0  0  0
   -8.2090   -9.1291   18.8534 O   0  0  0  0  0  0  0  0  0  0  0  0
   -6.0580   -6.0482   20.6798 C   0  0  0  0  0  0  0  0  0  0  0  0
   -6.8633   -5.7922   19.5492 C   0  0  0  0  0  0  0  0  0  0  0  0
   -5.9968   -7.3727   21.1482 C   0  0  0  0  0  0  0  0  0  0  0  0
   -7.5903   -6.8104   18.9261 C   0  0  0  0  0  0  0  0  0  0  0  0
   -6.7192   -8.3925   20.5223 C   0  0  0  0  0  0  0  0  0  0  0  0
   -7.5134   -8.1041   19.4225 C   0  0  0  0  0  0  0  0  0  0  0  0
   -8.7549   -8.9684   18.1090 H   0  0  0  0  0  0  0  0  0  0  0  0
  4 10  1  0
  4 11  1  0
 12 18  1  0
 12 19  1  0
  1  5  1  0
  1 13  1  0
  1  2  1  0
  1  3  1  0
  5  6  2  0
  5  7  1  0
 13 14  2  0
 13 15  1  0
  6  8  1  0
 14 16  1  0
  7  9  2  0
 15 17  2  0
  8 10  2  0
 16 18  2  0
  9 10  1  0
 17 18  1  0
M  END
> <PUBCHEM_COMPOUND_CID>
6623

> <PUBCHEM_CONFORMER_RMSD>
0.6

> <PUBCHEM_CONFORMER_DIVERSEORDER>
1
3
2

> <PUBCHEM_MMFF94_PARTIAL_CHARGES>
25
1 -0.53
10 -0.15
11 -0.15
12 -0.15
13 -0.15
14 -0.15
15 -0.15
16 0.08
17 0.08
2 -0.53
24 0.15
25 0.15
26 0.15
27 0.15
28 0.15
29 0.15
3 0.29
30 0.15
31 0.15
32 0.45
33 0.45
4 -0.14
5 -0.14
8 -0.15
9 -0.15

> <PUBCHEM_EFFECTIVE_ROTOR_COUNT>
2

> <PUBCHEM_PHARMACOPHORE_FEATURES>
5
1 1 donor
1 2 donor
3 3 6 7 hydrophobe
6 4 8 10 12 14 16 rings
6 5 9 11 13 15 17 rings

> <PUBCHEM_HEAVY_ATOM_COUNT>
17

> <PUBCHEM_ATOM_DEF_STEREO_COUNT>
0

> <PUBCHEM_ATOM_UDEF_STEREO_COUNT>
0

> <PUBCHEM_BOND_DEF_STEREO_COUNT>
0

> <PUBCHEM_BOND_UDEF_STEREO_COUNT>
0

> <PUBCHEM_ISOTOPIC_ATOM_COUNT>
0

> <PUBCHEM_COMPONENT_COUNT>
1

> <PUBCHEM_CACTVS_TAUTO_COUNT>
3

> <PUBCHEM_CONFORMER_ID>
000019DF00000001

> <PUBCHEM_MMFF94_ENERGY>
64.1206

> <PUBCHEM_FEATURE_SELFOVERLAP>
25.372

> <PUBCHEM_SHAPE_FINGERPRINT>
10465860 228 18265052440146906875
10498660 4 17846494807956907777
10618630 7 8862950471944920352
11046707 91 8574440819802817220
11640471 11 18410569587104953028
12138202 97 17632297942700988494
12251169 10 15719115772587467277
12491281 212 18341893034625719138
12633257 1 15647059291015153984
12788726 201 18049710021441717058
12892183 10 15719384001885322888
13571099 52 18261397711031002503
13764800 53 18340221781019704851
14251764 38 17758668950351880149
14739800 52 17985806350554812304
15061688 2 18410575084673810317
15309172 13 17822005415182549066
15342168 16 18187090559068058613
15375462 189 9295287269996453078
15534591 1 18337673126062282338
15653759 3 15068339003624658237
15775835 57 18410853261110395364
15906896 17 18264490774389428130
16945 1 17917141818369727011
17357779 13 13899614313340361589
1741750 31 18337674225716062138
17804303 29 12829490320433961629
1813 80 17692251833473259110
18186145 218 18334012757179395950
19765921 60 18411697656461014379
19868273 293 17988923409424780430
20291156 8 9223230745321134917
20361792 2 9943803365827786299
204376 136 18186802491163379179
20645476 183 18339358668581405150
20671657 53 12751245791825749096
20871999 31 16988551447065141829
21499 59 18412825772344063143
21524375 3 18410855460138945163
21713013 43 13758065299356720749
21731228 192 17894352193594983955
23184049 59 17894627041684797236
23402539 116 17774993601125170188
23557571 272 16557885966252971863
23559900 14 17561366193283564332
298252 57 18202560691760254914
3472631 163 18202563986327517557
4028521 119 17846780714954732865
4340502 62 18114473262852369283
474 4 18336547123060049707
633830 44 18410010996606913815
7364860 26 17700693965181141591
83771 10 9223230749695054610
94968 8 10663806477749826557
9981440 41 18128808828214612290

> <PUBCHEM_SHAPE_MULTIPOLES>
338.11
7.28
2.04
1.32
0.26
0.87
0
-5.89
0
-0.06
0
0
0.27
-0.69

> <PUBCHEM_SHAPE_SELFOVERLAP>
731.212

> <PUBCHEM_SHAPE_VOLUME>
187.1

> <PUBCHEM_COORDINATE_TYPE>
2
5
10

> <Energy>
42.8498

> <minimizedAffinity>
-8.43693

> <CNNscore>
0.7735629082

> <CNNaffinity>
6.8763828278

> <CNN_VS>
5.3193144798

> <CNNaffinity_variance>
0.4025268257

$$$$
6623


 19 20  0  0  0  0  0  0  0  0999 V2000
   -5.2964   -4.4244   21.9208 C   0  0  0  0  0  0  0  0  0  0  0  0
   -5.2210   -2.8947   22.1803 C   0  0  0  0  0  0  0  0  0  0  0  0
   -4.7083   -5.0870   23.1963 C   0  0  0  0  0  0  0  0  0  0  0  0
   -2.0234   -6.1820   17.5634 O   0  0  0  0  0  0  0  0  0  0  0  0
   -4.4301   -4.8964   20.7281 C   0  0  0  0  0  0  0  0  0  0  0  0
   -3.2974   -5.7047   20.9662 C   0  0  0  0  0  0  0  0  0  0  0  0
   -4.7153   -4.5536   19.3952 C   0  0  0  0  0  0  0  0  0  0  0  0
   -2.4799   -6.1421   19.9199 C   0  0  0  0  0  0  0  0  0  0  0  0
   -3.9010   -4.9947   18.3470 C   0  0  0  0  0  0  0  0  0  0  0  0
   -2.7905   -5.7812   18.6164 C   0  0  0  0  0  0  0  0  0  0  0  0
   -1.2664   -6.7141   17.7110 H   0  0  0  0  0  0  0  0  0  0  0  0
  -10.7878   -5.7861   21.0482 O   0  0  0  0  0  0  0  0  0  0  0  0
   -6.7870   -4.7610   21.6792 C   0  0  0  0  0  0  0  0  0  0  0  0
   -7.4968   -5.5158   22.6378 C   0  0  0  0  0  0  0  0  0  0  0  0
   -7.4816   -4.3577   20.5249 C   0  0  0  0  0  0  0  0  0  0  0  0
   -8.8352   -5.8685   22.4429 C   0  0  0  0  0  0  0  0  0  0  0  0
   -8.8215   -4.7053   20.3318 C   0  0  0  0  0  0  0  0  0  0  0  0
   -9.4854   -5.4612   21.2865 C   0  0  0  0  0  0  0  0  0  0  0  0
  -11.2652   -6.2958   21.6729 H   0  0  0  0  0  0  0  0  0  0  0  0
  4 10  1  0
  4 11  1  0
 12 18  1  0
 12 19  1  0
  1  5  1  0
  1 13  1  0
  1  2  1  0
  1  3  1  0
  5  6  2  0
  5  7  1  0
 13 14  2  0
 13 15  1  0
  6  8  1  0
 14 16  1  0
  7  9  2  0
 15 17  2  0
  8 10  2  0
 16 18  2  0
  9 10  1  0
 17 18  1  0
M  END
> <PUBCHEM_COMPOUND_CID>
6623

> <PUBCHEM_CONFORMER_RMSD>
0.6

> <PUBCHEM_CONFORMER_DIVERSEORDER>
1
3
2

> <PUBCHEM_MMFF94_PARTIAL_CHARGES>
25
1 -0.53
10 -0.15
11 -0.15
12 -0.15
13 -0.15
14 -0.15
15 -0.15
16 0.08
17 0.08
2 -0.53
24 0.15
25 0.15
26 0.15
27 0.15
28 0.15
29 0.15
3 0.29
30 0.15
31 0.15
32 0.45
33 0.45
4 -0.14
5 -0.14
8 -0.15
9 -0.15

> <PUBCHEM_EFFECTIVE_ROTOR_COUNT>
2

> <PUBCHEM_PHARMACOPHORE_FEATURES>
5
1 1 donor
1 2 donor
3 3 6 7 hydrophobe
6 4 8 10 12 14 16 rings
6 5 9 11 13 15 17 rings

> <PUBCHEM_HEAVY_ATOM_COUNT>
17

> <PUBCHEM_ATOM_DEF_STEREO_COUNT>
0

> <PUBCHEM_ATOM_UDEF_STEREO_COUNT>
0

> <PUBCHEM_BOND_DEF_STEREO_COUNT>
0

> <PUBCHEM_BOND_UDEF_STEREO_COUNT>
0

> <PUBCHEM_ISOTOPIC_ATOM_COUNT>
0

> <PUBCHEM_COMPONENT_COUNT>
1

> <PUBCHEM_CACTVS_TAUTO_COUNT>
3

> <PUBCHEM_CONFORMER_ID>
000019DF00000001

> <PUBCHEM_MMFF94_ENERGY>
64.1206

> <PUBCHEM_FEATURE_SELFOVERLAP>
25.372

> <PUBCHEM_SHAPE_FINGERPRINT>
10465860 228 18265052440146906875
10498660 4 17846494807956907777
10618630 7 8862950471944920352
11046707 91 8574440819802817220
11640471 11 18410569587104953028
12138202 97 17632297942700988494
12251169 10 15719115772587467277
12491281 212 18341893034625719138
12633257 1 15647059291015153984
12788726 201 18049710021441717058
12892183 10 15719384001885322888
13571099 52 18261397711031002503
13764800 53 18340221781019704851
14251764 38 17758668950351880149
14739800 52 17985806350554812304
15061688 2 18410575084673810317
15309172 13 17822005415182549066
15342168 16 18187090559068058613
15375462 189 9295287269996453078
15534591 1 18337673126062282338
15653759 3 15068339003624658237
15775835 57 18410853261110395364
15906896 17 18264490774389428130
16945 1 17917141818369727011
17357779 13 13899614313340361589
1741750 31 18337674225716062138
17804303 29 12829490320433961629
1813 80 17692251833473259110
18186145 218 18334012757179395950
19765921 60 18411697656461014379
19868273 293 17988923409424780430
20291156 8 9223230745321134917
20361792 2 9943803365827786299
204376 136 18186802491163379179
20645476 183 18339358668581405150
20671657 53 12751245791825749096
20871999 31 16988551447065141829
21499 59 18412825772344063143
21524375 3 18410855460138945163
21713013 43 13758065299356720749
21731228 192 17894352193594983955
23184049 59 17894627041684797236
23402539 116 17774993601125170188
23557571 272 16557885966252971863
23559900 14 17561366193283564332
298252 57 18202560691760254914
3472631 163 18202563986327517557
4028521 119 17846780714954732865
4340502 62 18114473262852369283
474 4 18336547123060049707
633830 44 18410010996606913815
7364860 26 17700693965181141591
83771 10 9223230749695054610
94968 8 10663806477749826557
9981440 41 18128808828214612290

> <PUBCHEM_SHAPE_MULTIPOLES>
338.11
7.28
2.04
1.32
0.26
0.87
0
-5.89
0
-0.06
0
0
0.27
-0.69

> <PUBCHEM_SHAPE_SELFOVERLAP>
731.212

> <PUBCHEM_SHAPE_VOLUME>
187.1

> <PUBCHEM_COORDINATE_TYPE>
2
5
10

> <Energy>
42.8498

> <minimizedAffinity>
-8.33615

> <CNNscore>
0.7667046785

> <CNNaffinity>
6.9874711037

> <CNN_VS>
5.3573269844

> <CNNaffinity_variance>
0.5006077886

$$$$
6623


 19 20  0  0  0  0  0  0  0  0999 V2000
   -5.3038   -4.4293   21.9013 C   0  0  0  0  0  0  0  0  0  0  0  0
   -4.6726   -5.0362   23.1844 C   0  0  0  0  0  0  0  0  0  0  0  0
   -5.2667   -2.8913   22.1132 C   0  0  0  0  0  0  0  0  0  0  0  0
  -10.8027   -5.8005   21.0825 O   0  0  0  0  0  0  0  0  0  0  0  0
   -6.7871   -4.8194   21.6934 C   0  0  0  0  0  0  0  0  0  0  0  0
   -7.4891   -4.3196   20.5752 C   0  0  0  0  0  0  0  0  0  0  0  0
   -7.4863   -5.6587   22.5778 C   0  0  0  0  0  0  0  0  0  0  0  0
   -8.8332   -4.6357   20.3563 C   0  0  0  0  0  0  0  0  0  0  0  0
   -8.8298   -5.9796   22.3572 C   0  0  0  0  0  0  0  0  0  0  0  0
   -9.4925   -5.4649   21.2527 C   0  0  0  0  0  0  0  0  0  0  0  0
  -11.2792   -5.4697   20.3467 H   0  0  0  0  0  0  0  0  0  0  0  0
   -2.0122   -6.1747   17.5550 O   0  0  0  0  0  0  0  0  0  0  0  0
   -4.4409   -4.9115   20.7111 C   0  0  0  0  0  0  0  0  0  0  0  0
   -3.3304   -5.7499   20.9480 C   0  0  0  0  0  0  0  0  0  0  0  0
   -4.7026   -4.5392   19.3804 C   0  0  0  0  0  0  0  0  0  0  0  0
   -2.5066   -6.1814   19.9045 C   0  0  0  0  0  0  0  0  0  0  0  0
   -3.8825   -4.9749   18.3358 C   0  0  0  0  0  0  0  0  0  0  0  0
   -2.7899   -5.7855   18.6048 C   0  0  0  0  0  0  0  0  0  0  0  0
   -1.2665   -6.7226   17.7023 H   0  0  0  0  0  0  0  0  0  0  0  0
  4 10  1  0
  4 11  1  0
 12 18  1  0
 12 19  1  0
  1  5  1  0
  1 13  1  0
  1  2  1  0
  1  3  1  0
  5  6  2  0
  5  7  1  0
 13 14  2  0
 13 15  1  0
  6  8  1  0
 14 16  1  0
  7  9  2  0
 15 17  2  0
  8 10  2  0
 16 18  2  0
  9 10  1  0
 17 18  1  0
M  END
> <PUBCHEM_COMPOUND_CID>
6623

> <PUBCHEM_CONFORMER_RMSD>
0.6

> <PUBCHEM_CONFORMER_DIVERSEORDER>
1
3
2

> <PUBCHEM_MMFF94_PARTIAL_CHARGES>
25
1 -0.53
10 -0.15
11 -0.15
12 -0.15
13 -0.15
14 -0.15
15 -0.15
16 0.08
17 0.08
2 -0.53
24 0.15
25 0.15
26 0.15
27 0.15
28 0.15
29 0.15
3 0.29
30 0.15
31 0.15
32 0.45
33 0.45
4 -0.14
5 -0.14
8 -0.15
9 -0.15

> <PUBCHEM_EFFECTIVE_ROTOR_COUNT>
2

> <PUBCHEM_PHARMACOPHORE_FEATURES>
5
1 1 donor
1 2 donor
3 3 6 7 hydrophobe
6 4 8 10 12 14 16 rings
6 5 9 11 13 15 17 rings

> <PUBCHEM_HEAVY_ATOM_COUNT>
17

> <PUBCHEM_ATOM_DEF_STEREO_COUNT>
0

> <PUBCHEM_ATOM_UDEF_STEREO_COUNT>
0

> <PUBCHEM_BOND_DEF_STEREO_COUNT>
0

> <PUBCHEM_BOND_UDEF_STEREO_COUNT>
0

> <PUBCHEM_ISOTOPIC_ATOM_COUNT>
0

> <PUBCHEM_COMPONENT_COUNT>
1

> <PUBCHEM_CACTVS_TAUTO_COUNT>
3

> <PUBCHEM_CONFORMER_ID>
000019DF00000001

> <PUBCHEM_MMFF94_ENERGY>
64.1206

> <PUBCHEM_FEATURE_SELFOVERLAP>
25.372

> <PUBCHEM_SHAPE_FINGERPRINT>
10465860 228 18265052440146906875
10498660 4 17846494807956907777
10618630 7 8862950471944920352
11046707 91 8574440819802817220
11640471 11 18410569587104953028
12138202 97 17632297942700988494
12251169 10 15719115772587467277
12491281 212 18341893034625719138
12633257 1 15647059291015153984
12788726 201 18049710021441717058
12892183 10 15719384001885322888
13571099 52 18261397711031002503
13764800 53 18340221781019704851
14251764 38 17758668950351880149
14739800 52 17985806350554812304
15061688 2 18410575084673810317
15309172 13 17822005415182549066
15342168 16 18187090559068058613
15375462 189 9295287269996453078
15534591 1 18337673126062282338
15653759 3 15068339003624658237
15775835 57 18410853261110395364
15906896 17 18264490774389428130
16945 1 17917141818369727011
17357779 13 13899614313340361589
1741750 31 18337674225716062138
17804303 29 12829490320433961629
1813 80 17692251833473259110
18186145 218 18334012757179395950
19765921 60 18411697656461014379
19868273 293 17988923409424780430
20291156 8 9223230745321134917
20361792 2 9943803365827786299
204376 136 18186802491163379179
20645476 183 18339358668581405150
20671657 53 12751245791825749096
20871999 31 16988551447065141829
21499 59 18412825772344063143
21524375 3 18410855460138945163
21713013 43 13758065299356720749
21731228 192 17894352193594983955
23184049 59 17894627041684797236
23402539 116 17774993601125170188
23557571 272 16557885966252971863
23559900 14 17561366193283564332
298252 57 18202560691760254914
3472631 163 18202563986327517557
4028521 119 17846780714954732865
4340502 62 18114473262852369283
474 4 18336547123060049707
633830 44 18410010996606913815
7364860 26 17700693965181141591
83771 10 9223230749695054610
94968 8 10663806477749826557
9981440 41 18128808828214612290

> <PUBCHEM_SHAPE_MULTIPOLES>
338.11
7.28
2.04
1.32
0.26
0.87
0
-5.89
0
-0.06
0
0
0.27
-0.69

> <PUBCHEM_SHAPE_SELFOVERLAP>
731.212

> <PUBCHEM_SHAPE_VOLUME>
187.1

> <PUBCHEM_COORDINATE_TYPE>
2
5
10

> <Energy>
42.8498

> <minimizedAffinity>
-8.31565

> <CNNscore>
0.7491854429

> <CNNaffinity>
6.9556984901

> <CNN_VS>
5.2111082077

> <CNNaffinity_variance>
0.4815712869

$$$$
6623


 19 20  0  0  0  0  0  0  0  0999 V2000
   -5.3018   -4.4305   21.8668 C   0  0  0  0  0  0  0  0  0  0  0  0
   -4.7130   -5.0922   23.1430 C   0  0  0  0  0  0  0  0  0  0  0  0
   -5.2155   -2.9008   22.1201 C   0  0  0  0  0  0  0  0  0  0  0  0
  -10.8170   -5.7262   21.0349 O   0  0  0  0  0  0  0  0  0  0  0  0
   -6.7940   -4.7634   21.6257 C   0  0  0  0  0  0  0  0  0  0  0  0
   -7.5283   -5.4370   22.6257 C   0  0  0  0  0  0  0  0  0  0  0  0
   -7.4688   -4.4265   20.4397 C   0  0  0  0  0  0  0  0  0  0  0  0
   -8.8742   -5.7690   22.4443 C   0  0  0  0  0  0  0  0  0  0  0  0
   -8.8167   -4.7536   20.2590 C   0  0  0  0  0  0  0  0  0  0  0  0
   -9.5070   -5.4233   21.2586 C   0  0  0  0  0  0  0  0  0  0  0  0
  -11.3118   -6.1781   21.6898 H   0  0  0  0  0  0  0  0  0  0  0  0
   -2.0014   -6.1727   17.5260 O   0  0  0  0  0  0  0  0  0  0  0  0
   -4.4366   -4.9112   20.6777 C   0  0  0  0  0  0  0  0  0  0  0  0
   -3.3410   -5.7695   20.9132 C   0  0  0  0  0  0  0  0  0  0  0  0
   -4.6815   -4.5186   19.3498 C   0  0  0  0  0  0  0  0  0  0  0  0
   -2.5154   -6.2008   19.8711 C   0  0  0  0  0  0  0  0  0  0  0  0
   -3.8595   -4.9538   18.3065 C   0  0  0  0  0  0  0  0  0  0  0  0
   -2.7817   -5.7846   18.5742 C   0  0  0  0  0  0  0  0  0  0  0  0
   -1.2654   -6.7338   17.6725 H   0  0  0  0  0  0  0  0  0  0  0  0
  4 10  1  0
  4 11  1  0
 12 18  1  0
 12 19  1  0
  1  5  1  0
  1 13  1  0
  1  2  1  0
  1  3  1  0
  5  6  2  0
  5  7  1  0
 13 14  2  0
 13 15  1  0
  6  8  1  0
 14 16  1  0
  7  9  2  0
 15 17  2  0
  8 10  2  0
 16 18  2  0
  9 10  1  0
 17 18  1  0
M  END
> <PUBCHEM_COMPOUND_CID>
6623

> <PUBCHEM_CONFORMER_RMSD>
0.6

> <PUBCHEM_CONFORMER_DIVERSEORDER>
1
3
2

> <PUBCHEM_MMFF94_PARTIAL_CHARGES>
25
1 -0.53
10 -0.15
11 -0.15
12 -0.15
13 -0.15
14 -0.15
15 -0.15
16 0.08
17 0.08
2 -0.53
24 0.15
25 0.15
26 0.15
27 0.15
28 0.15
29 0.15
3 0.29
30 0.15
31 0.15
32 0.45
33 0.45
4 -0.14
5 -0.14
8 -0.15
9 -0.15

> <PUBCHEM_EFFECTIVE_ROTOR_COUNT>
2

> <PUBCHEM_PHARMACOPHORE_FEATURES>
5
1 1 donor
1 2 donor
3 3 6 7 hydrophobe
6 4 8 10 12 14 16 rings
6 5 9 11 13 15 17 rings

> <PUBCHEM_HEAVY_ATOM_COUNT>
17

> <PUBCHEM_ATOM_DEF_STEREO_COUNT>
0

> <PUBCHEM_ATOM_UDEF_STEREO_COUNT>
0

> <PUBCHEM_BOND_DEF_STEREO_COUNT>
0

> <PUBCHEM_BOND_UDEF_STEREO_COUNT>
0

> <PUBCHEM_ISOTOPIC_ATOM_COUNT>
0

> <PUBCHEM_COMPONENT_COUNT>
1

> <PUBCHEM_CACTVS_TAUTO_COUNT>
3

> <PUBCHEM_CONFORMER_ID>
000019DF00000001

> <PUBCHEM_MMFF94_ENERGY>
64.1206

> <PUBCHEM_FEATURE_SELFOVERLAP>
25.372

> <PUBCHEM_SHAPE_FINGERPRINT>
10465860 228 18265052440146906875
10498660 4 17846494807956907777
10618630 7 8862950471944920352
11046707 91 8574440819802817220
11640471 11 18410569587104953028
12138202 97 17632297942700988494
12251169 10 15719115772587467277
12491281 212 18341893034625719138
12633257 1 15647059291015153984
12788726 201 18049710021441717058
12892183 10 15719384001885322888
13571099 52 18261397711031002503
13764800 53 18340221781019704851
14251764 38 17758668950351880149
14739800 52 17985806350554812304
15061688 2 18410575084673810317
15309172 13 17822005415182549066
15342168 16 18187090559068058613
15375462 189 9295287269996453078
15534591 1 18337673126062282338
15653759 3 15068339003624658237
15775835 57 18410853261110395364
15906896 17 18264490774389428130
16945 1 17917141818369727011
17357779 13 13899614313340361589
1741750 31 18337674225716062138
17804303 29 12829490320433961629
1813 80 17692251833473259110
18186145 218 18334012757179395950
19765921 60 18411697656461014379
19868273 293 17988923409424780430
20291156 8 9223230745321134917
20361792 2 9943803365827786299
204376 136 18186802491163379179
20645476 183 18339358668581405150
20671657 53 12751245791825749096
20871999 31 16988551447065141829
21499 59 18412825772344063143
21524375 3 18410855460138945163
21713013 43 13758065299356720749
21731228 192 17894352193594983955
23184049 59 17894627041684797236
23402539 116 17774993601125170188
23557571 272 16557885966252971863
23559900 14 17561366193283564332
298252 57 18202560691760254914
3472631 163 18202563986327517557
4028521 119 17846780714954732865
4340502 62 18114473262852369283
474 4 18336547123060049707
633830 44 18410010996606913815
7364860 26 17700693965181141591
83771 10 9223230749695054610
94968 8 10663806477749826557
9981440 41 18128808828214612290

> <PUBCHEM_SHAPE_MULTIPOLES>
338.11
7.28
2.04
1.32
0.26
0.87
0
-5.89
0
-0.06
0
0
0.27
-0.69

> <PUBCHEM_SHAPE_SELFOVERLAP>
731.212

> <PUBCHEM_SHAPE_VOLUME>
187.1

> <PUBCHEM_COORDINATE_TYPE>
2
5
10

> <Energy>
42.8498

> <minimizedAffinity>
-8.38616

> <CNNscore>
0.7471156716

> <CNNaffinity>
6.9668693542

> <CNN_VS>
5.2050571442

> <CNNaffinity_variance>
0.4877440035

$$$$
6623


 19 20  0  0  0  0  0  0  0  0999 V2000
   -5.5185   -4.0536   22.0738 C   0  0  0  0  0  0  0  0  0  0  0  0
   -5.6973   -2.5105   22.0866 C   0  0  0  0  0  0  0  0  0  0  0  0
   -5.6149   -4.4907   23.5609 C   0  0  0  0  0  0  0  0  0  0  0  0
   -0.3602   -5.7317   20.2396 O   0  0  0  0  0  0  0  0  0  0  0  0
   -4.1341   -4.5151   21.5579 C   0  0  0  0  0  0  0  0  0  0  0  0
   -3.0968   -4.7722   22.4803 C   0  0  0  0  0  0  0  0  0  0  0  0
   -3.8490   -4.6923   20.1930 C   0  0  0  0  0  0  0  0  0  0  0  0
   -1.8277   -5.1778   22.0570 C   0  0  0  0  0  0  0  0  0  0  0  0
   -2.5810   -5.1029   19.7686 C   0  0  0  0  0  0  0  0  0  0  0  0
   -1.5814   -5.3392   20.7008 C   0  0  0  0  0  0  0  0  0  0  0  0
    0.3367   -5.8996   20.8431 H   0  0  0  0  0  0  0  0  0  0  0  0
   -9.7615   -6.2031   18.8882 O   0  0  0  0  0  0  0  0  0  0  0  0
   -6.6497   -4.6244   21.1860 C   0  0  0  0  0  0  0  0  0  0  0  0
   -7.9912   -4.2782   21.4555 C   0  0  0  0  0  0  0  0  0  0  0  0
   -6.4070   -5.4987   20.1116 C   0  0  0  0  0  0  0  0  0  0  0  0
   -9.0448   -4.7973   20.6979 C   0  0  0  0  0  0  0  0  0  0  0  0
   -7.4596   -6.0139   19.3499 C   0  0  0  0  0  0  0  0  0  0  0  0
   -8.7678   -5.6655   19.6512 C   0  0  0  0  0  0  0  0  0  0  0  0
  -10.6562   -5.9883   19.0652 H   0  0  0  0  0  0  0  0  0  0  0  0
  4 10  1  0
  4 11  1  0
 12 18  1  0
 12 19  1  0
  1  5  1  0
  1 13  1  0
  1  2  1  0
  1  3  1  0
  5  6  2  0
  5  7  1  0
 13 14  2  0
 13 15  1  0
  6  8  1  0
 14 16  1  0
  7  9  2  0
 15 17  2  0
  8 10  2  0
 16 18  2  0
  9 10  1  0
 17 18  1  0
M  END
> <PUBCHEM_COMPOUND_CID>
6623

> <PUBCHEM_CONFORMER_RMSD>
0.6

> <PUBCHEM_CONFORMER_DIVERSEORDER>
1
3
2

> <PUBCHEM_MMFF94_PARTIAL_CHARGES>
25
1 -0.53
10 -0.15
11 -0.15
12 -0.15
13 -0.15
14 -0.15
15 -0.15
16 0.08
17 0.08
2 -0.53
24 0.15
25 0.15
26 0.15
27 0.15
28 0.15
29 0.15
3 0.29
30 0.15
31 0.15
32 0.45
33 0.45
4 -0.14
5 -0.14
8 -0.15
9 -0.15

> <PUBCHEM_EFFECTIVE_ROTOR_COUNT>
2

> <PUBCHEM_PHARMACOPHORE_FEATURES>
5
1 1 donor
1 2 donor
3 3 6 7 hydrophobe
6 4 8 10 12 14 16 rings
6 5 9 11 13 15 17 rings

> <PUBCHEM_HEAVY_ATOM_COUNT>
17

> <PUBCHEM_ATOM_DEF_STEREO_COUNT>
0

> <PUBCHEM_ATOM_UDEF_STEREO_COUNT>
0

> <PUBCHEM_BOND_DEF_STEREO_COUNT>
0

> <PUBCHEM_BOND_UDEF_STEREO_COUNT>
0

> <PUBCHEM_ISOTOPIC_ATOM_COUNT>
0

> <PUBCHEM_COMPONENT_COUNT>
1

> <PUBCHEM_CACTVS_TAUTO_COUNT>
3

> <PUBCHEM_CONFORMER_ID>
000019DF00000001

> <PUBCHEM_MMFF94_ENERGY>
64.1206

> <PUBCHEM_FEATURE_SELFOVERLAP>
25.372

> <PUBCHEM_SHAPE_FINGERPRINT>
10465860 228 18265052440146906875
10498660 4 17846494807956907777
10618630 7 8862950471944920352
11046707 91 8574440819802817220
11640471 11 18410569587104953028
12138202 97 17632297942700988494
12251169 10 15719115772587467277
12491281 212 18341893034625719138
12633257 1 15647059291015153984
12788726 201 18049710021441717058
12892183 10 15719384001885322888
13571099 52 18261397711031002503
13764800 53 18340221781019704851
14251764 38 17758668950351880149
14739800 52 17985806350554812304
15061688 2 18410575084673810317
15309172 13 17822005415182549066
15342168 16 18187090559068058613
15375462 189 9295287269996453078
15534591 1 18337673126062282338
15653759 3 15068339003624658237
15775835 57 18410853261110395364
15906896 17 18264490774389428130
16945 1 17917141818369727011
17357779 13 13899614313340361589
1741750 31 18337674225716062138
17804303 29 12829490320433961629
1813 80 17692251833473259110
18186145 218 18334012757179395950
19765921 60 18411697656461014379
19868273 293 17988923409424780430
20291156 8 9223230745321134917
20361792 2 9943803365827786299
204376 136 18186802491163379179
20645476 183 18339358668581405150
20671657 53 12751245791825749096
20871999 31 16988551447065141829
21499 59 18412825772344063143
21524375 3 18410855460138945163
21713013 43 13758065299356720749
21731228 192 17894352193594983955
23184049 59 17894627041684797236
23402539 116 17774993601125170188
23557571 272 16557885966252971863
23559900 14 17561366193283564332
298252 57 18202560691760254914
3472631 163 18202563986327517557
4028521 119 17846780714954732865
4340502 62 18114473262852369283
474 4 18336547123060049707
633830 44 18410010996606913815
7364860 26 17700693965181141591
83771 10 9223230749695054610
94968 8 10663806477749826557
9981440 41 18128808828214612290

> <PUBCHEM_SHAPE_MULTIPOLES>
338.11
7.28
2.04
1.32
0.26
0.87
0
-5.89
0
-0.06
0
0
0.27
-0.69

> <PUBCHEM_SHAPE_SELFOVERLAP>
731.212

> <PUBCHEM_SHAPE_VOLUME>
187.1

> <PUBCHEM_COORDINATE_TYPE>
2
5
10

> <Energy>
42.8498

> <minimizedAffinity>
-7.40154

> <CNNscore>
0.7425336838

> <CNNaffinity>
6.8940339088

> <CNN_VS>
5.1190524101

> <CNNaffinity_variance>
0.4797476530

$$$$
6623


 19 20  0  0  0  0  0  0  0  0999 V2000
   -5.4344   -6.5036   20.3573 C   0  0  0  0  0  0  0  0  0  0  0  0
   -6.2172   -6.2531   19.0391 C   0  0  0  0  0  0  0  0  0  0  0  0
   -5.5142   -8.0358   20.5976 C   0  0  0  0  0  0  0  0  0  0  0  0
   -7.8294   -4.0396   24.9379 O   0  0  0  0  0  0  0  0  0  0  0  0
   -6.0652   -5.8204   21.5947 C   0  0  0  0  0  0  0  0  0  0  0  0
   -6.8636   -6.5787   22.4781 C   0  0  0  0  0  0  0  0  0  0  0  0
   -5.8840   -4.4581   21.8892 C   0  0  0  0  0  0  0  0  0  0  0  0
   -7.4633   -5.9991   23.6001 C   0  0  0  0  0  0  0  0  0  0  0  0
   -6.4794   -3.8781   23.0142 C   0  0  0  0  0  0  0  0  0  0  0  0
   -7.2649   -4.6499   23.8576 C   0  0  0  0  0  0  0  0  0  0  0  0
   -8.3655   -4.5326   25.5273 H   0  0  0  0  0  0  0  0  0  0  0  0
   -0.1210   -4.5176   19.5861 O   0  0  0  0  0  0  0  0  0  0  0  0
   -3.9947   -5.9874   20.1238 C   0  0  0  0  0  0  0  0  0  0  0  0
   -3.0852   -5.9429   21.2023 C   0  0  0  0  0  0  0  0  0  0  0  0
   -3.5403   -5.5384   18.8710 C   0  0  0  0  0  0  0  0  0  0  0  0
   -1.7859   -5.4537   21.0409 C   0  0  0  0  0  0  0  0  0  0  0  0
   -2.2394   -5.0542   18.7075 C   0  0  0  0  0  0  0  0  0  0  0  0
   -1.3757   -5.0096   19.7916 C   0  0  0  0  0  0  0  0  0  0  0  0
    0.4873   -4.4737   20.2974 H   0  0  0  0  0  0  0  0  0  0  0  0
  4 10  1  0
  4 11  1  0
 12 18  1  0
 12 19  1  0
  1  5  1  0
  1 13  1  0
  1  2  1  0
  1  3  1  0
  5  6  2  0
  5  7  1  0
 13 14  2  0
 13 15  1  0
  6  8  1  0
 14 16  1  0
  7  9  2  0
 15 17  2  0
  8 10  2  0
 16 18  2  0
  9 10  1  0
 17 18  1  0
M  END
> <PUBCHEM_COMPOUND_CID>
6623

> <PUBCHEM_CONFORMER_RMSD>
0.6

> <PUBCHEM_CONFORMER_DIVERSEORDER>
1
3
2

> <PUBCHEM_MMFF94_PARTIAL_CHARGES>
25
1 -0.53
10 -0.15
11 -0.15
12 -0.15
13 -0.15
14 -0.15
15 -0.15
16 0.08
17 0.08
2 -0.53
24 0.15
25 0.15
26 0.15
27 0.15
28 0.15
29 0.15
3 0.29
30 0.15
31 0.15
32 0.45
33 0.45
4 -0.14
5 -0.14
8 -0.15
9 -0.15

> <PUBCHEM_EFFECTIVE_ROTOR_COUNT>
2

> <PUBCHEM_PHARMACOPHORE_FEATURES>
5
1 1 donor
1 2 donor
3 3 6 7 hydrophobe
6 4 8 10 12 14 16 rings
6 5 9 11 13 15 17 rings

> <PUBCHEM_HEAVY_ATOM_COUNT>
17

> <PUBCHEM_ATOM_DEF_STEREO_COUNT>
0

> <PUBCHEM_ATOM_UDEF_STEREO_COUNT>
0

> <PUBCHEM_BOND_DEF_STEREO_COUNT>
0

> <PUBCHEM_BOND_UDEF_STEREO_COUNT>
0

> <PUBCHEM_ISOTOPIC_ATOM_COUNT>
0

> <PUBCHEM_COMPONENT_COUNT>
1

> <PUBCHEM_CACTVS_TAUTO_COUNT>
3

> <PUBCHEM_CONFORMER_ID>
000019DF00000001

> <PUBCHEM_MMFF94_ENERGY>
64.1206

> <PUBCHEM_FEATURE_SELFOVERLAP>
25.372

> <PUBCHEM_SHAPE_FINGERPRINT>
10465860 228 18265052440146906875
10498660 4 17846494807956907777
10618630 7 8862950471944920352
11046707 91 8574440819802817220
11640471 11 18410569587104953028
12138202 97 17632297942700988494
12251169 10 15719115772587467277
12491281 212 18341893034625719138
12633257 1 15647059291015153984
12788726 201 18049710021441717058
12892183 10 15719384001885322888
13571099 52 18261397711031002503
13764800 53 18340221781019704851
14251764 38 17758668950351880149
14739800 52 17985806350554812304
15061688 2 18410575084673810317
15309172 13 17822005415182549066
15342168 16 18187090559068058613
15375462 189 9295287269996453078
15534591 1 18337673126062282338
15653759 3 15068339003624658237
15775835 57 18410853261110395364
15906896 17 18264490774389428130
16945 1 17917141818369727011
17357779 13 13899614313340361589
1741750 31 18337674225716062138
17804303 29 12829490320433961629
1813 80 17692251833473259110
18186145 218 18334012757179395950
19765921 60 18411697656461014379
19868273 293 17988923409424780430
20291156 8 9223230745321134917
20361792 2 9943803365827786299
204376 136 18186802491163379179
20645476 183 18339358668581405150
20671657 53 12751245791825749096
20871999 31 16988551447065141829
21499 59 18412825772344063143
21524375 3 18410855460138945163
21713013 43 13758065299356720749
21731228 192 17894352193594983955
23184049 59 17894627041684797236
23402539 116 17774993601125170188
23557571 272 16557885966252971863
23559900 14 17561366193283564332
298252 57 18202560691760254914
3472631 163 18202563986327517557
4028521 119 17846780714954732865
4340502 62 18114473262852369283
474 4 18336547123060049707
633830 44 18410010996606913815
7364860 26 17700693965181141591
83771 10 9223230749695054610
94968 8 10663806477749826557
9981440 41 18128808828214612290

> <PUBCHEM_SHAPE_MULTIPOLES>
338.11
7.28
2.04
1.32
0.26
0.87
0
-5.89
0
-0.06
0
0
0.27
-0.69

> <PUBCHEM_SHAPE_SELFOVERLAP>
731.212

> <PUBCHEM_SHAPE_VOLUME>
187.1

> <PUBCHEM_COORDINATE_TYPE>
2
5
10

> <Energy>
42.8498

> <minimizedAffinity>
-7.39459

> <CNNscore>
0.7388330698

> <CNNaffinity>
6.8755249977

> <CNN_VS>
5.0798654556

> <CNNaffinity_variance>
0.6690990329

$$$$
