5757


 22 25  0  0  0  0  0  0  0  0999 V2000
   -9.3797   -4.5800   22.1786 O   0  0  0  0  0  0  0  0  0  0  0  0
    1.2619   -2.4971   20.5617 O   0  0  0  0  0  0  0  0  0  0  0  0
   -7.0235   -3.8585   22.0927 C   0  0  0  0  0  0  0  0  0  0  0  0
   -6.2870   -2.8101   22.9506 C   0  0  0  0  0  0  0  0  0  0  0  0
   -4.7687   -2.9079   22.8040 C   0  0  0  0  0  0  0  0  0  0  0  0
   -4.3924   -2.6375   21.3154 C   0  0  0  0  0  0  0  0  0  0  0  0
   -8.4739   -3.5451   22.5077 C   0  0  0  0  0  0  0  0  0  0  0  0
   -6.7000   -3.5820   20.6194 C   0  0  0  0  0  0  0  0  0  0  0  0
   -6.9171   -2.9743   24.3308 C   0  0  0  0  0  0  0  0  0  0  0  0
   -5.1812   -3.5715   20.3582 C   0  0  0  0  0  0  0  0  0  0  0  0
   -8.3862   -3.3238   24.0304 C   0  0  0  0  0  0  0  0  0  0  0  0
   -4.0257   -1.9093   23.6937 C   0  0  0  0  0  0  0  0  0  0  0  0
   -6.6745   -5.3319   22.4253 C   0  0  0  0  0  0  0  0  0  0  0  0
   -2.8773   -2.6375   21.1188 C   0  0  0  0  0  0  0  0  0  0  0  0
   -2.5214   -2.1555   23.6081 C   0  0  0  0  0  0  0  0  0  0  0  0
   -2.0114   -2.3657   22.2012 C   0  0  0  0  0  0  0  0  0  0  0  0
   -2.3117   -2.8169   19.8436 C   0  0  0  0  0  0  0  0  0  0  0  0
   -0.6196   -2.3355   21.9948 C   0  0  0  0  0  0  0  0  0  0  0  0
   -0.9292   -2.7746   19.6484 C   0  0  0  0  0  0  0  0  0  0  0  0
   -0.0921   -2.5391   20.7262 C   0  0  0  0  0  0  0  0  0  0  0  0
   -9.4084   -4.6903   21.2153 H   0  0  0  0  0  0  0  0  0  0  0  0
    1.8186   -2.3370   21.2982 H   0  0  0  0  0  0  0  0  0  0  0  0
  1  7  1  0
  1 21  1  0
  2 20  1  0
  2 22  1  0
  3  4  1  0
  3  7  1  0
  3  8  1  0
  3 13  1  0
  4  5  1  0
  4  9  1  0
  5  6  1  0
  5 12  1  0
  6 10  1  0
  6 14  1  0
  7 11  1  0
  8 10  1  0
  9 11  1  0
 12 15  1  0
 14 16  2  0
 14 17  1  0
 15 16  1  0
 16 18  1  0
 17 19  2  0
 18 20  2  0
 19 20  1  0
M  END
> <PUBCHEM_COMPOUND_CID>
5757

> <PUBCHEM_CONFORMER_RMSD>
0.6

> <PUBCHEM_CONFORMER_DIVERSEORDER>
1

> <PUBCHEM_MMFF94_PARTIAL_CHARGES>
16
1 -0.68
14 -0.14
15 0.14
16 -0.14
17 -0.15
18 -0.15
19 -0.15
2 -0.53
20 0.08
40 0.4
41 0.15
42 0.15
43 0.15
44 0.45
6 0.14
7 0.28

> <PUBCHEM_EFFECTIVE_ROTOR_COUNT>
1.4

> <PUBCHEM_PHARMACOPHORE_FEATURES>
7
1 1 acceptor
1 1 donor
1 2 donor
5 3 4 7 9 11 rings
6 14 16 17 18 19 20 rings
6 3 4 5 6 8 10 rings
6 5 6 12 14 15 16 rings

> <PUBCHEM_HEAVY_ATOM_COUNT>
20

> <PUBCHEM_ATOM_DEF_STEREO_COUNT>
5

> <PUBCHEM_ATOM_UDEF_STEREO_COUNT>
0

> <PUBCHEM_BOND_DEF_STEREO_COUNT>
0

> <PUBCHEM_BOND_UDEF_STEREO_COUNT>
0

> <PUBCHEM_ISOTOPIC_ATOM_COUNT>
0

> <PUBCHEM_COMPONENT_COUNT>
1

> <PUBCHEM_CACTVS_TAUTO_COUNT>
9

> <PUBCHEM_CONFORMER_ID>
0000167D00000001

> <PUBCHEM_MMFF94_ENERGY>
68.4596

> <PUBCHEM_FEATURE_SELFOVERLAP>
35.62

> <PUBCHEM_SHAPE_FINGERPRINT>
10 15 18262512710780645640
10411042 1 16969703283687688743
10616163 171 18338239395883154686
10967382 1 18410012100429229070
11132069 177 18409162216832884669
11578080 2 17201347718505248258
12011746 2 18410859841042374310
12107183 9 17690845558000159065
12236239 1 13470690338792453460
12251169 10 18335139816864396069
12403259 415 18410852127603240605
12403814 3 17530960289353343621
12500047 106 18271238421624861530
12592029 89 18334859377112304987
12788726 201 17703518696578858128
128620 24 11818992989152349105
13140716 1 18192429898953651512
13533116 47 17846218813073552003
13544592 145 18272379637759764926
13675066 3 18341893012844745609
14178342 30 18123731313450613666
14341114 176 18409738343777605753
14866123 147 17046555868986690930
15042514 8 18263932206156989787
15196674 1 18410012108982090935
15256400 18 18410857620686823693
15295992 7 17845930826899781123
15536298 74 18413671296627645270
1601671 61 18409168826940819996
16945 1 18266170819592368622
17349148 13 18412820287929204701
17804303 29 18410296916890392117
1813 80 16950285091842931756
18186145 218 17417805158171412875
19141452 34 18413108389914235807
192875 21 13830133918406568194
19591789 44 18192993725128068838
200 152 18131627885965453901
20028762 73 18272929458099065015
20261772 1 18410856577167961319
20510252 161 18341895147623301209
20645477 70 18200878374956666302
21033648 29 18271512131406579929
21267235 1 18337399244825179854
21279426 13 18124035632930519374
21421861 104 17895744090149736410
22854114 59 18412546505207311417
22892500 29 17274814788166584896
23184049 59 18410576175690384255
23402539 116 18342170081765240151
23557571 272 17773880972535682807
23558518 356 17682680979747269074
23559900 14 18413389822146813342
2748010 2 18337666399911122230
3004659 81 18260835844047909814
335352 9 18410013195572088855
34934 24 18411133675799850702
350125 39 18409735045496469133
351380 180 18409730664571278687
3545911 37 18411703192367818988
4214541 1 18409167684326479901
465052 167 17967541176940287083
495365 180 17346587600050392546
5104073 3 18409449150412323065
542803 24 17346883342628774985
59755656 215 18335983048405458773
69090 78 18341891905091661271
77779 3 18409450271409361990
7832392 63 18341046427736201710
9709674 26 18410862087368844367
9999458 23 17967819357476725574

> <PUBCHEM_SHAPE_MULTIPOLES>
399.85
9.72
2.11
0.84
3.73
0.39
0.22
-1.2
1.2
-0.24
-0.15
-0.38
-0.13
0.32

> <PUBCHEM_SHAPE_SELFOVERLAP>
871.414

> <PUBCHEM_SHAPE_VOLUME>
217.1

> <PUBCHEM_COORDINATE_TYPE>
2
5
10

> <Energy>
58.4396

> <minimizedAffinity>
-9.59090

> <CNNscore>
0.9144312143

> <CNNaffinity>
7.9852795601

> <CNN_VS>
7.3019890785

> <CNNaffinity_variance>
0.8372389674

$$$$
5757


 22 25  0  0  0  0  0  0  0  0999 V2000
   -9.0662   -3.0668   24.3714 O   0  0  0  0  0  0  0  0  0  0  0  0
    0.9648   -1.9697   20.0854 O   0  0  0  0  0  0  0  0  0  0  0  0
   -6.9277   -3.0637   23.1441 C   0  0  0  0  0  0  0  0  0  0  0  0
   -6.5330   -3.8203   21.8598 C   0  0  0  0  0  0  0  0  0  0  0  0
   -5.2387   -3.2838   21.2487 C   0  0  0  0  0  0  0  0  0  0  0  0
   -4.0829   -3.4789   22.2766 C   0  0  0  0  0  0  0  0  0  0  0  0
   -8.2575   -3.7775   23.4545 C   0  0  0  0  0  0  0  0  0  0  0  0
   -5.8217   -3.2797   24.1841 C   0  0  0  0  0  0  0  0  0  0  0  0
   -7.8140   -3.8050   21.0306 C   0  0  0  0  0  0  0  0  0  0  0  0
   -4.4412   -2.8502   23.6504 C   0  0  0  0  0  0  0  0  0  0  0  0
   -8.9372   -3.9141   22.0781 C   0  0  0  0  0  0  0  0  0  0  0  0
   -4.8672   -3.9898   19.9432 C   0  0  0  0  0  0  0  0  0  0  0  0
   -7.1636   -1.5431   22.9563 C   0  0  0  0  0  0  0  0  0  0  0  0
   -2.7420   -3.0383   21.6917 C   0  0  0  0  0  0  0  0  0  0  0  0
   -3.6513   -3.3139   19.3141 C   0  0  0  0  0  0  0  0  0  0  0  0
   -2.5421   -3.0078   20.2938 C   0  0  0  0  0  0  0  0  0  0  0  0
   -1.6496   -2.7411   22.5264 C   0  0  0  0  0  0  0  0  0  0  0  0
   -1.2896   -2.6329   19.7729 C   0  0  0  0  0  0  0  0  0  0  0  0
   -0.4077   -2.3800   21.9984 C   0  0  0  0  0  0  0  0  0  0  0  0
   -0.2375   -2.3235   20.6252 C   0  0  0  0  0  0  0  0  0  0  0  0
   -8.6075   -3.0008   25.2236 H   0  0  0  0  0  0  0  0  0  0  0  0
    1.0685   -1.9347   19.1548 H   0  0  0  0  0  0  0  0  0  0  0  0
  1  7  1  0
  1 21  1  0
  2 20  1  0
  2 22  1  0
  3  4  1  0
  3  7  1  0
  3  8  1  0
  3 13  1  0
  4  5  1  0
  4  9  1  0
  5  6  1  0
  5 12  1  0
  6 10  1  0
  6 14  1  0
  7 11  1  0
  8 10  1  0
  9 11  1  0
 12 15  1  0
 14 16  2  0
 14 17  1  0
 15 16  1  0
 16 18  1  0
 17 19  2  0
 18 20  2  0
 19 20  1  0
M  END
> <PUBCHEM_COMPOUND_CID>
5757

> <PUBCHEM_CONFORMER_RMSD>
0.6

> <PUBCHEM_CONFORMER_DIVERSEORDER>
1

> <PUBCHEM_MMFF94_PARTIAL_CHARGES>
16
1 -0.68
14 -0.14
15 0.14
16 -0.14
17 -0.15
18 -0.15
19 -0.15
2 -0.53
20 0.08
40 0.4
41 0.15
42 0.15
43 0.15
44 0.45
6 0.14
7 0.28

> <PUBCHEM_EFFECTIVE_ROTOR_COUNT>
1.4

> <PUBCHEM_PHARMACOPHORE_FEATURES>
7
1 1 acceptor
1 1 donor
1 2 donor
5 3 4 7 9 11 rings
6 14 16 17 18 19 20 rings
6 3 4 5 6 8 10 rings
6 5 6 12 14 15 16 rings

> <PUBCHEM_HEAVY_ATOM_COUNT>
20

> <PUBCHEM_ATOM_DEF_STEREO_COUNT>
5

> <PUBCHEM_ATOM_UDEF_STEREO_COUNT>
0

> <PUBCHEM_BOND_DEF_STEREO_COUNT>
0

> <PUBCHEM_BOND_UDEF_STEREO_COUNT>
0

> <PUBCHEM_ISOTOPIC_ATOM_COUNT>
0

> <PUBCHEM_COMPONENT_COUNT>
1

> <PUBCHEM_CACTVS_TAUTO_COUNT>
9

> <PUBCHEM_CONFORMER_ID>
0000167D00000001

> <PUBCHEM_MMFF94_ENERGY>
68.4596

> <PUBCHEM_FEATURE_SELFOVERLAP>
35.62

> <PUBCHEM_SHAPE_FINGERPRINT>
10 15 18262512710780645640
10411042 1 16969703283687688743
10616163 171 18338239395883154686
10967382 1 18410012100429229070
11132069 177 18409162216832884669
11578080 2 17201347718505248258
12011746 2 18410859841042374310
12107183 9 17690845558000159065
12236239 1 13470690338792453460
12251169 10 18335139816864396069
12403259 415 18410852127603240605
12403814 3 17530960289353343621
12500047 106 18271238421624861530
12592029 89 18334859377112304987
12788726 201 17703518696578858128
128620 24 11818992989152349105
13140716 1 18192429898953651512
13533116 47 17846218813073552003
13544592 145 18272379637759764926
13675066 3 18341893012844745609
14178342 30 18123731313450613666
14341114 176 18409738343777605753
14866123 147 17046555868986690930
15042514 8 18263932206156989787
15196674 1 18410012108982090935
15256400 18 18410857620686823693
15295992 7 17845930826899781123
15536298 74 18413671296627645270
1601671 61 18409168826940819996
16945 1 18266170819592368622
17349148 13 18412820287929204701
17804303 29 18410296916890392117
1813 80 16950285091842931756
18186145 218 17417805158171412875
19141452 34 18413108389914235807
192875 21 13830133918406568194
19591789 44 18192993725128068838
200 152 18131627885965453901
20028762 73 18272929458099065015
20261772 1 18410856577167961319
20510252 161 18341895147623301209
20645477 70 18200878374956666302
21033648 29 18271512131406579929
21267235 1 18337399244825179854
21279426 13 18124035632930519374
21421861 104 17895744090149736410
22854114 59 18412546505207311417
22892500 29 17274814788166584896
23184049 59 18410576175690384255
23402539 116 18342170081765240151
23557571 272 17773880972535682807
23558518 356 17682680979747269074
23559900 14 18413389822146813342
2748010 2 18337666399911122230
3004659 81 18260835844047909814
335352 9 18410013195572088855
34934 24 18411133675799850702
350125 39 18409735045496469133
351380 180 18409730664571278687
3545911 37 18411703192367818988
4214541 1 18409167684326479901
465052 167 17967541176940287083
495365 180 17346587600050392546
5104073 3 18409449150412323065
542803 24 17346883342628774985
59755656 215 18335983048405458773
69090 78 18341891905091661271
77779 3 18409450271409361990
7832392 63 18341046427736201710
9709674 26 18410862087368844367
9999458 23 17967819357476725574

> <PUBCHEM_SHAPE_MULTIPOLES>
399.85
9.72
2.11
0.84
3.73
0.39
0.22
-1.2
1.2
-0.24
-0.15
-0.38
-0.13
0.32

> <PUBCHEM_SHAPE_SELFOVERLAP>
871.414

> <PUBCHEM_SHAPE_VOLUME>
217.1

> <PUBCHEM_COORDINATE_TYPE>
2
5
10

> <Energy>
58.4396

> <minimizedAffinity>
-9.51631

> <CNNscore>
0.8915525079

> <CNNaffinity>
7.7795829773

> <CNN_VS>
6.9359068871

> <CNNaffinity_variance>
0.5176656842

$$$$
5757


 22 25  0  0  0  0  0  0  0  0999 V2000
    0.6345   -2.0425   18.7781 O   0  0  0  0  0  0  0  0  0  0  0  0
   -9.4418   -4.2571   22.4876 O   0  0  0  0  0  0  0  0  0  0  0  0
   -1.4610   -2.6299   19.9372 C   0  0  0  0  0  0  0  0  0  0  0  0
   -1.6791   -3.1088   21.3865 C   0  0  0  0  0  0  0  0  0  0  0  0
   -3.1482   -3.0383   21.8028 C   0  0  0  0  0  0  0  0  0  0  0  0
   -3.9759   -3.9776   20.8737 C   0  0  0  0  0  0  0  0  0  0  0  0
    0.0726   -2.7577   19.8610 C   0  0  0  0  0  0  0  0  0  0  0  0
   -2.2337   -3.5691   19.0030 C   0  0  0  0  0  0  0  0  0  0  0  0
   -0.6385   -2.3240   22.1803 C   0  0  0  0  0  0  0  0  0  0  0  0
   -3.7267   -3.6486   19.3768 C   0  0  0  0  0  0  0  0  0  0  0  0
    0.5595   -2.2158   21.2191 C   0  0  0  0  0  0  0  0  0  0  0  0
   -3.3687   -3.4579   23.2574 C   0  0  0  0  0  0  0  0  0  0  0  0
   -1.8939   -1.1667   19.6639 C   0  0  0  0  0  0  0  0  0  0  0  0
   -5.4444   -4.0169   21.2933 C   0  0  0  0  0  0  0  0  0  0  0  0
   -4.8263   -3.2287   23.6496 C   0  0  0  0  0  0  0  0  0  0  0  0
   -5.8230   -3.7028   22.6173 C   0  0  0  0  0  0  0  0  0  0  0  0
   -6.4416   -4.4526   20.4021 C   0  0  0  0  0  0  0  0  0  0  0  0
   -7.1764   -3.7778   22.9958 C   0  0  0  0  0  0  0  0  0  0  0  0
   -7.7807   -4.5331   20.7916 C   0  0  0  0  0  0  0  0  0  0  0  0
   -8.1398   -4.1904   22.0845 C   0  0  0  0  0  0  0  0  0  0  0  0
    0.3064   -2.4103   17.9427 H   0  0  0  0  0  0  0  0  0  0  0  0
   -9.6732   -4.0227   23.3648 H   0  0  0  0  0  0  0  0  0  0  0  0
  1  7  1  0
  1 21  1  0
  2 20  1  0
  2 22  1  0
  3  4  1  0
  3  7  1  0
  3  8  1  0
  3 13  1  0
  4  5  1  0
  4  9  1  0
  5  6  1  0
  5 12  1  0
  6 10  1  0
  6 14  1  0
  7 11  1  0
  8 10  1  0
  9 11  1  0
 12 15  1  0
 14 16  2  0
 14 17  1  0
 15 16  1  0
 16 18  1  0
 17 19  2  0
 18 20  2  0
 19 20  1  0
M  END
> <PUBCHEM_COMPOUND_CID>
5757

> <PUBCHEM_CONFORMER_RMSD>
0.6

> <PUBCHEM_CONFORMER_DIVERSEORDER>
1

> <PUBCHEM_MMFF94_PARTIAL_CHARGES>
16
1 -0.68
14 -0.14
15 0.14
16 -0.14
17 -0.15
18 -0.15
19 -0.15
2 -0.53
20 0.08
40 0.4
41 0.15
42 0.15
43 0.15
44 0.45
6 0.14
7 0.28

> <PUBCHEM_EFFECTIVE_ROTOR_COUNT>
1.4

> <PUBCHEM_PHARMACOPHORE_FEATURES>
7
1 1 acceptor
1 1 donor
1 2 donor
5 3 4 7 9 11 rings
6 14 16 17 18 19 20 rings
6 3 4 5 6 8 10 rings
6 5 6 12 14 15 16 rings

> <PUBCHEM_HEAVY_ATOM_COUNT>
20

> <PUBCHEM_ATOM_DEF_STEREO_COUNT>
5

> <PUBCHEM_ATOM_UDEF_STEREO_COUNT>
0

> <PUBCHEM_BOND_DEF_STEREO_COUNT>
0

> <PUBCHEM_BOND_UDEF_STEREO_COUNT>
0

> <PUBCHEM_ISOTOPIC_ATOM_COUNT>
0

> <PUBCHEM_COMPONENT_COUNT>
1

> <PUBCHEM_CACTVS_TAUTO_COUNT>
9

> <PUBCHEM_CONFORMER_ID>
0000167D00000001

> <PUBCHEM_MMFF94_ENERGY>
68.4596

> <PUBCHEM_FEATURE_SELFOVERLAP>
35.62

> <PUBCHEM_SHAPE_FINGERPRINT>
10 15 18262512710780645640
10411042 1 16969703283687688743
10616163 171 18338239395883154686
10967382 1 18410012100429229070
11132069 177 18409162216832884669
11578080 2 17201347718505248258
12011746 2 18410859841042374310
12107183 9 17690845558000159065
12236239 1 13470690338792453460
12251169 10 18335139816864396069
12403259 415 18410852127603240605
12403814 3 17530960289353343621
12500047 106 18271238421624861530
12592029 89 18334859377112304987
12788726 201 17703518696578858128
128620 24 11818992989152349105
13140716 1 18192429898953651512
13533116 47 17846218813073552003
13544592 145 18272379637759764926
13675066 3 18341893012844745609
14178342 30 18123731313450613666
14341114 176 18409738343777605753
14866123 147 17046555868986690930
15042514 8 18263932206156989787
15196674 1 18410012108982090935
15256400 18 18410857620686823693
15295992 7 17845930826899781123
15536298 74 18413671296627645270
1601671 61 18409168826940819996
16945 1 18266170819592368622
17349148 13 18412820287929204701
17804303 29 18410296916890392117
1813 80 16950285091842931756
18186145 218 17417805158171412875
19141452 34 18413108389914235807
192875 21 13830133918406568194
19591789 44 18192993725128068838
200 152 18131627885965453901
20028762 73 18272929458099065015
20261772 1 18410856577167961319
20510252 161 18341895147623301209
20645477 70 18200878374956666302
21033648 29 18271512131406579929
21267235 1 18337399244825179854
21279426 13 18124035632930519374
21421861 104 17895744090149736410
22854114 59 18412546505207311417
22892500 29 17274814788166584896
23184049 59 18410576175690384255
23402539 116 18342170081765240151
23557571 272 17773880972535682807
23558518 356 17682680979747269074
23559900 14 18413389822146813342
2748010 2 18337666399911122230
3004659 81 18260835844047909814
335352 9 18410013195572088855
34934 24 18411133675799850702
350125 39 18409735045496469133
351380 180 18409730664571278687
3545911 37 18411703192367818988
4214541 1 18409167684326479901
465052 167 17967541176940287083
495365 180 17346587600050392546
5104073 3 18409449150412323065
542803 24 17346883342628774985
59755656 215 18335983048405458773
69090 78 18341891905091661271
77779 3 18409450271409361990
7832392 63 18341046427736201710
9709674 26 18410862087368844367
9999458 23 17967819357476725574

> <PUBCHEM_SHAPE_MULTIPOLES>
399.85
9.72
2.11
0.84
3.73
0.39
0.22
-1.2
1.2
-0.24
-0.15
-0.38
-0.13
0.32

> <PUBCHEM_SHAPE_SELFOVERLAP>
871.414

> <PUBCHEM_SHAPE_VOLUME>
217.1

> <PUBCHEM_COORDINATE_TYPE>
2
5
10

> <Energy>
58.4396

> <minimizedAffinity>
-3.84753

> <CNNscore>
0.4507142305

> <CNNaffinity>
7.3219923973

> <CNN_VS>
3.3001260757

> <CNNaffinity_variance>
0.9194507599

$$$$
5757


 22 25  0  0  0  0  0  0  0  0999 V2000
   -0.7427   -4.7407   19.3647 O   0  0  0  0  0  0  0  0  0  0  0  0
  -10.0356   -1.8259   24.3987 O   0  0  0  0  0  0  0  0  0  0  0  0
   -2.6118   -3.8756   20.7203 C   0  0  0  0  0  0  0  0  0  0  0  0
   -2.5897   -2.8890   21.9050 C   0  0  0  0  0  0  0  0  0  0  0  0
   -3.9837   -2.3600   22.2416 C   0  0  0  0  0  0  0  0  0  0  0  0
   -4.8874   -3.5615   22.6544 C   0  0  0  0  0  0  0  0  0  0  0  0
   -1.1013   -4.1551   20.6010 C   0  0  0  0  0  0  0  0  0  0  0  0
   -3.4619   -5.0866   21.1236 C   0  0  0  0  0  0  0  0  0  0  0  0
   -1.4873   -1.9040   21.5265 C   0  0  0  0  0  0  0  0  0  0  0  0
   -4.8777   -4.6706   21.5679 C   0  0  0  0  0  0  0  0  0  0  0  0
   -0.4503   -2.7708   20.7889 C   0  0  0  0  0  0  0  0  0  0  0  0
   -3.9664   -1.3372   23.3793 C   0  0  0  0  0  0  0  0  0  0  0  0
   -3.1571   -3.2868   19.3940 C   0  0  0  0  0  0  0  0  0  0  0  0
   -6.2746   -3.0879   23.0855 C   0  0  0  0  0  0  0  0  0  0  0  0
   -5.3610   -0.7452   23.5677 C   0  0  0  0  0  0  0  0  0  0  0  0
   -6.4714   -1.7701   23.5543 C   0  0  0  0  0  0  0  0  0  0  0  0
   -7.3668   -3.9737   23.1129 C   0  0  0  0  0  0  0  0  0  0  0  0
   -7.7490   -1.3613   23.9801 C   0  0  0  0  0  0  0  0  0  0  0  0
   -8.6283   -3.5599   23.5474 C   0  0  0  0  0  0  0  0  0  0  0  0
   -8.8121   -2.2550   23.9734 C   0  0  0  0  0  0  0  0  0  0  0  0
   -1.1695   -5.6078   19.2818 H   0  0  0  0  0  0  0  0  0  0  0  0
  -10.1483   -0.9408   24.6846 H   0  0  0  0  0  0  0  0  0  0  0  0
  1  7  1  0
  1 21  1  0
  2 20  1  0
  2 22  1  0
  3  4  1  0
  3  7  1  0
  3  8  1  0
  3 13  1  0
  4  5  1  0
  4  9  1  0
  5  6  1  0
  5 12  1  0
  6 10  1  0
  6 14  1  0
  7 11  1  0
  8 10  1  0
  9 11  1  0
 12 15  1  0
 14 16  2  0
 14 17  1  0
 15 16  1  0
 16 18  1  0
 17 19  2  0
 18 20  2  0
 19 20  1  0
M  END
> <PUBCHEM_COMPOUND_CID>
5757

> <PUBCHEM_CONFORMER_RMSD>
0.6

> <PUBCHEM_CONFORMER_DIVERSEORDER>
1

> <PUBCHEM_MMFF94_PARTIAL_CHARGES>
16
1 -0.68
14 -0.14
15 0.14
16 -0.14
17 -0.15
18 -0.15
19 -0.15
2 -0.53
20 0.08
40 0.4
41 0.15
42 0.15
43 0.15
44 0.45
6 0.14
7 0.28

> <PUBCHEM_EFFECTIVE_ROTOR_COUNT>
1.4

> <PUBCHEM_PHARMACOPHORE_FEATURES>
7
1 1 acceptor
1 1 donor
1 2 donor
5 3 4 7 9 11 rings
6 14 16 17 18 19 20 rings
6 3 4 5 6 8 10 rings
6 5 6 12 14 15 16 rings

> <PUBCHEM_HEAVY_ATOM_COUNT>
20

> <PUBCHEM_ATOM_DEF_STEREO_COUNT>
5

> <PUBCHEM_ATOM_UDEF_STEREO_COUNT>
0

> <PUBCHEM_BOND_DEF_STEREO_COUNT>
0

> <PUBCHEM_BOND_UDEF_STEREO_COUNT>
0

> <PUBCHEM_ISOTOPIC_ATOM_COUNT>
0

> <PUBCHEM_COMPONENT_COUNT>
1

> <PUBCHEM_CACTVS_TAUTO_COUNT>
9

> <PUBCHEM_CONFORMER_ID>
0000167D00000001

> <PUBCHEM_MMFF94_ENERGY>
68.4596

> <PUBCHEM_FEATURE_SELFOVERLAP>
35.62

> <PUBCHEM_SHAPE_FINGERPRINT>
10 15 18262512710780645640
10411042 1 16969703283687688743
10616163 171 18338239395883154686
10967382 1 18410012100429229070
11132069 177 18409162216832884669
11578080 2 17201347718505248258
12011746 2 18410859841042374310
12107183 9 17690845558000159065
12236239 1 13470690338792453460
12251169 10 18335139816864396069
12403259 415 18410852127603240605
12403814 3 17530960289353343621
12500047 106 18271238421624861530
12592029 89 18334859377112304987
12788726 201 17703518696578858128
128620 24 11818992989152349105
13140716 1 18192429898953651512
13533116 47 17846218813073552003
13544592 145 18272379637759764926
13675066 3 18341893012844745609
14178342 30 18123731313450613666
14341114 176 18409738343777605753
14866123 147 17046555868986690930
15042514 8 18263932206156989787
15196674 1 18410012108982090935
15256400 18 18410857620686823693
15295992 7 17845930826899781123
15536298 74 18413671296627645270
1601671 61 18409168826940819996
16945 1 18266170819592368622
17349148 13 18412820287929204701
17804303 29 18410296916890392117
1813 80 16950285091842931756
18186145 218 17417805158171412875
19141452 34 18413108389914235807
192875 21 13830133918406568194
19591789 44 18192993725128068838
200 152 18131627885965453901
20028762 73 18272929458099065015
20261772 1 18410856577167961319
20510252 161 18341895147623301209
20645477 70 18200878374956666302
21033648 29 18271512131406579929
21267235 1 18337399244825179854
21279426 13 18124035632930519374
21421861 104 17895744090149736410
22854114 59 18412546505207311417
22892500 29 17274814788166584896
23184049 59 18410576175690384255
23402539 116 18342170081765240151
23557571 272 17773880972535682807
23558518 356 17682680979747269074
23559900 14 18413389822146813342
2748010 2 18337666399911122230
3004659 81 18260835844047909814
335352 9 18410013195572088855
34934 24 18411133675799850702
350125 39 18409735045496469133
351380 180 18409730664571278687
3545911 37 18411703192367818988
4214541 1 18409167684326479901
465052 167 17967541176940287083
495365 180 17346587600050392546
5104073 3 18409449150412323065
542803 24 17346883342628774985
59755656 215 18335983048405458773
69090 78 18341891905091661271
77779 3 18409450271409361990
7832392 63 18341046427736201710
9709674 26 18410862087368844367
9999458 23 17967819357476725574

> <PUBCHEM_SHAPE_MULTIPOLES>
399.85
9.72
2.11
0.84
3.73
0.39
0.22
-1.2
1.2
-0.24
-0.15
-0.38
-0.13
0.32

> <PUBCHEM_SHAPE_SELFOVERLAP>
871.414

> <PUBCHEM_SHAPE_VOLUME>
217.1

> <PUBCHEM_COORDINATE_TYPE>
2
5
10

> <Energy>
58.4396

> <minimizedAffinity>
-8.16636

> <CNNscore>
0.4218358397

> <CNNaffinity>
7.2125511169

> <CNN_VS>
3.0425126553

> <CNNaffinity_variance>
0.5189197659

$$$$
5757


 22 25  0  0  0  0  0  0  0  0999 V2000
    0.8587   -2.3559   20.5987 O   0  0  0  0  0  0  0  0  0  0  0  0
   -9.1640   -4.3275   24.5805 O   0  0  0  0  0  0  0  0  0  0  0  0
   -1.5208   -2.6768   21.1597 C   0  0  0  0  0  0  0  0  0  0  0  0
   -2.7744   -2.4206   20.2994 C   0  0  0  0  0  0  0  0  0  0  0  0
   -4.0259   -3.0629   20.8973 C   0  0  0  0  0  0  0  0  0  0  0  0
   -4.2883   -2.4341   22.2996 C   0  0  0  0  0  0  0  0  0  0  0  0
   -0.4666   -1.9823   20.2764 C   0  0  0  0  0  0  0  0  0  0  0  0
   -1.7423   -2.0272   22.5311 C   0  0  0  0  0  0  0  0  0  0  0  0
   -2.3286   -2.8174   18.8949 C   0  0  0  0  0  0  0  0  0  0  0  0
   -3.0312   -2.5366   23.2051 C   0  0  0  0  0  0  0  0  0  0  0  0
   -0.8470   -2.4015   18.8429 C   0  0  0  0  0  0  0  0  0  0  0  0
   -5.2654   -2.8629   20.0231 C   0  0  0  0  0  0  0  0  0  0  0  0
   -1.1601   -4.1719   21.3541 C   0  0  0  0  0  0  0  0  0  0  0  0
   -5.5775   -2.9749   22.9160 C   0  0  0  0  0  0  0  0  0  0  0  0
   -6.4416   -3.6461   20.6012 C   0  0  0  0  0  0  0  0  0  0  0  0
   -6.6001   -3.5030   22.0972 C   0  0  0  0  0  0  0  0  0  0  0  0
   -5.8161   -2.8779   24.2988 C   0  0  0  0  0  0  0  0  0  0  0  0
   -7.7954   -3.9649   22.6790 C   0  0  0  0  0  0  0  0  0  0  0  0
   -7.0107   -3.3301   24.8643 C   0  0  0  0  0  0  0  0  0  0  0  0
   -7.9904   -3.8752   24.0512 C   0  0  0  0  0  0  0  0  0  0  0  0
    1.0620   -2.0768   21.5052 H   0  0  0  0  0  0  0  0  0  0  0  0
   -9.8197   -4.6944   24.0207 H   0  0  0  0  0  0  0  0  0  0  0  0
  1  7  1  0
  1 21  1  0
  2 20  1  0
  2 22  1  0
  3  4  1  0
  3  7  1  0
  3  8  1  0
  3 13  1  0
  4  5  1  0
  4  9  1  0
  5  6  1  0
  5 12  1  0
  6 10  1  0
  6 14  1  0
  7 11  1  0
  8 10  1  0
  9 11  1  0
 12 15  1  0
 14 16  2  0
 14 17  1  0
 15 16  1  0
 16 18  1  0
 17 19  2  0
 18 20  2  0
 19 20  1  0
M  END
> <PUBCHEM_COMPOUND_CID>
5757

> <PUBCHEM_CONFORMER_RMSD>
0.6

> <PUBCHEM_CONFORMER_DIVERSEORDER>
1

> <PUBCHEM_MMFF94_PARTIAL_CHARGES>
16
1 -0.68
14 -0.14
15 0.14
16 -0.14
17 -0.15
18 -0.15
19 -0.15
2 -0.53
20 0.08
40 0.4
41 0.15
42 0.15
43 0.15
44 0.45
6 0.14
7 0.28

> <PUBCHEM_EFFECTIVE_ROTOR_COUNT>
1.4

> <PUBCHEM_PHARMACOPHORE_FEATURES>
7
1 1 acceptor
1 1 donor
1 2 donor
5 3 4 7 9 11 rings
6 14 16 17 18 19 20 rings
6 3 4 5 6 8 10 rings
6 5 6 12 14 15 16 rings

> <PUBCHEM_HEAVY_ATOM_COUNT>
20

> <PUBCHEM_ATOM_DEF_STEREO_COUNT>
5

> <PUBCHEM_ATOM_UDEF_STEREO_COUNT>
0

> <PUBCHEM_BOND_DEF_STEREO_COUNT>
0

> <PUBCHEM_BOND_UDEF_STEREO_COUNT>
0

> <PUBCHEM_ISOTOPIC_ATOM_COUNT>
0

> <PUBCHEM_COMPONENT_COUNT>
1

> <PUBCHEM_CACTVS_TAUTO_COUNT>
9

> <PUBCHEM_CONFORMER_ID>
0000167D00000001

> <PUBCHEM_MMFF94_ENERGY>
68.4596

> <PUBCHEM_FEATURE_SELFOVERLAP>
35.62

> <PUBCHEM_SHAPE_FINGERPRINT>
10 15 18262512710780645640
10411042 1 16969703283687688743
10616163 171 18338239395883154686
10967382 1 18410012100429229070
11132069 177 18409162216832884669
11578080 2 17201347718505248258
12011746 2 18410859841042374310
12107183 9 17690845558000159065
12236239 1 13470690338792453460
12251169 10 18335139816864396069
12403259 415 18410852127603240605
12403814 3 17530960289353343621
12500047 106 18271238421624861530
12592029 89 18334859377112304987
12788726 201 17703518696578858128
128620 24 11818992989152349105
13140716 1 18192429898953651512
13533116 47 17846218813073552003
13544592 145 18272379637759764926
13675066 3 18341893012844745609
14178342 30 18123731313450613666
14341114 176 18409738343777605753
14866123 147 17046555868986690930
15042514 8 18263932206156989787
15196674 1 18410012108982090935
15256400 18 18410857620686823693
15295992 7 17845930826899781123
15536298 74 18413671296627645270
1601671 61 18409168826940819996
16945 1 18266170819592368622
17349148 13 18412820287929204701
17804303 29 18410296916890392117
1813 80 16950285091842931756
18186145 218 17417805158171412875
19141452 34 18413108389914235807
192875 21 13830133918406568194
19591789 44 18192993725128068838
200 152 18131627885965453901
20028762 73 18272929458099065015
20261772 1 18410856577167961319
20510252 161 18341895147623301209
20645477 70 18200878374956666302
21033648 29 18271512131406579929
21267235 1 18337399244825179854
21279426 13 18124035632930519374
21421861 104 17895744090149736410
22854114 59 18412546505207311417
22892500 29 17274814788166584896
23184049 59 18410576175690384255
23402539 116 18342170081765240151
23557571 272 17773880972535682807
23558518 356 17682680979747269074
23559900 14 18413389822146813342
2748010 2 18337666399911122230
3004659 81 18260835844047909814
335352 9 18410013195572088855
34934 24 18411133675799850702
350125 39 18409735045496469133
351380 180 18409730664571278687
3545911 37 18411703192367818988
4214541 1 18409167684326479901
465052 167 17967541176940287083
495365 180 17346587600050392546
5104073 3 18409449150412323065
542803 24 17346883342628774985
59755656 215 18335983048405458773
69090 78 18341891905091661271
77779 3 18409450271409361990
7832392 63 18341046427736201710
9709674 26 18410862087368844367
9999458 23 17967819357476725574

> <PUBCHEM_SHAPE_MULTIPOLES>
399.85
9.72
2.11
0.84
3.73
0.39
0.22
-1.2
1.2
-0.24
-0.15
-0.38
-0.13
0.32

> <PUBCHEM_SHAPE_SELFOVERLAP>
871.414

> <PUBCHEM_SHAPE_VOLUME>
217.1

> <PUBCHEM_COORDINATE_TYPE>
2
5
10

> <Energy>
58.4396

> <minimizedAffinity>
-8.44380

> <CNNscore>
0.3149704635

> <CNNaffinity>
6.9634318352

> <CNN_VS>
2.1932754517

> <CNNaffinity_variance>
0.2736507654

$$$$
5757


 22 25  0  0  0  0  0  0  0  0999 V2000
   -3.3798   -1.1809   21.0640 O   0  0  0  0  0  0  0  0  0  0  0  0
  -10.9783   -9.0158   20.0281 O   0  0  0  0  0  0  0  0  0  0  0  0
   -5.1729   -2.8686   21.1915 C   0  0  0  0  0  0  0  0  0  0  0  0
   -6.0964   -3.2310   22.3719 C   0  0  0  0  0  0  0  0  0  0  0  0
   -7.2838   -4.0879   21.9337 C   0  0  0  0  0  0  0  0  0  0  0  0
   -6.7430   -5.4241   21.3397 C   0  0  0  0  0  0  0  0  0  0  0  0
   -4.1566   -1.9802   21.9345 C   0  0  0  0  0  0  0  0  0  0  0  0
   -4.5959   -4.1695   20.6202 C   0  0  0  0  0  0  0  0  0  0  0  0
   -6.3532   -1.8871   23.0477 C   0  0  0  0  0  0  0  0  0  0  0  0
   -5.7055   -5.1594   20.2153 C   0  0  0  0  0  0  0  0  0  0  0  0
   -5.0275   -1.1234   22.8740 C   0  0  0  0  0  0  0  0  0  0  0  0
   -8.2373   -4.4066   23.0869 C   0  0  0  0  0  0  0  0  0  0  0  0
   -5.8565   -2.0687   20.0531 C   0  0  0  0  0  0  0  0  0  0  0  0
   -7.8863   -6.3634   20.9593 C   0  0  0  0  0  0  0  0  0  0  0  0
   -9.4681   -5.1385   22.5572 C   0  0  0  0  0  0  0  0  0  0  0  0
   -9.1520   -6.2422   21.5745 C   0  0  0  0  0  0  0  0  0  0  0  0
   -7.6835   -7.4247   20.0588 C   0  0  0  0  0  0  0  0  0  0  0  0
  -10.1837   -7.1380   21.2375 C   0  0  0  0  0  0  0  0  0  0  0  0
   -8.7120   -8.3143   19.7393 C   0  0  0  0  0  0  0  0  0  0  0  0
   -9.9567   -8.1620   20.3270 C   0  0  0  0  0  0  0  0  0  0  0  0
   -2.8466   -1.7525   20.4897 H   0  0  0  0  0  0  0  0  0  0  0  0
  -11.8164   -8.9031   20.4319 H   0  0  0  0  0  0  0  0  0  0  0  0
  1  7  1  0
  1 21  1  0
  2 20  1  0
  2 22  1  0
  3  4  1  0
  3  7  1  0
  3  8  1  0
  3 13  1  0
  4  5  1  0
  4  9  1  0
  5  6  1  0
  5 12  1  0
  6 10  1  0
  6 14  1  0
  7 11  1  0
  8 10  1  0
  9 11  1  0
 12 15  1  0
 14 16  2  0
 14 17  1  0
 15 16  1  0
 16 18  1  0
 17 19  2  0
 18 20  2  0
 19 20  1  0
M  END
> <PUBCHEM_COMPOUND_CID>
5757

> <PUBCHEM_CONFORMER_RMSD>
0.6

> <PUBCHEM_CONFORMER_DIVERSEORDER>
1

> <PUBCHEM_MMFF94_PARTIAL_CHARGES>
16
1 -0.68
14 -0.14
15 0.14
16 -0.14
17 -0.15
18 -0.15
19 -0.15
2 -0.53
20 0.08
40 0.4
41 0.15
42 0.15
43 0.15
44 0.45
6 0.14
7 0.28

> <PUBCHEM_EFFECTIVE_ROTOR_COUNT>
1.4

> <PUBCHEM_PHARMACOPHORE_FEATURES>
7
1 1 acceptor
1 1 donor
1 2 donor
5 3 4 7 9 11 rings
6 14 16 17 18 19 20 rings
6 3 4 5 6 8 10 rings
6 5 6 12 14 15 16 rings

> <PUBCHEM_HEAVY_ATOM_COUNT>
20

> <PUBCHEM_ATOM_DEF_STEREO_COUNT>
5

> <PUBCHEM_ATOM_UDEF_STEREO_COUNT>
0

> <PUBCHEM_BOND_DEF_STEREO_COUNT>
0

> <PUBCHEM_BOND_UDEF_STEREO_COUNT>
0

> <PUBCHEM_ISOTOPIC_ATOM_COUNT>
0

> <PUBCHEM_COMPONENT_COUNT>
1

> <PUBCHEM_CACTVS_TAUTO_COUNT>
9

> <PUBCHEM_CONFORMER_ID>
0000167D00000001

> <PUBCHEM_MMFF94_ENERGY>
68.4596

> <PUBCHEM_FEATURE_SELFOVERLAP>
35.62

> <PUBCHEM_SHAPE_FINGERPRINT>
10 15 18262512710780645640
10411042 1 16969703283687688743
10616163 171 18338239395883154686
10967382 1 18410012100429229070
11132069 177 18409162216832884669
11578080 2 17201347718505248258
12011746 2 18410859841042374310
12107183 9 17690845558000159065
12236239 1 13470690338792453460
12251169 10 18335139816864396069
12403259 415 18410852127603240605
12403814 3 17530960289353343621
12500047 106 18271238421624861530
12592029 89 18334859377112304987
12788726 201 17703518696578858128
128620 24 11818992989152349105
13140716 1 18192429898953651512
13533116 47 17846218813073552003
13544592 145 18272379637759764926
13675066 3 18341893012844745609
14178342 30 18123731313450613666
14341114 176 18409738343777605753
14866123 147 17046555868986690930
15042514 8 18263932206156989787
15196674 1 18410012108982090935
15256400 18 18410857620686823693
15295992 7 17845930826899781123
15536298 74 18413671296627645270
1601671 61 18409168826940819996
16945 1 18266170819592368622
17349148 13 18412820287929204701
17804303 29 18410296916890392117
1813 80 16950285091842931756
18186145 218 17417805158171412875
19141452 34 18413108389914235807
192875 21 13830133918406568194
19591789 44 18192993725128068838
200 152 18131627885965453901
20028762 73 18272929458099065015
20261772 1 18410856577167961319
20510252 161 18341895147623301209
20645477 70 18200878374956666302
21033648 29 18271512131406579929
21267235 1 18337399244825179854
21279426 13 18124035632930519374
21421861 104 17895744090149736410
22854114 59 18412546505207311417
22892500 29 17274814788166584896
23184049 59 18410576175690384255
23402539 116 18342170081765240151
23557571 272 17773880972535682807
23558518 356 17682680979747269074
23559900 14 18413389822146813342
2748010 2 18337666399911122230
3004659 81 18260835844047909814
335352 9 18410013195572088855
34934 24 18411133675799850702
350125 39 18409735045496469133
351380 180 18409730664571278687
3545911 37 18411703192367818988
4214541 1 18409167684326479901
465052 167 17967541176940287083
495365 180 17346587600050392546
5104073 3 18409449150412323065
542803 24 17346883342628774985
59755656 215 18335983048405458773
69090 78 18341891905091661271
77779 3 18409450271409361990
7832392 63 18341046427736201710
9709674 26 18410862087368844367
9999458 23 17967819357476725574

> <PUBCHEM_SHAPE_MULTIPOLES>
399.85
9.72
2.11
0.84
3.73
0.39
0.22
-1.2
1.2
-0.24
-0.15
-0.38
-0.13
0.32

> <PUBCHEM_SHAPE_SELFOVERLAP>
871.414

> <PUBCHEM_SHAPE_VOLUME>
217.1

> <PUBCHEM_COORDINATE_TYPE>
2
5
10

> <Energy>
58.4396

> <minimizedAffinity>
4.04898

> <CNNscore>
0.1917575449

> <CNNaffinity>
5.7211966515

> <CNN_VS>
1.0970826149

> <CNNaffinity_variance>
0.0996666253

$$$$
5757


 22 25  0  0  0  0  0  0  0  0999 V2000
   -0.6872   -3.7361   21.8501 O   0  0  0  0  0  0  0  0  0  0  0  0
  -10.9657   -1.2573   24.7490 O   0  0  0  0  0  0  0  0  0  0  0  0
   -3.0980   -3.3305   22.1708 C   0  0  0  0  0  0  0  0  0  0  0  0
   -4.2825   -3.6786   21.2471 C   0  0  0  0  0  0  0  0  0  0  0  0
   -5.6273   -3.5619   21.9642 C   0  0  0  0  0  0  0  0  0  0  0  0
   -5.8188   -2.0862   22.4291 C   0  0  0  0  0  0  0  0  0  0  0  0
   -1.9350   -3.6039   21.1979 C   0  0  0  0  0  0  0  0  0  0  0  0
   -3.2454   -1.8670   22.6048 C   0  0  0  0  0  0  0  0  0  0  0  0
   -3.8748   -5.0159   20.6353 C   0  0  0  0  0  0  0  0  0  0  0  0
   -4.6086   -1.6017   23.2727 C   0  0  0  0  0  0  0  0  0  0  0  0
   -2.3469   -4.9046   20.4811 C   0  0  0  0  0  0  0  0  0  0  0  0
   -6.8059   -3.9593   21.0734 C   0  0  0  0  0  0  0  0  0  0  0  0
   -2.9697   -4.2267   23.4292 C   0  0  0  0  0  0  0  0  0  0  0  0
   -7.1859   -1.8843   23.0806 C   0  0  0  0  0  0  0  0  0  0  0  0
   -8.0971   -3.9588   21.8882 C   0  0  0  0  0  0  0  0  0  0  0  0
   -8.2606   -2.7506   22.7811 C   0  0  0  0  0  0  0  0  0  0  0  0
   -7.4334   -0.7832   23.9201 C   0  0  0  0  0  0  0  0  0  0  0  0
   -9.5225   -2.5293   23.3636 C   0  0  0  0  0  0  0  0  0  0  0  0
   -8.6928   -0.5673   24.4846 C   0  0  0  0  0  0  0  0  0  0  0  0
   -9.7277   -1.4447   24.2065 C   0  0  0  0  0  0  0  0  0  0  0  0
   -0.4614   -2.9008   22.2886 H   0  0  0  0  0  0  0  0  0  0  0  0
  -11.6583   -1.8574   24.5538 H   0  0  0  0  0  0  0  0  0  0  0  0
  1  7  1  0
  1 21  1  0
  2 20  1  0
  2 22  1  0
  3  4  1  0
  3  7  1  0
  3  8  1  0
  3 13  1  0
  4  5  1  0
  4  9  1  0
  5  6  1  0
  5 12  1  0
  6 10  1  0
  6 14  1  0
  7 11  1  0
  8 10  1  0
  9 11  1  0
 12 15  1  0
 14 16  2  0
 14 17  1  0
 15 16  1  0
 16 18  1  0
 17 19  2  0
 18 20  2  0
 19 20  1  0
M  END
> <PUBCHEM_COMPOUND_CID>
5757

> <PUBCHEM_CONFORMER_RMSD>
0.6

> <PUBCHEM_CONFORMER_DIVERSEORDER>
1

> <PUBCHEM_MMFF94_PARTIAL_CHARGES>
16
1 -0.68
14 -0.14
15 0.14
16 -0.14
17 -0.15
18 -0.15
19 -0.15
2 -0.53
20 0.08
40 0.4
41 0.15
42 0.15
43 0.15
44 0.45
6 0.14
7 0.28

> <PUBCHEM_EFFECTIVE_ROTOR_COUNT>
1.4

> <PUBCHEM_PHARMACOPHORE_FEATURES>
7
1 1 acceptor
1 1 donor
1 2 donor
5 3 4 7 9 11 rings
6 14 16 17 18 19 20 rings
6 3 4 5 6 8 10 rings
6 5 6 12 14 15 16 rings

> <PUBCHEM_HEAVY_ATOM_COUNT>
20

> <PUBCHEM_ATOM_DEF_STEREO_COUNT>
5

> <PUBCHEM_ATOM_UDEF_STEREO_COUNT>
0

> <PUBCHEM_BOND_DEF_STEREO_COUNT>
0

> <PUBCHEM_BOND_UDEF_STEREO_COUNT>
0

> <PUBCHEM_ISOTOPIC_ATOM_COUNT>
0

> <PUBCHEM_COMPONENT_COUNT>
1

> <PUBCHEM_CACTVS_TAUTO_COUNT>
9

> <PUBCHEM_CONFORMER_ID>
0000167D00000001

> <PUBCHEM_MMFF94_ENERGY>
68.4596

> <PUBCHEM_FEATURE_SELFOVERLAP>
35.62

> <PUBCHEM_SHAPE_FINGERPRINT>
10 15 18262512710780645640
10411042 1 16969703283687688743
10616163 171 18338239395883154686
10967382 1 18410012100429229070
11132069 177 18409162216832884669
11578080 2 17201347718505248258
12011746 2 18410859841042374310
12107183 9 17690845558000159065
12236239 1 13470690338792453460
12251169 10 18335139816864396069
12403259 415 18410852127603240605
12403814 3 17530960289353343621
12500047 106 18271238421624861530
12592029 89 18334859377112304987
12788726 201 17703518696578858128
128620 24 11818992989152349105
13140716 1 18192429898953651512
13533116 47 17846218813073552003
13544592 145 18272379637759764926
13675066 3 18341893012844745609
14178342 30 18123731313450613666
14341114 176 18409738343777605753
14866123 147 17046555868986690930
15042514 8 18263932206156989787
15196674 1 18410012108982090935
15256400 18 18410857620686823693
15295992 7 17845930826899781123
15536298 74 18413671296627645270
1601671 61 18409168826940819996
16945 1 18266170819592368622
17349148 13 18412820287929204701
17804303 29 18410296916890392117
1813 80 16950285091842931756
18186145 218 17417805158171412875
19141452 34 18413108389914235807
192875 21 13830133918406568194
19591789 44 18192993725128068838
200 152 18131627885965453901
20028762 73 18272929458099065015
20261772 1 18410856577167961319
20510252 161 18341895147623301209
20645477 70 18200878374956666302
21033648 29 18271512131406579929
21267235 1 18337399244825179854
21279426 13 18124035632930519374
21421861 104 17895744090149736410
22854114 59 18412546505207311417
22892500 29 17274814788166584896
23184049 59 18410576175690384255
23402539 116 18342170081765240151
23557571 272 17773880972535682807
23558518 356 17682680979747269074
23559900 14 18413389822146813342
2748010 2 18337666399911122230
3004659 81 18260835844047909814
335352 9 18410013195572088855
34934 24 18411133675799850702
350125 39 18409735045496469133
351380 180 18409730664571278687
3545911 37 18411703192367818988
4214541 1 18409167684326479901
465052 167 17967541176940287083
495365 180 17346587600050392546
5104073 3 18409449150412323065
542803 24 17346883342628774985
59755656 215 18335983048405458773
69090 78 18341891905091661271
77779 3 18409450271409361990
7832392 63 18341046427736201710
9709674 26 18410862087368844367
9999458 23 17967819357476725574

> <PUBCHEM_SHAPE_MULTIPOLES>
399.85
9.72
2.11
0.84
3.73
0.39
0.22
-1.2
1.2
-0.24
-0.15
-0.38
-0.13
0.32

> <PUBCHEM_SHAPE_SELFOVERLAP>
871.414

> <PUBCHEM_SHAPE_VOLUME>
217.1

> <PUBCHEM_COORDINATE_TYPE>
2
5
10

> <Energy>
58.4396

> <minimizedAffinity>
-1.59417

> <CNNscore>
0.1914835572

> <CNNaffinity>
6.7836670876

> <CNN_VS>
1.2989606857

> <CNNaffinity_variance>
0.7929806709

$$$$
5757


 22 25  0  0  0  0  0  0  0  0999 V2000
   -2.1236   -1.5865   20.1219 O   0  0  0  0  0  0  0  0  0  0  0  0
   -9.8421   -9.3361   20.8723 O   0  0  0  0  0  0  0  0  0  0  0  0
   -3.5851   -3.5709   20.1962 C   0  0  0  0  0  0  0  0  0  0  0  0
   -3.2414   -5.0521   19.9403 C   0  0  0  0  0  0  0  0  0  0  0  0
   -4.3491   -5.9921   20.4155 C   0  0  0  0  0  0  0  0  0  0  0  0
   -5.6507   -5.6727   19.6190 C   0  0  0  0  0  0  0  0  0  0  0  0
   -2.2844   -2.9219   19.6852 C   0  0  0  0  0  0  0  0  0  0  0  0
   -4.8401   -3.2253   19.3856 C   0  0  0  0  0  0  0  0  0  0  0  0
   -1.8377   -5.1967   20.5212 C   0  0  0  0  0  0  0  0  0  0  0  0
   -6.0143   -4.1664   19.7179 C   0  0  0  0  0  0  0  0  0  0  0  0
   -1.1717   -3.8397   20.2283 C   0  0  0  0  0  0  0  0  0  0  0  0
   -3.9947   -7.4671   20.2178 C   0  0  0  0  0  0  0  0  0  0  0  0
   -3.8206   -3.2060   21.6843 C   0  0  0  0  0  0  0  0  0  0  0  0
   -6.7764   -6.6373   19.9887 C   0  0  0  0  0  0  0  0  0  0  0  0
   -5.0739   -8.3494   20.8407 C   0  0  0  0  0  0  0  0  0  0  0  0
   -6.4851   -7.9119   20.5232 C   0  0  0  0  0  0  0  0  0  0  0  0
   -8.1204   -6.3188   19.7231 C   0  0  0  0  0  0  0  0  0  0  0  0
   -7.5331   -8.8012   20.8258 C   0  0  0  0  0  0  0  0  0  0  0  0
   -9.1520   -7.2134   20.0179 C   0  0  0  0  0  0  0  0  0  0  0  0
   -8.8518   -8.4467   20.5719 C   0  0  0  0  0  0  0  0  0  0  0  0
   -2.8395   -1.0400   19.7618 H   0  0  0  0  0  0  0  0  0  0  0  0
   -9.6273  -10.1676   21.2469 H   0  0  0  0  0  0  0  0  0  0  0  0
  1  7  1  0
  1 21  1  0
  2 20  1  0
  2 22  1  0
  3  4  1  0
  3  7  1  0
  3  8  1  0
  3 13  1  0
  4  5  1  0
  4  9  1  0
  5  6  1  0
  5 12  1  0
  6 10  1  0
  6 14  1  0
  7 11  1  0
  8 10  1  0
  9 11  1  0
 12 15  1  0
 14 16  2  0
 14 17  1  0
 15 16  1  0
 16 18  1  0
 17 19  2  0
 18 20  2  0
 19 20  1  0
M  END
> <PUBCHEM_COMPOUND_CID>
5757

> <PUBCHEM_CONFORMER_RMSD>
0.6

> <PUBCHEM_CONFORMER_DIVERSEORDER>
1

> <PUBCHEM_MMFF94_PARTIAL_CHARGES>
16
1 -0.68
14 -0.14
15 0.14
16 -0.14
17 -0.15
18 -0.15
19 -0.15
2 -0.53
20 0.08
40 0.4
41 0.15
42 0.15
43 0.15
44 0.45
6 0.14
7 0.28

> <PUBCHEM_EFFECTIVE_ROTOR_COUNT>
1.4

> <PUBCHEM_PHARMACOPHORE_FEATURES>
7
1 1 acceptor
1 1 donor
1 2 donor
5 3 4 7 9 11 rings
6 14 16 17 18 19 20 rings
6 3 4 5 6 8 10 rings
6 5 6 12 14 15 16 rings

> <PUBCHEM_HEAVY_ATOM_COUNT>
20

> <PUBCHEM_ATOM_DEF_STEREO_COUNT>
5

> <PUBCHEM_ATOM_UDEF_STEREO_COUNT>
0

> <PUBCHEM_BOND_DEF_STEREO_COUNT>
0

> <PUBCHEM_BOND_UDEF_STEREO_COUNT>
0

> <PUBCHEM_ISOTOPIC_ATOM_COUNT>
0

> <PUBCHEM_COMPONENT_COUNT>
1

> <PUBCHEM_CACTVS_TAUTO_COUNT>
9

> <PUBCHEM_CONFORMER_ID>
0000167D00000001

> <PUBCHEM_MMFF94_ENERGY>
68.4596

> <PUBCHEM_FEATURE_SELFOVERLAP>
35.62

> <PUBCHEM_SHAPE_FINGERPRINT>
10 15 18262512710780645640
10411042 1 16969703283687688743
10616163 171 18338239395883154686
10967382 1 18410012100429229070
11132069 177 18409162216832884669
11578080 2 17201347718505248258
12011746 2 18410859841042374310
12107183 9 17690845558000159065
12236239 1 13470690338792453460
12251169 10 18335139816864396069
12403259 415 18410852127603240605
12403814 3 17530960289353343621
12500047 106 18271238421624861530
12592029 89 18334859377112304987
12788726 201 17703518696578858128
128620 24 11818992989152349105
13140716 1 18192429898953651512
13533116 47 17846218813073552003
13544592 145 18272379637759764926
13675066 3 18341893012844745609
14178342 30 18123731313450613666
14341114 176 18409738343777605753
14866123 147 17046555868986690930
15042514 8 18263932206156989787
15196674 1 18410012108982090935
15256400 18 18410857620686823693
15295992 7 17845930826899781123
15536298 74 18413671296627645270
1601671 61 18409168826940819996
16945 1 18266170819592368622
17349148 13 18412820287929204701
17804303 29 18410296916890392117
1813 80 16950285091842931756
18186145 218 17417805158171412875
19141452 34 18413108389914235807
192875 21 13830133918406568194
19591789 44 18192993725128068838
200 152 18131627885965453901
20028762 73 18272929458099065015
20261772 1 18410856577167961319
20510252 161 18341895147623301209
20645477 70 18200878374956666302
21033648 29 18271512131406579929
21267235 1 18337399244825179854
21279426 13 18124035632930519374
21421861 104 17895744090149736410
22854114 59 18412546505207311417
22892500 29 17274814788166584896
23184049 59 18410576175690384255
23402539 116 18342170081765240151
23557571 272 17773880972535682807
23558518 356 17682680979747269074
23559900 14 18413389822146813342
2748010 2 18337666399911122230
3004659 81 18260835844047909814
335352 9 18410013195572088855
34934 24 18411133675799850702
350125 39 18409735045496469133
351380 180 18409730664571278687
3545911 37 18411703192367818988
4214541 1 18409167684326479901
465052 167 17967541176940287083
495365 180 17346587600050392546
5104073 3 18409449150412323065
542803 24 17346883342628774985
59755656 215 18335983048405458773
69090 78 18341891905091661271
77779 3 18409450271409361990
7832392 63 18341046427736201710
9709674 26 18410862087368844367
9999458 23 17967819357476725574

> <PUBCHEM_SHAPE_MULTIPOLES>
399.85
9.72
2.11
0.84
3.73
0.39
0.22
-1.2
1.2
-0.24
-0.15
-0.38
-0.13
0.32

> <PUBCHEM_SHAPE_SELFOVERLAP>
871.414

> <PUBCHEM_SHAPE_VOLUME>
217.1

> <PUBCHEM_COORDINATE_TYPE>
2
5
10

> <Energy>
58.4396

> <minimizedAffinity>
5.05625

> <CNNscore>
0.1696479619

> <CNNaffinity>
4.5646824837

> <CNN_VS>
0.7743890882

> <CNNaffinity_variance>
0.7786095738

$$$$
5757


 22 25  0  0  0  0  0  0  0  0999 V2000
   -1.5574   -4.6668   23.3811 O   0  0  0  0  0  0  0  0  0  0  0  0
  -11.8656   -7.6502   21.1371 O   0  0  0  0  0  0  0  0  0  0  0  0
   -3.7469   -5.4165   22.5303 C   0  0  0  0  0  0  0  0  0  0  0  0
   -4.1259   -5.9511   21.1346 C   0  0  0  0  0  0  0  0  0  0  0  0
   -5.5021   -6.6163   21.1255 C   0  0  0  0  0  0  0  0  0  0  0  0
   -6.5723   -5.5546   21.5228 C   0  0  0  0  0  0  0  0  0  0  0  0
   -2.3325   -4.8903   22.2195 C   0  0  0  0  0  0  0  0  0  0  0  0
   -4.7649   -4.3382   22.9208 C   0  0  0  0  0  0  0  0  0  0  0  0
   -2.9010   -6.7613   20.7198 C   0  0  0  0  0  0  0  0  0  0  0  0
   -6.2107   -4.8689   22.8681 C   0  0  0  0  0  0  0  0  0  0  0  0
   -1.7175   -5.9822   21.3224 C   0  0  0  0  0  0  0  0  0  0  0  0
   -5.8647   -7.2003   19.7587 C   0  0  0  0  0  0  0  0  0  0  0  0
   -3.6884   -6.4925   23.6448 C   0  0  0  0  0  0  0  0  0  0  0  0
   -7.9830   -6.1370   21.4503 C   0  0  0  0  0  0  0  0  0  0  0  0
   -7.1792   -7.9710   19.8546 C   0  0  0  0  0  0  0  0  0  0  0  0
   -8.2605   -7.2496   20.6254 C   0  0  0  0  0  0  0  0  0  0  0  0
   -9.0544   -5.5280   22.1281 C   0  0  0  0  0  0  0  0  0  0  0  0
   -9.5727   -7.7516   20.5438 C   0  0  0  0  0  0  0  0  0  0  0  0
  -10.3550   -6.0286   22.0317 C   0  0  0  0  0  0  0  0  0  0  0  0
  -10.6045   -7.1401   21.2441 C   0  0  0  0  0  0  0  0  0  0  0  0
   -1.9738   -3.9756   23.9195 H   0  0  0  0  0  0  0  0  0  0  0  0
  -12.0227   -8.4026   20.6013 H   0  0  0  0  0  0  0  0  0  0  0  0
  1  7  1  0
  1 21  1  0
  2 20  1  0
  2 22  1  0
  3  4  1  0
  3  7  1  0
  3  8  1  0
  3 13  1  0
  4  5  1  0
  4  9  1  0
  5  6  1  0
  5 12  1  0
  6 10  1  0
  6 14  1  0
  7 11  1  0
  8 10  1  0
  9 11  1  0
 12 15  1  0
 14 16  2  0
 14 17  1  0
 15 16  1  0
 16 18  1  0
 17 19  2  0
 18 20  2  0
 19 20  1  0
M  END
> <PUBCHEM_COMPOUND_CID>
5757

> <PUBCHEM_CONFORMER_RMSD>
0.6

> <PUBCHEM_CONFORMER_DIVERSEORDER>
1

> <PUBCHEM_MMFF94_PARTIAL_CHARGES>
16
1 -0.68
14 -0.14
15 0.14
16 -0.14
17 -0.15
18 -0.15
19 -0.15
2 -0.53
20 0.08
40 0.4
41 0.15
42 0.15
43 0.15
44 0.45
6 0.14
7 0.28

> <PUBCHEM_EFFECTIVE_ROTOR_COUNT>
1.4

> <PUBCHEM_PHARMACOPHORE_FEATURES>
7
1 1 acceptor
1 1 donor
1 2 donor
5 3 4 7 9 11 rings
6 14 16 17 18 19 20 rings
6 3 4 5 6 8 10 rings
6 5 6 12 14 15 16 rings

> <PUBCHEM_HEAVY_ATOM_COUNT>
20

> <PUBCHEM_ATOM_DEF_STEREO_COUNT>
5

> <PUBCHEM_ATOM_UDEF_STEREO_COUNT>
0

> <PUBCHEM_BOND_DEF_STEREO_COUNT>
0

> <PUBCHEM_BOND_UDEF_STEREO_COUNT>
0

> <PUBCHEM_ISOTOPIC_ATOM_COUNT>
0

> <PUBCHEM_COMPONENT_COUNT>
1

> <PUBCHEM_CACTVS_TAUTO_COUNT>
9

> <PUBCHEM_CONFORMER_ID>
0000167D00000001

> <PUBCHEM_MMFF94_ENERGY>
68.4596

> <PUBCHEM_FEATURE_SELFOVERLAP>
35.62

> <PUBCHEM_SHAPE_FINGERPRINT>
10 15 18262512710780645640
10411042 1 16969703283687688743
10616163 171 18338239395883154686
10967382 1 18410012100429229070
11132069 177 18409162216832884669
11578080 2 17201347718505248258
12011746 2 18410859841042374310
12107183 9 17690845558000159065
12236239 1 13470690338792453460
12251169 10 18335139816864396069
12403259 415 18410852127603240605
12403814 3 17530960289353343621
12500047 106 18271238421624861530
12592029 89 18334859377112304987
12788726 201 17703518696578858128
128620 24 11818992989152349105
13140716 1 18192429898953651512
13533116 47 17846218813073552003
13544592 145 18272379637759764926
13675066 3 18341893012844745609
14178342 30 18123731313450613666
14341114 176 18409738343777605753
14866123 147 17046555868986690930
15042514 8 18263932206156989787
15196674 1 18410012108982090935
15256400 18 18410857620686823693
15295992 7 17845930826899781123
15536298 74 18413671296627645270
1601671 61 18409168826940819996
16945 1 18266170819592368622
17349148 13 18412820287929204701
17804303 29 18410296916890392117
1813 80 16950285091842931756
18186145 218 17417805158171412875
19141452 34 18413108389914235807
192875 21 13830133918406568194
19591789 44 18192993725128068838
200 152 18131627885965453901
20028762 73 18272929458099065015
20261772 1 18410856577167961319
20510252 161 18341895147623301209
20645477 70 18200878374956666302
21033648 29 18271512131406579929
21267235 1 18337399244825179854
21279426 13 18124035632930519374
21421861 104 17895744090149736410
22854114 59 18412546505207311417
22892500 29 17274814788166584896
23184049 59 18410576175690384255
23402539 116 18342170081765240151
23557571 272 17773880972535682807
23558518 356 17682680979747269074
23559900 14 18413389822146813342
2748010 2 18337666399911122230
3004659 81 18260835844047909814
335352 9 18410013195572088855
34934 24 18411133675799850702
350125 39 18409735045496469133
351380 180 18409730664571278687
3545911 37 18411703192367818988
4214541 1 18409167684326479901
465052 167 17967541176940287083
495365 180 17346587600050392546
5104073 3 18409449150412323065
542803 24 17346883342628774985
59755656 215 18335983048405458773
69090 78 18341891905091661271
77779 3 18409450271409361990
7832392 63 18341046427736201710
9709674 26 18410862087368844367
9999458 23 17967819357476725574

> <PUBCHEM_SHAPE_MULTIPOLES>
399.85
9.72
2.11
0.84
3.73
0.39
0.22
-1.2
1.2
-0.24
-0.15
-0.38
-0.13
0.32

> <PUBCHEM_SHAPE_SELFOVERLAP>
871.414

> <PUBCHEM_SHAPE_VOLUME>
217.1

> <PUBCHEM_COORDINATE_TYPE>
2
5
10

> <Energy>
58.4396

> <minimizedAffinity>
16.95801

> <CNNscore>
0.1537222415

> <CNNaffinity>
4.9569897652

> <CNN_VS>
0.7619996071

> <CNNaffinity_variance>
0.0744604915

$$$$
