7184


 15 15  0  0  0  0  0  0  0  0999 V2000
    0.8500   -2.4387   20.8670 O   0  0  0  0  0  0  0  0  0  0  0  0
   -3.2826   -2.6686   20.9274 C   0  0  0  0  0  0  0  0  0  0  0  0
   -2.6066   -2.5552   19.7064 C   0  0  0  0  0  0  0  0  0  0  0  0
   -2.5687   -2.6909   22.1289 C   0  0  0  0  0  0  0  0  0  0  0  0
   -1.2119   -2.4819   19.6933 C   0  0  0  0  0  0  0  0  0  0  0  0
   -1.1806   -2.6168   22.1126 C   0  0  0  0  0  0  0  0  0  0  0  0
   -0.5076   -2.5141   20.8942 C   0  0  0  0  0  0  0  0  0  0  0  0
    1.2991   -2.3697   20.0475 H   0  0  0  0  0  0  0  0  0  0  0  0
   -5.4628   -1.9320   21.5270 O   0  0  0  0  0  0  0  0  0  0  0  0
   -4.7565   -2.7349   20.9390 C   0  0  0  0  0  0  0  0  0  0  0  0
   -5.1701   -3.7878   20.1886 O   0  0  0  0  0  0  0  0  0  0  0  0
   -5.0919   -5.0603   20.8414 C   0  0  0  0  0  0  0  0  0  0  0  0
   -6.3032   -5.8891   20.4219 C   0  0  0  0  0  0  0  0  0  0  0  0
   -5.9385   -7.3601   20.2386 C   0  0  0  0  0  0  0  0  0  0  0  0
   -4.9809   -7.8363   21.3189 C   0  0  0  0  0  0  0  0  0  0  0  0
 11 12  1  0
 11 10  1  0
  9 10  2  0
  1  7  1  0
  1  8  1  0
 13 14  1  0
 13 12  1  0
 14 15  1  0
  2 10  1  0
  2  3  2  0
  2  4  1  0
  3  5  1  0
  4  6  2  0
  5  7  2  0
  6  7  1  0
M  END
> <PUBCHEM_COMPOUND_CID>
7184

> <PUBCHEM_CONFORMER_RMSD>
0.6

> <PUBCHEM_CONFORMER_DIVERSEORDER>
1
44
15
20
41
3
43
64
40
47
74
50
4
6
22
69
55
77
16
75
28
26
73
53
11
32
49
58
67
63
62
24
65
27
19
38
12
48
76
25
57
10
31
17
42
34
68
51
9
23
8
14
21
33
18
30
5
66
70
2
56
45
39
37
46
35
60
36
52
59
54
29
71
72
61
13
7

> <PUBCHEM_MMFF94_PARTIAL_CHARGES>
16
1 -0.43
10 -0.15
11 -0.15
12 -0.15
13 -0.15
14 0.08
2 -0.57
24 0.15
25 0.15
26 0.15
27 0.15
28 0.45
3 -0.53
6 0.28
8 0.09
9 0.63

> <PUBCHEM_EFFECTIVE_ROTOR_COUNT>
5

> <PUBCHEM_PHARMACOPHORE_FEATURES>
4
1 2 acceptor
1 3 donor
1 7 hydrophobe
6 8 10 11 12 13 14 rings

> <PUBCHEM_HEAVY_ATOM_COUNT>
14

> <PUBCHEM_ATOM_DEF_STEREO_COUNT>
0

> <PUBCHEM_ATOM_UDEF_STEREO_COUNT>
0

> <PUBCHEM_BOND_DEF_STEREO_COUNT>
0

> <PUBCHEM_BOND_UDEF_STEREO_COUNT>
0

> <PUBCHEM_ISOTOPIC_ATOM_COUNT>
0

> <PUBCHEM_COMPONENT_COUNT>
1

> <PUBCHEM_CACTVS_TAUTO_COUNT>
3

> <PUBCHEM_CONFORMER_ID>
00001C1000000001

> <PUBCHEM_MMFF94_ENERGY>
26.8162

> <PUBCHEM_FEATURE_SELFOVERLAP>
20.297

> <PUBCHEM_SHAPE_FINGERPRINT>
100836 57 10159698014692119138
10465860 250 17561082501386551480
10968037 39 18334860532716625766
11046707 91 18409446968869733128
12032990 46 18409167722807014732
12251169 10 18060418027818494140
13167823 11 18408602527187214402
13288520 33 18409730651148371639
13551218 46 18270963440792261598
13690532 89 18409730694483049495
13862211 1 18342737464162399199
14252887 29 17989215824084205230
17804303 29 18273497883401759577
17834072 33 18410577323021717172
1813 80 17968106291699631366
18186145 218 14923950067535008876
200 152 17530965761531918920
20281475 54 18337672035103360796
20767249 213 10735876175026745610
20828058 44 18273214175553485034
21267235 1 18410019844213228018
22485316 2 18408601440280660184
2297311 6 18130235869953600908
23402539 116 17846774109970031213
23463225 33 18411140233692529510
23559900 14 18270389602695558633
351380 180 10665231458300457486
351380 3 18259982652836299658
42 15 18342740719346176002
4214541 1 18340769252190604880
5104073 3 18271533095046590721
559249 180 18335415712557464698
7364860 26 18126566957732624024
83771 10 18407476665592062532

> <PUBCHEM_SHAPE_MULTIPOLES>
270.51
10.85
1.64
0.68
12.98
0.32
0
-5.61
1.62
-0.51
-0.11
-0.08
0
-0.42

> <PUBCHEM_SHAPE_SELFOVERLAP>
550.017

> <PUBCHEM_SHAPE_VOLUME>
158.1

> <PUBCHEM_COORDINATE_TYPE>
2
5
10

> <Energy>
17.0404

> <minimizedAffinity>
-6.41738

> <CNNscore>
0.8909482360

> <CNNaffinity>
5.9510855675

> <CNN_VS>
5.3021092415

> <CNNaffinity_variance>
0.3118089736

$$$$
7184


 15 15  0  0  0  0  0  0  0  0999 V2000
    0.8551   -2.4914   20.9123 O   0  0  0  0  0  0  0  0  0  0  0  0
   -3.2804   -2.6498   20.9982 C   0  0  0  0  0  0  0  0  0  0  0  0
   -2.5541   -2.6969   22.1945 C   0  0  0  0  0  0  0  0  0  0  0  0
   -2.6146   -2.5632   19.7722 C   0  0  0  0  0  0  0  0  0  0  0  0
   -1.1591   -2.6392   22.1581 C   0  0  0  0  0  0  0  0  0  0  0  0
   -1.2260   -2.5069   19.7394 C   0  0  0  0  0  0  0  0  0  0  0  0
   -0.5038   -2.5436   20.9332 C   0  0  0  0  0  0  0  0  0  0  0  0
    1.3372   -2.5163   21.7153 H   0  0  0  0  0  0  0  0  0  0  0  0
   -5.4470   -1.9730   21.7076 O   0  0  0  0  0  0  0  0  0  0  0  0
   -4.7536   -2.7220   21.0387 C   0  0  0  0  0  0  0  0  0  0  0  0
   -5.1831   -3.7104   20.2134 O   0  0  0  0  0  0  0  0  0  0  0  0
   -5.0646   -5.0344   20.7468 C   0  0  0  0  0  0  0  0  0  0  0  0
   -6.0050   -5.9505   19.9678 C   0  0  0  0  0  0  0  0  0  0  0  0
   -5.8017   -7.4149   20.3480 C   0  0  0  0  0  0  0  0  0  0  0  0
   -4.8283   -7.5607   21.5065 C   0  0  0  0  0  0  0  0  0  0  0  0
 11 12  1  0
 11 10  1  0
  9 10  2  0
  1  7  1  0
  1  8  1  0
 13 14  1  0
 13 12  1  0
 14 15  1  0
  2 10  1  0
  2  3  2  0
  2  4  1  0
  3  5  1  0
  4  6  2  0
  5  7  2  0
  6  7  1  0
M  END
> <PUBCHEM_COMPOUND_CID>
7184

> <PUBCHEM_CONFORMER_RMSD>
0.6

> <PUBCHEM_CONFORMER_DIVERSEORDER>
1
44
15
20
41
3
43
64
40
47
74
50
4
6
22
69
55
77
16
75
28
26
73
53
11
32
49
58
67
63
62
24
65
27
19
38
12
48
76
25
57
10
31
17
42
34
68
51
9
23
8
14
21
33
18
30
5
66
70
2
56
45
39
37
46
35
60
36
52
59
54
29
71
72
61
13
7

> <PUBCHEM_MMFF94_PARTIAL_CHARGES>
16
1 -0.43
10 -0.15
11 -0.15
12 -0.15
13 -0.15
14 0.08
2 -0.57
24 0.15
25 0.15
26 0.15
27 0.15
28 0.45
3 -0.53
6 0.28
8 0.09
9 0.63

> <PUBCHEM_EFFECTIVE_ROTOR_COUNT>
5

> <PUBCHEM_PHARMACOPHORE_FEATURES>
4
1 2 acceptor
1 3 donor
1 7 hydrophobe
6 8 10 11 12 13 14 rings

> <PUBCHEM_HEAVY_ATOM_COUNT>
14

> <PUBCHEM_ATOM_DEF_STEREO_COUNT>
0

> <PUBCHEM_ATOM_UDEF_STEREO_COUNT>
0

> <PUBCHEM_BOND_DEF_STEREO_COUNT>
0

> <PUBCHEM_BOND_UDEF_STEREO_COUNT>
0

> <PUBCHEM_ISOTOPIC_ATOM_COUNT>
0

> <PUBCHEM_COMPONENT_COUNT>
1

> <PUBCHEM_CACTVS_TAUTO_COUNT>
3

> <PUBCHEM_CONFORMER_ID>
00001C1000000001

> <PUBCHEM_MMFF94_ENERGY>
26.8162

> <PUBCHEM_FEATURE_SELFOVERLAP>
20.297

> <PUBCHEM_SHAPE_FINGERPRINT>
100836 57 10159698014692119138
10465860 250 17561082501386551480
10968037 39 18334860532716625766
11046707 91 18409446968869733128
12032990 46 18409167722807014732
12251169 10 18060418027818494140
13167823 11 18408602527187214402
13288520 33 18409730651148371639
13551218 46 18270963440792261598
13690532 89 18409730694483049495
13862211 1 18342737464162399199
14252887 29 17989215824084205230
17804303 29 18273497883401759577
17834072 33 18410577323021717172
1813 80 17968106291699631366
18186145 218 14923950067535008876
200 152 17530965761531918920
20281475 54 18337672035103360796
20767249 213 10735876175026745610
20828058 44 18273214175553485034
21267235 1 18410019844213228018
22485316 2 18408601440280660184
2297311 6 18130235869953600908
23402539 116 17846774109970031213
23463225 33 18411140233692529510
23559900 14 18270389602695558633
351380 180 10665231458300457486
351380 3 18259982652836299658
42 15 18342740719346176002
4214541 1 18340769252190604880
5104073 3 18271533095046590721
559249 180 18335415712557464698
7364860 26 18126566957732624024
83771 10 18407476665592062532

> <PUBCHEM_SHAPE_MULTIPOLES>
270.51
10.85
1.64
0.68
12.98
0.32
0
-5.61
1.62
-0.51
-0.11
-0.08
0
-0.42

> <PUBCHEM_SHAPE_SELFOVERLAP>
550.017

> <PUBCHEM_SHAPE_VOLUME>
158.1

> <PUBCHEM_COORDINATE_TYPE>
2
5
10

> <Energy>
17.0404

> <minimizedAffinity>
-6.42564

> <CNNscore>
0.8879452944

> <CNNaffinity>
5.9277687073

> <CNN_VS>
5.2635345459

> <CNNaffinity_variance>
0.2683139145

$$$$
7184


 15 15  0  0  0  0  0  0  0  0999 V2000
   -0.0206   -2.0735   19.5563 O   0  0  0  0  0  0  0  0  0  0  0  0
   -3.9442   -2.7680   20.6779 C   0  0  0  0  0  0  0  0  0  0  0  0
   -2.9975   -2.3963   21.6403 C   0  0  0  0  0  0  0  0  0  0  0  0
   -3.5677   -2.9193   19.3403 C   0  0  0  0  0  0  0  0  0  0  0  0
   -1.6762   -2.1599   21.2541 C   0  0  0  0  0  0  0  0  0  0  0  0
   -2.2517   -2.6842   18.9593 C   0  0  0  0  0  0  0  0  0  0  0  0
   -1.3113   -2.3038   19.9180 C   0  0  0  0  0  0  0  0  0  0  0  0
    0.6084   -1.8183   20.2022 H   0  0  0  0  0  0  0  0  0  0  0  0
   -6.2949   -2.4082   20.6573 O   0  0  0  0  0  0  0  0  0  0  0  0
   -5.3368   -3.0278   21.0904 C   0  0  0  0  0  0  0  0  0  0  0  0
   -5.3639   -4.0533   21.9793 O   0  0  0  0  0  0  0  0  0  0  0  0
   -4.9463   -5.3181   21.4525 C   0  0  0  0  0  0  0  0  0  0  0  0
   -6.0096   -5.8024   20.4701 C   0  0  0  0  0  0  0  0  0  0  0  0
   -6.0001   -7.3234   20.3400 C   0  0  0  0  0  0  0  0  0  0  0  0
   -4.9210   -7.9508   21.2076 C   0  0  0  0  0  0  0  0  0  0  0  0
 11 12  1  0
 11 10  1  0
  9 10  2  0
  1  7  1  0
  1  8  1  0
 13 14  1  0
 13 12  1  0
 14 15  1  0
  2 10  1  0
  2  3  2  0
  2  4  1  0
  3  5  1  0
  4  6  2  0
  5  7  2  0
  6  7  1  0
M  END
> <PUBCHEM_COMPOUND_CID>
7184

> <PUBCHEM_CONFORMER_RMSD>
0.6

> <PUBCHEM_CONFORMER_DIVERSEORDER>
1
44
15
20
41
3
43
64
40
47
74
50
4
6
22
69
55
77
16
75
28
26
73
53
11
32
49
58
67
63
62
24
65
27
19
38
12
48
76
25
57
10
31
17
42
34
68
51
9
23
8
14
21
33
18
30
5
66
70
2
56
45
39
37
46
35
60
36
52
59
54
29
71
72
61
13
7

> <PUBCHEM_MMFF94_PARTIAL_CHARGES>
16
1 -0.43
10 -0.15
11 -0.15
12 -0.15
13 -0.15
14 0.08
2 -0.57
24 0.15
25 0.15
26 0.15
27 0.15
28 0.45
3 -0.53
6 0.28
8 0.09
9 0.63

> <PUBCHEM_EFFECTIVE_ROTOR_COUNT>
5

> <PUBCHEM_PHARMACOPHORE_FEATURES>
4
1 2 acceptor
1 3 donor
1 7 hydrophobe
6 8 10 11 12 13 14 rings

> <PUBCHEM_HEAVY_ATOM_COUNT>
14

> <PUBCHEM_ATOM_DEF_STEREO_COUNT>
0

> <PUBCHEM_ATOM_UDEF_STEREO_COUNT>
0

> <PUBCHEM_BOND_DEF_STEREO_COUNT>
0

> <PUBCHEM_BOND_UDEF_STEREO_COUNT>
0

> <PUBCHEM_ISOTOPIC_ATOM_COUNT>
0

> <PUBCHEM_COMPONENT_COUNT>
1

> <PUBCHEM_CACTVS_TAUTO_COUNT>
3

> <PUBCHEM_CONFORMER_ID>
00001C1000000001

> <PUBCHEM_MMFF94_ENERGY>
26.8162

> <PUBCHEM_FEATURE_SELFOVERLAP>
20.297

> <PUBCHEM_SHAPE_FINGERPRINT>
100836 57 10159698014692119138
10465860 250 17561082501386551480
10968037 39 18334860532716625766
11046707 91 18409446968869733128
12032990 46 18409167722807014732
12251169 10 18060418027818494140
13167823 11 18408602527187214402
13288520 33 18409730651148371639
13551218 46 18270963440792261598
13690532 89 18409730694483049495
13862211 1 18342737464162399199
14252887 29 17989215824084205230
17804303 29 18273497883401759577
17834072 33 18410577323021717172
1813 80 17968106291699631366
18186145 218 14923950067535008876
200 152 17530965761531918920
20281475 54 18337672035103360796
20767249 213 10735876175026745610
20828058 44 18273214175553485034
21267235 1 18410019844213228018
22485316 2 18408601440280660184
2297311 6 18130235869953600908
23402539 116 17846774109970031213
23463225 33 18411140233692529510
23559900 14 18270389602695558633
351380 180 10665231458300457486
351380 3 18259982652836299658
42 15 18342740719346176002
4214541 1 18340769252190604880
5104073 3 18271533095046590721
559249 180 18335415712557464698
7364860 26 18126566957732624024
83771 10 18407476665592062532

> <PUBCHEM_SHAPE_MULTIPOLES>
270.51
10.85
1.64
0.68
12.98
0.32
0
-5.61
1.62
-0.51
-0.11
-0.08
0
-0.42

> <PUBCHEM_SHAPE_SELFOVERLAP>
550.017

> <PUBCHEM_SHAPE_VOLUME>
158.1

> <PUBCHEM_COORDINATE_TYPE>
2
5
10

> <Energy>
17.0404

> <minimizedAffinity>
-6.30354

> <CNNscore>
0.8699883819

> <CNNaffinity>
5.6657962799

> <CNN_VS>
4.9291768074

> <CNNaffinity_variance>
0.1247416735

$$$$
7184


 15 15  0  0  0  0  0  0  0  0999 V2000
    0.7557   -2.3702   20.8488 O   0  0  0  0  0  0  0  0  0  0  0  0
   -3.3587   -2.7946   21.0099 C   0  0  0  0  0  0  0  0  0  0  0  0
   -2.7155   -2.6828   19.7711 C   0  0  0  0  0  0  0  0  0  0  0  0
   -2.6188   -2.7499   22.1949 C   0  0  0  0  0  0  0  0  0  0  0  0
   -1.3266   -2.5436   19.7242 C   0  0  0  0  0  0  0  0  0  0  0  0
   -1.2366   -2.6103   22.1448 C   0  0  0  0  0  0  0  0  0  0  0  0
   -0.5958   -2.5093   20.9090 C   0  0  0  0  0  0  0  0  0  0  0  0
    1.1831   -2.3025   20.0176 H   0  0  0  0  0  0  0  0  0  0  0  0
   -5.5954   -1.9898   20.9382 O   0  0  0  0  0  0  0  0  0  0  0  0
   -4.8271   -2.9305   21.0571 C   0  0  0  0  0  0  0  0  0  0  0  0
   -5.1576   -4.2368   21.2221 O   0  0  0  0  0  0  0  0  0  0  0  0
   -6.2396   -4.4741   22.1302 C   0  0  0  0  0  0  0  0  0  0  0  0
   -5.6969   -4.3891   23.5544 C   0  0  0  0  0  0  0  0  0  0  0  0
   -6.6115   -3.5609   24.4533 C   0  0  0  0  0  0  0  0  0  0  0  0
   -7.9331   -4.2679   24.7075 C   0  0  0  0  0  0  0  0  0  0  0  0
 11 12  1  0
 11 10  1  0
  9 10  2  0
  1  7  1  0
  1  8  1  0
 13 14  1  0
 13 12  1  0
 14 15  1  0
  2 10  1  0
  2  3  2  0
  2  4  1  0
  3  5  1  0
  4  6  2  0
  5  7  2  0
  6  7  1  0
M  END
> <PUBCHEM_COMPOUND_CID>
7184

> <PUBCHEM_CONFORMER_RMSD>
0.6

> <PUBCHEM_CONFORMER_DIVERSEORDER>
1
44
15
20
41
3
43
64
40
47
74
50
4
6
22
69
55
77
16
75
28
26
73
53
11
32
49
58
67
63
62
24
65
27
19
38
12
48
76
25
57
10
31
17
42
34
68
51
9
23
8
14
21
33
18
30
5
66
70
2
56
45
39
37
46
35
60
36
52
59
54
29
71
72
61
13
7

> <PUBCHEM_MMFF94_PARTIAL_CHARGES>
16
1 -0.43
10 -0.15
11 -0.15
12 -0.15
13 -0.15
14 0.08
2 -0.57
24 0.15
25 0.15
26 0.15
27 0.15
28 0.45
3 -0.53
6 0.28
8 0.09
9 0.63

> <PUBCHEM_EFFECTIVE_ROTOR_COUNT>
5

> <PUBCHEM_PHARMACOPHORE_FEATURES>
4
1 2 acceptor
1 3 donor
1 7 hydrophobe
6 8 10 11 12 13 14 rings

> <PUBCHEM_HEAVY_ATOM_COUNT>
14

> <PUBCHEM_ATOM_DEF_STEREO_COUNT>
0

> <PUBCHEM_ATOM_UDEF_STEREO_COUNT>
0

> <PUBCHEM_BOND_DEF_STEREO_COUNT>
0

> <PUBCHEM_BOND_UDEF_STEREO_COUNT>
0

> <PUBCHEM_ISOTOPIC_ATOM_COUNT>
0

> <PUBCHEM_COMPONENT_COUNT>
1

> <PUBCHEM_CACTVS_TAUTO_COUNT>
3

> <PUBCHEM_CONFORMER_ID>
00001C1000000001

> <PUBCHEM_MMFF94_ENERGY>
26.8162

> <PUBCHEM_FEATURE_SELFOVERLAP>
20.297

> <PUBCHEM_SHAPE_FINGERPRINT>
100836 57 10159698014692119138
10465860 250 17561082501386551480
10968037 39 18334860532716625766
11046707 91 18409446968869733128
12032990 46 18409167722807014732
12251169 10 18060418027818494140
13167823 11 18408602527187214402
13288520 33 18409730651148371639
13551218 46 18270963440792261598
13690532 89 18409730694483049495
13862211 1 18342737464162399199
14252887 29 17989215824084205230
17804303 29 18273497883401759577
17834072 33 18410577323021717172
1813 80 17968106291699631366
18186145 218 14923950067535008876
200 152 17530965761531918920
20281475 54 18337672035103360796
20767249 213 10735876175026745610
20828058 44 18273214175553485034
21267235 1 18410019844213228018
22485316 2 18408601440280660184
2297311 6 18130235869953600908
23402539 116 17846774109970031213
23463225 33 18411140233692529510
23559900 14 18270389602695558633
351380 180 10665231458300457486
351380 3 18259982652836299658
42 15 18342740719346176002
4214541 1 18340769252190604880
5104073 3 18271533095046590721
559249 180 18335415712557464698
7364860 26 18126566957732624024
83771 10 18407476665592062532

> <PUBCHEM_SHAPE_MULTIPOLES>
270.51
10.85
1.64
0.68
12.98
0.32
0
-5.61
1.62
-0.51
-0.11
-0.08
0
-0.42

> <PUBCHEM_SHAPE_SELFOVERLAP>
550.017

> <PUBCHEM_SHAPE_VOLUME>
158.1

> <PUBCHEM_COORDINATE_TYPE>
2
5
10

> <Energy>
17.0404

> <minimizedAffinity>
-6.02118

> <CNNscore>
0.8695278764

> <CNNaffinity>
6.1327710152

> <CNN_VS>
5.3326153755

> <CNNaffinity_variance>
0.5436234474

$$$$
7184


 15 15  0  0  0  0  0  0  0  0999 V2000
    0.3009   -2.3604   20.5577 O   0  0  0  0  0  0  0  0  0  0  0  0
   -3.2624   -3.8780   22.0186 C   0  0  0  0  0  0  0  0  0  0  0  0
   -2.4355   -3.1129   22.8500 C   0  0  0  0  0  0  0  0  0  0  0  0
   -2.8839   -4.1439   20.6996 C   0  0  0  0  0  0  0  0  0  0  0  0
   -1.2364   -2.6009   22.3493 C   0  0  0  0  0  0  0  0  0  0  0  0
   -1.6893   -3.6336   20.2045 C   0  0  0  0  0  0  0  0  0  0  0  0
   -0.8709   -2.8626   21.0313 C   0  0  0  0  0  0  0  0  0  0  0  0
    0.8483   -1.8431   21.1152 H   0  0  0  0  0  0  0  0  0  0  0  0
   -4.9365   -5.5449   22.2915 O   0  0  0  0  0  0  0  0  0  0  0  0
   -4.5233   -4.4269   22.5533 C   0  0  0  0  0  0  0  0  0  0  0  0
   -5.1036   -3.5154   23.3749 O   0  0  0  0  0  0  0  0  0  0  0  0
   -6.4509   -3.1688   23.0339 C   0  0  0  0  0  0  0  0  0  0  0  0
   -6.4562   -2.6060   21.6150 C   0  0  0  0  0  0  0  0  0  0  0  0
   -6.4411   -1.0795   21.6184 C   0  0  0  0  0  0  0  0  0  0  0  0
   -5.9797   -0.5291   22.9582 C   0  0  0  0  0  0  0  0  0  0  0  0
 11 12  1  0
 11 10  1  0
  9 10  2  0
  1  7  1  0
  1  8  1  0
 13 14  1  0
 13 12  1  0
 14 15  1  0
  2 10  1  0
  2  3  2  0
  2  4  1  0
  3  5  1  0
  4  6  2  0
  5  7  2  0
  6  7  1  0
M  END
> <PUBCHEM_COMPOUND_CID>
7184

> <PUBCHEM_CONFORMER_RMSD>
0.6

> <PUBCHEM_CONFORMER_DIVERSEORDER>
1
44
15
20
41
3
43
64
40
47
74
50
4
6
22
69
55
77
16
75
28
26
73
53
11
32
49
58
67
63
62
24
65
27
19
38
12
48
76
25
57
10
31
17
42
34
68
51
9
23
8
14
21
33
18
30
5
66
70
2
56
45
39
37
46
35
60
36
52
59
54
29
71
72
61
13
7

> <PUBCHEM_MMFF94_PARTIAL_CHARGES>
16
1 -0.43
10 -0.15
11 -0.15
12 -0.15
13 -0.15
14 0.08
2 -0.57
24 0.15
25 0.15
26 0.15
27 0.15
28 0.45
3 -0.53
6 0.28
8 0.09
9 0.63

> <PUBCHEM_EFFECTIVE_ROTOR_COUNT>
5

> <PUBCHEM_PHARMACOPHORE_FEATURES>
4
1 2 acceptor
1 3 donor
1 7 hydrophobe
6 8 10 11 12 13 14 rings

> <PUBCHEM_HEAVY_ATOM_COUNT>
14

> <PUBCHEM_ATOM_DEF_STEREO_COUNT>
0

> <PUBCHEM_ATOM_UDEF_STEREO_COUNT>
0

> <PUBCHEM_BOND_DEF_STEREO_COUNT>
0

> <PUBCHEM_BOND_UDEF_STEREO_COUNT>
0

> <PUBCHEM_ISOTOPIC_ATOM_COUNT>
0

> <PUBCHEM_COMPONENT_COUNT>
1

> <PUBCHEM_CACTVS_TAUTO_COUNT>
3

> <PUBCHEM_CONFORMER_ID>
00001C1000000001

> <PUBCHEM_MMFF94_ENERGY>
26.8162

> <PUBCHEM_FEATURE_SELFOVERLAP>
20.297

> <PUBCHEM_SHAPE_FINGERPRINT>
100836 57 10159698014692119138
10465860 250 17561082501386551480
10968037 39 18334860532716625766
11046707 91 18409446968869733128
12032990 46 18409167722807014732
12251169 10 18060418027818494140
13167823 11 18408602527187214402
13288520 33 18409730651148371639
13551218 46 18270963440792261598
13690532 89 18409730694483049495
13862211 1 18342737464162399199
14252887 29 17989215824084205230
17804303 29 18273497883401759577
17834072 33 18410577323021717172
1813 80 17968106291699631366
18186145 218 14923950067535008876
200 152 17530965761531918920
20281475 54 18337672035103360796
20767249 213 10735876175026745610
20828058 44 18273214175553485034
21267235 1 18410019844213228018
22485316 2 18408601440280660184
2297311 6 18130235869953600908
23402539 116 17846774109970031213
23463225 33 18411140233692529510
23559900 14 18270389602695558633
351380 180 10665231458300457486
351380 3 18259982652836299658
42 15 18342740719346176002
4214541 1 18340769252190604880
5104073 3 18271533095046590721
559249 180 18335415712557464698
7364860 26 18126566957732624024
83771 10 18407476665592062532

> <PUBCHEM_SHAPE_MULTIPOLES>
270.51
10.85
1.64
0.68
12.98
0.32
0
-5.61
1.62
-0.51
-0.11
-0.08
0
-0.42

> <PUBCHEM_SHAPE_SELFOVERLAP>
550.017

> <PUBCHEM_SHAPE_VOLUME>
158.1

> <PUBCHEM_COORDINATE_TYPE>
2
5
10

> <Energy>
17.0404

> <minimizedAffinity>
-5.99745

> <CNNscore>
0.8660790920

> <CNNaffinity>
5.9144840240

> <CNN_VS>
5.1224107742

> <CNNaffinity_variance>
0.2227654904

$$$$
7184


 15 15  0  0  0  0  0  0  0  0999 V2000
   -0.4265   -1.5779   18.9889 O   0  0  0  0  0  0  0  0  0  0  0  0
   -2.9273   -4.0622   21.1589 C   0  0  0  0  0  0  0  0  0  0  0  0
   -3.2544   -3.7192   19.8412 C   0  0  0  0  0  0  0  0  0  0  0  0
   -1.7657   -3.5583   21.7509 C   0  0  0  0  0  0  0  0  0  0  0  0
   -2.4040   -2.8835   19.1138 C   0  0  0  0  0  0  0  0  0  0  0  0
   -0.9219   -2.7260   21.0244 C   0  0  0  0  0  0  0  0  0  0  0  0
   -1.2439   -2.3932   19.7078 C   0  0  0  0  0  0  0  0  0  0  0  0
   -0.6453   -1.3562   18.1052 H   0  0  0  0  0  0  0  0  0  0  0  0
   -3.8891   -6.1463   21.7807 O   0  0  0  0  0  0  0  0  0  0  0  0
   -3.8329   -4.9363   21.9288 C   0  0  0  0  0  0  0  0  0  0  0  0
   -4.5429   -4.1896   22.8127 O   0  0  0  0  0  0  0  0  0  0  0  0
   -5.9653   -4.3159   22.7018 C   0  0  0  0  0  0  0  0  0  0  0  0
   -6.5287   -2.9806   22.2221 C   0  0  0  0  0  0  0  0  0  0  0  0
   -6.7917   -2.9919   20.7184 C   0  0  0  0  0  0  0  0  0  0  0  0
   -7.0485   -4.4005   20.2075 C   0  0  0  0  0  0  0  0  0  0  0  0
 11 12  1  0
 11 10  1  0
  9 10  2  0
  1  7  1  0
  1  8  1  0
 13 14  1  0
 13 12  1  0
 14 15  1  0
  2 10  1  0
  2  3  2  0
  2  4  1  0
  3  5  1  0
  4  6  2  0
  5  7  2  0
  6  7  1  0
M  END
> <PUBCHEM_COMPOUND_CID>
7184

> <PUBCHEM_CONFORMER_RMSD>
0.6

> <PUBCHEM_CONFORMER_DIVERSEORDER>
1
44
15
20
41
3
43
64
40
47
74
50
4
6
22
69
55
77
16
75
28
26
73
53
11
32
49
58
67
63
62
24
65
27
19
38
12
48
76
25
57
10
31
17
42
34
68
51
9
23
8
14
21
33
18
30
5
66
70
2
56
45
39
37
46
35
60
36
52
59
54
29
71
72
61
13
7

> <PUBCHEM_MMFF94_PARTIAL_CHARGES>
16
1 -0.43
10 -0.15
11 -0.15
12 -0.15
13 -0.15
14 0.08
2 -0.57
24 0.15
25 0.15
26 0.15
27 0.15
28 0.45
3 -0.53
6 0.28
8 0.09
9 0.63

> <PUBCHEM_EFFECTIVE_ROTOR_COUNT>
5

> <PUBCHEM_PHARMACOPHORE_FEATURES>
4
1 2 acceptor
1 3 donor
1 7 hydrophobe
6 8 10 11 12 13 14 rings

> <PUBCHEM_HEAVY_ATOM_COUNT>
14

> <PUBCHEM_ATOM_DEF_STEREO_COUNT>
0

> <PUBCHEM_ATOM_UDEF_STEREO_COUNT>
0

> <PUBCHEM_BOND_DEF_STEREO_COUNT>
0

> <PUBCHEM_BOND_UDEF_STEREO_COUNT>
0

> <PUBCHEM_ISOTOPIC_ATOM_COUNT>
0

> <PUBCHEM_COMPONENT_COUNT>
1

> <PUBCHEM_CACTVS_TAUTO_COUNT>
3

> <PUBCHEM_CONFORMER_ID>
00001C1000000001

> <PUBCHEM_MMFF94_ENERGY>
26.8162

> <PUBCHEM_FEATURE_SELFOVERLAP>
20.297

> <PUBCHEM_SHAPE_FINGERPRINT>
100836 57 10159698014692119138
10465860 250 17561082501386551480
10968037 39 18334860532716625766
11046707 91 18409446968869733128
12032990 46 18409167722807014732
12251169 10 18060418027818494140
13167823 11 18408602527187214402
13288520 33 18409730651148371639
13551218 46 18270963440792261598
13690532 89 18409730694483049495
13862211 1 18342737464162399199
14252887 29 17989215824084205230
17804303 29 18273497883401759577
17834072 33 18410577323021717172
1813 80 17968106291699631366
18186145 218 14923950067535008876
200 152 17530965761531918920
20281475 54 18337672035103360796
20767249 213 10735876175026745610
20828058 44 18273214175553485034
21267235 1 18410019844213228018
22485316 2 18408601440280660184
2297311 6 18130235869953600908
23402539 116 17846774109970031213
23463225 33 18411140233692529510
23559900 14 18270389602695558633
351380 180 10665231458300457486
351380 3 18259982652836299658
42 15 18342740719346176002
4214541 1 18340769252190604880
5104073 3 18271533095046590721
559249 180 18335415712557464698
7364860 26 18126566957732624024
83771 10 18407476665592062532

> <PUBCHEM_SHAPE_MULTIPOLES>
270.51
10.85
1.64
0.68
12.98
0.32
0
-5.61
1.62
-0.51
-0.11
-0.08
0
-0.42

> <PUBCHEM_SHAPE_SELFOVERLAP>
550.017

> <PUBCHEM_SHAPE_VOLUME>
158.1

> <PUBCHEM_COORDINATE_TYPE>
2
5
10

> <Energy>
17.0404

> <minimizedAffinity>
-5.79959

> <CNNscore>
0.8478538394

> <CNNaffinity>
5.8921151161

> <CNN_VS>
4.9956521988

> <CNNaffinity_variance>
0.3771508038

$$$$
7184


 15 15  0  0  0  0  0  0  0  0999 V2000
    0.7925   -2.3025   20.8887 O   0  0  0  0  0  0  0  0  0  0  0  0
   -3.2170   -3.1968   20.3798 C   0  0  0  0  0  0  0  0  0  0  0  0
   -2.4847   -2.6430   19.3226 C   0  0  0  0  0  0  0  0  0  0  0  0
   -2.6035   -3.4371   21.6126 C   0  0  0  0  0  0  0  0  0  0  0  0
   -1.1313   -2.3472   19.5002 C   0  0  0  0  0  0  0  0  0  0  0  0
   -1.2565   -3.1407   21.7865 C   0  0  0  0  0  0  0  0  0  0  0  0
   -0.5253   -2.5982   20.7286 C   0  0  0  0  0  0  0  0  0  0  0  0
    1.2807   -1.9383   20.1767 H   0  0  0  0  0  0  0  0  0  0  0  0
   -5.0820   -4.6230   20.0011 O   0  0  0  0  0  0  0  0  0  0  0  0
   -4.6492   -3.4982   20.1929 C   0  0  0  0  0  0  0  0  0  0  0  0
   -5.3717   -2.3535   20.2951 O   0  0  0  0  0  0  0  0  0  0  0  0
   -6.3977   -2.3761   21.2943 C   0  0  0  0  0  0  0  0  0  0  0  0
   -6.3978   -1.0284   22.0112 C   0  0  0  0  0  0  0  0  0  0  0  0
   -5.2643   -0.9362   23.0297 C   0  0  0  0  0  0  0  0  0  0  0  0
   -5.1947   -2.1799   23.9010 C   0  0  0  0  0  0  0  0  0  0  0  0
 11 12  1  0
 11 10  1  0
  9 10  2  0
  1  7  1  0
  1  8  1  0
 13 14  1  0
 13 12  1  0
 14 15  1  0
  2 10  1  0
  2  3  2  0
  2  4  1  0
  3  5  1  0
  4  6  2  0
  5  7  2  0
  6  7  1  0
M  END
> <PUBCHEM_COMPOUND_CID>
7184

> <PUBCHEM_CONFORMER_RMSD>
0.6

> <PUBCHEM_CONFORMER_DIVERSEORDER>
1
44
15
20
41
3
43
64
40
47
74
50
4
6
22
69
55
77
16
75
28
26
73
53
11
32
49
58
67
63
62
24
65
27
19
38
12
48
76
25
57
10
31
17
42
34
68
51
9
23
8
14
21
33
18
30
5
66
70
2
56
45
39
37
46
35
60
36
52
59
54
29
71
72
61
13
7

> <PUBCHEM_MMFF94_PARTIAL_CHARGES>
16
1 -0.43
10 -0.15
11 -0.15
12 -0.15
13 -0.15
14 0.08
2 -0.57
24 0.15
25 0.15
26 0.15
27 0.15
28 0.45
3 -0.53
6 0.28
8 0.09
9 0.63

> <PUBCHEM_EFFECTIVE_ROTOR_COUNT>
5

> <PUBCHEM_PHARMACOPHORE_FEATURES>
4
1 2 acceptor
1 3 donor
1 7 hydrophobe
6 8 10 11 12 13 14 rings

> <PUBCHEM_HEAVY_ATOM_COUNT>
14

> <PUBCHEM_ATOM_DEF_STEREO_COUNT>
0

> <PUBCHEM_ATOM_UDEF_STEREO_COUNT>
0

> <PUBCHEM_BOND_DEF_STEREO_COUNT>
0

> <PUBCHEM_BOND_UDEF_STEREO_COUNT>
0

> <PUBCHEM_ISOTOPIC_ATOM_COUNT>
0

> <PUBCHEM_COMPONENT_COUNT>
1

> <PUBCHEM_CACTVS_TAUTO_COUNT>
3

> <PUBCHEM_CONFORMER_ID>
00001C1000000001

> <PUBCHEM_MMFF94_ENERGY>
26.8162

> <PUBCHEM_FEATURE_SELFOVERLAP>
20.297

> <PUBCHEM_SHAPE_FINGERPRINT>
100836 57 10159698014692119138
10465860 250 17561082501386551480
10968037 39 18334860532716625766
11046707 91 18409446968869733128
12032990 46 18409167722807014732
12251169 10 18060418027818494140
13167823 11 18408602527187214402
13288520 33 18409730651148371639
13551218 46 18270963440792261598
13690532 89 18409730694483049495
13862211 1 18342737464162399199
14252887 29 17989215824084205230
17804303 29 18273497883401759577
17834072 33 18410577323021717172
1813 80 17968106291699631366
18186145 218 14923950067535008876
200 152 17530965761531918920
20281475 54 18337672035103360796
20767249 213 10735876175026745610
20828058 44 18273214175553485034
21267235 1 18410019844213228018
22485316 2 18408601440280660184
2297311 6 18130235869953600908
23402539 116 17846774109970031213
23463225 33 18411140233692529510
23559900 14 18270389602695558633
351380 180 10665231458300457486
351380 3 18259982652836299658
42 15 18342740719346176002
4214541 1 18340769252190604880
5104073 3 18271533095046590721
559249 180 18335415712557464698
7364860 26 18126566957732624024
83771 10 18407476665592062532

> <PUBCHEM_SHAPE_MULTIPOLES>
270.51
10.85
1.64
0.68
12.98
0.32
0
-5.61
1.62
-0.51
-0.11
-0.08
0
-0.42

> <PUBCHEM_SHAPE_SELFOVERLAP>
550.017

> <PUBCHEM_SHAPE_VOLUME>
158.1

> <PUBCHEM_COORDINATE_TYPE>
2
5
10

> <Energy>
17.0404

> <minimizedAffinity>
-6.09168

> <CNNscore>
0.8473675847

> <CNNaffinity>
6.0564656258

> <CNN_VS>
5.1320524216

> <CNNaffinity_variance>
0.3501253128

$$$$
7184


 15 15  0  0  0  0  0  0  0  0999 V2000
    0.6366   -2.8055   20.8596 O   0  0  0  0  0  0  0  0  0  0  0  0
   -3.2496   -3.4708   22.1204 C   0  0  0  0  0  0  0  0  0  0  0  0
   -2.4713   -2.4875   22.7434 C   0  0  0  0  0  0  0  0  0  0  0  0
   -2.7157   -4.2395   21.0822 C   0  0  0  0  0  0  0  0  0  0  0  0
   -1.1621   -2.2659   22.3103 C   0  0  0  0  0  0  0  0  0  0  0  0
   -1.4119   -4.0171   20.6541 C   0  0  0  0  0  0  0  0  0  0  0  0
   -0.6407   -3.0297   21.2692 C   0  0  0  0  0  0  0  0  0  0  0  0
    1.1519   -2.1419   21.2745 H   0  0  0  0  0  0  0  0  0  0  0  0
   -4.9440   -4.6437   23.3073 O   0  0  0  0  0  0  0  0  0  0  0  0
   -4.6286   -3.7103   22.5871 C   0  0  0  0  0  0  0  0  0  0  0  0
   -5.4445   -2.7335   22.1149 O   0  0  0  0  0  0  0  0  0  0  0  0
   -5.8767   -2.9121   20.7611 C   0  0  0  0  0  0  0  0  0  0  0  0
   -6.7587   -4.1566   20.7001 C   0  0  0  0  0  0  0  0  0  0  0  0
   -6.1916   -5.1979   19.7386 C   0  0  0  0  0  0  0  0  0  0  0  0
   -5.8816   -6.5046   20.4507 C   0  0  0  0  0  0  0  0  0  0  0  0
 11 12  1  0
 11 10  1  0
  9 10  2  0
  1  7  1  0
  1  8  1  0
 13 14  1  0
 13 12  1  0
 14 15  1  0
  2 10  1  0
  2  3  2  0
  2  4  1  0
  3  5  1  0
  4  6  2  0
  5  7  2  0
  6  7  1  0
M  END
> <PUBCHEM_COMPOUND_CID>
7184

> <PUBCHEM_CONFORMER_RMSD>
0.6

> <PUBCHEM_CONFORMER_DIVERSEORDER>
1
44
15
20
41
3
43
64
40
47
74
50
4
6
22
69
55
77
16
75
28
26
73
53
11
32
49
58
67
63
62
24
65
27
19
38
12
48
76
25
57
10
31
17
42
34
68
51
9
23
8
14
21
33
18
30
5
66
70
2
56
45
39
37
46
35
60
36
52
59
54
29
71
72
61
13
7

> <PUBCHEM_MMFF94_PARTIAL_CHARGES>
16
1 -0.43
10 -0.15
11 -0.15
12 -0.15
13 -0.15
14 0.08
2 -0.57
24 0.15
25 0.15
26 0.15
27 0.15
28 0.45
3 -0.53
6 0.28
8 0.09
9 0.63

> <PUBCHEM_EFFECTIVE_ROTOR_COUNT>
5

> <PUBCHEM_PHARMACOPHORE_FEATURES>
4
1 2 acceptor
1 3 donor
1 7 hydrophobe
6 8 10 11 12 13 14 rings

> <PUBCHEM_HEAVY_ATOM_COUNT>
14

> <PUBCHEM_ATOM_DEF_STEREO_COUNT>
0

> <PUBCHEM_ATOM_UDEF_STEREO_COUNT>
0

> <PUBCHEM_BOND_DEF_STEREO_COUNT>
0

> <PUBCHEM_BOND_UDEF_STEREO_COUNT>
0

> <PUBCHEM_ISOTOPIC_ATOM_COUNT>
0

> <PUBCHEM_COMPONENT_COUNT>
1

> <PUBCHEM_CACTVS_TAUTO_COUNT>
3

> <PUBCHEM_CONFORMER_ID>
00001C1000000001

> <PUBCHEM_MMFF94_ENERGY>
26.8162

> <PUBCHEM_FEATURE_SELFOVERLAP>
20.297

> <PUBCHEM_SHAPE_FINGERPRINT>
100836 57 10159698014692119138
10465860 250 17561082501386551480
10968037 39 18334860532716625766
11046707 91 18409446968869733128
12032990 46 18409167722807014732
12251169 10 18060418027818494140
13167823 11 18408602527187214402
13288520 33 18409730651148371639
13551218 46 18270963440792261598
13690532 89 18409730694483049495
13862211 1 18342737464162399199
14252887 29 17989215824084205230
17804303 29 18273497883401759577
17834072 33 18410577323021717172
1813 80 17968106291699631366
18186145 218 14923950067535008876
200 152 17530965761531918920
20281475 54 18337672035103360796
20767249 213 10735876175026745610
20828058 44 18273214175553485034
21267235 1 18410019844213228018
22485316 2 18408601440280660184
2297311 6 18130235869953600908
23402539 116 17846774109970031213
23463225 33 18411140233692529510
23559900 14 18270389602695558633
351380 180 10665231458300457486
351380 3 18259982652836299658
42 15 18342740719346176002
4214541 1 18340769252190604880
5104073 3 18271533095046590721
559249 180 18335415712557464698
7364860 26 18126566957732624024
83771 10 18407476665592062532

> <PUBCHEM_SHAPE_MULTIPOLES>
270.51
10.85
1.64
0.68
12.98
0.32
0
-5.61
1.62
-0.51
-0.11
-0.08
0
-0.42

> <PUBCHEM_SHAPE_SELFOVERLAP>
550.017

> <PUBCHEM_SHAPE_VOLUME>
158.1

> <PUBCHEM_COORDINATE_TYPE>
2
5
10

> <Energy>
17.0404

> <minimizedAffinity>
-5.83943

> <CNNscore>
0.8457998037

> <CNNaffinity>
6.1510338783

> <CNN_VS>
5.2025432587

> <CNNaffinity_variance>
0.4932276309

$$$$
7184


 15 15  0  0  0  0  0  0  0  0999 V2000
    0.5393   -2.5917   20.8890 O   0  0  0  0  0  0  0  0  0  0  0  0
   -3.1774   -3.8680   22.1898 C   0  0  0  0  0  0  0  0  0  0  0  0
   -2.6072   -4.4316   21.0418 C   0  0  0  0  0  0  0  0  0  0  0  0
   -2.5030   -2.8653   22.8923 C   0  0  0  0  0  0  0  0  0  0  0  0
   -1.3511   -3.9988   20.6108 C   0  0  0  0  0  0  0  0  0  0  0  0
   -1.2534   -2.4360   22.4603 C   0  0  0  0  0  0  0  0  0  0  0  0
   -0.6817   -3.0059   21.3217 C   0  0  0  0  0  0  0  0  0  0  0  0
    0.9205   -2.9762   20.1243 H   0  0  0  0  0  0  0  0  0  0  0  0
   -5.1586   -5.1771   22.0607 O   0  0  0  0  0  0  0  0  0  0  0  0
   -4.5092   -4.3193   22.6367 C   0  0  0  0  0  0  0  0  0  0  0  0
   -4.8567   -3.6577   23.7699 O   0  0  0  0  0  0  0  0  0  0  0  0
   -6.1226   -2.9898   23.7132 C   0  0  0  0  0  0  0  0  0  0  0  0
   -5.8965   -1.5092   24.0080 C   0  0  0  0  0  0  0  0  0  0  0  0
   -5.8136   -0.6891   22.7231 C   0  0  0  0  0  0  0  0  0  0  0  0
   -6.5006   -1.3950   21.5653 C   0  0  0  0  0  0  0  0  0  0  0  0
 11 12  1  0
 11 10  1  0
  9 10  2  0
  1  7  1  0
  1  8  1  0
 13 14  1  0
 13 12  1  0
 14 15  1  0
  2 10  1  0
  2  3  2  0
  2  4  1  0
  3  5  1  0
  4  6  2  0
  5  7  2  0
  6  7  1  0
M  END
> <PUBCHEM_COMPOUND_CID>
7184

> <PUBCHEM_CONFORMER_RMSD>
0.6

> <PUBCHEM_CONFORMER_DIVERSEORDER>
1
44
15
20
41
3
43
64
40
47
74
50
4
6
22
69
55
77
16
75
28
26
73
53
11
32
49
58
67
63
62
24
65
27
19
38
12
48
76
25
57
10
31
17
42
34
68
51
9
23
8
14
21
33
18
30
5
66
70
2
56
45
39
37
46
35
60
36
52
59
54
29
71
72
61
13
7

> <PUBCHEM_MMFF94_PARTIAL_CHARGES>
16
1 -0.43
10 -0.15
11 -0.15
12 -0.15
13 -0.15
14 0.08
2 -0.57
24 0.15
25 0.15
26 0.15
27 0.15
28 0.45
3 -0.53
6 0.28
8 0.09
9 0.63

> <PUBCHEM_EFFECTIVE_ROTOR_COUNT>
5

> <PUBCHEM_PHARMACOPHORE_FEATURES>
4
1 2 acceptor
1 3 donor
1 7 hydrophobe
6 8 10 11 12 13 14 rings

> <PUBCHEM_HEAVY_ATOM_COUNT>
14

> <PUBCHEM_ATOM_DEF_STEREO_COUNT>
0

> <PUBCHEM_ATOM_UDEF_STEREO_COUNT>
0

> <PUBCHEM_BOND_DEF_STEREO_COUNT>
0

> <PUBCHEM_BOND_UDEF_STEREO_COUNT>
0

> <PUBCHEM_ISOTOPIC_ATOM_COUNT>
0

> <PUBCHEM_COMPONENT_COUNT>
1

> <PUBCHEM_CACTVS_TAUTO_COUNT>
3

> <PUBCHEM_CONFORMER_ID>
00001C1000000001

> <PUBCHEM_MMFF94_ENERGY>
26.8162

> <PUBCHEM_FEATURE_SELFOVERLAP>
20.297

> <PUBCHEM_SHAPE_FINGERPRINT>
100836 57 10159698014692119138
10465860 250 17561082501386551480
10968037 39 18334860532716625766
11046707 91 18409446968869733128
12032990 46 18409167722807014732
12251169 10 18060418027818494140
13167823 11 18408602527187214402
13288520 33 18409730651148371639
13551218 46 18270963440792261598
13690532 89 18409730694483049495
13862211 1 18342737464162399199
14252887 29 17989215824084205230
17804303 29 18273497883401759577
17834072 33 18410577323021717172
1813 80 17968106291699631366
18186145 218 14923950067535008876
200 152 17530965761531918920
20281475 54 18337672035103360796
20767249 213 10735876175026745610
20828058 44 18273214175553485034
21267235 1 18410019844213228018
22485316 2 18408601440280660184
2297311 6 18130235869953600908
23402539 116 17846774109970031213
23463225 33 18411140233692529510
23559900 14 18270389602695558633
351380 180 10665231458300457486
351380 3 18259982652836299658
42 15 18342740719346176002
4214541 1 18340769252190604880
5104073 3 18271533095046590721
559249 180 18335415712557464698
7364860 26 18126566957732624024
83771 10 18407476665592062532

> <PUBCHEM_SHAPE_MULTIPOLES>
270.51
10.85
1.64
0.68
12.98
0.32
0
-5.61
1.62
-0.51
-0.11
-0.08
0
-0.42

> <PUBCHEM_SHAPE_SELFOVERLAP>
550.017

> <PUBCHEM_SHAPE_VOLUME>
158.1

> <PUBCHEM_COORDINATE_TYPE>
2
5
10

> <Energy>
17.0404

> <minimizedAffinity>
-6.27755

> <CNNscore>
0.8266804814

> <CNNaffinity>
6.0194630623

> <CNN_VS>
4.9761724472

> <CNNaffinity_variance>
0.2314961404

$$$$
