896


 19 20  0  0  0  0  0  0  0  0999 V2000
  106.3107   16.4848   24.7804 N   0  0  0  0  0  0  0  0  0  0  0  0
  104.9259   15.5476   23.3033 C   0  0  0  0  0  0  0  0  0  0  0  0
  106.1878   14.8725   23.2508 C   0  0  0  0  0  0  0  0  0  0  0  0
  107.0338   15.4859   24.1715 C   0  0  0  0  0  0  0  0  0  0  0  0
  105.0425   16.5351   24.2623 C   0  0  0  0  0  0  0  0  0  0  0  0
  106.6811   13.7909   22.4897 C   0  0  0  0  0  0  0  0  0  0  0  0
  108.3564   15.0766   24.3675 C   0  0  0  0  0  0  0  0  0  0  0  0
  108.0034   13.3681   22.6578 C   0  0  0  0  0  0  0  0  0  0  0  0
  108.8221   14.0089   23.5883 C   0  0  0  0  0  0  0  0  0  0  0  0
  106.6543   17.0783   25.4867 H   0  0  0  0  0  0  0  0  0  0  0  0
  108.6005   12.3449   21.9702 O   0  0  0  0  0  0  0  0  0  0  0  0
  107.7380   11.3428   21.4429 C   0  0  0  0  0  0  0  0  0  0  0  0
  103.7179   15.2322   22.4713 C   0  0  0  0  0  0  0  0  0  0  0  0
  102.5991   14.5534   23.2696 C   0  0  0  0  0  0  0  0  0  0  0  0
  101.1778   17.0107   23.1298 O   0  0  0  0  0  0  0  0  0  0  0  0
  102.1196   15.3402   24.3943 N   0  0  0  0  0  0  0  0  0  0  0  0
  101.4648   16.5378   24.2231 C   0  0  0  0  0  0  0  0  0  0  0  0
  101.0992   17.2117   25.5179 C   0  0  0  0  0  0  0  0  0  0  0  0
  102.2684   15.0051   25.3080 H   0  0  0  0  0  0  0  0  0  0  0  0
 11  8  1  0
 11 12  1  0
 15 17  2  0
  1  4  1  0
  1  5  1  0
  1 10  1  0
 16 14  1  0
 16 17  1  0
 16 19  1  0
  2  3  1  0
  2 13  1  0
  2  5  2  0
  3  4  2  0
  3  6  1  0
 13 14  1  0
  4  7  1  0
  6  8  2  0
  7  9  2  0
  8  9  1  0
 17 18  1  0
M  END
> <PUBCHEM_COMPOUND_CID>
896

> <PUBCHEM_CONFORMER_RMSD>
0.6

> <PUBCHEM_CONFORMER_DIVERSEORDER>
1
13
50
55
28
16
42
48
27
15
62
60
65
61
36
4
20
58
41
17
59
21
2
63
47
57
40
56
22
64
54
37
51
7
31
53
26
8
49
39
32
11
5
33
38
52
23
45
43
12
14
9
34
44
35
10
25
29
46
6
30
24
3
19
18

> <PUBCHEM_MMFF94_PARTIAL_CHARGES>
22
1 -0.36
10 0.3
11 -0.15
12 -0.15
13 0.08
14 -0.15
15 0.57
16 0.06
17 0.28
2 -0.57
20 0.15
23 0.27
24 0.15
25 0.15
26 0.15
27 0.37
3 0.03
4 -0.73
5 -0.18
7 0.18
8 -0.15
9 -0.3

> <PUBCHEM_EFFECTIVE_ROTOR_COUNT>
5

> <PUBCHEM_PHARMACOPHORE_FEATURES>
7
1 1 acceptor
1 2 acceptor
1 3 cation
1 3 donor
1 4 donor
5 3 5 6 8 9 rings
6 6 8 11 12 13 14 rings

> <PUBCHEM_HEAVY_ATOM_COUNT>
17

> <PUBCHEM_ATOM_DEF_STEREO_COUNT>
0

> <PUBCHEM_ATOM_UDEF_STEREO_COUNT>
0

> <PUBCHEM_BOND_DEF_STEREO_COUNT>
0

> <PUBCHEM_BOND_UDEF_STEREO_COUNT>
0

> <PUBCHEM_ISOTOPIC_ATOM_COUNT>
0

> <PUBCHEM_COMPONENT_COUNT>
1

> <PUBCHEM_CACTVS_TAUTO_COUNT>
2

> <PUBCHEM_CONFORMER_ID>
0000038000000001

> <PUBCHEM_MMFF94_ENERGY>
32.7119

> <PUBCHEM_FEATURE_SELFOVERLAP>
35.612

> <PUBCHEM_SHAPE_FINGERPRINT>
10967382 1 18410853274190255273
11640471 11 17676780867509025316
13027679 85 18194690495324420133
13140716 1 17978229692519098697
13965767 371 16608554374032828400
1420 336 18266184924512803916
14787075 74 17896612875907719035
14790565 3 18341057316043312793
15006816 218 16754940689043299904
16945 1 18195239147136872059
19591789 44 18120376712306458779
19765921 60 17749382706469569763
20510252 161 18342458093286620745
21141583 151 18124894583888822372
21524375 3 17972887951224859043
2334 1 18410572855759727185
23419403 2 17326855944455494142
23557571 272 18201719608641642450
23559900 14 18342173410755765088
2748010 2 18337115553281152647
353137 74 18409164389875307419
44154327 71 18267028250037128041
526903 126 18410576235872810256
537710 114 18408601466050490037
7832392 63 17187566044572678455
9981440 41 18116712022929254594

> <PUBCHEM_SHAPE_MULTIPOLES>
328.15
4.94
3.77
0.97
2.92
1.2
-0.06
0.99
-1.27
-0.81
0.74
0.39
0.23
-0.66

> <PUBCHEM_SHAPE_SELFOVERLAP>
695.133

> <PUBCHEM_SHAPE_VOLUME>
185.3

> <PUBCHEM_COORDINATE_TYPE>
2
5
10

> <Energy>
0.232708

> <minimizedAffinity>
-6.62508

> <CNNscore>
0.4216468036

> <CNNaffinity>
6.2913212776

> <CNN_VS>
2.6527154446

> <CNNaffinity_variance>
0.3041540384

$$$$
896


 19 20  0  0  0  0  0  0  0  0999 V2000
  103.1973   13.2626   22.4349 N   0  0  0  0  0  0  0  0  0  0  0  0
  104.3506   14.1740   24.1133 C   0  0  0  0  0  0  0  0  0  0  0  0
  105.2584   13.4866   23.2448 C   0  0  0  0  0  0  0  0  0  0  0  0
  104.5107   12.9181   22.2165 C   0  0  0  0  0  0  0  0  0  0  0  0
  103.0879   14.0138   23.5764 C   0  0  0  0  0  0  0  0  0  0  0  0
  106.6572   13.2974   23.2531 C   0  0  0  0  0  0  0  0  0  0  0  0
  105.0906   12.1607   21.1941 C   0  0  0  0  0  0  0  0  0  0  0  0
  107.2618   12.5350   22.2487 C   0  0  0  0  0  0  0  0  0  0  0  0
  106.4796   11.9790   21.2361 C   0  0  0  0  0  0  0  0  0  0  0  0
  102.4441   13.0066   21.8550 H   0  0  0  0  0  0  0  0  0  0  0  0
  108.6021   12.2678   22.1567 O   0  0  0  0  0  0  0  0  0  0  0  0
  109.4809   13.1897   22.7923 C   0  0  0  0  0  0  0  0  0  0  0  0
  104.7148   14.9210   25.3624 C   0  0  0  0  0  0  0  0  0  0  0  0
  105.1044   16.3798   25.0982 C   0  0  0  0  0  0  0  0  0  0  0  0
  102.7463   17.3196   26.3765 O   0  0  0  0  0  0  0  0  0  0  0  0
  104.0463   17.1690   24.4887 N   0  0  0  0  0  0  0  0  0  0  0  0
  102.9243   17.5515   25.1866 C   0  0  0  0  0  0  0  0  0  0  0  0
  101.9329   18.3187   24.3541 C   0  0  0  0  0  0  0  0  0  0  0  0
  104.1357   17.4384   23.5460 H   0  0  0  0  0  0  0  0  0  0  0  0
 11  8  1  0
 11 12  1  0
 15 17  2  0
  1  4  1  0
  1  5  1  0
  1 10  1  0
 16 14  1  0
 16 17  1  0
 16 19  1  0
  2  3  1  0
  2 13  1  0
  2  5  2  0
  3  4  2  0
  3  6  1  0
 13 14  1  0
  4  7  1  0
  6  8  2  0
  7  9  2  0
  8  9  1  0
 17 18  1  0
M  END
> <PUBCHEM_COMPOUND_CID>
896

> <PUBCHEM_CONFORMER_RMSD>
0.6

> <PUBCHEM_CONFORMER_DIVERSEORDER>
1
13
50
55
28
16
42
48
27
15
62
60
65
61
36
4
20
58
41
17
59
21
2
63
47
57
40
56
22
64
54
37
51
7
31
53
26
8
49
39
32
11
5
33
38
52
23
45
43
12
14
9
34
44
35
10
25
29
46
6
30
24
3
19
18

> <PUBCHEM_MMFF94_PARTIAL_CHARGES>
22
1 -0.36
10 0.3
11 -0.15
12 -0.15
13 0.08
14 -0.15
15 0.57
16 0.06
17 0.28
2 -0.57
20 0.15
23 0.27
24 0.15
25 0.15
26 0.15
27 0.37
3 0.03
4 -0.73
5 -0.18
7 0.18
8 -0.15
9 -0.3

> <PUBCHEM_EFFECTIVE_ROTOR_COUNT>
5

> <PUBCHEM_PHARMACOPHORE_FEATURES>
7
1 1 acceptor
1 2 acceptor
1 3 cation
1 3 donor
1 4 donor
5 3 5 6 8 9 rings
6 6 8 11 12 13 14 rings

> <PUBCHEM_HEAVY_ATOM_COUNT>
17

> <PUBCHEM_ATOM_DEF_STEREO_COUNT>
0

> <PUBCHEM_ATOM_UDEF_STEREO_COUNT>
0

> <PUBCHEM_BOND_DEF_STEREO_COUNT>
0

> <PUBCHEM_BOND_UDEF_STEREO_COUNT>
0

> <PUBCHEM_ISOTOPIC_ATOM_COUNT>
0

> <PUBCHEM_COMPONENT_COUNT>
1

> <PUBCHEM_CACTVS_TAUTO_COUNT>
2

> <PUBCHEM_CONFORMER_ID>
0000038000000001

> <PUBCHEM_MMFF94_ENERGY>
32.7119

> <PUBCHEM_FEATURE_SELFOVERLAP>
35.612

> <PUBCHEM_SHAPE_FINGERPRINT>
10967382 1 18410853274190255273
11640471 11 17676780867509025316
13027679 85 18194690495324420133
13140716 1 17978229692519098697
13965767 371 16608554374032828400
1420 336 18266184924512803916
14787075 74 17896612875907719035
14790565 3 18341057316043312793
15006816 218 16754940689043299904
16945 1 18195239147136872059
19591789 44 18120376712306458779
19765921 60 17749382706469569763
20510252 161 18342458093286620745
21141583 151 18124894583888822372
21524375 3 17972887951224859043
2334 1 18410572855759727185
23419403 2 17326855944455494142
23557571 272 18201719608641642450
23559900 14 18342173410755765088
2748010 2 18337115553281152647
353137 74 18409164389875307419
44154327 71 18267028250037128041
526903 126 18410576235872810256
537710 114 18408601466050490037
7832392 63 17187566044572678455
9981440 41 18116712022929254594

> <PUBCHEM_SHAPE_MULTIPOLES>
328.15
4.94
3.77
0.97
2.92
1.2
-0.06
0.99
-1.27
-0.81
0.74
0.39
0.23
-0.66

> <PUBCHEM_SHAPE_SELFOVERLAP>
695.133

> <PUBCHEM_SHAPE_VOLUME>
185.3

> <PUBCHEM_COORDINATE_TYPE>
2
5
10

> <Energy>
0.232708

> <minimizedAffinity>
-6.31879

> <CNNscore>
0.3644464612

> <CNNaffinity>
6.2261509895

> <CNN_VS>
2.2690987587

> <CNNaffinity_variance>
0.4539994299

$$$$
896


 19 20  0  0  0  0  0  0  0  0999 V2000
  103.6800   13.4417   22.2208 N   0  0  0  0  0  0  0  0  0  0  0  0
  105.0278   13.9871   23.9130 C   0  0  0  0  0  0  0  0  0  0  0  0
  103.8591   14.8132   23.9646 C   0  0  0  0  0  0  0  0  0  0  0  0
  103.0445   14.4603   22.8915 C   0  0  0  0  0  0  0  0  0  0  0  0
  104.8770   13.1520   22.8230 C   0  0  0  0  0  0  0  0  0  0  0  0
  103.4301   15.8378   24.8357 C   0  0  0  0  0  0  0  0  0  0  0  0
  101.8198   15.0859   22.6386 C   0  0  0  0  0  0  0  0  0  0  0  0
  102.2146   16.4876   24.5997 C   0  0  0  0  0  0  0  0  0  0  0  0
  101.4265   16.1083   23.5128 C   0  0  0  0  0  0  0  0  0  0  0  0
  103.3263   12.9861   21.4230 H   0  0  0  0  0  0  0  0  0  0  0  0
  101.6994   17.5031   25.3610 O   0  0  0  0  0  0  0  0  0  0  0  0
  100.3025   17.4524   25.6299 C   0  0  0  0  0  0  0  0  0  0  0  0
  106.1854   14.0306   24.8665 C   0  0  0  0  0  0  0  0  0  0  0  0
  107.1128   12.8165   24.7415 C   0  0  0  0  0  0  0  0  0  0  0  0
  109.2080   12.3384   22.8817 O   0  0  0  0  0  0  0  0  0  0  0  0
  106.9988   12.1188   23.4711 N   0  0  0  0  0  0  0  0  0  0  0  0
  108.0705   11.9642   22.6226 C   0  0  0  0  0  0  0  0  0  0  0  0
  107.7232   11.2563   21.3409 C   0  0  0  0  0  0  0  0  0  0  0  0
  106.1264   11.7448   23.2096 H   0  0  0  0  0  0  0  0  0  0  0  0
 11  8  1  0
 11 12  1  0
 15 17  2  0
  1  4  1  0
  1  5  1  0
  1 10  1  0
 16 14  1  0
 16 17  1  0
 16 19  1  0
  2  3  1  0
  2 13  1  0
  2  5  2  0
  3  4  2  0
  3  6  1  0
 13 14  1  0
  4  7  1  0
  6  8  2  0
  7  9  2  0
  8  9  1  0
 17 18  1  0
M  END
> <PUBCHEM_COMPOUND_CID>
896

> <PUBCHEM_CONFORMER_RMSD>
0.6

> <PUBCHEM_CONFORMER_DIVERSEORDER>
1
13
50
55
28
16
42
48
27
15
62
60
65
61
36
4
20
58
41
17
59
21
2
63
47
57
40
56
22
64
54
37
51
7
31
53
26
8
49
39
32
11
5
33
38
52
23
45
43
12
14
9
34
44
35
10
25
29
46
6
30
24
3
19
18

> <PUBCHEM_MMFF94_PARTIAL_CHARGES>
22
1 -0.36
10 0.3
11 -0.15
12 -0.15
13 0.08
14 -0.15
15 0.57
16 0.06
17 0.28
2 -0.57
20 0.15
23 0.27
24 0.15
25 0.15
26 0.15
27 0.37
3 0.03
4 -0.73
5 -0.18
7 0.18
8 -0.15
9 -0.3

> <PUBCHEM_EFFECTIVE_ROTOR_COUNT>
5

> <PUBCHEM_PHARMACOPHORE_FEATURES>
7
1 1 acceptor
1 2 acceptor
1 3 cation
1 3 donor
1 4 donor
5 3 5 6 8 9 rings
6 6 8 11 12 13 14 rings

> <PUBCHEM_HEAVY_ATOM_COUNT>
17

> <PUBCHEM_ATOM_DEF_STEREO_COUNT>
0

> <PUBCHEM_ATOM_UDEF_STEREO_COUNT>
0

> <PUBCHEM_BOND_DEF_STEREO_COUNT>
0

> <PUBCHEM_BOND_UDEF_STEREO_COUNT>
0

> <PUBCHEM_ISOTOPIC_ATOM_COUNT>
0

> <PUBCHEM_COMPONENT_COUNT>
1

> <PUBCHEM_CACTVS_TAUTO_COUNT>
2

> <PUBCHEM_CONFORMER_ID>
0000038000000001

> <PUBCHEM_MMFF94_ENERGY>
32.7119

> <PUBCHEM_FEATURE_SELFOVERLAP>
35.612

> <PUBCHEM_SHAPE_FINGERPRINT>
10967382 1 18410853274190255273
11640471 11 17676780867509025316
13027679 85 18194690495324420133
13140716 1 17978229692519098697
13965767 371 16608554374032828400
1420 336 18266184924512803916
14787075 74 17896612875907719035
14790565 3 18341057316043312793
15006816 218 16754940689043299904
16945 1 18195239147136872059
19591789 44 18120376712306458779
19765921 60 17749382706469569763
20510252 161 18342458093286620745
21141583 151 18124894583888822372
21524375 3 17972887951224859043
2334 1 18410572855759727185
23419403 2 17326855944455494142
23557571 272 18201719608641642450
23559900 14 18342173410755765088
2748010 2 18337115553281152647
353137 74 18409164389875307419
44154327 71 18267028250037128041
526903 126 18410576235872810256
537710 114 18408601466050490037
7832392 63 17187566044572678455
9981440 41 18116712022929254594

> <PUBCHEM_SHAPE_MULTIPOLES>
328.15
4.94
3.77
0.97
2.92
1.2
-0.06
0.99
-1.27
-0.81
0.74
0.39
0.23
-0.66

> <PUBCHEM_SHAPE_SELFOVERLAP>
695.133

> <PUBCHEM_SHAPE_VOLUME>
185.3

> <PUBCHEM_COORDINATE_TYPE>
2
5
10

> <Energy>
0.232708

> <minimizedAffinity>
-6.79777

> <CNNscore>
0.3567162156

> <CNNaffinity>
6.2385025024

> <CNN_VS>
2.2253749371

> <CNNaffinity_variance>
0.1889015883

$$$$
896


 19 20  0  0  0  0  0  0  0  0999 V2000
  103.9294   13.5579   21.2203 N   0  0  0  0  0  0  0  0  0  0  0  0
  105.8677   14.6070   21.5671 C   0  0  0  0  0  0  0  0  0  0  0  0
  104.9212   15.0421   22.5498 C   0  0  0  0  0  0  0  0  0  0  0  0
  103.7202   14.3822   22.3011 C   0  0  0  0  0  0  0  0  0  0  0  0
  105.2165   13.6886   20.7666 C   0  0  0  0  0  0  0  0  0  0  0  0
  104.9876   15.9491   23.6295 C   0  0  0  0  0  0  0  0  0  0  0  0
  102.5740   14.5877   23.0752 C   0  0  0  0  0  0  0  0  0  0  0  0
  103.8530   16.1816   24.4132 C   0  0  0  0  0  0  0  0  0  0  0  0
  102.6666   15.5036   24.1319 C   0  0  0  0  0  0  0  0  0  0  0  0
  103.2524   12.9600   20.8287 H   0  0  0  0  0  0  0  0  0  0  0  0
  103.7876   17.0459   25.4738 O   0  0  0  0  0  0  0  0  0  0  0  0
  103.7687   18.4350   25.1637 C   0  0  0  0  0  0  0  0  0  0  0  0
  107.2900   15.0680   21.4429 C   0  0  0  0  0  0  0  0  0  0  0  0
  108.2811   14.1663   22.1876 C   0  0  0  0  0  0  0  0  0  0  0  0
  108.7992   11.3981   22.5696 O   0  0  0  0  0  0  0  0  0  0  0  0
  107.6586   13.2982   23.1738 N   0  0  0  0  0  0  0  0  0  0  0  0
  107.9560   11.9578   23.2601 C   0  0  0  0  0  0  0  0  0  0  0  0
  107.1635   11.2346   24.3153 C   0  0  0  0  0  0  0  0  0  0  0  0
  107.0030   13.6819   23.8001 H   0  0  0  0  0  0  0  0  0  0  0  0
 11  8  1  0
 11 12  1  0
 15 17  2  0
  1  4  1  0
  1  5  1  0
  1 10  1  0
 16 14  1  0
 16 17  1  0
 16 19  1  0
  2  3  1  0
  2 13  1  0
  2  5  2  0
  3  4  2  0
  3  6  1  0
 13 14  1  0
  4  7  1  0
  6  8  2  0
  7  9  2  0
  8  9  1  0
 17 18  1  0
M  END
> <PUBCHEM_COMPOUND_CID>
896

> <PUBCHEM_CONFORMER_RMSD>
0.6

> <PUBCHEM_CONFORMER_DIVERSEORDER>
1
13
50
55
28
16
42
48
27
15
62
60
65
61
36
4
20
58
41
17
59
21
2
63
47
57
40
56
22
64
54
37
51
7
31
53
26
8
49
39
32
11
5
33
38
52
23
45
43
12
14
9
34
44
35
10
25
29
46
6
30
24
3
19
18

> <PUBCHEM_MMFF94_PARTIAL_CHARGES>
22
1 -0.36
10 0.3
11 -0.15
12 -0.15
13 0.08
14 -0.15
15 0.57
16 0.06
17 0.28
2 -0.57
20 0.15
23 0.27
24 0.15
25 0.15
26 0.15
27 0.37
3 0.03
4 -0.73
5 -0.18
7 0.18
8 -0.15
9 -0.3

> <PUBCHEM_EFFECTIVE_ROTOR_COUNT>
5

> <PUBCHEM_PHARMACOPHORE_FEATURES>
7
1 1 acceptor
1 2 acceptor
1 3 cation
1 3 donor
1 4 donor
5 3 5 6 8 9 rings
6 6 8 11 12 13 14 rings

> <PUBCHEM_HEAVY_ATOM_COUNT>
17

> <PUBCHEM_ATOM_DEF_STEREO_COUNT>
0

> <PUBCHEM_ATOM_UDEF_STEREO_COUNT>
0

> <PUBCHEM_BOND_DEF_STEREO_COUNT>
0

> <PUBCHEM_BOND_UDEF_STEREO_COUNT>
0

> <PUBCHEM_ISOTOPIC_ATOM_COUNT>
0

> <PUBCHEM_COMPONENT_COUNT>
1

> <PUBCHEM_CACTVS_TAUTO_COUNT>
2

> <PUBCHEM_CONFORMER_ID>
0000038000000001

> <PUBCHEM_MMFF94_ENERGY>
32.7119

> <PUBCHEM_FEATURE_SELFOVERLAP>
35.612

> <PUBCHEM_SHAPE_FINGERPRINT>
10967382 1 18410853274190255273
11640471 11 17676780867509025316
13027679 85 18194690495324420133
13140716 1 17978229692519098697
13965767 371 16608554374032828400
1420 336 18266184924512803916
14787075 74 17896612875907719035
14790565 3 18341057316043312793
15006816 218 16754940689043299904
16945 1 18195239147136872059
19591789 44 18120376712306458779
19765921 60 17749382706469569763
20510252 161 18342458093286620745
21141583 151 18124894583888822372
21524375 3 17972887951224859043
2334 1 18410572855759727185
23419403 2 17326855944455494142
23557571 272 18201719608641642450
23559900 14 18342173410755765088
2748010 2 18337115553281152647
353137 74 18409164389875307419
44154327 71 18267028250037128041
526903 126 18410576235872810256
537710 114 18408601466050490037
7832392 63 17187566044572678455
9981440 41 18116712022929254594

> <PUBCHEM_SHAPE_MULTIPOLES>
328.15
4.94
3.77
0.97
2.92
1.2
-0.06
0.99
-1.27
-0.81
0.74
0.39
0.23
-0.66

> <PUBCHEM_SHAPE_SELFOVERLAP>
695.133

> <PUBCHEM_SHAPE_VOLUME>
185.3

> <PUBCHEM_COORDINATE_TYPE>
2
5
10

> <Energy>
0.232708

> <minimizedAffinity>
-7.33960

> <CNNscore>
0.3557176292

> <CNNaffinity>
6.0157294273

> <CNN_VS>
2.1399009228

> <CNNaffinity_variance>
0.3812655509

$$$$
896


 19 20  0  0  0  0  0  0  0  0999 V2000
  105.3577   14.3988   20.3553 N   0  0  0  0  0  0  0  0  0  0  0  0
  103.8520   14.5275   21.9967 C   0  0  0  0  0  0  0  0  0  0  0  0
  105.1413   14.8639   22.5212 C   0  0  0  0  0  0  0  0  0  0  0  0
  106.0607   14.7625   21.4800 C   0  0  0  0  0  0  0  0  0  0  0  0
  104.0284   14.2492   20.6551 C   0  0  0  0  0  0  0  0  0  0  0  0
  105.6022   15.2422   23.8007 C   0  0  0  0  0  0  0  0  0  0  0  0
  107.4252   15.0143   21.6534 C   0  0  0  0  0  0  0  0  0  0  0  0
  106.9635   15.4894   24.0045 C   0  0  0  0  0  0  0  0  0  0  0  0
  107.8551   15.3751   22.9376 C   0  0  0  0  0  0  0  0  0  0  0  0
  105.7522   14.2652   19.4633 H   0  0  0  0  0  0  0  0  0  0  0  0
  107.5328   15.8467   25.1980 O   0  0  0  0  0  0  0  0  0  0  0  0
  108.0493   14.7898   25.9995 C   0  0  0  0  0  0  0  0  0  0  0  0
  102.5652   14.4892   22.7673 C   0  0  0  0  0  0  0  0  0  0  0  0
  101.9989   15.8831   23.0608 C   0  0  0  0  0  0  0  0  0  0  0  0
  101.2034   17.6477   25.1419 O   0  0  0  0  0  0  0  0  0  0  0  0
  102.8741   16.7138   23.8718 N   0  0  0  0  0  0  0  0  0  0  0  0
  102.3876   17.5619   24.8395 C   0  0  0  0  0  0  0  0  0  0  0  0
  103.4589   18.3654   25.5260 C   0  0  0  0  0  0  0  0  0  0  0  0
  103.8464   16.6678   23.7237 H   0  0  0  0  0  0  0  0  0  0  0  0
 11  8  1  0
 11 12  1  0
 15 17  2  0
  1  4  1  0
  1  5  1  0
  1 10  1  0
 16 14  1  0
 16 17  1  0
 16 19  1  0
  2  3  1  0
  2 13  1  0
  2  5  2  0
  3  4  2  0
  3  6  1  0
 13 14  1  0
  4  7  1  0
  6  8  2  0
  7  9  2  0
  8  9  1  0
 17 18  1  0
M  END
> <PUBCHEM_COMPOUND_CID>
896

> <PUBCHEM_CONFORMER_RMSD>
0.6

> <PUBCHEM_CONFORMER_DIVERSEORDER>
1
13
50
55
28
16
42
48
27
15
62
60
65
61
36
4
20
58
41
17
59
21
2
63
47
57
40
56
22
64
54
37
51
7
31
53
26
8
49
39
32
11
5
33
38
52
23
45
43
12
14
9
34
44
35
10
25
29
46
6
30
24
3
19
18

> <PUBCHEM_MMFF94_PARTIAL_CHARGES>
22
1 -0.36
10 0.3
11 -0.15
12 -0.15
13 0.08
14 -0.15
15 0.57
16 0.06
17 0.28
2 -0.57
20 0.15
23 0.27
24 0.15
25 0.15
26 0.15
27 0.37
3 0.03
4 -0.73
5 -0.18
7 0.18
8 -0.15
9 -0.3

> <PUBCHEM_EFFECTIVE_ROTOR_COUNT>
5

> <PUBCHEM_PHARMACOPHORE_FEATURES>
7
1 1 acceptor
1 2 acceptor
1 3 cation
1 3 donor
1 4 donor
5 3 5 6 8 9 rings
6 6 8 11 12 13 14 rings

> <PUBCHEM_HEAVY_ATOM_COUNT>
17

> <PUBCHEM_ATOM_DEF_STEREO_COUNT>
0

> <PUBCHEM_ATOM_UDEF_STEREO_COUNT>
0

> <PUBCHEM_BOND_DEF_STEREO_COUNT>
0

> <PUBCHEM_BOND_UDEF_STEREO_COUNT>
0

> <PUBCHEM_ISOTOPIC_ATOM_COUNT>
0

> <PUBCHEM_COMPONENT_COUNT>
1

> <PUBCHEM_CACTVS_TAUTO_COUNT>
2

> <PUBCHEM_CONFORMER_ID>
0000038000000001

> <PUBCHEM_MMFF94_ENERGY>
32.7119

> <PUBCHEM_FEATURE_SELFOVERLAP>
35.612

> <PUBCHEM_SHAPE_FINGERPRINT>
10967382 1 18410853274190255273
11640471 11 17676780867509025316
13027679 85 18194690495324420133
13140716 1 17978229692519098697
13965767 371 16608554374032828400
1420 336 18266184924512803916
14787075 74 17896612875907719035
14790565 3 18341057316043312793
15006816 218 16754940689043299904
16945 1 18195239147136872059
19591789 44 18120376712306458779
19765921 60 17749382706469569763
20510252 161 18342458093286620745
21141583 151 18124894583888822372
21524375 3 17972887951224859043
2334 1 18410572855759727185
23419403 2 17326855944455494142
23557571 272 18201719608641642450
23559900 14 18342173410755765088
2748010 2 18337115553281152647
353137 74 18409164389875307419
44154327 71 18267028250037128041
526903 126 18410576235872810256
537710 114 18408601466050490037
7832392 63 17187566044572678455
9981440 41 18116712022929254594

> <PUBCHEM_SHAPE_MULTIPOLES>
328.15
4.94
3.77
0.97
2.92
1.2
-0.06
0.99
-1.27
-0.81
0.74
0.39
0.23
-0.66

> <PUBCHEM_SHAPE_SELFOVERLAP>
695.133

> <PUBCHEM_SHAPE_VOLUME>
185.3

> <PUBCHEM_COORDINATE_TYPE>
2
5
10

> <Energy>
0.232708

> <minimizedAffinity>
-6.81194

> <CNNscore>
0.2574659288

> <CNNaffinity>
6.1295337677

> <CNN_VS>
1.5781461000

> <CNNaffinity_variance>
0.3456869125

$$$$
896


 19 20  0  0  0  0  0  0  0  0999 V2000
  105.1827   11.4640   21.6240 N   0  0  0  0  0  0  0  0  0  0  0  0
  104.3070   13.4967   21.9056 C   0  0  0  0  0  0  0  0  0  0  0  0
  105.1936   13.2174   22.9950 C   0  0  0  0  0  0  0  0  0  0  0  0
  105.7138   11.9403   22.7998 C   0  0  0  0  0  0  0  0  0  0  0  0
  104.3305   12.3897   21.0796 C   0  0  0  0  0  0  0  0  0  0  0  0
  105.5924   13.9468   24.1359 C   0  0  0  0  0  0  0  0  0  0  0  0
  106.6115   11.3484   23.6936 C   0  0  0  0  0  0  0  0  0  0  0  0
  106.4807   13.3745   25.0518 C   0  0  0  0  0  0  0  0  0  0  0  0
  106.9789   12.0914   24.8237 C   0  0  0  0  0  0  0  0  0  0  0  0
  105.3853   10.5850   21.2299 H   0  0  0  0  0  0  0  0  0  0  0  0
  106.9286   13.9731   26.1995 O   0  0  0  0  0  0  0  0  0  0  0  0
  107.9691   14.9333   26.0533 C   0  0  0  0  0  0  0  0  0  0  0  0
  103.5123   14.7543   21.7111 C   0  0  0  0  0  0  0  0  0  0  0  0
  102.2963   14.8464   22.6397 C   0  0  0  0  0  0  0  0  0  0  0  0
  101.1361   17.2438   23.6317 O   0  0  0  0  0  0  0  0  0  0  0  0
  102.5796   15.4800   23.9173 N   0  0  0  0  0  0  0  0  0  0  0  0
  101.9856   16.6617   24.2956 C   0  0  0  0  0  0  0  0  0  0  0  0
  102.4564   17.1685   25.6320 C   0  0  0  0  0  0  0  0  0  0  0  0
  103.2172   15.0494   24.5316 H   0  0  0  0  0  0  0  0  0  0  0  0
 11  8  1  0
 11 12  1  0
 15 17  2  0
  1  4  1  0
  1  5  1  0
  1 10  1  0
 16 14  1  0
 16 17  1  0
 16 19  1  0
  2  3  1  0
  2 13  1  0
  2  5  2  0
  3  4  2  0
  3  6  1  0
 13 14  1  0
  4  7  1  0
  6  8  2  0
  7  9  2  0
  8  9  1  0
 17 18  1  0
M  END
> <PUBCHEM_COMPOUND_CID>
896

> <PUBCHEM_CONFORMER_RMSD>
0.6

> <PUBCHEM_CONFORMER_DIVERSEORDER>
1
13
50
55
28
16
42
48
27
15
62
60
65
61
36
4
20
58
41
17
59
21
2
63
47
57
40
56
22
64
54
37
51
7
31
53
26
8
49
39
32
11
5
33
38
52
23
45
43
12
14
9
34
44
35
10
25
29
46
6
30
24
3
19
18

> <PUBCHEM_MMFF94_PARTIAL_CHARGES>
22
1 -0.36
10 0.3
11 -0.15
12 -0.15
13 0.08
14 -0.15
15 0.57
16 0.06
17 0.28
2 -0.57
20 0.15
23 0.27
24 0.15
25 0.15
26 0.15
27 0.37
3 0.03
4 -0.73
5 -0.18
7 0.18
8 -0.15
9 -0.3

> <PUBCHEM_EFFECTIVE_ROTOR_COUNT>
5

> <PUBCHEM_PHARMACOPHORE_FEATURES>
7
1 1 acceptor
1 2 acceptor
1 3 cation
1 3 donor
1 4 donor
5 3 5 6 8 9 rings
6 6 8 11 12 13 14 rings

> <PUBCHEM_HEAVY_ATOM_COUNT>
17

> <PUBCHEM_ATOM_DEF_STEREO_COUNT>
0

> <PUBCHEM_ATOM_UDEF_STEREO_COUNT>
0

> <PUBCHEM_BOND_DEF_STEREO_COUNT>
0

> <PUBCHEM_BOND_UDEF_STEREO_COUNT>
0

> <PUBCHEM_ISOTOPIC_ATOM_COUNT>
0

> <PUBCHEM_COMPONENT_COUNT>
1

> <PUBCHEM_CACTVS_TAUTO_COUNT>
2

> <PUBCHEM_CONFORMER_ID>
0000038000000001

> <PUBCHEM_MMFF94_ENERGY>
32.7119

> <PUBCHEM_FEATURE_SELFOVERLAP>
35.612

> <PUBCHEM_SHAPE_FINGERPRINT>
10967382 1 18410853274190255273
11640471 11 17676780867509025316
13027679 85 18194690495324420133
13140716 1 17978229692519098697
13965767 371 16608554374032828400
1420 336 18266184924512803916
14787075 74 17896612875907719035
14790565 3 18341057316043312793
15006816 218 16754940689043299904
16945 1 18195239147136872059
19591789 44 18120376712306458779
19765921 60 17749382706469569763
20510252 161 18342458093286620745
21141583 151 18124894583888822372
21524375 3 17972887951224859043
2334 1 18410572855759727185
23419403 2 17326855944455494142
23557571 272 18201719608641642450
23559900 14 18342173410755765088
2748010 2 18337115553281152647
353137 74 18409164389875307419
44154327 71 18267028250037128041
526903 126 18410576235872810256
537710 114 18408601466050490037
7832392 63 17187566044572678455
9981440 41 18116712022929254594

> <PUBCHEM_SHAPE_MULTIPOLES>
328.15
4.94
3.77
0.97
2.92
1.2
-0.06
0.99
-1.27
-0.81
0.74
0.39
0.23
-0.66

> <PUBCHEM_SHAPE_SELFOVERLAP>
695.133

> <PUBCHEM_SHAPE_VOLUME>
185.3

> <PUBCHEM_COORDINATE_TYPE>
2
5
10

> <Energy>
0.232708

> <minimizedAffinity>
-7.17231

> <CNNscore>
0.2424887419

> <CNNaffinity>
5.8991656303

> <CNN_VS>
1.4304811954

> <CNNaffinity_variance>
0.1080555543

$$$$
896


 19 20  0  0  0  0  0  0  0  0999 V2000
  103.2457   13.1149   24.2618 N   0  0  0  0  0  0  0  0  0  0  0  0
  102.6326   14.7572   22.8817 C   0  0  0  0  0  0  0  0  0  0  0  0
  104.0264   14.4876   22.6933 C   0  0  0  0  0  0  0  0  0  0  0  0
  104.3829   13.4700   23.5749 C   0  0  0  0  0  0  0  0  0  0  0  0
  102.1871   13.8863   23.8571 C   0  0  0  0  0  0  0  0  0  0  0  0
  105.0162   15.0312   21.8464 C   0  0  0  0  0  0  0  0  0  0  0  0
  105.6858   12.9694   23.6592 C   0  0  0  0  0  0  0  0  0  0  0  0
  106.3297   14.5565   21.9177 C   0  0  0  0  0  0  0  0  0  0  0  0
  106.6497   13.5376   22.8154 C   0  0  0  0  0  0  0  0  0  0  0  0
  103.1985   12.4084   24.9458 H   0  0  0  0  0  0  0  0  0  0  0  0
  107.3778   15.0122   21.1627 O   0  0  0  0  0  0  0  0  0  0  0  0
  108.6845   14.6888   21.6254 C   0  0  0  0  0  0  0  0  0  0  0  0
  101.8241   15.7895   22.1525 C   0  0  0  0  0  0  0  0  0  0  0  0
  101.5102   17.0216   23.0086 C   0  0  0  0  0  0  0  0  0  0  0  0
  100.5396   17.3468   25.6600 O   0  0  0  0  0  0  0  0  0  0  0  0
  102.3123   17.1167   24.2174 N   0  0  0  0  0  0  0  0  0  0  0  0
  101.7472   17.3047   25.4575 C   0  0  0  0  0  0  0  0  0  0  0  0
  102.7586   17.4253   26.5652 C   0  0  0  0  0  0  0  0  0  0  0  0
  103.2916   17.0443   24.1463 H   0  0  0  0  0  0  0  0  0  0  0  0
 11  8  1  0
 11 12  1  0
 15 17  2  0
  1  4  1  0
  1  5  1  0
  1 10  1  0
 16 14  1  0
 16 17  1  0
 16 19  1  0
  2  3  1  0
  2 13  1  0
  2  5  2  0
  3  4  2  0
  3  6  1  0
 13 14  1  0
  4  7  1  0
  6  8  2  0
  7  9  2  0
  8  9  1  0
 17 18  1  0
M  END
> <PUBCHEM_COMPOUND_CID>
896

> <PUBCHEM_CONFORMER_RMSD>
0.6

> <PUBCHEM_CONFORMER_DIVERSEORDER>
1
13
50
55
28
16
42
48
27
15
62
60
65
61
36
4
20
58
41
17
59
21
2
63
47
57
40
56
22
64
54
37
51
7
31
53
26
8
49
39
32
11
5
33
38
52
23
45
43
12
14
9
34
44
35
10
25
29
46
6
30
24
3
19
18

> <PUBCHEM_MMFF94_PARTIAL_CHARGES>
22
1 -0.36
10 0.3
11 -0.15
12 -0.15
13 0.08
14 -0.15
15 0.57
16 0.06
17 0.28
2 -0.57
20 0.15
23 0.27
24 0.15
25 0.15
26 0.15
27 0.37
3 0.03
4 -0.73
5 -0.18
7 0.18
8 -0.15
9 -0.3

> <PUBCHEM_EFFECTIVE_ROTOR_COUNT>
5

> <PUBCHEM_PHARMACOPHORE_FEATURES>
7
1 1 acceptor
1 2 acceptor
1 3 cation
1 3 donor
1 4 donor
5 3 5 6 8 9 rings
6 6 8 11 12 13 14 rings

> <PUBCHEM_HEAVY_ATOM_COUNT>
17

> <PUBCHEM_ATOM_DEF_STEREO_COUNT>
0

> <PUBCHEM_ATOM_UDEF_STEREO_COUNT>
0

> <PUBCHEM_BOND_DEF_STEREO_COUNT>
0

> <PUBCHEM_BOND_UDEF_STEREO_COUNT>
0

> <PUBCHEM_ISOTOPIC_ATOM_COUNT>
0

> <PUBCHEM_COMPONENT_COUNT>
1

> <PUBCHEM_CACTVS_TAUTO_COUNT>
2

> <PUBCHEM_CONFORMER_ID>
0000038000000001

> <PUBCHEM_MMFF94_ENERGY>
32.7119

> <PUBCHEM_FEATURE_SELFOVERLAP>
35.612

> <PUBCHEM_SHAPE_FINGERPRINT>
10967382 1 18410853274190255273
11640471 11 17676780867509025316
13027679 85 18194690495324420133
13140716 1 17978229692519098697
13965767 371 16608554374032828400
1420 336 18266184924512803916
14787075 74 17896612875907719035
14790565 3 18341057316043312793
15006816 218 16754940689043299904
16945 1 18195239147136872059
19591789 44 18120376712306458779
19765921 60 17749382706469569763
20510252 161 18342458093286620745
21141583 151 18124894583888822372
21524375 3 17972887951224859043
2334 1 18410572855759727185
23419403 2 17326855944455494142
23557571 272 18201719608641642450
23559900 14 18342173410755765088
2748010 2 18337115553281152647
353137 74 18409164389875307419
44154327 71 18267028250037128041
526903 126 18410576235872810256
537710 114 18408601466050490037
7832392 63 17187566044572678455
9981440 41 18116712022929254594

> <PUBCHEM_SHAPE_MULTIPOLES>
328.15
4.94
3.77
0.97
2.92
1.2
-0.06
0.99
-1.27
-0.81
0.74
0.39
0.23
-0.66

> <PUBCHEM_SHAPE_SELFOVERLAP>
695.133

> <PUBCHEM_SHAPE_VOLUME>
185.3

> <PUBCHEM_COORDINATE_TYPE>
2
5
10

> <Energy>
0.232708

> <minimizedAffinity>
-3.84254

> <CNNscore>
0.2216118276

> <CNNaffinity>
5.8017792702

> <CNN_VS>
1.2857428789

> <CNNaffinity_variance>
0.2206117660

$$$$
896


 19 20  0  0  0  0  0  0  0  0999 V2000
  107.0415   11.4705   24.8317 N   0  0  0  0  0  0  0  0  0  0  0  0
  105.7889   12.0078   23.0653 C   0  0  0  0  0  0  0  0  0  0  0  0
  105.5855   12.9836   24.0936 C   0  0  0  0  0  0  0  0  0  0  0  0
  106.3678   12.6160   25.1856 C   0  0  0  0  0  0  0  0  0  0  0  0
  106.6971   11.0918   23.5599 C   0  0  0  0  0  0  0  0  0  0  0  0
  104.7941   14.1488   24.1857 C   0  0  0  0  0  0  0  0  0  0  0  0
  106.3954   13.3527   26.3738 C   0  0  0  0  0  0  0  0  0  0  0  0
  104.7945   14.8983   25.3663 C   0  0  0  0  0  0  0  0  0  0  0  0
  105.5894   14.4973   26.4405 C   0  0  0  0  0  0  0  0  0  0  0  0
  107.6793   10.9913   25.4085 H   0  0  0  0  0  0  0  0  0  0  0  0
  104.0605   16.0343   25.5826 O   0  0  0  0  0  0  0  0  0  0  0  0
  103.4983   16.6583   24.4334 C   0  0  0  0  0  0  0  0  0  0  0  0
  105.1351   11.9953   21.7150 C   0  0  0  0  0  0  0  0  0  0  0  0
  105.8498   12.8867   20.6931 C   0  0  0  0  0  0  0  0  0  0  0  0
  108.5871   12.9116   21.4576 O   0  0  0  0  0  0  0  0  0  0  0  0
  106.5714   14.0000   21.2879 N   0  0  0  0  0  0  0  0  0  0  0  0
  107.8942   13.9032   21.6526 C   0  0  0  0  0  0  0  0  0  0  0  0
  108.4322   15.1533   22.2947 C   0  0  0  0  0  0  0  0  0  0  0  0
  106.0979   14.8507   21.4345 H   0  0  0  0  0  0  0  0  0  0  0  0
 11  8  1  0
 11 12  1  0
 15 17  2  0
  1  4  1  0
  1  5  1  0
  1 10  1  0
 16 14  1  0
 16 17  1  0
 16 19  1  0
  2  3  1  0
  2 13  1  0
  2  5  2  0
  3  4  2  0
  3  6  1  0
 13 14  1  0
  4  7  1  0
  6  8  2  0
  7  9  2  0
  8  9  1  0
 17 18  1  0
M  END
> <PUBCHEM_COMPOUND_CID>
896

> <PUBCHEM_CONFORMER_RMSD>
0.6

> <PUBCHEM_CONFORMER_DIVERSEORDER>
1
13
50
55
28
16
42
48
27
15
62
60
65
61
36
4
20
58
41
17
59
21
2
63
47
57
40
56
22
64
54
37
51
7
31
53
26
8
49
39
32
11
5
33
38
52
23
45
43
12
14
9
34
44
35
10
25
29
46
6
30
24
3
19
18

> <PUBCHEM_MMFF94_PARTIAL_CHARGES>
22
1 -0.36
10 0.3
11 -0.15
12 -0.15
13 0.08
14 -0.15
15 0.57
16 0.06
17 0.28
2 -0.57
20 0.15
23 0.27
24 0.15
25 0.15
26 0.15
27 0.37
3 0.03
4 -0.73
5 -0.18
7 0.18
8 -0.15
9 -0.3

> <PUBCHEM_EFFECTIVE_ROTOR_COUNT>
5

> <PUBCHEM_PHARMACOPHORE_FEATURES>
7
1 1 acceptor
1 2 acceptor
1 3 cation
1 3 donor
1 4 donor
5 3 5 6 8 9 rings
6 6 8 11 12 13 14 rings

> <PUBCHEM_HEAVY_ATOM_COUNT>
17

> <PUBCHEM_ATOM_DEF_STEREO_COUNT>
0

> <PUBCHEM_ATOM_UDEF_STEREO_COUNT>
0

> <PUBCHEM_BOND_DEF_STEREO_COUNT>
0

> <PUBCHEM_BOND_UDEF_STEREO_COUNT>
0

> <PUBCHEM_ISOTOPIC_ATOM_COUNT>
0

> <PUBCHEM_COMPONENT_COUNT>
1

> <PUBCHEM_CACTVS_TAUTO_COUNT>
2

> <PUBCHEM_CONFORMER_ID>
0000038000000001

> <PUBCHEM_MMFF94_ENERGY>
32.7119

> <PUBCHEM_FEATURE_SELFOVERLAP>
35.612

> <PUBCHEM_SHAPE_FINGERPRINT>
10967382 1 18410853274190255273
11640471 11 17676780867509025316
13027679 85 18194690495324420133
13140716 1 17978229692519098697
13965767 371 16608554374032828400
1420 336 18266184924512803916
14787075 74 17896612875907719035
14790565 3 18341057316043312793
15006816 218 16754940689043299904
16945 1 18195239147136872059
19591789 44 18120376712306458779
19765921 60 17749382706469569763
20510252 161 18342458093286620745
21141583 151 18124894583888822372
21524375 3 17972887951224859043
2334 1 18410572855759727185
23419403 2 17326855944455494142
23557571 272 18201719608641642450
23559900 14 18342173410755765088
2748010 2 18337115553281152647
353137 74 18409164389875307419
44154327 71 18267028250037128041
526903 126 18410576235872810256
537710 114 18408601466050490037
7832392 63 17187566044572678455
9981440 41 18116712022929254594

> <PUBCHEM_SHAPE_MULTIPOLES>
328.15
4.94
3.77
0.97
2.92
1.2
-0.06
0.99
-1.27
-0.81
0.74
0.39
0.23
-0.66

> <PUBCHEM_SHAPE_SELFOVERLAP>
695.133

> <PUBCHEM_SHAPE_VOLUME>
185.3

> <PUBCHEM_COORDINATE_TYPE>
2
5
10

> <Energy>
0.232708

> <minimizedAffinity>
-6.12110

> <CNNscore>
0.2170671076

> <CNNaffinity>
5.6228675842

> <CNN_VS>
1.2205395699

> <CNNaffinity_variance>
0.0208183229

$$$$
896


 19 20  0  0  0  0  0  0  0  0999 V2000
  108.0017   14.2716   25.4671 N   0  0  0  0  0  0  0  0  0  0  0  0
  106.5010   15.6057   24.4944 C   0  0  0  0  0  0  0  0  0  0  0  0
  106.3320   14.2741   23.9952 C   0  0  0  0  0  0  0  0  0  0  0  0
  107.2882   13.4684   24.6085 C   0  0  0  0  0  0  0  0  0  0  0  0
  107.5407   15.5611   25.4030 C   0  0  0  0  0  0  0  0  0  0  0  0
  105.4448   13.6892   23.0660 C   0  0  0  0  0  0  0  0  0  0  0  0
  107.4089   12.1024   24.3350 C   0  0  0  0  0  0  0  0  0  0  0  0
  105.5506   12.3275   22.7659 C   0  0  0  0  0  0  0  0  0  0  0  0
  106.5230   11.5526   23.3986 C   0  0  0  0  0  0  0  0  0  0  0  0
  108.7376   13.9649   26.0445 H   0  0  0  0  0  0  0  0  0  0  0  0
  104.7617   11.6503   21.8740 O   0  0  0  0  0  0  0  0  0  0  0  0
  104.1710   12.4204   20.8329 C   0  0  0  0  0  0  0  0  0  0  0  0
  105.6962   16.8084   24.0984 C   0  0  0  0  0  0  0  0  0  0  0  0
  104.4455   17.0056   24.9624 C   0  0  0  0  0  0  0  0  0  0  0  0
  101.9367   18.3019   24.6415 O   0  0  0  0  0  0  0  0  0  0  0  0
  103.2401   16.4271   24.3912 N   0  0  0  0  0  0  0  0  0  0  0  0
  102.0605   17.1298   24.3068 C   0  0  0  0  0  0  0  0  0  0  0  0
  100.9252   16.3284   23.7294 C   0  0  0  0  0  0  0  0  0  0  0  0
  103.2689   15.5026   24.0540 H   0  0  0  0  0  0  0  0  0  0  0  0
 11  8  1  0
 11 12  1  0
 15 17  2  0
  1  4  1  0
  1  5  1  0
  1 10  1  0
 16 14  1  0
 16 17  1  0
 16 19  1  0
  2  3  1  0
  2 13  1  0
  2  5  2  0
  3  4  2  0
  3  6  1  0
 13 14  1  0
  4  7  1  0
  6  8  2  0
  7  9  2  0
  8  9  1  0
 17 18  1  0
M  END
> <PUBCHEM_COMPOUND_CID>
896

> <PUBCHEM_CONFORMER_RMSD>
0.6

> <PUBCHEM_CONFORMER_DIVERSEORDER>
1
13
50
55
28
16
42
48
27
15
62
60
65
61
36
4
20
58
41
17
59
21
2
63
47
57
40
56
22
64
54
37
51
7
31
53
26
8
49
39
32
11
5
33
38
52
23
45
43
12
14
9
34
44
35
10
25
29
46
6
30
24
3
19
18

> <PUBCHEM_MMFF94_PARTIAL_CHARGES>
22
1 -0.36
10 0.3
11 -0.15
12 -0.15
13 0.08
14 -0.15
15 0.57
16 0.06
17 0.28
2 -0.57
20 0.15
23 0.27
24 0.15
25 0.15
26 0.15
27 0.37
3 0.03
4 -0.73
5 -0.18
7 0.18
8 -0.15
9 -0.3

> <PUBCHEM_EFFECTIVE_ROTOR_COUNT>
5

> <PUBCHEM_PHARMACOPHORE_FEATURES>
7
1 1 acceptor
1 2 acceptor
1 3 cation
1 3 donor
1 4 donor
5 3 5 6 8 9 rings
6 6 8 11 12 13 14 rings

> <PUBCHEM_HEAVY_ATOM_COUNT>
17

> <PUBCHEM_ATOM_DEF_STEREO_COUNT>
0

> <PUBCHEM_ATOM_UDEF_STEREO_COUNT>
0

> <PUBCHEM_BOND_DEF_STEREO_COUNT>
0

> <PUBCHEM_BOND_UDEF_STEREO_COUNT>
0

> <PUBCHEM_ISOTOPIC_ATOM_COUNT>
0

> <PUBCHEM_COMPONENT_COUNT>
1

> <PUBCHEM_CACTVS_TAUTO_COUNT>
2

> <PUBCHEM_CONFORMER_ID>
0000038000000001

> <PUBCHEM_MMFF94_ENERGY>
32.7119

> <PUBCHEM_FEATURE_SELFOVERLAP>
35.612

> <PUBCHEM_SHAPE_FINGERPRINT>
10967382 1 18410853274190255273
11640471 11 17676780867509025316
13027679 85 18194690495324420133
13140716 1 17978229692519098697
13965767 371 16608554374032828400
1420 336 18266184924512803916
14787075 74 17896612875907719035
14790565 3 18341057316043312793
15006816 218 16754940689043299904
16945 1 18195239147136872059
19591789 44 18120376712306458779
19765921 60 17749382706469569763
20510252 161 18342458093286620745
21141583 151 18124894583888822372
21524375 3 17972887951224859043
2334 1 18410572855759727185
23419403 2 17326855944455494142
23557571 272 18201719608641642450
23559900 14 18342173410755765088
2748010 2 18337115553281152647
353137 74 18409164389875307419
44154327 71 18267028250037128041
526903 126 18410576235872810256
537710 114 18408601466050490037
7832392 63 17187566044572678455
9981440 41 18116712022929254594

> <PUBCHEM_SHAPE_MULTIPOLES>
328.15
4.94
3.77
0.97
2.92
1.2
-0.06
0.99
-1.27
-0.81
0.74
0.39
0.23
-0.66

> <PUBCHEM_SHAPE_SELFOVERLAP>
695.133

> <PUBCHEM_SHAPE_VOLUME>
185.3

> <PUBCHEM_COORDINATE_TYPE>
2
5
10

> <Energy>
0.232708

> <minimizedAffinity>
-6.99529

> <CNNscore>
0.2136499882

> <CNNaffinity>
6.2404932976

> <CNN_VS>
1.3332812786

> <CNNaffinity_variance>
0.7143952847

$$$$
