2519


 14 15  0  0  0  0  0  0  0  0999 V2000
   11.6005   43.3917  131.4299 O   0  0  0  0  0  0  0  0  0  0  0  0
   10.0694   46.1774  134.7960 O   0  0  0  0  0  0  0  0  0  0  0  0
    9.6747   46.8046  132.6151 N   0  0  0  0  0  0  0  0  0  0  0  0
   10.4348   45.3813  129.5262 N   0  0  0  0  0  0  0  0  0  0  0  0
   10.8404   44.7760  133.1364 N   0  0  0  0  0  0  0  0  0  0  0  0
    9.3968   47.2204  130.2254 N   0  0  0  0  0  0  0  0  0  0  0  0
   10.4739   45.3524  130.8905 C   0  0  0  0  0  0  0  0  0  0  0  0
    9.8335   46.4867  131.2865 C   0  0  0  0  0  0  0  0  0  0  0  0
   11.0260   44.4113  131.7995 C   0  0  0  0  0  0  0  0  0  0  0  0
   10.1835   45.9415  133.5891 C   0  0  0  0  0  0  0  0  0  0  0  0
    9.7749   46.5276  129.1692 C   0  0  0  0  0  0  0  0  0  0  0  0
    8.9842   48.0258  132.9917 C   0  0  0  0  0  0  0  0  0  0  0  0
   10.9805   44.3984  128.6254 C   0  0  0  0  0  0  0  0  0  0  0  0
   11.3623   43.8893  134.1584 C   0  0  0  0  0  0  0  0  0  0  0  0
  1  9  2  0
  2 10  2  0
  3  8  1  0
  3 10  1  0
  3 12  1  0
  4  7  1  0
  4 11  1  0
  4 13  1  0
  5  9  1  0
  5 10  1  0
  5 14  1  0
  6  8  1  0
  6 11  2  0
  7  8  2  0
  7  9  1  0
M  END
> <PUBCHEM_COMPOUND_CID>
2519

> <PUBCHEM_CONFORMER_RMSD>
0.4

> <PUBCHEM_CONFORMER_DIVERSEORDER>
1

> <PUBCHEM_MMFF94_PARTIAL_CHARGES>
15
1 -0.57
10 0.69
11 0.04
12 0.3
13 0.26
14 0.3
15 0.15
2 -0.57
3 -0.42
4 0.05
5 -0.42
6 -0.57
7 -0.24
8 0.29
9 0.71

> <PUBCHEM_EFFECTIVE_ROTOR_COUNT>
0

> <PUBCHEM_PHARMACOPHORE_FEATURES>
5
1 1 acceptor
1 2 acceptor
3 4 6 11 cation
5 4 6 7 8 11 rings
6 3 5 7 8 9 10 rings

> <PUBCHEM_HEAVY_ATOM_COUNT>
14

> <PUBCHEM_ATOM_DEF_STEREO_COUNT>
0

> <PUBCHEM_ATOM_UDEF_STEREO_COUNT>
0

> <PUBCHEM_BOND_DEF_STEREO_COUNT>
0

> <PUBCHEM_BOND_UDEF_STEREO_COUNT>
0

> <PUBCHEM_ISOTOPIC_ATOM_COUNT>
0

> <PUBCHEM_COMPONENT_COUNT>
1

> <PUBCHEM_CACTVS_TAUTO_COUNT>
1

> <PUBCHEM_CONFORMER_ID>
000009D700000001

> <PUBCHEM_MMFF94_ENERGY>
22.901

> <PUBCHEM_FEATURE_SELFOVERLAP>
25.487

> <PUBCHEM_SHAPE_FINGERPRINT>
10967382 1 18338799025773621285
11132069 177 18339075025094499008
12524768 44 18342463625094026902
13140716 1 17978511158789908153
16945 1 18338517550775811621
193761 8 15816500986559935910
20588541 1 18339082691204868851
21501502 16 18338796715286957384
22802520 49 18128840606503503494
2334 1 18338516344016692929
23402539 116 18270382932679789735
23552423 10 18262240993325675966
23559900 14 18199193898169584358
241688 4 18266458702623303353
2748010 2 18266180539182415717
5084963 1 17698433339235542986
528886 8 18267580380709240570
53812653 166 18198902694142226312
66348 1 18339079396917369615

> <PUBCHEM_SHAPE_MULTIPOLES>
256.45
4.01
2.83
0.58
0.71
0.08
0
-0.48
0
-0.81
0
0.01
0
0

> <PUBCHEM_SHAPE_SELFOVERLAP>
550.88

> <PUBCHEM_SHAPE_VOLUME>
143.9

> <PUBCHEM_COORDINATE_TYPE>
2
5
10

> <Energy>
-122.511

> <minimizedAffinity>
-5.39838

> <CNNscore>
0.5861499906

> <CNNaffinity>
5.1767048836

> <CNN_VS>
3.0343255997

> <CNNaffinity_variance>
0.0819893628

$$$$
2519


 14 15  0  0  0  0  0  0  0  0999 V2000
    9.5885   47.5705  130.1183 O   0  0  0  0  0  0  0  0  0  0  0  0
    9.9550   46.7309  134.6566 O   0  0  0  0  0  0  0  0  0  0  0  0
   10.7620   45.1415  133.1978 N   0  0  0  0  0  0  0  0  0  0  0  0
   10.9112   44.9180  129.7233 N   0  0  0  0  0  0  0  0  0  0  0  0
    9.7621   47.1694  132.4019 N   0  0  0  0  0  0  0  0  0  0  0  0
   11.5299   43.6379  131.4342 N   0  0  0  0  0  0  0  0  0  0  0  0
   10.5631   45.5935  130.8574 C   0  0  0  0  0  0  0  0  0  0  0  0
   10.9529   44.7871  131.8827 C   0  0  0  0  0  0  0  0  0  0  0  0
    9.9348   46.8522  131.0512 C   0  0  0  0  0  0  0  0  0  0  0  0
   10.1511   46.3627  133.4941 C   0  0  0  0  0  0  0  0  0  0  0  0
   11.4918   43.7423  130.1203 C   0  0  0  0  0  0  0  0  0  0  0  0
   11.1943   44.2497  134.2598 C   0  0  0  0  0  0  0  0  0  0  0  0
   10.7107   45.3510  128.3640 C   0  0  0  0  0  0  0  0  0  0  0  0
    9.1303   48.4342  132.7246 C   0  0  0  0  0  0  0  0  0  0  0  0
  1  9  2  0
  2 10  2  0
  3  8  1  0
  3 10  1  0
  3 12  1  0
  4  7  1  0
  4 11  1  0
  4 13  1  0
  5  9  1  0
  5 10  1  0
  5 14  1  0
  6  8  1  0
  6 11  2  0
  7  8  2  0
  7  9  1  0
M  END
> <PUBCHEM_COMPOUND_CID>
2519

> <PUBCHEM_CONFORMER_RMSD>
0.4

> <PUBCHEM_CONFORMER_DIVERSEORDER>
1

> <PUBCHEM_MMFF94_PARTIAL_CHARGES>
15
1 -0.57
10 0.69
11 0.04
12 0.3
13 0.26
14 0.3
15 0.15
2 -0.57
3 -0.42
4 0.05
5 -0.42
6 -0.57
7 -0.24
8 0.29
9 0.71

> <PUBCHEM_EFFECTIVE_ROTOR_COUNT>
0

> <PUBCHEM_PHARMACOPHORE_FEATURES>
5
1 1 acceptor
1 2 acceptor
3 4 6 11 cation
5 4 6 7 8 11 rings
6 3 5 7 8 9 10 rings

> <PUBCHEM_HEAVY_ATOM_COUNT>
14

> <PUBCHEM_ATOM_DEF_STEREO_COUNT>
0

> <PUBCHEM_ATOM_UDEF_STEREO_COUNT>
0

> <PUBCHEM_BOND_DEF_STEREO_COUNT>
0

> <PUBCHEM_BOND_UDEF_STEREO_COUNT>
0

> <PUBCHEM_ISOTOPIC_ATOM_COUNT>
0

> <PUBCHEM_COMPONENT_COUNT>
1

> <PUBCHEM_CACTVS_TAUTO_COUNT>
1

> <PUBCHEM_CONFORMER_ID>
000009D700000001

> <PUBCHEM_MMFF94_ENERGY>
22.901

> <PUBCHEM_FEATURE_SELFOVERLAP>
25.487

> <PUBCHEM_SHAPE_FINGERPRINT>
10967382 1 18338799025773621285
11132069 177 18339075025094499008
12524768 44 18342463625094026902
13140716 1 17978511158789908153
16945 1 18338517550775811621
193761 8 15816500986559935910
20588541 1 18339082691204868851
21501502 16 18338796715286957384
22802520 49 18128840606503503494
2334 1 18338516344016692929
23402539 116 18270382932679789735
23552423 10 18262240993325675966
23559900 14 18199193898169584358
241688 4 18266458702623303353
2748010 2 18266180539182415717
5084963 1 17698433339235542986
528886 8 18267580380709240570
53812653 166 18198902694142226312
66348 1 18339079396917369615

> <PUBCHEM_SHAPE_MULTIPOLES>
256.45
4.01
2.83
0.58
0.71
0.08
0
-0.48
0
-0.81
0
0.01
0
0

> <PUBCHEM_SHAPE_SELFOVERLAP>
550.88

> <PUBCHEM_SHAPE_VOLUME>
143.9

> <PUBCHEM_COORDINATE_TYPE>
2
5
10

> <Energy>
-122.511

> <minimizedAffinity>
-5.48378

> <CNNscore>
0.5710136890

> <CNNaffinity>
5.0404858589

> <CNN_VS>
2.8781864643

> <CNNaffinity_variance>
0.0976235494

$$$$
2519


 14 15  0  0  0  0  0  0  0  0999 V2000
   10.8978   46.7780  133.7993 O   0  0  0  0  0  0  0  0  0  0  0  0
   10.7216   42.3180  132.5694 O   0  0  0  0  0  0  0  0  0  0  0  0
    9.9794   43.8844  131.0525 N   0  0  0  0  0  0  0  0  0  0  0  0
    9.7414   47.3609  131.1040 N   0  0  0  0  0  0  0  0  0  0  0  0
   10.8182   44.5322  133.2025 N   0  0  0  0  0  0  0  0  0  0  0  0
    9.2619   45.7484  129.6484 N   0  0  0  0  0  0  0  0  0  0  0  0
   10.0782   46.1831  131.7067 C   0  0  0  0  0  0  0  0  0  0  0  0
    9.7736   45.2196  130.7944 C   0  0  0  0  0  0  0  0  0  0  0  0
   10.6268   45.9002  132.9856 C   0  0  0  0  0  0  0  0  0  0  0  0
   10.5161   43.5021  132.2847 C   0  0  0  0  0  0  0  0  0  0  0  0
    9.2526   47.0494  129.8626 C   0  0  0  0  0  0  0  0  0  0  0  0
    9.6399   42.8905  130.0491 C   0  0  0  0  0  0  0  0  0  0  0  0
    9.8719   48.6837  131.6594 C   0  0  0  0  0  0  0  0  0  0  0  0
   11.3754   44.1206  134.4766 C   0  0  0  0  0  0  0  0  0  0  0  0
  1  9  2  0
  2 10  2  0
  3  8  1  0
  3 10  1  0
  3 12  1  0
  4  7  1  0
  4 11  1  0
  4 13  1  0
  5  9  1  0
  5 10  1  0
  5 14  1  0
  6  8  1  0
  6 11  2  0
  7  8  2  0
  7  9  1  0
M  END
> <PUBCHEM_COMPOUND_CID>
2519

> <PUBCHEM_CONFORMER_RMSD>
0.4

> <PUBCHEM_CONFORMER_DIVERSEORDER>
1

> <PUBCHEM_MMFF94_PARTIAL_CHARGES>
15
1 -0.57
10 0.69
11 0.04
12 0.3
13 0.26
14 0.3
15 0.15
2 -0.57
3 -0.42
4 0.05
5 -0.42
6 -0.57
7 -0.24
8 0.29
9 0.71

> <PUBCHEM_EFFECTIVE_ROTOR_COUNT>
0

> <PUBCHEM_PHARMACOPHORE_FEATURES>
5
1 1 acceptor
1 2 acceptor
3 4 6 11 cation
5 4 6 7 8 11 rings
6 3 5 7 8 9 10 rings

> <PUBCHEM_HEAVY_ATOM_COUNT>
14

> <PUBCHEM_ATOM_DEF_STEREO_COUNT>
0

> <PUBCHEM_ATOM_UDEF_STEREO_COUNT>
0

> <PUBCHEM_BOND_DEF_STEREO_COUNT>
0

> <PUBCHEM_BOND_UDEF_STEREO_COUNT>
0

> <PUBCHEM_ISOTOPIC_ATOM_COUNT>
0

> <PUBCHEM_COMPONENT_COUNT>
1

> <PUBCHEM_CACTVS_TAUTO_COUNT>
1

> <PUBCHEM_CONFORMER_ID>
000009D700000001

> <PUBCHEM_MMFF94_ENERGY>
22.901

> <PUBCHEM_FEATURE_SELFOVERLAP>
25.487

> <PUBCHEM_SHAPE_FINGERPRINT>
10967382 1 18338799025773621285
11132069 177 18339075025094499008
12524768 44 18342463625094026902
13140716 1 17978511158789908153
16945 1 18338517550775811621
193761 8 15816500986559935910
20588541 1 18339082691204868851
21501502 16 18338796715286957384
22802520 49 18128840606503503494
2334 1 18338516344016692929
23402539 116 18270382932679789735
23552423 10 18262240993325675966
23559900 14 18199193898169584358
241688 4 18266458702623303353
2748010 2 18266180539182415717
5084963 1 17698433339235542986
528886 8 18267580380709240570
53812653 166 18198902694142226312
66348 1 18339079396917369615

> <PUBCHEM_SHAPE_MULTIPOLES>
256.45
4.01
2.83
0.58
0.71
0.08
0
-0.48
0
-0.81
0
0.01
0
0

> <PUBCHEM_SHAPE_SELFOVERLAP>
550.88

> <PUBCHEM_SHAPE_VOLUME>
143.9

> <PUBCHEM_COORDINATE_TYPE>
2
5
10

> <Energy>
-122.511

> <minimizedAffinity>
-5.72608

> <CNNscore>
0.5705165267

> <CNNaffinity>
5.1383881569

> <CNN_VS>
2.9315354824

> <CNNaffinity_variance>
0.0334447064

$$$$
2519


 14 15  0  0  0  0  0  0  0  0999 V2000
    9.8822   46.3888  129.1811 O   0  0  0  0  0  0  0  0  0  0  0  0
   11.1159   42.8063  131.8418 O   0  0  0  0  0  0  0  0  0  0  0  0
   10.8360   44.8556  132.8554 N   0  0  0  0  0  0  0  0  0  0  0  0
    9.9468   48.0167  131.6886 N   0  0  0  0  0  0  0  0  0  0  0  0
   10.5018   44.5758  130.4984 N   0  0  0  0  0  0  0  0  0  0  0  0
   10.4713   47.1314  133.6608 N   0  0  0  0  0  0  0  0  0  0  0  0
   10.1990   46.6939  131.4639 C   0  0  0  0  0  0  0  0  0  0  0  0
   10.5162   46.1823  132.6850 C   0  0  0  0  0  0  0  0  0  0  0  0
   10.1705   45.9158  130.2763 C   0  0  0  0  0  0  0  0  0  0  0  0
   10.8366   44.0056  131.7464 C   0  0  0  0  0  0  0  0  0  0  0  0
   10.1237   48.2355  133.0294 C   0  0  0  0  0  0  0  0  0  0  0  0
   11.1678   44.3530  134.1773 C   0  0  0  0  0  0  0  0  0  0  0  0
    9.5663   49.0021  130.7089 C   0  0  0  0  0  0  0  0  0  0  0  0
   10.5055   43.6815  129.3567 C   0  0  0  0  0  0  0  0  0  0  0  0
  1  9  2  0
  2 10  2  0
  3  8  1  0
  3 10  1  0
  3 12  1  0
  4  7  1  0
  4 11  1  0
  4 13  1  0
  5  9  1  0
  5 10  1  0
  5 14  1  0
  6  8  1  0
  6 11  2  0
  7  8  2  0
  7  9  1  0
M  END
> <PUBCHEM_COMPOUND_CID>
2519

> <PUBCHEM_CONFORMER_RMSD>
0.4

> <PUBCHEM_CONFORMER_DIVERSEORDER>
1

> <PUBCHEM_MMFF94_PARTIAL_CHARGES>
15
1 -0.57
10 0.69
11 0.04
12 0.3
13 0.26
14 0.3
15 0.15
2 -0.57
3 -0.42
4 0.05
5 -0.42
6 -0.57
7 -0.24
8 0.29
9 0.71

> <PUBCHEM_EFFECTIVE_ROTOR_COUNT>
0

> <PUBCHEM_PHARMACOPHORE_FEATURES>
5
1 1 acceptor
1 2 acceptor
3 4 6 11 cation
5 4 6 7 8 11 rings
6 3 5 7 8 9 10 rings

> <PUBCHEM_HEAVY_ATOM_COUNT>
14

> <PUBCHEM_ATOM_DEF_STEREO_COUNT>
0

> <PUBCHEM_ATOM_UDEF_STEREO_COUNT>
0

> <PUBCHEM_BOND_DEF_STEREO_COUNT>
0

> <PUBCHEM_BOND_UDEF_STEREO_COUNT>
0

> <PUBCHEM_ISOTOPIC_ATOM_COUNT>
0

> <PUBCHEM_COMPONENT_COUNT>
1

> <PUBCHEM_CACTVS_TAUTO_COUNT>
1

> <PUBCHEM_CONFORMER_ID>
000009D700000001

> <PUBCHEM_MMFF94_ENERGY>
22.901

> <PUBCHEM_FEATURE_SELFOVERLAP>
25.487

> <PUBCHEM_SHAPE_FINGERPRINT>
10967382 1 18338799025773621285
11132069 177 18339075025094499008
12524768 44 18342463625094026902
13140716 1 17978511158789908153
16945 1 18338517550775811621
193761 8 15816500986559935910
20588541 1 18339082691204868851
21501502 16 18338796715286957384
22802520 49 18128840606503503494
2334 1 18338516344016692929
23402539 116 18270382932679789735
23552423 10 18262240993325675966
23559900 14 18199193898169584358
241688 4 18266458702623303353
2748010 2 18266180539182415717
5084963 1 17698433339235542986
528886 8 18267580380709240570
53812653 166 18198902694142226312
66348 1 18339079396917369615

> <PUBCHEM_SHAPE_MULTIPOLES>
256.45
4.01
2.83
0.58
0.71
0.08
0
-0.48
0
-0.81
0
0.01
0
0

> <PUBCHEM_SHAPE_SELFOVERLAP>
550.88

> <PUBCHEM_SHAPE_VOLUME>
143.9

> <PUBCHEM_COORDINATE_TYPE>
2
5
10

> <Energy>
-122.511

> <minimizedAffinity>
-5.69697

> <CNNscore>
0.5681149960

> <CNNaffinity>
5.0084681511

> <CNN_VS>
2.8453857899

> <CNNaffinity_variance>
0.1130109653

$$$$
2519


 14 15  0  0  0  0  0  0  0  0999 V2000
   10.4037   48.2957  132.7402 O   0  0  0  0  0  0  0  0  0  0  0  0
   10.4448   43.7791  131.7234 O   0  0  0  0  0  0  0  0  0  0  0  0
    9.1617   45.1682  130.4084 N   0  0  0  0  0  0  0  0  0  0  0  0
    8.5380   48.5969  130.4227 N   0  0  0  0  0  0  0  0  0  0  0  0
   10.4388   46.0237  132.2476 N   0  0  0  0  0  0  0  0  0  0  0  0
    7.8960   46.8617  129.1875 N   0  0  0  0  0  0  0  0  0  0  0  0
    9.1533   47.4981  130.9500 C   0  0  0  0  0  0  0  0  0  0  0  0
    8.7415   46.4569  130.1754 C   0  0  0  0  0  0  0  0  0  0  0  0
   10.0392   47.3488  132.0497 C   0  0  0  0  0  0  0  0  0  0  0  0
   10.0359   44.9163  131.4689 C   0  0  0  0  0  0  0  0  0  0  0  0
    7.7889   48.1645  129.3603 C   0  0  0  0  0  0  0  0  0  0  0  0
    8.6967   44.0879  129.5559 C   0  0  0  0  0  0  0  0  0  0  0  0
    8.6494   49.9557  130.8880 C   0  0  0  0  0  0  0  0  0  0  0  0
   11.3469   45.7473  133.3441 C   0  0  0  0  0  0  0  0  0  0  0  0
  1  9  2  0
  2 10  2  0
  3  8  1  0
  3 10  1  0
  3 12  1  0
  4  7  1  0
  4 11  1  0
  4 13  1  0
  5  9  1  0
  5 10  1  0
  5 14  1  0
  6  8  1  0
  6 11  2  0
  7  8  2  0
  7  9  1  0
M  END
> <PUBCHEM_COMPOUND_CID>
2519

> <PUBCHEM_CONFORMER_RMSD>
0.4

> <PUBCHEM_CONFORMER_DIVERSEORDER>
1

> <PUBCHEM_MMFF94_PARTIAL_CHARGES>
15
1 -0.57
10 0.69
11 0.04
12 0.3
13 0.26
14 0.3
15 0.15
2 -0.57
3 -0.42
4 0.05
5 -0.42
6 -0.57
7 -0.24
8 0.29
9 0.71

> <PUBCHEM_EFFECTIVE_ROTOR_COUNT>
0

> <PUBCHEM_PHARMACOPHORE_FEATURES>
5
1 1 acceptor
1 2 acceptor
3 4 6 11 cation
5 4 6 7 8 11 rings
6 3 5 7 8 9 10 rings

> <PUBCHEM_HEAVY_ATOM_COUNT>
14

> <PUBCHEM_ATOM_DEF_STEREO_COUNT>
0

> <PUBCHEM_ATOM_UDEF_STEREO_COUNT>
0

> <PUBCHEM_BOND_DEF_STEREO_COUNT>
0

> <PUBCHEM_BOND_UDEF_STEREO_COUNT>
0

> <PUBCHEM_ISOTOPIC_ATOM_COUNT>
0

> <PUBCHEM_COMPONENT_COUNT>
1

> <PUBCHEM_CACTVS_TAUTO_COUNT>
1

> <PUBCHEM_CONFORMER_ID>
000009D700000001

> <PUBCHEM_MMFF94_ENERGY>
22.901

> <PUBCHEM_FEATURE_SELFOVERLAP>
25.487

> <PUBCHEM_SHAPE_FINGERPRINT>
10967382 1 18338799025773621285
11132069 177 18339075025094499008
12524768 44 18342463625094026902
13140716 1 17978511158789908153
16945 1 18338517550775811621
193761 8 15816500986559935910
20588541 1 18339082691204868851
21501502 16 18338796715286957384
22802520 49 18128840606503503494
2334 1 18338516344016692929
23402539 116 18270382932679789735
23552423 10 18262240993325675966
23559900 14 18199193898169584358
241688 4 18266458702623303353
2748010 2 18266180539182415717
5084963 1 17698433339235542986
528886 8 18267580380709240570
53812653 166 18198902694142226312
66348 1 18339079396917369615

> <PUBCHEM_SHAPE_MULTIPOLES>
256.45
4.01
2.83
0.58
0.71
0.08
0
-0.48
0
-0.81
0
0.01
0
0

> <PUBCHEM_SHAPE_SELFOVERLAP>
550.88

> <PUBCHEM_SHAPE_VOLUME>
143.9

> <PUBCHEM_COORDINATE_TYPE>
2
5
10

> <Energy>
-122.511

> <minimizedAffinity>
-5.67848

> <CNNscore>
0.4653921723

> <CNNaffinity>
5.0158209801

> <CNN_VS>
2.3343238831

> <CNNaffinity_variance>
0.1428679675

$$$$
2519


 14 15  0  0  0  0  0  0  0  0999 V2000
    8.4856   45.3637  129.9064 O   0  0  0  0  0  0  0  0  0  0  0  0
   10.8307   42.2146  132.3599 O   0  0  0  0  0  0  0  0  0  0  0  0
   10.8108   44.3850  133.1308 N   0  0  0  0  0  0  0  0  0  0  0  0
    9.3579   47.3356  131.9783 N   0  0  0  0  0  0  0  0  0  0  0  0
    9.6574   43.7658  131.1229 N   0  0  0  0  0  0  0  0  0  0  0  0
   10.6216   46.7486  133.7124 N   0  0  0  0  0  0  0  0  0  0  0  0
    9.5941   45.9971  131.8492 C   0  0  0  0  0  0  0  0  0  0  0  0
   10.3672   45.6698  132.9211 C   0  0  0  0  0  0  0  0  0  0  0  0
    9.1834   45.0562  130.8681 C   0  0  0  0  0  0  0  0  0  0  0  0
   10.4603   43.3846  132.2206 C   0  0  0  0  0  0  0  0  0  0  0  0
    9.9980   47.7466  133.1176 C   0  0  0  0  0  0  0  0  0  0  0  0
   11.6336   44.0813  134.2887 C   0  0  0  0  0  0  0  0  0  0  0  0
    8.5842   48.1656  131.0907 C   0  0  0  0  0  0  0  0  0  0  0  0
    9.3007   42.7169  130.1871 C   0  0  0  0  0  0  0  0  0  0  0  0
  1  9  2  0
  2 10  2  0
  3  8  1  0
  3 10  1  0
  3 12  1  0
  4  7  1  0
  4 11  1  0
  4 13  1  0
  5  9  1  0
  5 10  1  0
  5 14  1  0
  6  8  1  0
  6 11  2  0
  7  8  2  0
  7  9  1  0
M  END
> <PUBCHEM_COMPOUND_CID>
2519

> <PUBCHEM_CONFORMER_RMSD>
0.4

> <PUBCHEM_CONFORMER_DIVERSEORDER>
1

> <PUBCHEM_MMFF94_PARTIAL_CHARGES>
15
1 -0.57
10 0.69
11 0.04
12 0.3
13 0.26
14 0.3
15 0.15
2 -0.57
3 -0.42
4 0.05
5 -0.42
6 -0.57
7 -0.24
8 0.29
9 0.71

> <PUBCHEM_EFFECTIVE_ROTOR_COUNT>
0

> <PUBCHEM_PHARMACOPHORE_FEATURES>
5
1 1 acceptor
1 2 acceptor
3 4 6 11 cation
5 4 6 7 8 11 rings
6 3 5 7 8 9 10 rings

> <PUBCHEM_HEAVY_ATOM_COUNT>
14

> <PUBCHEM_ATOM_DEF_STEREO_COUNT>
0

> <PUBCHEM_ATOM_UDEF_STEREO_COUNT>
0

> <PUBCHEM_BOND_DEF_STEREO_COUNT>
0

> <PUBCHEM_BOND_UDEF_STEREO_COUNT>
0

> <PUBCHEM_ISOTOPIC_ATOM_COUNT>
0

> <PUBCHEM_COMPONENT_COUNT>
1

> <PUBCHEM_CACTVS_TAUTO_COUNT>
1

> <PUBCHEM_CONFORMER_ID>
000009D700000001

> <PUBCHEM_MMFF94_ENERGY>
22.901

> <PUBCHEM_FEATURE_SELFOVERLAP>
25.487

> <PUBCHEM_SHAPE_FINGERPRINT>
10967382 1 18338799025773621285
11132069 177 18339075025094499008
12524768 44 18342463625094026902
13140716 1 17978511158789908153
16945 1 18338517550775811621
193761 8 15816500986559935910
20588541 1 18339082691204868851
21501502 16 18338796715286957384
22802520 49 18128840606503503494
2334 1 18338516344016692929
23402539 116 18270382932679789735
23552423 10 18262240993325675966
23559900 14 18199193898169584358
241688 4 18266458702623303353
2748010 2 18266180539182415717
5084963 1 17698433339235542986
528886 8 18267580380709240570
53812653 166 18198902694142226312
66348 1 18339079396917369615

> <PUBCHEM_SHAPE_MULTIPOLES>
256.45
4.01
2.83
0.58
0.71
0.08
0
-0.48
0
-0.81
0
0.01
0
0

> <PUBCHEM_SHAPE_SELFOVERLAP>
550.88

> <PUBCHEM_SHAPE_VOLUME>
143.9

> <PUBCHEM_COORDINATE_TYPE>
2
5
10

> <Energy>
-122.511

> <minimizedAffinity>
-5.67313

> <CNNscore>
0.4504390657

> <CNNaffinity>
4.8498077393

> <CNN_VS>
2.1845428944

> <CNNaffinity_variance>
0.1154576913

$$$$
2519


 14 15  0  0  0  0  0  0  0  0999 V2000
    9.5110   46.6402  129.3971 O   0  0  0  0  0  0  0  0  0  0  0  0
   10.5712   47.3988  133.8396 O   0  0  0  0  0  0  0  0  0  0  0  0
   10.6455   45.2294  133.0691 N   0  0  0  0  0  0  0  0  0  0  0  0
   10.0262   43.7517  129.9743 N   0  0  0  0  0  0  0  0  0  0  0  0
   10.0395   47.0441  131.6250 N   0  0  0  0  0  0  0  0  0  0  0  0
   10.6422   43.0395  131.9898 N   0  0  0  0  0  0  0  0  0  0  0  0
   10.0941   44.8581  130.7714 C   0  0  0  0  0  0  0  0  0  0  0  0
   10.4716   44.3907  131.9931 C   0  0  0  0  0  0  0  0  0  0  0  0
    9.8503   46.2311  130.5033 C   0  0  0  0  0  0  0  0  0  0  0  0
   10.4297   46.6005  132.9079 C   0  0  0  0  0  0  0  0  0  0  0  0
   10.3653   42.6766  130.7528 C   0  0  0  0  0  0  0  0  0  0  0  0
   11.0494   44.6867  134.3545 C   0  0  0  0  0  0  0  0  0  0  0  0
    9.6677   43.7126  128.5796 C   0  0  0  0  0  0  0  0  0  0  0  0
    9.8202   48.4695  131.4724 C   0  0  0  0  0  0  0  0  0  0  0  0
  1  9  2  0
  2 10  2  0
  3  8  1  0
  3 10  1  0
  3 12  1  0
  4  7  1  0
  4 11  1  0
  4 13  1  0
  5  9  1  0
  5 10  1  0
  5 14  1  0
  6  8  1  0
  6 11  2  0
  7  8  2  0
  7  9  1  0
M  END
> <PUBCHEM_COMPOUND_CID>
2519

> <PUBCHEM_CONFORMER_RMSD>
0.4

> <PUBCHEM_CONFORMER_DIVERSEORDER>
1

> <PUBCHEM_MMFF94_PARTIAL_CHARGES>
15
1 -0.57
10 0.69
11 0.04
12 0.3
13 0.26
14 0.3
15 0.15
2 -0.57
3 -0.42
4 0.05
5 -0.42
6 -0.57
7 -0.24
8 0.29
9 0.71

> <PUBCHEM_EFFECTIVE_ROTOR_COUNT>
0

> <PUBCHEM_PHARMACOPHORE_FEATURES>
5
1 1 acceptor
1 2 acceptor
3 4 6 11 cation
5 4 6 7 8 11 rings
6 3 5 7 8 9 10 rings

> <PUBCHEM_HEAVY_ATOM_COUNT>
14

> <PUBCHEM_ATOM_DEF_STEREO_COUNT>
0

> <PUBCHEM_ATOM_UDEF_STEREO_COUNT>
0

> <PUBCHEM_BOND_DEF_STEREO_COUNT>
0

> <PUBCHEM_BOND_UDEF_STEREO_COUNT>
0

> <PUBCHEM_ISOTOPIC_ATOM_COUNT>
0

> <PUBCHEM_COMPONENT_COUNT>
1

> <PUBCHEM_CACTVS_TAUTO_COUNT>
1

> <PUBCHEM_CONFORMER_ID>
000009D700000001

> <PUBCHEM_MMFF94_ENERGY>
22.901

> <PUBCHEM_FEATURE_SELFOVERLAP>
25.487

> <PUBCHEM_SHAPE_FINGERPRINT>
10967382 1 18338799025773621285
11132069 177 18339075025094499008
12524768 44 18342463625094026902
13140716 1 17978511158789908153
16945 1 18338517550775811621
193761 8 15816500986559935910
20588541 1 18339082691204868851
21501502 16 18338796715286957384
22802520 49 18128840606503503494
2334 1 18338516344016692929
23402539 116 18270382932679789735
23552423 10 18262240993325675966
23559900 14 18199193898169584358
241688 4 18266458702623303353
2748010 2 18266180539182415717
5084963 1 17698433339235542986
528886 8 18267580380709240570
53812653 166 18198902694142226312
66348 1 18339079396917369615

> <PUBCHEM_SHAPE_MULTIPOLES>
256.45
4.01
2.83
0.58
0.71
0.08
0
-0.48
0
-0.81
0
0.01
0
0

> <PUBCHEM_SHAPE_SELFOVERLAP>
550.88

> <PUBCHEM_SHAPE_VOLUME>
143.9

> <PUBCHEM_COORDINATE_TYPE>
2
5
10

> <Energy>
-122.511

> <minimizedAffinity>
-5.51193

> <CNNscore>
0.3937834203

> <CNNaffinity>
4.8583254814

> <CNN_VS>
1.9131280184

> <CNNaffinity_variance>
0.3052781224

$$$$
2519


 14 15  0  0  0  0  0  0  0  0999 V2000
    7.5894   45.3865  130.1204 O   0  0  0  0  0  0  0  0  0  0  0  0
   10.6784   46.7815  133.2744 O   0  0  0  0  0  0  0  0  0  0  0  0
    9.4778   48.3965  132.1538 N   0  0  0  0  0  0  0  0  0  0  0  0
    7.0169   48.2895  129.6886 N   0  0  0  0  0  0  0  0  0  0  0  0
    9.1463   46.0647  131.7086 N   0  0  0  0  0  0  0  0  0  0  0  0
    8.0730   49.8852  130.8231 N   0  0  0  0  0  0  0  0  0  0  0  0
    7.8873   47.6558  130.5281 C   0  0  0  0  0  0  0  0  0  0  0  0
    8.5161   48.6555  131.2054 C   0  0  0  0  0  0  0  0  0  0  0  0
    8.1638   46.2786  130.7371 C   0  0  0  0  0  0  0  0  0  0  0  0
    9.8221   47.0714  132.4329 C   0  0  0  0  0  0  0  0  0  0  0  0
    7.1639   49.6349  129.9014 C   0  0  0  0  0  0  0  0  0  0  0  0
   10.1226   49.4949  132.8523 C   0  0  0  0  0  0  0  0  0  0  0  0
    6.1123   47.6701  128.7540 C   0  0  0  0  0  0  0  0  0  0  0  0
    9.5131   44.6943  132.0095 C   0  0  0  0  0  0  0  0  0  0  0  0
  1  9  2  0
  2 10  2  0
  3  8  1  0
  3 10  1  0
  3 12  1  0
  4  7  1  0
  4 11  1  0
  4 13  1  0
  5  9  1  0
  5 10  1  0
  5 14  1  0
  6  8  1  0
  6 11  2  0
  7  8  2  0
  7  9  1  0
M  END
> <PUBCHEM_COMPOUND_CID>
2519

> <PUBCHEM_CONFORMER_RMSD>
0.4

> <PUBCHEM_CONFORMER_DIVERSEORDER>
1

> <PUBCHEM_MMFF94_PARTIAL_CHARGES>
15
1 -0.57
10 0.69
11 0.04
12 0.3
13 0.26
14 0.3
15 0.15
2 -0.57
3 -0.42
4 0.05
5 -0.42
6 -0.57
7 -0.24
8 0.29
9 0.71

> <PUBCHEM_EFFECTIVE_ROTOR_COUNT>
0

> <PUBCHEM_PHARMACOPHORE_FEATURES>
5
1 1 acceptor
1 2 acceptor
3 4 6 11 cation
5 4 6 7 8 11 rings
6 3 5 7 8 9 10 rings

> <PUBCHEM_HEAVY_ATOM_COUNT>
14

> <PUBCHEM_ATOM_DEF_STEREO_COUNT>
0

> <PUBCHEM_ATOM_UDEF_STEREO_COUNT>
0

> <PUBCHEM_BOND_DEF_STEREO_COUNT>
0

> <PUBCHEM_BOND_UDEF_STEREO_COUNT>
0

> <PUBCHEM_ISOTOPIC_ATOM_COUNT>
0

> <PUBCHEM_COMPONENT_COUNT>
1

> <PUBCHEM_CACTVS_TAUTO_COUNT>
1

> <PUBCHEM_CONFORMER_ID>
000009D700000001

> <PUBCHEM_MMFF94_ENERGY>
22.901

> <PUBCHEM_FEATURE_SELFOVERLAP>
25.487

> <PUBCHEM_SHAPE_FINGERPRINT>
10967382 1 18338799025773621285
11132069 177 18339075025094499008
12524768 44 18342463625094026902
13140716 1 17978511158789908153
16945 1 18338517550775811621
193761 8 15816500986559935910
20588541 1 18339082691204868851
21501502 16 18338796715286957384
22802520 49 18128840606503503494
2334 1 18338516344016692929
23402539 116 18270382932679789735
23552423 10 18262240993325675966
23559900 14 18199193898169584358
241688 4 18266458702623303353
2748010 2 18266180539182415717
5084963 1 17698433339235542986
528886 8 18267580380709240570
53812653 166 18198902694142226312
66348 1 18339079396917369615

> <PUBCHEM_SHAPE_MULTIPOLES>
256.45
4.01
2.83
0.58
0.71
0.08
0
-0.48
0
-0.81
0
0.01
0
0

> <PUBCHEM_SHAPE_SELFOVERLAP>
550.88

> <PUBCHEM_SHAPE_VOLUME>
143.9

> <PUBCHEM_COORDINATE_TYPE>
2
5
10

> <Energy>
-122.511

> <minimizedAffinity>
-5.64583

> <CNNscore>
0.3252309561

> <CNNaffinity>
4.4600253105

> <CNN_VS>
1.4505382776

> <CNNaffinity_variance>
0.3155505955

$$$$
2519


 14 15  0  0  0  0  0  0  0  0999 V2000
   10.8171   46.7959  133.4097 O   0  0  0  0  0  0  0  0  0  0  0  0
    8.8836   46.8682  129.2035 O   0  0  0  0  0  0  0  0  0  0  0  0
    9.4048   44.8181  130.1150 N   0  0  0  0  0  0  0  0  0  0  0  0
   10.8393   43.8188  133.1298 N   0  0  0  0  0  0  0  0  0  0  0  0
    9.8455   46.8557  131.2982 N   0  0  0  0  0  0  0  0  0  0  0  0
   10.0573   42.7952  131.3161 N   0  0  0  0  0  0  0  0  0  0  0  0
   10.4033   44.8018  132.2886 C   0  0  0  0  0  0  0  0  0  0  0  0
    9.9330   44.1457  131.1923 C   0  0  0  0  0  0  0  0  0  0  0  0
   10.3906   46.2162  132.4156 C   0  0  0  0  0  0  0  0  0  0  0  0
    9.3475   46.2139  130.1427 C   0  0  0  0  0  0  0  0  0  0  0  0
   10.6104   42.6235  132.5007 C   0  0  0  0  0  0  0  0  0  0  0  0
    8.9143   44.0768  128.9662 C   0  0  0  0  0  0  0  0  0  0  0  0
   11.4286   43.9953  134.4324 C   0  0  0  0  0  0  0  0  0  0  0  0
    9.7786   48.3043  131.3132 C   0  0  0  0  0  0  0  0  0  0  0  0
  1  9  2  0
  2 10  2  0
  3  8  1  0
  3 10  1  0
  3 12  1  0
  4  7  1  0
  4 11  1  0
  4 13  1  0
  5  9  1  0
  5 10  1  0
  5 14  1  0
  6  8  1  0
  6 11  2  0
  7  8  2  0
  7  9  1  0
M  END
> <PUBCHEM_COMPOUND_CID>
2519

> <PUBCHEM_CONFORMER_RMSD>
0.4

> <PUBCHEM_CONFORMER_DIVERSEORDER>
1

> <PUBCHEM_MMFF94_PARTIAL_CHARGES>
15
1 -0.57
10 0.69
11 0.04
12 0.3
13 0.26
14 0.3
15 0.15
2 -0.57
3 -0.42
4 0.05
5 -0.42
6 -0.57
7 -0.24
8 0.29
9 0.71

> <PUBCHEM_EFFECTIVE_ROTOR_COUNT>
0

> <PUBCHEM_PHARMACOPHORE_FEATURES>
5
1 1 acceptor
1 2 acceptor
3 4 6 11 cation
5 4 6 7 8 11 rings
6 3 5 7 8 9 10 rings

> <PUBCHEM_HEAVY_ATOM_COUNT>
14

> <PUBCHEM_ATOM_DEF_STEREO_COUNT>
0

> <PUBCHEM_ATOM_UDEF_STEREO_COUNT>
0

> <PUBCHEM_BOND_DEF_STEREO_COUNT>
0

> <PUBCHEM_BOND_UDEF_STEREO_COUNT>
0

> <PUBCHEM_ISOTOPIC_ATOM_COUNT>
0

> <PUBCHEM_COMPONENT_COUNT>
1

> <PUBCHEM_CACTVS_TAUTO_COUNT>
1

> <PUBCHEM_CONFORMER_ID>
000009D700000001

> <PUBCHEM_MMFF94_ENERGY>
22.901

> <PUBCHEM_FEATURE_SELFOVERLAP>
25.487

> <PUBCHEM_SHAPE_FINGERPRINT>
10967382 1 18338799025773621285
11132069 177 18339075025094499008
12524768 44 18342463625094026902
13140716 1 17978511158789908153
16945 1 18338517550775811621
193761 8 15816500986559935910
20588541 1 18339082691204868851
21501502 16 18338796715286957384
22802520 49 18128840606503503494
2334 1 18338516344016692929
23402539 116 18270382932679789735
23552423 10 18262240993325675966
23559900 14 18199193898169584358
241688 4 18266458702623303353
2748010 2 18266180539182415717
5084963 1 17698433339235542986
528886 8 18267580380709240570
53812653 166 18198902694142226312
66348 1 18339079396917369615

> <PUBCHEM_SHAPE_MULTIPOLES>
256.45
4.01
2.83
0.58
0.71
0.08
0
-0.48
0
-0.81
0
0.01
0
0

> <PUBCHEM_SHAPE_SELFOVERLAP>
550.88

> <PUBCHEM_SHAPE_VOLUME>
143.9

> <PUBCHEM_COORDINATE_TYPE>
2
5
10

> <Energy>
-122.511

> <minimizedAffinity>
-5.57743

> <CNNscore>
0.3092530072

> <CNNaffinity>
4.4252009392

> <CNN_VS>
1.3685066700

> <CNNaffinity_variance>
1.0051840544

$$$$
