2999413


 26 27  0  0  0  0  0  0  0  0999 V2000
   11.2721   41.6592  132.1039 O   0  0  0  0  0  0  0  0  0  0  0  0
    9.7095   47.3296  132.8015 O   0  0  0  0  0  0  0  0  0  0  0  0
   11.3326   47.8362  131.2382 O   0  0  0  0  0  0  0  0  0  0  0  0
    8.8009   50.1076  132.4469 O   0  0  0  0  0  0  0  0  0  0  0  0
    5.8242   49.8510  128.7125 O   0  0  0  0  0  0  0  0  0  0  0  0
   10.1490   42.4432  132.5048 C   0  0  0  0  0  0  0  0  0  0  0  0
    9.2753   42.7135  131.2713 C   0  0  0  0  0  0  0  0  0  0  0  0
   10.6505   43.7019  133.2293 C   0  0  0  0  0  0  0  0  0  0  0  0
   10.0161   43.3921  130.1091 C   0  0  0  0  0  0  0  0  0  0  0  0
    9.5200   44.5675  133.7910 C   0  0  0  0  0  0  0  0  0  0  0  0
    9.0595   43.8694  129.0092 C   0  0  0  0  0  0  0  0  0  0  0  0
   10.0283   45.7705  134.5962 C   0  0  0  0  0  0  0  0  0  0  0  0
    8.3466   45.1854  129.3487 C   0  0  0  0  0  0  0  0  0  0  0  0
   10.6958   46.8498  133.7320 C   0  0  0  0  0  0  0  0  0  0  0  0
    9.2461   46.4139  129.1457 C   0  0  0  0  0  0  0  0  0  0  0  0
    8.6056   47.6796  129.6727 C   0  0  0  0  0  0  0  0  0  0  0  0
   11.1628   48.0149  134.6013 C   0  0  0  0  0  0  0  0  0  0  0  0
    9.0275   48.3229  130.8555 C   0  0  0  0  0  0  0  0  0  0  0  0
   10.1789   47.8246  131.6305 C   0  0  0  0  0  0  0  0  0  0  0  0
    7.5179   48.2295  128.9709 C   0  0  0  0  0  0  0  0  0  0  0  0
    8.3713   49.4794  131.3086 C   0  0  0  0  0  0  0  0  0  0  0  0
    6.8749   49.3733  129.4393 C   0  0  0  0  0  0  0  0  0  0  0  0
    7.2894   50.0055  130.6055 C   0  0  0  0  0  0  0  0  0  0  0  0
   10.9629   40.8622  131.6455 H   0  0  0  0  0  0  0  0  0  0  0  0
    9.5275   49.7618  132.9270 H   0  0  0  0  0  0  0  0  0  0  0  0
    5.5585   49.4117  127.9287 H   0  0  0  0  0  0  0  0  0  0  0  0
  1  6  1  0
  1 24  1  0
  2 14  1  0
  2 19  1  0
  3 19  2  0
  4 21  1  0
  4 25  1  0
  5 22  1  0
  5 26  1  0
  6  7  1  0
  6  8  1  0
  7  9  1  0
  8 10  1  0
  9 11  1  0
 10 12  1  0
 11 13  1  0
 12 14  1  0
 13 15  1  0
 14 17  1  0
 15 16  1  0
 16 18  2  0
 16 20  1  0
 18 19  1  0
 18 21  1  0
 20 22  2  0
 21 23  2  0
 22 23  1  0
M  END
> <PUBCHEM_COMPOUND_CID>
2999413

> <PUBCHEM_CONFORMER_RMSD>
0.6

> <PUBCHEM_CONFORMER_DIVERSEORDER>
1
6
14
27
9
16
11
26
8
2
22
5
20
28
18
17
29
3
24
19
21
13
15
7
23
4
25
12
10

> <PUBCHEM_MMFF94_PARTIAL_CHARGES>
20
1 -0.68
14 0.28
15 0.14
16 -0.14
18 0.09
19 0.63
2 -0.43
20 -0.15
21 0.08
22 0.08
23 -0.15
3 -0.57
4 -0.53
45 0.4
46 0.15
47 0.15
48 0.45
49 0.45
5 -0.53
6 0.28

> <PUBCHEM_EFFECTIVE_ROTOR_COUNT>
2.2

> <PUBCHEM_PHARMACOPHORE_FEATURES>
6
1 1 acceptor
1 1 donor
1 3 acceptor
1 4 donor
1 5 donor
6 16 18 20 21 22 23 rings

> <PUBCHEM_HEAVY_ATOM_COUNT>
23

> <PUBCHEM_ATOM_DEF_STEREO_COUNT>
2

> <PUBCHEM_ATOM_UDEF_STEREO_COUNT>
0

> <PUBCHEM_BOND_DEF_STEREO_COUNT>
0

> <PUBCHEM_BOND_UDEF_STEREO_COUNT>
0

> <PUBCHEM_ISOTOPIC_ATOM_COUNT>
0

> <PUBCHEM_COMPONENT_COUNT>
1

> <PUBCHEM_CACTVS_TAUTO_COUNT>
25

> <PUBCHEM_CONFORMER_ID>
002DC47500000001

> <PUBCHEM_MMFF94_ENERGY>
51.6521

> <PUBCHEM_FEATURE_SELFOVERLAP>
30.446

> <PUBCHEM_SHAPE_FINGERPRINT>
104564 63 18340206271993051459
10498660 4 18187631549186102207
10577160 183 17606693423048979742
10616163 171 18266175029013727061
10759866 29 17750229218859711762
108634 29 18411143511243732574
1100329 8 17185877190433830119
11578080 2 17058915861662947194
116883 192 18412832382636582198
12011746 2 18335696144590423807
12054548 360 18337387261554875763
12156800 1 11695045847065978403
12553582 1 18337941355723699521
12788726 201 18339079272527017530
12954195 1 18196384628153038830
13402501 40 18410292523613913767
13533116 47 17911794988931237615
13941206 138 17823424798885047762
14178342 30 17618481208803059632
14251740 79 18268155262187636390
14251745 187 18265888240930317283
14251751 93 18337386020182837502
14251757 17 18340208496912958262
14251757 5 18336274478600052878
14289585 56 17025448677686211638
14363568 33 17831602116089395611
14790565 3 18338242566191680045
14931854 50 18192983829844991199
15081414 286 18267592488269592273
15210252 30 18041841838786063412
17093844 170 18338788043621724272
17357779 13 18338788026679147463
19591789 44 18410009931708134251
20775438 99 17121094438368206175
21141583 151 18411697703262438637
21634736 98 18410570674064001468
221357 26 18411697699342485711
221490 88 18411139126039522364
22393880 68 18190738627232927852
22907989 373 17973200346140242700
23379529 103 18202007594804787190
23419403 2 17703496796872386008
23559900 14 18341611543049219120
23566358 2 18411982468764321124
238 59 17976219553578124023
2871803 45 18335692832737868381
3014063 31 18410290320121227783
6287921 2 17544481216121896507

> <PUBCHEM_SHAPE_MULTIPOLES>
443.98
8.13
4.23
1.13
0.08
1.63
0.2
-3.4
-2.74
-1.52
0.36
0
0.19
0.73

> <PUBCHEM_SHAPE_SELFOVERLAP>
910.639

> <PUBCHEM_SHAPE_VOLUME>
254.2

> <PUBCHEM_COORDINATE_TYPE>
2
5
10

> <Energy>
43.3336

> <minimizedAffinity>
-7.06902

> <CNNscore>
0.6479967833

> <CNNaffinity>
7.1918148994

> <CNN_VS>
4.6602730751

> <CNNaffinity_variance>
0.4475558698

$$$$
2999413


 26 27  0  0  0  0  0  0  0  0999 V2000
   12.7446   43.3929  133.4778 O   0  0  0  0  0  0  0  0  0  0  0  0
    9.2252   45.7148  129.3178 O   0  0  0  0  0  0  0  0  0  0  0  0
    7.4505   45.1404  130.6799 O   0  0  0  0  0  0  0  0  0  0  0  0
    7.2657   47.2912  127.7869 O   0  0  0  0  0  0  0  0  0  0  0  0
    7.1669   51.4911  130.0726 O   0  0  0  0  0  0  0  0  0  0  0  0
   12.7821   44.3575  132.4266 C   0  0  0  0  0  0  0  0  0  0  0  0
   12.4203   45.7312  133.0096 C   0  0  0  0  0  0  0  0  0  0  0  0
   11.8757   43.8835  131.2801 C   0  0  0  0  0  0  0  0  0  0  0  0
   11.0639   45.7744  133.7294 C   0  0  0  0  0  0  0  0  0  0  0  0
   11.9205   44.8001  130.0550 C   0  0  0  0  0  0  0  0  0  0  0  0
   10.6310   47.2062  134.0693 C   0  0  0  0  0  0  0  0  0  0  0  0
   11.0897   44.2711  128.8786 C   0  0  0  0  0  0  0  0  0  0  0  0
   10.0423   47.9663  132.8730 C   0  0  0  0  0  0  0  0  0  0  0  0
    9.5747   44.3336  129.1197 C   0  0  0  0  0  0  0  0  0  0  0  0
    8.5907   47.5631  132.5734 C   0  0  0  0  0  0  0  0  0  0  0  0
    8.0905   48.1644  131.2780 C   0  0  0  0  0  0  0  0  0  0  0  0
    8.8194   43.8025  127.9037 C   0  0  0  0  0  0  0  0  0  0  0  0
    7.9025   47.4111  130.0997 C   0  0  0  0  0  0  0  0  0  0  0  0
    8.1285   45.9539  130.0771 C   0  0  0  0  0  0  0  0  0  0  0  0
    7.8272   49.5451  131.2309 C   0  0  0  0  0  0  0  0  0  0  0  0
    7.4641   48.0345  128.9197 C   0  0  0  0  0  0  0  0  0  0  0  0
    7.3997   50.1474  130.0495 C   0  0  0  0  0  0  0  0  0  0  0  0
    7.2166   49.4054  128.8887 C   0  0  0  0  0  0  0  0  0  0  0  0
   13.3149   43.6856  134.2057 H   0  0  0  0  0  0  0  0  0  0  0  0
    7.4293   46.3687  127.7973 H   0  0  0  0  0  0  0  0  0  0  0  0
    7.2958   51.9754  130.8643 H   0  0  0  0  0  0  0  0  0  0  0  0
  1  6  1  0
  1 24  1  0
  2 14  1  0
  2 19  1  0
  3 19  2  0
  4 21  1  0
  4 25  1  0
  5 22  1  0
  5 26  1  0
  6  7  1  0
  6  8  1  0
  7  9  1  0
  8 10  1  0
  9 11  1  0
 10 12  1  0
 11 13  1  0
 12 14  1  0
 13 15  1  0
 14 17  1  0
 15 16  1  0
 16 18  2  0
 16 20  1  0
 18 19  1  0
 18 21  1  0
 20 22  2  0
 21 23  2  0
 22 23  1  0
M  END
> <PUBCHEM_COMPOUND_CID>
2999413

> <PUBCHEM_CONFORMER_RMSD>
0.6

> <PUBCHEM_CONFORMER_DIVERSEORDER>
1
6
14
27
9
16
11
26
8
2
22
5
20
28
18
17
29
3
24
19
21
13
15
7
23
4
25
12
10

> <PUBCHEM_MMFF94_PARTIAL_CHARGES>
20
1 -0.68
14 0.28
15 0.14
16 -0.14
18 0.09
19 0.63
2 -0.43
20 -0.15
21 0.08
22 0.08
23 -0.15
3 -0.57
4 -0.53
45 0.4
46 0.15
47 0.15
48 0.45
49 0.45
5 -0.53
6 0.28

> <PUBCHEM_EFFECTIVE_ROTOR_COUNT>
2.2

> <PUBCHEM_PHARMACOPHORE_FEATURES>
6
1 1 acceptor
1 1 donor
1 3 acceptor
1 4 donor
1 5 donor
6 16 18 20 21 22 23 rings

> <PUBCHEM_HEAVY_ATOM_COUNT>
23

> <PUBCHEM_ATOM_DEF_STEREO_COUNT>
2

> <PUBCHEM_ATOM_UDEF_STEREO_COUNT>
0

> <PUBCHEM_BOND_DEF_STEREO_COUNT>
0

> <PUBCHEM_BOND_UDEF_STEREO_COUNT>
0

> <PUBCHEM_ISOTOPIC_ATOM_COUNT>
0

> <PUBCHEM_COMPONENT_COUNT>
1

> <PUBCHEM_CACTVS_TAUTO_COUNT>
25

> <PUBCHEM_CONFORMER_ID>
002DC47500000001

> <PUBCHEM_MMFF94_ENERGY>
51.6521

> <PUBCHEM_FEATURE_SELFOVERLAP>
30.446

> <PUBCHEM_SHAPE_FINGERPRINT>
104564 63 18340206271993051459
10498660 4 18187631549186102207
10577160 183 17606693423048979742
10616163 171 18266175029013727061
10759866 29 17750229218859711762
108634 29 18411143511243732574
1100329 8 17185877190433830119
11578080 2 17058915861662947194
116883 192 18412832382636582198
12011746 2 18335696144590423807
12054548 360 18337387261554875763
12156800 1 11695045847065978403
12553582 1 18337941355723699521
12788726 201 18339079272527017530
12954195 1 18196384628153038830
13402501 40 18410292523613913767
13533116 47 17911794988931237615
13941206 138 17823424798885047762
14178342 30 17618481208803059632
14251740 79 18268155262187636390
14251745 187 18265888240930317283
14251751 93 18337386020182837502
14251757 17 18340208496912958262
14251757 5 18336274478600052878
14289585 56 17025448677686211638
14363568 33 17831602116089395611
14790565 3 18338242566191680045
14931854 50 18192983829844991199
15081414 286 18267592488269592273
15210252 30 18041841838786063412
17093844 170 18338788043621724272
17357779 13 18338788026679147463
19591789 44 18410009931708134251
20775438 99 17121094438368206175
21141583 151 18411697703262438637
21634736 98 18410570674064001468
221357 26 18411697699342485711
221490 88 18411139126039522364
22393880 68 18190738627232927852
22907989 373 17973200346140242700
23379529 103 18202007594804787190
23419403 2 17703496796872386008
23559900 14 18341611543049219120
23566358 2 18411982468764321124
238 59 17976219553578124023
2871803 45 18335692832737868381
3014063 31 18410290320121227783
6287921 2 17544481216121896507

> <PUBCHEM_SHAPE_MULTIPOLES>
443.98
8.13
4.23
1.13
0.08
1.63
0.2
-3.4
-2.74
-1.52
0.36
0
0.19
0.73

> <PUBCHEM_SHAPE_SELFOVERLAP>
910.639

> <PUBCHEM_SHAPE_VOLUME>
254.2

> <PUBCHEM_COORDINATE_TYPE>
2
5
10

> <Energy>
43.3336

> <minimizedAffinity>
-8.46806

> <CNNscore>
0.5526326895

> <CNNaffinity>
6.4073357582

> <CNN_VS>
3.5409030914

> <CNNaffinity_variance>
0.1241434738

$$$$
2999413


 26 27  0  0  0  0  0  0  0  0999 V2000
   12.8575   42.6435  132.7719 O   0  0  0  0  0  0  0  0  0  0  0  0
    9.4924   47.5073  132.4535 O   0  0  0  0  0  0  0  0  0  0  0  0
   11.0104   48.3011  130.9041 O   0  0  0  0  0  0  0  0  0  0  0  0
    7.7771   49.7447  131.6049 O   0  0  0  0  0  0  0  0  0  0  0  0
    5.4208   47.9890  127.8315 O   0  0  0  0  0  0  0  0  0  0  0  0
   11.5083   43.0564  132.9864 C   0  0  0  0  0  0  0  0  0  0  0  0
   10.7189   42.8440  131.6865 C   0  0  0  0  0  0  0  0  0  0  0  0
   11.5047   44.4988  133.5158 C   0  0  0  0  0  0  0  0  0  0  0  0
   11.3114   43.5604  130.4636 C   0  0  0  0  0  0  0  0  0  0  0  0
   10.1066   45.0079  133.8749 C   0  0  0  0  0  0  0  0  0  0  0  0
   10.3643   43.5321  129.2574 C   0  0  0  0  0  0  0  0  0  0  0  0
   10.1194   46.4120  134.4933 C   0  0  0  0  0  0  0  0  0  0  0  0
    9.2361   44.5691  129.3425 C   0  0  0  0  0  0  0  0  0  0  0  0
   10.4849   47.5193  133.4945 C   0  0  0  0  0  0  0  0  0  0  0  0
    9.7075   45.9858  128.9812 C   0  0  0  0  0  0  0  0  0  0  0  0
    8.6455   47.0264  129.2626 C   0  0  0  0  0  0  0  0  0  0  0  0
   10.4648   48.8833  134.1804 C   0  0  0  0  0  0  0  0  0  0  0  0
    8.7202   47.9328  130.3414 C   0  0  0  0  0  0  0  0  0  0  0  0
    9.8894   47.9608  131.2397 C   0  0  0  0  0  0  0  0  0  0  0  0
    7.5125   47.0780  128.4308 C   0  0  0  0  0  0  0  0  0  0  0  0
    7.6858   48.8560  130.5672 C   0  0  0  0  0  0  0  0  0  0  0  0
    6.4931   47.9958  128.6745 C   0  0  0  0  0  0  0  0  0  0  0  0
    6.5661   48.8872  129.7382 C   0  0  0  0  0  0  0  0  0  0  0  0
   12.8677   41.7331  132.4374 H   0  0  0  0  0  0  0  0  0  0  0  0
    8.5257   49.7319  132.1681 H   0  0  0  0  0  0  0  0  0  0  0  0
    5.3885   47.3808  127.1195 H   0  0  0  0  0  0  0  0  0  0  0  0
  1  6  1  0
  1 24  1  0
  2 14  1  0
  2 19  1  0
  3 19  2  0
  4 21  1  0
  4 25  1  0
  5 22  1  0
  5 26  1  0
  6  7  1  0
  6  8  1  0
  7  9  1  0
  8 10  1  0
  9 11  1  0
 10 12  1  0
 11 13  1  0
 12 14  1  0
 13 15  1  0
 14 17  1  0
 15 16  1  0
 16 18  2  0
 16 20  1  0
 18 19  1  0
 18 21  1  0
 20 22  2  0
 21 23  2  0
 22 23  1  0
M  END
> <PUBCHEM_COMPOUND_CID>
2999413

> <PUBCHEM_CONFORMER_RMSD>
0.6

> <PUBCHEM_CONFORMER_DIVERSEORDER>
1
6
14
27
9
16
11
26
8
2
22
5
20
28
18
17
29
3
24
19
21
13
15
7
23
4
25
12
10

> <PUBCHEM_MMFF94_PARTIAL_CHARGES>
20
1 -0.68
14 0.28
15 0.14
16 -0.14
18 0.09
19 0.63
2 -0.43
20 -0.15
21 0.08
22 0.08
23 -0.15
3 -0.57
4 -0.53
45 0.4
46 0.15
47 0.15
48 0.45
49 0.45
5 -0.53
6 0.28

> <PUBCHEM_EFFECTIVE_ROTOR_COUNT>
2.2

> <PUBCHEM_PHARMACOPHORE_FEATURES>
6
1 1 acceptor
1 1 donor
1 3 acceptor
1 4 donor
1 5 donor
6 16 18 20 21 22 23 rings

> <PUBCHEM_HEAVY_ATOM_COUNT>
23

> <PUBCHEM_ATOM_DEF_STEREO_COUNT>
2

> <PUBCHEM_ATOM_UDEF_STEREO_COUNT>
0

> <PUBCHEM_BOND_DEF_STEREO_COUNT>
0

> <PUBCHEM_BOND_UDEF_STEREO_COUNT>
0

> <PUBCHEM_ISOTOPIC_ATOM_COUNT>
0

> <PUBCHEM_COMPONENT_COUNT>
1

> <PUBCHEM_CACTVS_TAUTO_COUNT>
25

> <PUBCHEM_CONFORMER_ID>
002DC47500000001

> <PUBCHEM_MMFF94_ENERGY>
51.6521

> <PUBCHEM_FEATURE_SELFOVERLAP>
30.446

> <PUBCHEM_SHAPE_FINGERPRINT>
104564 63 18340206271993051459
10498660 4 18187631549186102207
10577160 183 17606693423048979742
10616163 171 18266175029013727061
10759866 29 17750229218859711762
108634 29 18411143511243732574
1100329 8 17185877190433830119
11578080 2 17058915861662947194
116883 192 18412832382636582198
12011746 2 18335696144590423807
12054548 360 18337387261554875763
12156800 1 11695045847065978403
12553582 1 18337941355723699521
12788726 201 18339079272527017530
12954195 1 18196384628153038830
13402501 40 18410292523613913767
13533116 47 17911794988931237615
13941206 138 17823424798885047762
14178342 30 17618481208803059632
14251740 79 18268155262187636390
14251745 187 18265888240930317283
14251751 93 18337386020182837502
14251757 17 18340208496912958262
14251757 5 18336274478600052878
14289585 56 17025448677686211638
14363568 33 17831602116089395611
14790565 3 18338242566191680045
14931854 50 18192983829844991199
15081414 286 18267592488269592273
15210252 30 18041841838786063412
17093844 170 18338788043621724272
17357779 13 18338788026679147463
19591789 44 18410009931708134251
20775438 99 17121094438368206175
21141583 151 18411697703262438637
21634736 98 18410570674064001468
221357 26 18411697699342485711
221490 88 18411139126039522364
22393880 68 18190738627232927852
22907989 373 17973200346140242700
23379529 103 18202007594804787190
23419403 2 17703496796872386008
23559900 14 18341611543049219120
23566358 2 18411982468764321124
238 59 17976219553578124023
2871803 45 18335692832737868381
3014063 31 18410290320121227783
6287921 2 17544481216121896507

> <PUBCHEM_SHAPE_MULTIPOLES>
443.98
8.13
4.23
1.13
0.08
1.63
0.2
-3.4
-2.74
-1.52
0.36
0
0.19
0.73

> <PUBCHEM_SHAPE_SELFOVERLAP>
910.639

> <PUBCHEM_SHAPE_VOLUME>
254.2

> <PUBCHEM_COORDINATE_TYPE>
2
5
10

> <Energy>
43.3336

> <minimizedAffinity>
-7.55033

> <CNNscore>
0.4724430144

> <CNNaffinity>
6.7198271751

> <CNN_VS>
3.1747353077

> <CNNaffinity_variance>
0.3378391266

$$$$
2999413


 26 27  0  0  0  0  0  0  0  0999 V2000
    6.8298   48.5350  128.5188 O   0  0  0  0  0  0  0  0  0  0  0  0
   10.7062   44.5253  130.5132 O   0  0  0  0  0  0  0  0  0  0  0  0
   12.1772   46.2816  130.8071 O   0  0  0  0  0  0  0  0  0  0  0  0
   12.6172   42.9376  132.0930 O   0  0  0  0  0  0  0  0  0  0  0  0
   11.3090   43.7753  136.6162 O   0  0  0  0  0  0  0  0  0  0  0  0
    6.8534   47.2448  129.1282 C   0  0  0  0  0  0  0  0  0  0  0  0
    6.7779   47.4215  130.6517 C   0  0  0  0  0  0  0  0  0  0  0  0
    8.0866   46.4773  128.6274 C   0  0  0  0  0  0  0  0  0  0  0  0
    7.8824   48.3128  131.2395 C   0  0  0  0  0  0  0  0  0  0  0  0
    8.1550   45.0384  129.1448 C   0  0  0  0  0  0  0  0  0  0  0  0
    7.9215   48.2564  132.7718 C   0  0  0  0  0  0  0  0  0  0  0  0
    9.3349   44.2473  128.5650 C   0  0  0  0  0  0  0  0  0  0  0  0
    8.6157   47.0018  133.3192 C   0  0  0  0  0  0  0  0  0  0  0  0
   10.7017   44.7126  129.0871 C   0  0  0  0  0  0  0  0  0  0  0  0
   10.1474   47.0969  133.2505 C   0  0  0  0  0  0  0  0  0  0  0  0
   10.8137   45.7842  133.6009 C   0  0  0  0  0  0  0  0  0  0  0  0
   11.8200   43.8723  128.4750 C   0  0  0  0  0  0  0  0  0  0  0  0
   11.4294   44.9515  132.6425 C   0  0  0  0  0  0  0  0  0  0  0  0
   11.5150   45.3477  131.2245 C   0  0  0  0  0  0  0  0  0  0  0  0
   10.7958   45.3532  134.9396 C   0  0  0  0  0  0  0  0  0  0  0  0
   12.0047   43.7292  133.0274 C   0  0  0  0  0  0  0  0  0  0  0  0
   11.3653   44.1344  135.3016 C   0  0  0  0  0  0  0  0  0  0  0  0
   11.9699   43.3136  134.3570 C   0  0  0  0  0  0  0  0  0  0  0  0
    6.0533   49.0257  128.8305 H   0  0  0  0  0  0  0  0  0  0  0  0
   12.6459   43.2080  131.1963 H   0  0  0  0  0  0  0  0  0  0  0  0
   10.8973   44.3413  137.2392 H   0  0  0  0  0  0  0  0  0  0  0  0
  1  6  1  0
  1 24  1  0
  2 14  1  0
  2 19  1  0
  3 19  2  0
  4 21  1  0
  4 25  1  0
  5 22  1  0
  5 26  1  0
  6  7  1  0
  6  8  1  0
  7  9  1  0
  8 10  1  0
  9 11  1  0
 10 12  1  0
 11 13  1  0
 12 14  1  0
 13 15  1  0
 14 17  1  0
 15 16  1  0
 16 18  2  0
 16 20  1  0
 18 19  1  0
 18 21  1  0
 20 22  2  0
 21 23  2  0
 22 23  1  0
M  END
> <PUBCHEM_COMPOUND_CID>
2999413

> <PUBCHEM_CONFORMER_RMSD>
0.6

> <PUBCHEM_CONFORMER_DIVERSEORDER>
1
6
14
27
9
16
11
26
8
2
22
5
20
28
18
17
29
3
24
19
21
13
15
7
23
4
25
12
10

> <PUBCHEM_MMFF94_PARTIAL_CHARGES>
20
1 -0.68
14 0.28
15 0.14
16 -0.14
18 0.09
19 0.63
2 -0.43
20 -0.15
21 0.08
22 0.08
23 -0.15
3 -0.57
4 -0.53
45 0.4
46 0.15
47 0.15
48 0.45
49 0.45
5 -0.53
6 0.28

> <PUBCHEM_EFFECTIVE_ROTOR_COUNT>
2.2

> <PUBCHEM_PHARMACOPHORE_FEATURES>
6
1 1 acceptor
1 1 donor
1 3 acceptor
1 4 donor
1 5 donor
6 16 18 20 21 22 23 rings

> <PUBCHEM_HEAVY_ATOM_COUNT>
23

> <PUBCHEM_ATOM_DEF_STEREO_COUNT>
2

> <PUBCHEM_ATOM_UDEF_STEREO_COUNT>
0

> <PUBCHEM_BOND_DEF_STEREO_COUNT>
0

> <PUBCHEM_BOND_UDEF_STEREO_COUNT>
0

> <PUBCHEM_ISOTOPIC_ATOM_COUNT>
0

> <PUBCHEM_COMPONENT_COUNT>
1

> <PUBCHEM_CACTVS_TAUTO_COUNT>
25

> <PUBCHEM_CONFORMER_ID>
002DC47500000001

> <PUBCHEM_MMFF94_ENERGY>
51.6521

> <PUBCHEM_FEATURE_SELFOVERLAP>
30.446

> <PUBCHEM_SHAPE_FINGERPRINT>
104564 63 18340206271993051459
10498660 4 18187631549186102207
10577160 183 17606693423048979742
10616163 171 18266175029013727061
10759866 29 17750229218859711762
108634 29 18411143511243732574
1100329 8 17185877190433830119
11578080 2 17058915861662947194
116883 192 18412832382636582198
12011746 2 18335696144590423807
12054548 360 18337387261554875763
12156800 1 11695045847065978403
12553582 1 18337941355723699521
12788726 201 18339079272527017530
12954195 1 18196384628153038830
13402501 40 18410292523613913767
13533116 47 17911794988931237615
13941206 138 17823424798885047762
14178342 30 17618481208803059632
14251740 79 18268155262187636390
14251745 187 18265888240930317283
14251751 93 18337386020182837502
14251757 17 18340208496912958262
14251757 5 18336274478600052878
14289585 56 17025448677686211638
14363568 33 17831602116089395611
14790565 3 18338242566191680045
14931854 50 18192983829844991199
15081414 286 18267592488269592273
15210252 30 18041841838786063412
17093844 170 18338788043621724272
17357779 13 18338788026679147463
19591789 44 18410009931708134251
20775438 99 17121094438368206175
21141583 151 18411697703262438637
21634736 98 18410570674064001468
221357 26 18411697699342485711
221490 88 18411139126039522364
22393880 68 18190738627232927852
22907989 373 17973200346140242700
23379529 103 18202007594804787190
23419403 2 17703496796872386008
23559900 14 18341611543049219120
23566358 2 18411982468764321124
238 59 17976219553578124023
2871803 45 18335692832737868381
3014063 31 18410290320121227783
6287921 2 17544481216121896507

> <PUBCHEM_SHAPE_MULTIPOLES>
443.98
8.13
4.23
1.13
0.08
1.63
0.2
-3.4
-2.74
-1.52
0.36
0
0.19
0.73

> <PUBCHEM_SHAPE_SELFOVERLAP>
910.639

> <PUBCHEM_SHAPE_VOLUME>
254.2

> <PUBCHEM_COORDINATE_TYPE>
2
5
10

> <Energy>
43.3336

> <minimizedAffinity>
-0.36239

> <CNNscore>
0.3149389327

> <CNNaffinity>
5.9091887474

> <CNN_VS>
1.8610335588

> <CNNaffinity_variance>
0.1102417931

$$$$
2999413


 26 27  0  0  0  0  0  0  0  0999 V2000
   10.0980   40.9403  133.4863 O   0  0  0  0  0  0  0  0  0  0  0  0
   10.0541   45.4391  129.6340 O   0  0  0  0  0  0  0  0  0  0  0  0
    7.7493   45.3573  129.7603 O   0  0  0  0  0  0  0  0  0  0  0  0
    9.6754   48.0061  128.2426 O   0  0  0  0  0  0  0  0  0  0  0  0
    9.3777   51.1842  131.8041 O   0  0  0  0  0  0  0  0  0  0  0  0
   10.9265   42.0191  133.0546 C   0  0  0  0  0  0  0  0  0  0  0  0
   10.6516   43.2360  133.9500 C   0  0  0  0  0  0  0  0  0  0  0  0
   10.6974   42.2566  131.5540 C   0  0  0  0  0  0  0  0  0  0  0  0
    9.1792   43.6722  133.9882 C   0  0  0  0  0  0  0  0  0  0  0  0
   11.6137   43.3317  130.9647 C   0  0  0  0  0  0  0  0  0  0  0  0
    8.9918   45.0274  134.6817 C   0  0  0  0  0  0  0  0  0  0  0  0
   11.4484   43.4962  129.4483 C   0  0  0  0  0  0  0  0  0  0  0  0
    9.3433   46.2245  133.7878 C   0  0  0  0  0  0  0  0  0  0  0  0
   10.1102   44.1295  129.0418 C   0  0  0  0  0  0  0  0  0  0  0  0
    8.2350   46.5516  132.7758 C   0  0  0  0  0  0  0  0  0  0  0  0
    8.6731   47.5959  131.7721 C   0  0  0  0  0  0  0  0  0  0  0  0
   10.0265   44.2699  127.5237 C   0  0  0  0  0  0  0  0  0  0  0  0
    8.9739   47.2946  130.4268 C   0  0  0  0  0  0  0  0  0  0  0  0
    8.8174   45.9286  129.8936 C   0  0  0  0  0  0  0  0  0  0  0  0
    8.8186   48.9272  132.2016 C   0  0  0  0  0  0  0  0  0  0  0  0
    9.4051   48.3050  129.5513 C   0  0  0  0  0  0  0  0  0  0  0  0
    9.2543   49.9147  131.3207 C   0  0  0  0  0  0  0  0  0  0  0  0
    9.5523   49.6173  129.9962 C   0  0  0  0  0  0  0  0  0  0  0  0
   10.2374   40.7845  134.4335 H   0  0  0  0  0  0  0  0  0  0  0  0
    9.5797   47.1268  127.9336 H   0  0  0  0  0  0  0  0  0  0  0  0
    9.1724   51.3663  132.7000 H   0  0  0  0  0  0  0  0  0  0  0  0
  1  6  1  0
  1 24  1  0
  2 14  1  0
  2 19  1  0
  3 19  2  0
  4 21  1  0
  4 25  1  0
  5 22  1  0
  5 26  1  0
  6  7  1  0
  6  8  1  0
  7  9  1  0
  8 10  1  0
  9 11  1  0
 10 12  1  0
 11 13  1  0
 12 14  1  0
 13 15  1  0
 14 17  1  0
 15 16  1  0
 16 18  2  0
 16 20  1  0
 18 19  1  0
 18 21  1  0
 20 22  2  0
 21 23  2  0
 22 23  1  0
M  END
> <PUBCHEM_COMPOUND_CID>
2999413

> <PUBCHEM_CONFORMER_RMSD>
0.6

> <PUBCHEM_CONFORMER_DIVERSEORDER>
1
6
14
27
9
16
11
26
8
2
22
5
20
28
18
17
29
3
24
19
21
13
15
7
23
4
25
12
10

> <PUBCHEM_MMFF94_PARTIAL_CHARGES>
20
1 -0.68
14 0.28
15 0.14
16 -0.14
18 0.09
19 0.63
2 -0.43
20 -0.15
21 0.08
22 0.08
23 -0.15
3 -0.57
4 -0.53
45 0.4
46 0.15
47 0.15
48 0.45
49 0.45
5 -0.53
6 0.28

> <PUBCHEM_EFFECTIVE_ROTOR_COUNT>
2.2

> <PUBCHEM_PHARMACOPHORE_FEATURES>
6
1 1 acceptor
1 1 donor
1 3 acceptor
1 4 donor
1 5 donor
6 16 18 20 21 22 23 rings

> <PUBCHEM_HEAVY_ATOM_COUNT>
23

> <PUBCHEM_ATOM_DEF_STEREO_COUNT>
2

> <PUBCHEM_ATOM_UDEF_STEREO_COUNT>
0

> <PUBCHEM_BOND_DEF_STEREO_COUNT>
0

> <PUBCHEM_BOND_UDEF_STEREO_COUNT>
0

> <PUBCHEM_ISOTOPIC_ATOM_COUNT>
0

> <PUBCHEM_COMPONENT_COUNT>
1

> <PUBCHEM_CACTVS_TAUTO_COUNT>
25

> <PUBCHEM_CONFORMER_ID>
002DC47500000001

> <PUBCHEM_MMFF94_ENERGY>
51.6521

> <PUBCHEM_FEATURE_SELFOVERLAP>
30.446

> <PUBCHEM_SHAPE_FINGERPRINT>
104564 63 18340206271993051459
10498660 4 18187631549186102207
10577160 183 17606693423048979742
10616163 171 18266175029013727061
10759866 29 17750229218859711762
108634 29 18411143511243732574
1100329 8 17185877190433830119
11578080 2 17058915861662947194
116883 192 18412832382636582198
12011746 2 18335696144590423807
12054548 360 18337387261554875763
12156800 1 11695045847065978403
12553582 1 18337941355723699521
12788726 201 18339079272527017530
12954195 1 18196384628153038830
13402501 40 18410292523613913767
13533116 47 17911794988931237615
13941206 138 17823424798885047762
14178342 30 17618481208803059632
14251740 79 18268155262187636390
14251745 187 18265888240930317283
14251751 93 18337386020182837502
14251757 17 18340208496912958262
14251757 5 18336274478600052878
14289585 56 17025448677686211638
14363568 33 17831602116089395611
14790565 3 18338242566191680045
14931854 50 18192983829844991199
15081414 286 18267592488269592273
15210252 30 18041841838786063412
17093844 170 18338788043621724272
17357779 13 18338788026679147463
19591789 44 18410009931708134251
20775438 99 17121094438368206175
21141583 151 18411697703262438637
21634736 98 18410570674064001468
221357 26 18411697699342485711
221490 88 18411139126039522364
22393880 68 18190738627232927852
22907989 373 17973200346140242700
23379529 103 18202007594804787190
23419403 2 17703496796872386008
23559900 14 18341611543049219120
23566358 2 18411982468764321124
238 59 17976219553578124023
2871803 45 18335692832737868381
3014063 31 18410290320121227783
6287921 2 17544481216121896507

> <PUBCHEM_SHAPE_MULTIPOLES>
443.98
8.13
4.23
1.13
0.08
1.63
0.2
-3.4
-2.74
-1.52
0.36
0
0.19
0.73

> <PUBCHEM_SHAPE_SELFOVERLAP>
910.639

> <PUBCHEM_SHAPE_VOLUME>
254.2

> <PUBCHEM_COORDINATE_TYPE>
2
5
10

> <Energy>
43.3336

> <minimizedAffinity>
0.28769

> <CNNscore>
0.2762365937

> <CNNaffinity>
5.5801339149

> <CNN_VS>
1.5414371490

> <CNNaffinity_variance>
0.1636663079

$$$$
2999413


 26 27  0  0  0  0  0  0  0  0999 V2000
    6.4020   51.3422  130.2089 O   0  0  0  0  0  0  0  0  0  0  0  0
    9.9523   47.0826  132.2907 O   0  0  0  0  0  0  0  0  0  0  0  0
    8.1103   46.2818  133.4312 O   0  0  0  0  0  0  0  0  0  0  0  0
   11.2411   44.5352  133.0103 O   0  0  0  0  0  0  0  0  0  0  0  0
    9.8926   41.5637  129.5140 O   0  0  0  0  0  0  0  0  0  0  0  0
    7.6020   50.6517  129.8625 C   0  0  0  0  0  0  0  0  0  0  0  0
    7.2363   49.4422  128.9900 C   0  0  0  0  0  0  0  0  0  0  0  0
    8.3723   50.3116  131.1476 C   0  0  0  0  0  0  0  0  0  0  0  0
    6.2301   48.4782  129.6366 C   0  0  0  0  0  0  0  0  0  0  0  0
    9.7293   49.6546  130.8837 C   0  0  0  0  0  0  0  0  0  0  0  0
    6.0893   47.1697  128.8487 C   0  0  0  0  0  0  0  0  0  0  0  0
   10.5355   49.4059  132.1652 C   0  0  0  0  0  0  0  0  0  0  0  0
    7.2325   46.1778  129.1031 C   0  0  0  0  0  0  0  0  0  0  0  0
    9.9483   48.3011  133.0551 C   0  0  0  0  0  0  0  0  0  0  0  0
    7.0801   45.4302  130.4364 C   0  0  0  0  0  0  0  0  0  0  0  0
    8.3072   44.6101  130.7706 C   0  0  0  0  0  0  0  0  0  0  0  0
   10.8100   48.1058  134.3003 C   0  0  0  0  0  0  0  0  0  0  0  0
    9.2274   44.9734  131.7767 C   0  0  0  0  0  0  0  0  0  0  0  0
    9.0115   46.1643  132.6194 C   0  0  0  0  0  0  0  0  0  0  0  0
    8.5647   43.4449  130.0263 C   0  0  0  0  0  0  0  0  0  0  0  0
   10.3645   44.1849  132.0184 C   0  0  0  0  0  0  0  0  0  0  0  0
    9.7016   42.6790  130.2756 C   0  0  0  0  0  0  0  0  0  0  0  0
   10.6087   43.0382  131.2653 C   0  0  0  0  0  0  0  0  0  0  0  0
    5.9100   51.5604  129.4019 H   0  0  0  0  0  0  0  0  0  0  0  0
   11.0860   45.3044  133.5224 H   0  0  0  0  0  0  0  0  0  0  0  0
    9.2704   41.3369  128.8511 H   0  0  0  0  0  0  0  0  0  0  0  0
  1  6  1  0
  1 24  1  0
  2 14  1  0
  2 19  1  0
  3 19  2  0
  4 21  1  0
  4 25  1  0
  5 22  1  0
  5 26  1  0
  6  7  1  0
  6  8  1  0
  7  9  1  0
  8 10  1  0
  9 11  1  0
 10 12  1  0
 11 13  1  0
 12 14  1  0
 13 15  1  0
 14 17  1  0
 15 16  1  0
 16 18  2  0
 16 20  1  0
 18 19  1  0
 18 21  1  0
 20 22  2  0
 21 23  2  0
 22 23  1  0
M  END
> <PUBCHEM_COMPOUND_CID>
2999413

> <PUBCHEM_CONFORMER_RMSD>
0.6

> <PUBCHEM_CONFORMER_DIVERSEORDER>
1
6
14
27
9
16
11
26
8
2
22
5
20
28
18
17
29
3
24
19
21
13
15
7
23
4
25
12
10

> <PUBCHEM_MMFF94_PARTIAL_CHARGES>
20
1 -0.68
14 0.28
15 0.14
16 -0.14
18 0.09
19 0.63
2 -0.43
20 -0.15
21 0.08
22 0.08
23 -0.15
3 -0.57
4 -0.53
45 0.4
46 0.15
47 0.15
48 0.45
49 0.45
5 -0.53
6 0.28

> <PUBCHEM_EFFECTIVE_ROTOR_COUNT>
2.2

> <PUBCHEM_PHARMACOPHORE_FEATURES>
6
1 1 acceptor
1 1 donor
1 3 acceptor
1 4 donor
1 5 donor
6 16 18 20 21 22 23 rings

> <PUBCHEM_HEAVY_ATOM_COUNT>
23

> <PUBCHEM_ATOM_DEF_STEREO_COUNT>
2

> <PUBCHEM_ATOM_UDEF_STEREO_COUNT>
0

> <PUBCHEM_BOND_DEF_STEREO_COUNT>
0

> <PUBCHEM_BOND_UDEF_STEREO_COUNT>
0

> <PUBCHEM_ISOTOPIC_ATOM_COUNT>
0

> <PUBCHEM_COMPONENT_COUNT>
1

> <PUBCHEM_CACTVS_TAUTO_COUNT>
25

> <PUBCHEM_CONFORMER_ID>
002DC47500000001

> <PUBCHEM_MMFF94_ENERGY>
51.6521

> <PUBCHEM_FEATURE_SELFOVERLAP>
30.446

> <PUBCHEM_SHAPE_FINGERPRINT>
104564 63 18340206271993051459
10498660 4 18187631549186102207
10577160 183 17606693423048979742
10616163 171 18266175029013727061
10759866 29 17750229218859711762
108634 29 18411143511243732574
1100329 8 17185877190433830119
11578080 2 17058915861662947194
116883 192 18412832382636582198
12011746 2 18335696144590423807
12054548 360 18337387261554875763
12156800 1 11695045847065978403
12553582 1 18337941355723699521
12788726 201 18339079272527017530
12954195 1 18196384628153038830
13402501 40 18410292523613913767
13533116 47 17911794988931237615
13941206 138 17823424798885047762
14178342 30 17618481208803059632
14251740 79 18268155262187636390
14251745 187 18265888240930317283
14251751 93 18337386020182837502
14251757 17 18340208496912958262
14251757 5 18336274478600052878
14289585 56 17025448677686211638
14363568 33 17831602116089395611
14790565 3 18338242566191680045
14931854 50 18192983829844991199
15081414 286 18267592488269592273
15210252 30 18041841838786063412
17093844 170 18338788043621724272
17357779 13 18338788026679147463
19591789 44 18410009931708134251
20775438 99 17121094438368206175
21141583 151 18411697703262438637
21634736 98 18410570674064001468
221357 26 18411697699342485711
221490 88 18411139126039522364
22393880 68 18190738627232927852
22907989 373 17973200346140242700
23379529 103 18202007594804787190
23419403 2 17703496796872386008
23559900 14 18341611543049219120
23566358 2 18411982468764321124
238 59 17976219553578124023
2871803 45 18335692832737868381
3014063 31 18410290320121227783
6287921 2 17544481216121896507

> <PUBCHEM_SHAPE_MULTIPOLES>
443.98
8.13
4.23
1.13
0.08
1.63
0.2
-3.4
-2.74
-1.52
0.36
0
0.19
0.73

> <PUBCHEM_SHAPE_SELFOVERLAP>
910.639

> <PUBCHEM_SHAPE_VOLUME>
254.2

> <PUBCHEM_COORDINATE_TYPE>
2
5
10

> <Energy>
43.3336

> <minimizedAffinity>
-6.08129

> <CNNscore>
0.1953393519

> <CNNaffinity>
5.8873047829

> <CNN_VS>
1.1500222683

> <CNNaffinity_variance>
0.0060147010

$$$$
2999413


 26 27  0  0  0  0  0  0  0  0999 V2000
    5.4586   49.3388  129.2740 O   0  0  0  0  0  0  0  0  0  0  0  0
   10.1765   47.9749  132.5850 O   0  0  0  0  0  0  0  0  0  0  0  0
    8.6913   47.0492  134.0923 O   0  0  0  0  0  0  0  0  0  0  0  0
   12.2761   46.6305  134.1512 O   0  0  0  0  0  0  0  0  0  0  0  0
   12.4765   42.2510  132.2401 O   0  0  0  0  0  0  0  0  0  0  0  0
    6.8566   49.0877  129.1357 C   0  0  0  0  0  0  0  0  0  0  0  0
    7.0592   47.5932  128.8467 C   0  0  0  0  0  0  0  0  0  0  0  0
    7.5845   49.6084  130.3845 C   0  0  0  0  0  0  0  0  0  0  0  0
    6.4476   46.6576  129.9005 C   0  0  0  0  0  0  0  0  0  0  0  0
    9.1070   49.4782  130.2957 C   0  0  0  0  0  0  0  0  0  0  0  0
    6.8877   45.2006  129.7104 C   0  0  0  0  0  0  0  0  0  0  0  0
    9.8332   50.0875  131.5022 C   0  0  0  0  0  0  0  0  0  0  0  0
    8.2972   44.9137  130.2455 C   0  0  0  0  0  0  0  0  0  0  0  0
    9.6399   49.2919  132.8010 C   0  0  0  0  0  0  0  0  0  0  0  0
    8.3286   44.7586  131.7735 C   0  0  0  0  0  0  0  0  0  0  0  0
    9.7426   44.6788  132.3068 C   0  0  0  0  0  0  0  0  0  0  0  0
   10.3998   49.9528  133.9486 C   0  0  0  0  0  0  0  0  0  0  0  0
   10.3627   45.7336  133.0095 C   0  0  0  0  0  0  0  0  0  0  0  0
    9.6351   46.9770  133.3249 C   0  0  0  0  0  0  0  0  0  0  0  0
   10.4902   43.5117  132.0680 C   0  0  0  0  0  0  0  0  0  0  0  0
   11.6898   45.6090  133.4529 C   0  0  0  0  0  0  0  0  0  0  0  0
   11.8077   43.4089  132.5093 C   0  0  0  0  0  0  0  0  0  0  0  0
   12.4188   44.4488  133.1996 C   0  0  0  0  0  0  0  0  0  0  0  0
    4.9922   49.0125  128.4886 H   0  0  0  0  0  0  0  0  0  0  0  0
   11.7945   47.4149  134.3267 H   0  0  0  0  0  0  0  0  0  0  0  0
   12.0485   41.5604  131.7734 H   0  0  0  0  0  0  0  0  0  0  0  0
  1  6  1  0
  1 24  1  0
  2 14  1  0
  2 19  1  0
  3 19  2  0
  4 21  1  0
  4 25  1  0
  5 22  1  0
  5 26  1  0
  6  7  1  0
  6  8  1  0
  7  9  1  0
  8 10  1  0
  9 11  1  0
 10 12  1  0
 11 13  1  0
 12 14  1  0
 13 15  1  0
 14 17  1  0
 15 16  1  0
 16 18  2  0
 16 20  1  0
 18 19  1  0
 18 21  1  0
 20 22  2  0
 21 23  2  0
 22 23  1  0
M  END
> <PUBCHEM_COMPOUND_CID>
2999413

> <PUBCHEM_CONFORMER_RMSD>
0.6

> <PUBCHEM_CONFORMER_DIVERSEORDER>
1
6
14
27
9
16
11
26
8
2
22
5
20
28
18
17
29
3
24
19
21
13
15
7
23
4
25
12
10

> <PUBCHEM_MMFF94_PARTIAL_CHARGES>
20
1 -0.68
14 0.28
15 0.14
16 -0.14
18 0.09
19 0.63
2 -0.43
20 -0.15
21 0.08
22 0.08
23 -0.15
3 -0.57
4 -0.53
45 0.4
46 0.15
47 0.15
48 0.45
49 0.45
5 -0.53
6 0.28

> <PUBCHEM_EFFECTIVE_ROTOR_COUNT>
2.2

> <PUBCHEM_PHARMACOPHORE_FEATURES>
6
1 1 acceptor
1 1 donor
1 3 acceptor
1 4 donor
1 5 donor
6 16 18 20 21 22 23 rings

> <PUBCHEM_HEAVY_ATOM_COUNT>
23

> <PUBCHEM_ATOM_DEF_STEREO_COUNT>
2

> <PUBCHEM_ATOM_UDEF_STEREO_COUNT>
0

> <PUBCHEM_BOND_DEF_STEREO_COUNT>
0

> <PUBCHEM_BOND_UDEF_STEREO_COUNT>
0

> <PUBCHEM_ISOTOPIC_ATOM_COUNT>
0

> <PUBCHEM_COMPONENT_COUNT>
1

> <PUBCHEM_CACTVS_TAUTO_COUNT>
25

> <PUBCHEM_CONFORMER_ID>
002DC47500000001

> <PUBCHEM_MMFF94_ENERGY>
51.6521

> <PUBCHEM_FEATURE_SELFOVERLAP>
30.446

> <PUBCHEM_SHAPE_FINGERPRINT>
104564 63 18340206271993051459
10498660 4 18187631549186102207
10577160 183 17606693423048979742
10616163 171 18266175029013727061
10759866 29 17750229218859711762
108634 29 18411143511243732574
1100329 8 17185877190433830119
11578080 2 17058915861662947194
116883 192 18412832382636582198
12011746 2 18335696144590423807
12054548 360 18337387261554875763
12156800 1 11695045847065978403
12553582 1 18337941355723699521
12788726 201 18339079272527017530
12954195 1 18196384628153038830
13402501 40 18410292523613913767
13533116 47 17911794988931237615
13941206 138 17823424798885047762
14178342 30 17618481208803059632
14251740 79 18268155262187636390
14251745 187 18265888240930317283
14251751 93 18337386020182837502
14251757 17 18340208496912958262
14251757 5 18336274478600052878
14289585 56 17025448677686211638
14363568 33 17831602116089395611
14790565 3 18338242566191680045
14931854 50 18192983829844991199
15081414 286 18267592488269592273
15210252 30 18041841838786063412
17093844 170 18338788043621724272
17357779 13 18338788026679147463
19591789 44 18410009931708134251
20775438 99 17121094438368206175
21141583 151 18411697703262438637
21634736 98 18410570674064001468
221357 26 18411697699342485711
221490 88 18411139126039522364
22393880 68 18190738627232927852
22907989 373 17973200346140242700
23379529 103 18202007594804787190
23419403 2 17703496796872386008
23559900 14 18341611543049219120
23566358 2 18411982468764321124
238 59 17976219553578124023
2871803 45 18335692832737868381
3014063 31 18410290320121227783
6287921 2 17544481216121896507

> <PUBCHEM_SHAPE_MULTIPOLES>
443.98
8.13
4.23
1.13
0.08
1.63
0.2
-3.4
-2.74
-1.52
0.36
0
0.19
0.73

> <PUBCHEM_SHAPE_SELFOVERLAP>
910.639

> <PUBCHEM_SHAPE_VOLUME>
254.2

> <PUBCHEM_COORDINATE_TYPE>
2
5
10

> <Energy>
43.3336

> <minimizedAffinity>
-4.62718

> <CNNscore>
0.1891309768

> <CNNaffinity>
6.3992819786

> <CNN_VS>
1.2103024721

> <CNNaffinity_variance>
0.3657551706

$$$$
2999413


 26 27  0  0  0  0  0  0  0  0999 V2000
    5.7387   50.3153  130.0188 O   0  0  0  0  0  0  0  0  0  0  0  0
   10.3167   47.4289  132.4257 O   0  0  0  0  0  0  0  0  0  0  0  0
    8.8635   45.6652  132.7613 O   0  0  0  0  0  0  0  0  0  0  0  0
   12.4540   45.5211  133.1045 O   0  0  0  0  0  0  0  0  0  0  0  0
   13.4478   43.4110  128.9293 O   0  0  0  0  0  0  0  0  0  0  0  0
    7.1650   50.2954  129.9745 C   0  0  0  0  0  0  0  0  0  0  0  0
    7.6066   49.3503  128.8477 C   0  0  0  0  0  0  0  0  0  0  0  0
    7.7039   49.9355  131.3676 C   0  0  0  0  0  0  0  0  0  0  0  0
    7.0535   47.9222  128.9681 C   0  0  0  0  0  0  0  0  0  0  0  0
    9.2312   49.9837  131.4564 C   0  0  0  0  0  0  0  0  0  0  0  0
    7.7155   46.9564  127.9773 C   0  0  0  0  0  0  0  0  0  0  0  0
    9.7590   49.7186  132.8725 C   0  0  0  0  0  0  0  0  0  0  0  0
    9.1030   46.4777  128.4258 C   0  0  0  0  0  0  0  0  0  0  0  0
    9.5777   48.2653  133.3331 C   0  0  0  0  0  0  0  0  0  0  0  0
    9.0310   45.3804  129.4985 C   0  0  0  0  0  0  0  0  0  0  0  0
   10.3927   45.0614  130.0763 C   0  0  0  0  0  0  0  0  0  0  0  0
   10.1360   48.0794  134.7420 C   0  0  0  0  0  0  0  0  0  0  0  0
   10.7924   45.4540  131.3714 C   0  0  0  0  0  0  0  0  0  0  0  0
    9.8677   46.1588  132.2785 C   0  0  0  0  0  0  0  0  0  0  0  0
   11.3198   44.3670  129.2786 C   0  0  0  0  0  0  0  0  0  0  0  0
   12.0825   45.1533  131.8389 C   0  0  0  0  0  0  0  0  0  0  0  0
   12.5973   44.0837  129.7567 C   0  0  0  0  0  0  0  0  0  0  0  0
   12.9913   44.4722  131.0316 C   0  0  0  0  0  0  0  0  0  0  0  0
    5.3910   50.5420  129.1421 H   0  0  0  0  0  0  0  0  0  0  0  0
   11.8503   45.9795  133.6553 H   0  0  0  0  0  0  0  0  0  0  0  0
   13.1650   43.1570  128.0728 H   0  0  0  0  0  0  0  0  0  0  0  0
  1  6  1  0
  1 24  1  0
  2 14  1  0
  2 19  1  0
  3 19  2  0
  4 21  1  0
  4 25  1  0
  5 22  1  0
  5 26  1  0
  6  7  1  0
  6  8  1  0
  7  9  1  0
  8 10  1  0
  9 11  1  0
 10 12  1  0
 11 13  1  0
 12 14  1  0
 13 15  1  0
 14 17  1  0
 15 16  1  0
 16 18  2  0
 16 20  1  0
 18 19  1  0
 18 21  1  0
 20 22  2  0
 21 23  2  0
 22 23  1  0
M  END
> <PUBCHEM_COMPOUND_CID>
2999413

> <PUBCHEM_CONFORMER_RMSD>
0.6

> <PUBCHEM_CONFORMER_DIVERSEORDER>
1
6
14
27
9
16
11
26
8
2
22
5
20
28
18
17
29
3
24
19
21
13
15
7
23
4
25
12
10

> <PUBCHEM_MMFF94_PARTIAL_CHARGES>
20
1 -0.68
14 0.28
15 0.14
16 -0.14
18 0.09
19 0.63
2 -0.43
20 -0.15
21 0.08
22 0.08
23 -0.15
3 -0.57
4 -0.53
45 0.4
46 0.15
47 0.15
48 0.45
49 0.45
5 -0.53
6 0.28

> <PUBCHEM_EFFECTIVE_ROTOR_COUNT>
2.2

> <PUBCHEM_PHARMACOPHORE_FEATURES>
6
1 1 acceptor
1 1 donor
1 3 acceptor
1 4 donor
1 5 donor
6 16 18 20 21 22 23 rings

> <PUBCHEM_HEAVY_ATOM_COUNT>
23

> <PUBCHEM_ATOM_DEF_STEREO_COUNT>
2

> <PUBCHEM_ATOM_UDEF_STEREO_COUNT>
0

> <PUBCHEM_BOND_DEF_STEREO_COUNT>
0

> <PUBCHEM_BOND_UDEF_STEREO_COUNT>
0

> <PUBCHEM_ISOTOPIC_ATOM_COUNT>
0

> <PUBCHEM_COMPONENT_COUNT>
1

> <PUBCHEM_CACTVS_TAUTO_COUNT>
25

> <PUBCHEM_CONFORMER_ID>
002DC47500000001

> <PUBCHEM_MMFF94_ENERGY>
51.6521

> <PUBCHEM_FEATURE_SELFOVERLAP>
30.446

> <PUBCHEM_SHAPE_FINGERPRINT>
104564 63 18340206271993051459
10498660 4 18187631549186102207
10577160 183 17606693423048979742
10616163 171 18266175029013727061
10759866 29 17750229218859711762
108634 29 18411143511243732574
1100329 8 17185877190433830119
11578080 2 17058915861662947194
116883 192 18412832382636582198
12011746 2 18335696144590423807
12054548 360 18337387261554875763
12156800 1 11695045847065978403
12553582 1 18337941355723699521
12788726 201 18339079272527017530
12954195 1 18196384628153038830
13402501 40 18410292523613913767
13533116 47 17911794988931237615
13941206 138 17823424798885047762
14178342 30 17618481208803059632
14251740 79 18268155262187636390
14251745 187 18265888240930317283
14251751 93 18337386020182837502
14251757 17 18340208496912958262
14251757 5 18336274478600052878
14289585 56 17025448677686211638
14363568 33 17831602116089395611
14790565 3 18338242566191680045
14931854 50 18192983829844991199
15081414 286 18267592488269592273
15210252 30 18041841838786063412
17093844 170 18338788043621724272
17357779 13 18338788026679147463
19591789 44 18410009931708134251
20775438 99 17121094438368206175
21141583 151 18411697703262438637
21634736 98 18410570674064001468
221357 26 18411697699342485711
221490 88 18411139126039522364
22393880 68 18190738627232927852
22907989 373 17973200346140242700
23379529 103 18202007594804787190
23419403 2 17703496796872386008
23559900 14 18341611543049219120
23566358 2 18411982468764321124
238 59 17976219553578124023
2871803 45 18335692832737868381
3014063 31 18410290320121227783
6287921 2 17544481216121896507

> <PUBCHEM_SHAPE_MULTIPOLES>
443.98
8.13
4.23
1.13
0.08
1.63
0.2
-3.4
-2.74
-1.52
0.36
0
0.19
0.73

> <PUBCHEM_SHAPE_SELFOVERLAP>
910.639

> <PUBCHEM_SHAPE_VOLUME>
254.2

> <PUBCHEM_COORDINATE_TYPE>
2
5
10

> <Energy>
43.3336

> <minimizedAffinity>
-2.44393

> <CNNscore>
0.1658905447

> <CNNaffinity>
5.4849171638

> <CNN_VS>
0.9098958969

> <CNNaffinity_variance>
0.0080533214

$$$$
2999413


 26 27  0  0  0  0  0  0  0  0999 V2000
    7.8504   50.3879  129.0875 O   0  0  0  0  0  0  0  0  0  0  0  0
    9.5039   44.8187  130.2416 O   0  0  0  0  0  0  0  0  0  0  0  0
   11.6700   45.5148  129.8438 O   0  0  0  0  0  0  0  0  0  0  0  0
   10.7164   42.3642  131.3249 O   0  0  0  0  0  0  0  0  0  0  0  0
   11.6049   43.4684  135.8927 O   0  0  0  0  0  0  0  0  0  0  0  0
    7.4041   49.2418  129.8114 C   0  0  0  0  0  0  0  0  0  0  0  0
    7.9377   49.3322  131.2484 C   0  0  0  0  0  0  0  0  0  0  0  0
    7.8182   47.9748  129.0473 C   0  0  0  0  0  0  0  0  0  0  0  0
    9.4646   49.4686  131.3477 C   0  0  0  0  0  0  0  0  0  0  0  0
    7.3004   46.6851  129.6886 C   0  0  0  0  0  0  0  0  0  0  0  0
    9.9713   49.3004  132.7856 C   0  0  0  0  0  0  0  0  0  0  0  0
    7.6341   45.4313  128.8697 C   0  0  0  0  0  0  0  0  0  0  0  0
   10.0534   47.8358  133.2368 C   0  0  0  0  0  0  0  0  0  0  0  0
    9.1270   45.0727  128.8769 C   0  0  0  0  0  0  0  0  0  0  0  0
   11.2909   47.1150  132.6811 C   0  0  0  0  0  0  0  0  0  0  0  0
   11.2560   45.6286  132.9627 C   0  0  0  0  0  0  0  0  0  0  0  0
    9.3760   43.8117  128.0528 C   0  0  0  0  0  0  0  0  0  0  0  0
   10.9973   44.6610  131.9688 C   0  0  0  0  0  0  0  0  0  0  0  0
   10.8021   45.0442  130.5581 C   0  0  0  0  0  0  0  0  0  0  0  0
   11.4606   45.1855  134.2817 C   0  0  0  0  0  0  0  0  0  0  0  0
   10.9484   43.2968  132.3003 C   0  0  0  0  0  0  0  0  0  0  0  0
   11.4014   43.8288  134.5930 C   0  0  0  0  0  0  0  0  0  0  0  0
   11.1447   42.8762  133.6141 C   0  0  0  0  0  0  0  0  0  0  0  0
    7.5923   51.1922  129.5643 H   0  0  0  0  0  0  0  0  0  0  0  0
   10.5831   42.6367  130.4384 H   0  0  0  0  0  0  0  0  0  0  0  0
   11.7767   44.1243  136.5393 H   0  0  0  0  0  0  0  0  0  0  0  0
  1  6  1  0
  1 24  1  0
  2 14  1  0
  2 19  1  0
  3 19  2  0
  4 21  1  0
  4 25  1  0
  5 22  1  0
  5 26  1  0
  6  7  1  0
  6  8  1  0
  7  9  1  0
  8 10  1  0
  9 11  1  0
 10 12  1  0
 11 13  1  0
 12 14  1  0
 13 15  1  0
 14 17  1  0
 15 16  1  0
 16 18  2  0
 16 20  1  0
 18 19  1  0
 18 21  1  0
 20 22  2  0
 21 23  2  0
 22 23  1  0
M  END
> <PUBCHEM_COMPOUND_CID>
2999413

> <PUBCHEM_CONFORMER_RMSD>
0.6

> <PUBCHEM_CONFORMER_DIVERSEORDER>
1
6
14
27
9
16
11
26
8
2
22
5
20
28
18
17
29
3
24
19
21
13
15
7
23
4
25
12
10

> <PUBCHEM_MMFF94_PARTIAL_CHARGES>
20
1 -0.68
14 0.28
15 0.14
16 -0.14
18 0.09
19 0.63
2 -0.43
20 -0.15
21 0.08
22 0.08
23 -0.15
3 -0.57
4 -0.53
45 0.4
46 0.15
47 0.15
48 0.45
49 0.45
5 -0.53
6 0.28

> <PUBCHEM_EFFECTIVE_ROTOR_COUNT>
2.2

> <PUBCHEM_PHARMACOPHORE_FEATURES>
6
1 1 acceptor
1 1 donor
1 3 acceptor
1 4 donor
1 5 donor
6 16 18 20 21 22 23 rings

> <PUBCHEM_HEAVY_ATOM_COUNT>
23

> <PUBCHEM_ATOM_DEF_STEREO_COUNT>
2

> <PUBCHEM_ATOM_UDEF_STEREO_COUNT>
0

> <PUBCHEM_BOND_DEF_STEREO_COUNT>
0

> <PUBCHEM_BOND_UDEF_STEREO_COUNT>
0

> <PUBCHEM_ISOTOPIC_ATOM_COUNT>
0

> <PUBCHEM_COMPONENT_COUNT>
1

> <PUBCHEM_CACTVS_TAUTO_COUNT>
25

> <PUBCHEM_CONFORMER_ID>
002DC47500000001

> <PUBCHEM_MMFF94_ENERGY>
51.6521

> <PUBCHEM_FEATURE_SELFOVERLAP>
30.446

> <PUBCHEM_SHAPE_FINGERPRINT>
104564 63 18340206271993051459
10498660 4 18187631549186102207
10577160 183 17606693423048979742
10616163 171 18266175029013727061
10759866 29 17750229218859711762
108634 29 18411143511243732574
1100329 8 17185877190433830119
11578080 2 17058915861662947194
116883 192 18412832382636582198
12011746 2 18335696144590423807
12054548 360 18337387261554875763
12156800 1 11695045847065978403
12553582 1 18337941355723699521
12788726 201 18339079272527017530
12954195 1 18196384628153038830
13402501 40 18410292523613913767
13533116 47 17911794988931237615
13941206 138 17823424798885047762
14178342 30 17618481208803059632
14251740 79 18268155262187636390
14251745 187 18265888240930317283
14251751 93 18337386020182837502
14251757 17 18340208496912958262
14251757 5 18336274478600052878
14289585 56 17025448677686211638
14363568 33 17831602116089395611
14790565 3 18338242566191680045
14931854 50 18192983829844991199
15081414 286 18267592488269592273
15210252 30 18041841838786063412
17093844 170 18338788043621724272
17357779 13 18338788026679147463
19591789 44 18410009931708134251
20775438 99 17121094438368206175
21141583 151 18411697703262438637
21634736 98 18410570674064001468
221357 26 18411697699342485711
221490 88 18411139126039522364
22393880 68 18190738627232927852
22907989 373 17973200346140242700
23379529 103 18202007594804787190
23419403 2 17703496796872386008
23559900 14 18341611543049219120
23566358 2 18411982468764321124
238 59 17976219553578124023
2871803 45 18335692832737868381
3014063 31 18410290320121227783
6287921 2 17544481216121896507

> <PUBCHEM_SHAPE_MULTIPOLES>
443.98
8.13
4.23
1.13
0.08
1.63
0.2
-3.4
-2.74
-1.52
0.36
0
0.19
0.73

> <PUBCHEM_SHAPE_SELFOVERLAP>
910.639

> <PUBCHEM_SHAPE_VOLUME>
254.2

> <PUBCHEM_COORDINATE_TYPE>
2
5
10

> <Energy>
43.3336

> <minimizedAffinity>
-7.14005

> <CNNscore>
0.1608777493

> <CNNaffinity>
6.2083702087

> <CNN_VS>
0.9987886548

> <CNNaffinity_variance>
0.0293772593

$$$$
