896


 19 20  0  0  0  0  0  0  0  0999 V2000
   -5.6201   -4.9395   11.2749 N   0  0  0  0  0  0  0  0  0  0  0  0
   -7.4103   -3.8914   12.0962 C   0  0  0  0  0  0  0  0  0  0  0  0
   -6.4404   -4.0417   13.1391 C   0  0  0  0  0  0  0  0  0  0  0  0
   -5.3423   -4.7092   12.6020 C   0  0  0  0  0  0  0  0  0  0  0  0
   -6.8640   -4.4567   10.9603 C   0  0  0  0  0  0  0  0  0  0  0  0
   -6.4099   -3.6680   14.5000 C   0  0  0  0  0  0  0  0  0  0  0  0
   -4.2120   -5.0301   13.3599 C   0  0  0  0  0  0  0  0  0  0  0  0
   -5.2963   -3.9863   15.2838 C   0  0  0  0  0  0  0  0  0  0  0  0
   -4.2159   -4.6580   14.7111 C   0  0  0  0  0  0  0  0  0  0  0  0
   -5.0131   -5.3867   10.6419 H   0  0  0  0  0  0  0  0  0  0  0  0
   -5.1551   -3.6926   16.6142 O   0  0  0  0  0  0  0  0  0  0  0  0
   -3.8442   -3.8078   17.1567 C   0  0  0  0  0  0  0  0  0  0  0  0
   -8.7565   -3.2420   12.2262 C   0  0  0  0  0  0  0  0  0  0  0  0
   -9.4508   -3.0228   10.8773 C   0  0  0  0  0  0  0  0  0  0  0  0
  -10.7914   -4.2769    8.7076 O   0  0  0  0  0  0  0  0  0  0  0  0
   -8.8297   -3.7378    9.7741 N   0  0  0  0  0  0  0  0  0  0  0  0
   -9.5701   -4.3394    8.7830 C   0  0  0  0  0  0  0  0  0  0  0  0
   -8.7323   -5.0669    7.7666 C   0  0  0  0  0  0  0  0  0  0  0  0
   -7.8475   -3.7933    9.7352 H   0  0  0  0  0  0  0  0  0  0  0  0
 11  8  1  0
 11 12  1  0
 15 17  2  0
  1  4  1  0
  1  5  1  0
  1 10  1  0
 16 14  1  0
 16 17  1  0
 16 19  1  0
  2  3  1  0
  2 13  1  0
  2  5  2  0
  3  4  2  0
  3  6  1  0
 13 14  1  0
  4  7  1  0
  6  8  2  0
  7  9  2  0
  8  9  1  0
 17 18  1  0
M  END
> <PUBCHEM_COMPOUND_CID>
896

> <PUBCHEM_CONFORMER_RMSD>
0.6

> <PUBCHEM_CONFORMER_DIVERSEORDER>
1
13
50
55
28
16
42
48
27
15
62
60
65
61
36
4
20
58
41
17
59
21
2
63
47
57
40
56
22
64
54
37
51
7
31
53
26
8
49
39
32
11
5
33
38
52
23
45
43
12
14
9
34
44
35
10
25
29
46
6
30
24
3
19
18

> <PUBCHEM_MMFF94_PARTIAL_CHARGES>
22
1 -0.36
10 0.3
11 -0.15
12 -0.15
13 0.08
14 -0.15
15 0.57
16 0.06
17 0.28
2 -0.57
20 0.15
23 0.27
24 0.15
25 0.15
26 0.15
27 0.37
3 0.03
4 -0.73
5 -0.18
7 0.18
8 -0.15
9 -0.3

> <PUBCHEM_EFFECTIVE_ROTOR_COUNT>
5

> <PUBCHEM_PHARMACOPHORE_FEATURES>
7
1 1 acceptor
1 2 acceptor
1 3 cation
1 3 donor
1 4 donor
5 3 5 6 8 9 rings
6 6 8 11 12 13 14 rings

> <PUBCHEM_HEAVY_ATOM_COUNT>
17

> <PUBCHEM_ATOM_DEF_STEREO_COUNT>
0

> <PUBCHEM_ATOM_UDEF_STEREO_COUNT>
0

> <PUBCHEM_BOND_DEF_STEREO_COUNT>
0

> <PUBCHEM_BOND_UDEF_STEREO_COUNT>
0

> <PUBCHEM_ISOTOPIC_ATOM_COUNT>
0

> <PUBCHEM_COMPONENT_COUNT>
1

> <PUBCHEM_CACTVS_TAUTO_COUNT>
2

> <PUBCHEM_CONFORMER_ID>
0000038000000001

> <PUBCHEM_MMFF94_ENERGY>
32.7119

> <PUBCHEM_FEATURE_SELFOVERLAP>
35.612

> <PUBCHEM_SHAPE_FINGERPRINT>
10967382 1 18410853274190255273
11640471 11 17676780867509025316
13027679 85 18194690495324420133
13140716 1 17978229692519098697
13965767 371 16608554374032828400
1420 336 18266184924512803916
14787075 74 17896612875907719035
14790565 3 18341057316043312793
15006816 218 16754940689043299904
16945 1 18195239147136872059
19591789 44 18120376712306458779
19765921 60 17749382706469569763
20510252 161 18342458093286620745
21141583 151 18124894583888822372
21524375 3 17972887951224859043
2334 1 18410572855759727185
23419403 2 17326855944455494142
23557571 272 18201719608641642450
23559900 14 18342173410755765088
2748010 2 18337115553281152647
353137 74 18409164389875307419
44154327 71 18267028250037128041
526903 126 18410576235872810256
537710 114 18408601466050490037
7832392 63 17187566044572678455
9981440 41 18116712022929254594

> <PUBCHEM_SHAPE_MULTIPOLES>
328.15
4.94
3.77
0.97
2.92
1.2
-0.06
0.99
-1.27
-0.81
0.74
0.39
0.23
-0.66

> <PUBCHEM_SHAPE_SELFOVERLAP>
695.133

> <PUBCHEM_SHAPE_VOLUME>
185.3

> <PUBCHEM_COORDINATE_TYPE>
2
5
10

> <Energy>
0.232708

> <minimizedAffinity>
-6.78749

> <CNNscore>
0.5735833645

> <CNNaffinity>
6.0244841576

> <CNN_VS>
3.4555439949

> <CNNaffinity_variance>
0.1093797386

$$$$
896


 19 20  0  0  0  0  0  0  0  0999 V2000
  -10.1478   -3.1110   13.6250 N   0  0  0  0  0  0  0  0  0  0  0  0
   -9.3889   -2.9110   11.5365 C   0  0  0  0  0  0  0  0  0  0  0  0
   -8.3947   -3.5670   12.3316 C   0  0  0  0  0  0  0  0  0  0  0  0
   -8.8895   -3.6658   13.6297 C   0  0  0  0  0  0  0  0  0  0  0  0
  -10.4571   -2.6484   12.3721 C   0  0  0  0  0  0  0  0  0  0  0  0
   -7.1099   -4.0809   12.0527 C   0  0  0  0  0  0  0  0  0  0  0  0
   -8.1604   -4.2488   14.6708 C   0  0  0  0  0  0  0  0  0  0  0  0
   -6.3548   -4.6594   13.0778 C   0  0  0  0  0  0  0  0  0  0  0  0
   -6.8829   -4.7383   14.3667 C   0  0  0  0  0  0  0  0  0  0  0  0
  -10.7411   -3.0541   14.4084 H   0  0  0  0  0  0  0  0  0  0  0  0
   -5.0945   -5.1772   12.9366 O   0  0  0  0  0  0  0  0  0  0  0  0
   -4.7301   -5.6210   11.6342 C   0  0  0  0  0  0  0  0  0  0  0  0
   -9.2784   -2.5796   10.0774 C   0  0  0  0  0  0  0  0  0  0  0  0
   -7.9361   -2.9972    9.4663 C   0  0  0  0  0  0  0  0  0  0  0  0
   -9.7690   -4.3730    7.7854 O   0  0  0  0  0  0  0  0  0  0  0  0
   -7.8751   -4.3989    9.0850 N   0  0  0  0  0  0  0  0  0  0  0  0
   -8.8318   -4.9823    8.2870 C   0  0  0  0  0  0  0  0  0  0  0  0
   -8.6050   -6.4518    8.0560 C   0  0  0  0  0  0  0  0  0  0  0  0
   -7.1248   -4.9483    9.4083 H   0  0  0  0  0  0  0  0  0  0  0  0
 11  8  1  0
 11 12  1  0
 15 17  2  0
  1  4  1  0
  1  5  1  0
  1 10  1  0
 16 14  1  0
 16 17  1  0
 16 19  1  0
  2  3  1  0
  2 13  1  0
  2  5  2  0
  3  4  2  0
  3  6  1  0
 13 14  1  0
  4  7  1  0
  6  8  2  0
  7  9  2  0
  8  9  1  0
 17 18  1  0
M  END
> <PUBCHEM_COMPOUND_CID>
896

> <PUBCHEM_CONFORMER_RMSD>
0.6

> <PUBCHEM_CONFORMER_DIVERSEORDER>
1
13
50
55
28
16
42
48
27
15
62
60
65
61
36
4
20
58
41
17
59
21
2
63
47
57
40
56
22
64
54
37
51
7
31
53
26
8
49
39
32
11
5
33
38
52
23
45
43
12
14
9
34
44
35
10
25
29
46
6
30
24
3
19
18

> <PUBCHEM_MMFF94_PARTIAL_CHARGES>
22
1 -0.36
10 0.3
11 -0.15
12 -0.15
13 0.08
14 -0.15
15 0.57
16 0.06
17 0.28
2 -0.57
20 0.15
23 0.27
24 0.15
25 0.15
26 0.15
27 0.37
3 0.03
4 -0.73
5 -0.18
7 0.18
8 -0.15
9 -0.3

> <PUBCHEM_EFFECTIVE_ROTOR_COUNT>
5

> <PUBCHEM_PHARMACOPHORE_FEATURES>
7
1 1 acceptor
1 2 acceptor
1 3 cation
1 3 donor
1 4 donor
5 3 5 6 8 9 rings
6 6 8 11 12 13 14 rings

> <PUBCHEM_HEAVY_ATOM_COUNT>
17

> <PUBCHEM_ATOM_DEF_STEREO_COUNT>
0

> <PUBCHEM_ATOM_UDEF_STEREO_COUNT>
0

> <PUBCHEM_BOND_DEF_STEREO_COUNT>
0

> <PUBCHEM_BOND_UDEF_STEREO_COUNT>
0

> <PUBCHEM_ISOTOPIC_ATOM_COUNT>
0

> <PUBCHEM_COMPONENT_COUNT>
1

> <PUBCHEM_CACTVS_TAUTO_COUNT>
2

> <PUBCHEM_CONFORMER_ID>
0000038000000001

> <PUBCHEM_MMFF94_ENERGY>
32.7119

> <PUBCHEM_FEATURE_SELFOVERLAP>
35.612

> <PUBCHEM_SHAPE_FINGERPRINT>
10967382 1 18410853274190255273
11640471 11 17676780867509025316
13027679 85 18194690495324420133
13140716 1 17978229692519098697
13965767 371 16608554374032828400
1420 336 18266184924512803916
14787075 74 17896612875907719035
14790565 3 18341057316043312793
15006816 218 16754940689043299904
16945 1 18195239147136872059
19591789 44 18120376712306458779
19765921 60 17749382706469569763
20510252 161 18342458093286620745
21141583 151 18124894583888822372
21524375 3 17972887951224859043
2334 1 18410572855759727185
23419403 2 17326855944455494142
23557571 272 18201719608641642450
23559900 14 18342173410755765088
2748010 2 18337115553281152647
353137 74 18409164389875307419
44154327 71 18267028250037128041
526903 126 18410576235872810256
537710 114 18408601466050490037
7832392 63 17187566044572678455
9981440 41 18116712022929254594

> <PUBCHEM_SHAPE_MULTIPOLES>
328.15
4.94
3.77
0.97
2.92
1.2
-0.06
0.99
-1.27
-0.81
0.74
0.39
0.23
-0.66

> <PUBCHEM_SHAPE_SELFOVERLAP>
695.133

> <PUBCHEM_SHAPE_VOLUME>
185.3

> <PUBCHEM_COORDINATE_TYPE>
2
5
10

> <Energy>
0.232708

> <minimizedAffinity>
-6.78137

> <CNNscore>
0.5484585762

> <CNNaffinity>
6.2441773415

> <CNN_VS>
3.4246726036

> <CNNaffinity_variance>
0.1169121042

$$$$
896


 19 20  0  0  0  0  0  0  0  0999 V2000
  -10.0969   -3.3322   13.4573 N   0  0  0  0  0  0  0  0  0  0  0  0
   -8.8513   -2.3019   11.9195 C   0  0  0  0  0  0  0  0  0  0  0  0
   -7.9925   -3.0456   12.7914 C   0  0  0  0  0  0  0  0  0  0  0  0
   -8.7944   -3.6657   13.7464 C   0  0  0  0  0  0  0  0  0  0  0  0
  -10.1433   -2.5074   12.3632 C   0  0  0  0  0  0  0  0  0  0  0  0
   -6.5951   -3.2375   12.8486 C   0  0  0  0  0  0  0  0  0  0  0  0
   -8.2691   -4.4667   14.7650 C   0  0  0  0  0  0  0  0  0  0  0  0
   -6.0423   -4.0249   13.8634 C   0  0  0  0  0  0  0  0  0  0  0  0
   -6.8775   -4.6282   14.8041 C   0  0  0  0  0  0  0  0  0  0  0  0
  -10.8828   -3.6412   13.9631 H   0  0  0  0  0  0  0  0  0  0  0  0
   -4.7059   -4.2725   14.0336 O   0  0  0  0  0  0  0  0  0  0  0  0
   -4.3201   -4.8675   15.2678 C   0  0  0  0  0  0  0  0  0  0  0  0
   -8.4177   -1.4652   10.7520 C   0  0  0  0  0  0  0  0  0  0  0  0
   -8.8585   -2.0426    9.4022 C   0  0  0  0  0  0  0  0  0  0  0  0
  -10.0475   -4.2206    8.0165 O   0  0  0  0  0  0  0  0  0  0  0  0
   -8.2214   -3.3060    9.0677 N   0  0  0  0  0  0  0  0  0  0  0  0
   -8.8939   -4.3151    8.4182 C   0  0  0  0  0  0  0  0  0  0  0  0
   -8.0643   -5.5539    8.2143 C   0  0  0  0  0  0  0  0  0  0  0  0
   -7.2781   -3.4437    9.3140 H   0  0  0  0  0  0  0  0  0  0  0  0
 11  8  1  0
 11 12  1  0
 15 17  2  0
  1  4  1  0
  1  5  1  0
  1 10  1  0
 16 14  1  0
 16 17  1  0
 16 19  1  0
  2  3  1  0
  2 13  1  0
  2  5  2  0
  3  4  2  0
  3  6  1  0
 13 14  1  0
  4  7  1  0
  6  8  2  0
  7  9  2  0
  8  9  1  0
 17 18  1  0
M  END
> <PUBCHEM_COMPOUND_CID>
896

> <PUBCHEM_CONFORMER_RMSD>
0.6

> <PUBCHEM_CONFORMER_DIVERSEORDER>
1
13
50
55
28
16
42
48
27
15
62
60
65
61
36
4
20
58
41
17
59
21
2
63
47
57
40
56
22
64
54
37
51
7
31
53
26
8
49
39
32
11
5
33
38
52
23
45
43
12
14
9
34
44
35
10
25
29
46
6
30
24
3
19
18

> <PUBCHEM_MMFF94_PARTIAL_CHARGES>
22
1 -0.36
10 0.3
11 -0.15
12 -0.15
13 0.08
14 -0.15
15 0.57
16 0.06
17 0.28
2 -0.57
20 0.15
23 0.27
24 0.15
25 0.15
26 0.15
27 0.37
3 0.03
4 -0.73
5 -0.18
7 0.18
8 -0.15
9 -0.3

> <PUBCHEM_EFFECTIVE_ROTOR_COUNT>
5

> <PUBCHEM_PHARMACOPHORE_FEATURES>
7
1 1 acceptor
1 2 acceptor
1 3 cation
1 3 donor
1 4 donor
5 3 5 6 8 9 rings
6 6 8 11 12 13 14 rings

> <PUBCHEM_HEAVY_ATOM_COUNT>
17

> <PUBCHEM_ATOM_DEF_STEREO_COUNT>
0

> <PUBCHEM_ATOM_UDEF_STEREO_COUNT>
0

> <PUBCHEM_BOND_DEF_STEREO_COUNT>
0

> <PUBCHEM_BOND_UDEF_STEREO_COUNT>
0

> <PUBCHEM_ISOTOPIC_ATOM_COUNT>
0

> <PUBCHEM_COMPONENT_COUNT>
1

> <PUBCHEM_CACTVS_TAUTO_COUNT>
2

> <PUBCHEM_CONFORMER_ID>
0000038000000001

> <PUBCHEM_MMFF94_ENERGY>
32.7119

> <PUBCHEM_FEATURE_SELFOVERLAP>
35.612

> <PUBCHEM_SHAPE_FINGERPRINT>
10967382 1 18410853274190255273
11640471 11 17676780867509025316
13027679 85 18194690495324420133
13140716 1 17978229692519098697
13965767 371 16608554374032828400
1420 336 18266184924512803916
14787075 74 17896612875907719035
14790565 3 18341057316043312793
15006816 218 16754940689043299904
16945 1 18195239147136872059
19591789 44 18120376712306458779
19765921 60 17749382706469569763
20510252 161 18342458093286620745
21141583 151 18124894583888822372
21524375 3 17972887951224859043
2334 1 18410572855759727185
23419403 2 17326855944455494142
23557571 272 18201719608641642450
23559900 14 18342173410755765088
2748010 2 18337115553281152647
353137 74 18409164389875307419
44154327 71 18267028250037128041
526903 126 18410576235872810256
537710 114 18408601466050490037
7832392 63 17187566044572678455
9981440 41 18116712022929254594

> <PUBCHEM_SHAPE_MULTIPOLES>
328.15
4.94
3.77
0.97
2.92
1.2
-0.06
0.99
-1.27
-0.81
0.74
0.39
0.23
-0.66

> <PUBCHEM_SHAPE_SELFOVERLAP>
695.133

> <PUBCHEM_SHAPE_VOLUME>
185.3

> <PUBCHEM_COORDINATE_TYPE>
2
5
10

> <Energy>
0.232708

> <minimizedAffinity>
-7.09135

> <CNNscore>
0.5213664174

> <CNNaffinity>
6.1958546638

> <CNN_VS>
3.2303104401

> <CNNaffinity_variance>
0.2483964115

$$$$
896


 19 20  0  0  0  0  0  0  0  0999 V2000
   -6.6538   -3.1646   13.4705 N   0  0  0  0  0  0  0  0  0  0  0  0
   -8.5392   -4.0246   12.6436 C   0  0  0  0  0  0  0  0  0  0  0  0
   -7.4574   -4.9200   12.3628 C   0  0  0  0  0  0  0  0  0  0  0  0
   -6.2944   -4.3523   12.8777 C   0  0  0  0  0  0  0  0  0  0  0  0
   -8.0013   -2.9540   13.3313 C   0  0  0  0  0  0  0  0  0  0  0  0
   -7.3724   -6.1670   11.7067 C   0  0  0  0  0  0  0  0  0  0  0  0
   -5.0433   -4.9663   12.7646 C   0  0  0  0  0  0  0  0  0  0  0  0
   -6.1319   -6.7978   11.5701 C   0  0  0  0  0  0  0  0  0  0  0  0
   -4.9881   -6.1971   12.0968 C   0  0  0  0  0  0  0  0  0  0  0  0
   -6.0329   -2.5535   13.9289 H   0  0  0  0  0  0  0  0  0  0  0  0
   -5.9187   -7.9969   10.9432 O   0  0  0  0  0  0  0  0  0  0  0  0
   -6.9655   -8.4722   10.1038 C   0  0  0  0  0  0  0  0  0  0  0  0
   -9.9757   -4.2238   12.2594 C   0  0  0  0  0  0  0  0  0  0  0  0
  -10.3525   -3.5147   10.9537 C   0  0  0  0  0  0  0  0  0  0  0  0
  -10.4548   -5.7653    9.2212 O   0  0  0  0  0  0  0  0  0  0  0  0
   -9.4496   -3.7979    9.8499 N   0  0  0  0  0  0  0  0  0  0  0  0
   -9.5639   -4.9353    9.0847 C   0  0  0  0  0  0  0  0  0  0  0  0
   -8.4991   -5.0567    8.0283 C   0  0  0  0  0  0  0  0  0  0  0  0
   -8.7332   -3.1549    9.6434 H   0  0  0  0  0  0  0  0  0  0  0  0
 11  8  1  0
 11 12  1  0
 15 17  2  0
  1  4  1  0
  1  5  1  0
  1 10  1  0
 16 14  1  0
 16 17  1  0
 16 19  1  0
  2  3  1  0
  2 13  1  0
  2  5  2  0
  3  4  2  0
  3  6  1  0
 13 14  1  0
  4  7  1  0
  6  8  2  0
  7  9  2  0
  8  9  1  0
 17 18  1  0
M  END
> <PUBCHEM_COMPOUND_CID>
896

> <PUBCHEM_CONFORMER_RMSD>
0.6

> <PUBCHEM_CONFORMER_DIVERSEORDER>
1
13
50
55
28
16
42
48
27
15
62
60
65
61
36
4
20
58
41
17
59
21
2
63
47
57
40
56
22
64
54
37
51
7
31
53
26
8
49
39
32
11
5
33
38
52
23
45
43
12
14
9
34
44
35
10
25
29
46
6
30
24
3
19
18

> <PUBCHEM_MMFF94_PARTIAL_CHARGES>
22
1 -0.36
10 0.3
11 -0.15
12 -0.15
13 0.08
14 -0.15
15 0.57
16 0.06
17 0.28
2 -0.57
20 0.15
23 0.27
24 0.15
25 0.15
26 0.15
27 0.37
3 0.03
4 -0.73
5 -0.18
7 0.18
8 -0.15
9 -0.3

> <PUBCHEM_EFFECTIVE_ROTOR_COUNT>
5

> <PUBCHEM_PHARMACOPHORE_FEATURES>
7
1 1 acceptor
1 2 acceptor
1 3 cation
1 3 donor
1 4 donor
5 3 5 6 8 9 rings
6 6 8 11 12 13 14 rings

> <PUBCHEM_HEAVY_ATOM_COUNT>
17

> <PUBCHEM_ATOM_DEF_STEREO_COUNT>
0

> <PUBCHEM_ATOM_UDEF_STEREO_COUNT>
0

> <PUBCHEM_BOND_DEF_STEREO_COUNT>
0

> <PUBCHEM_BOND_UDEF_STEREO_COUNT>
0

> <PUBCHEM_ISOTOPIC_ATOM_COUNT>
0

> <PUBCHEM_COMPONENT_COUNT>
1

> <PUBCHEM_CACTVS_TAUTO_COUNT>
2

> <PUBCHEM_CONFORMER_ID>
0000038000000001

> <PUBCHEM_MMFF94_ENERGY>
32.7119

> <PUBCHEM_FEATURE_SELFOVERLAP>
35.612

> <PUBCHEM_SHAPE_FINGERPRINT>
10967382 1 18410853274190255273
11640471 11 17676780867509025316
13027679 85 18194690495324420133
13140716 1 17978229692519098697
13965767 371 16608554374032828400
1420 336 18266184924512803916
14787075 74 17896612875907719035
14790565 3 18341057316043312793
15006816 218 16754940689043299904
16945 1 18195239147136872059
19591789 44 18120376712306458779
19765921 60 17749382706469569763
20510252 161 18342458093286620745
21141583 151 18124894583888822372
21524375 3 17972887951224859043
2334 1 18410572855759727185
23419403 2 17326855944455494142
23557571 272 18201719608641642450
23559900 14 18342173410755765088
2748010 2 18337115553281152647
353137 74 18409164389875307419
44154327 71 18267028250037128041
526903 126 18410576235872810256
537710 114 18408601466050490037
7832392 63 17187566044572678455
9981440 41 18116712022929254594

> <PUBCHEM_SHAPE_MULTIPOLES>
328.15
4.94
3.77
0.97
2.92
1.2
-0.06
0.99
-1.27
-0.81
0.74
0.39
0.23
-0.66

> <PUBCHEM_SHAPE_SELFOVERLAP>
695.133

> <PUBCHEM_SHAPE_VOLUME>
185.3

> <PUBCHEM_COORDINATE_TYPE>
2
5
10

> <Energy>
0.232708

> <minimizedAffinity>
-6.07336

> <CNNscore>
0.5021131635

> <CNNaffinity>
6.4650692940

> <CNN_VS>
3.2461965084

> <CNNaffinity_variance>
0.1558418423

$$$$
896


 19 20  0  0  0  0  0  0  0  0999 V2000
   -6.0392   -4.0754   16.3227 N   0  0  0  0  0  0  0  0  0  0  0  0
   -7.6842   -4.1507   14.8173 C   0  0  0  0  0  0  0  0  0  0  0  0
   -6.4643   -4.5682   14.1941 C   0  0  0  0  0  0  0  0  0  0  0  0
   -5.4553   -4.4986   15.1516 C   0  0  0  0  0  0  0  0  0  0  0  0
   -7.3792   -3.8576   16.1324 C   0  0  0  0  0  0  0  0  0  0  0  0
   -6.1353   -4.9954   12.8896 C   0  0  0  0  0  0  0  0  0  0  0  0
   -4.1262   -4.8293   14.8699 C   0  0  0  0  0  0  0  0  0  0  0  0
   -4.8117   -5.3218   12.5778 C   0  0  0  0  0  0  0  0  0  0  0  0
   -3.8274   -5.2374   13.5629 C   0  0  0  0  0  0  0  0  0  0  0  0
   -5.5634   -3.9473   17.1749 H   0  0  0  0  0  0  0  0  0  0  0  0
   -4.3664   -5.7325   11.3492 O   0  0  0  0  0  0  0  0  0  0  0  0
   -5.3389   -6.2919   10.4732 C   0  0  0  0  0  0  0  0  0  0  0  0
   -9.0280   -4.0553   14.1570 C   0  0  0  0  0  0  0  0  0  0  0  0
   -8.9703   -4.2792   12.6417 C   0  0  0  0  0  0  0  0  0  0  0  0
   -9.0973   -4.0341    9.8130 O   0  0  0  0  0  0  0  0  0  0  0  0
   -8.8212   -3.0546   11.8723 N   0  0  0  0  0  0  0  0  0  0  0  0
   -8.8688   -3.0440   10.4976 C   0  0  0  0  0  0  0  0  0  0  0  0
   -8.6422   -1.6815    9.9004 C   0  0  0  0  0  0  0  0  0  0  0  0
   -8.6817   -2.2055   12.3507 H   0  0  0  0  0  0  0  0  0  0  0  0
 11  8  1  0
 11 12  1  0
 15 17  2  0
  1  4  1  0
  1  5  1  0
  1 10  1  0
 16 14  1  0
 16 17  1  0
 16 19  1  0
  2  3  1  0
  2 13  1  0
  2  5  2  0
  3  4  2  0
  3  6  1  0
 13 14  1  0
  4  7  1  0
  6  8  2  0
  7  9  2  0
  8  9  1  0
 17 18  1  0
M  END
> <PUBCHEM_COMPOUND_CID>
896

> <PUBCHEM_CONFORMER_RMSD>
0.6

> <PUBCHEM_CONFORMER_DIVERSEORDER>
1
13
50
55
28
16
42
48
27
15
62
60
65
61
36
4
20
58
41
17
59
21
2
63
47
57
40
56
22
64
54
37
51
7
31
53
26
8
49
39
32
11
5
33
38
52
23
45
43
12
14
9
34
44
35
10
25
29
46
6
30
24
3
19
18

> <PUBCHEM_MMFF94_PARTIAL_CHARGES>
22
1 -0.36
10 0.3
11 -0.15
12 -0.15
13 0.08
14 -0.15
15 0.57
16 0.06
17 0.28
2 -0.57
20 0.15
23 0.27
24 0.15
25 0.15
26 0.15
27 0.37
3 0.03
4 -0.73
5 -0.18
7 0.18
8 -0.15
9 -0.3

> <PUBCHEM_EFFECTIVE_ROTOR_COUNT>
5

> <PUBCHEM_PHARMACOPHORE_FEATURES>
7
1 1 acceptor
1 2 acceptor
1 3 cation
1 3 donor
1 4 donor
5 3 5 6 8 9 rings
6 6 8 11 12 13 14 rings

> <PUBCHEM_HEAVY_ATOM_COUNT>
17

> <PUBCHEM_ATOM_DEF_STEREO_COUNT>
0

> <PUBCHEM_ATOM_UDEF_STEREO_COUNT>
0

> <PUBCHEM_BOND_DEF_STEREO_COUNT>
0

> <PUBCHEM_BOND_UDEF_STEREO_COUNT>
0

> <PUBCHEM_ISOTOPIC_ATOM_COUNT>
0

> <PUBCHEM_COMPONENT_COUNT>
1

> <PUBCHEM_CACTVS_TAUTO_COUNT>
2

> <PUBCHEM_CONFORMER_ID>
0000038000000001

> <PUBCHEM_MMFF94_ENERGY>
32.7119

> <PUBCHEM_FEATURE_SELFOVERLAP>
35.612

> <PUBCHEM_SHAPE_FINGERPRINT>
10967382 1 18410853274190255273
11640471 11 17676780867509025316
13027679 85 18194690495324420133
13140716 1 17978229692519098697
13965767 371 16608554374032828400
1420 336 18266184924512803916
14787075 74 17896612875907719035
14790565 3 18341057316043312793
15006816 218 16754940689043299904
16945 1 18195239147136872059
19591789 44 18120376712306458779
19765921 60 17749382706469569763
20510252 161 18342458093286620745
21141583 151 18124894583888822372
21524375 3 17972887951224859043
2334 1 18410572855759727185
23419403 2 17326855944455494142
23557571 272 18201719608641642450
23559900 14 18342173410755765088
2748010 2 18337115553281152647
353137 74 18409164389875307419
44154327 71 18267028250037128041
526903 126 18410576235872810256
537710 114 18408601466050490037
7832392 63 17187566044572678455
9981440 41 18116712022929254594

> <PUBCHEM_SHAPE_MULTIPOLES>
328.15
4.94
3.77
0.97
2.92
1.2
-0.06
0.99
-1.27
-0.81
0.74
0.39
0.23
-0.66

> <PUBCHEM_SHAPE_SELFOVERLAP>
695.133

> <PUBCHEM_SHAPE_VOLUME>
185.3

> <PUBCHEM_COORDINATE_TYPE>
2
5
10

> <Energy>
0.232708

> <minimizedAffinity>
-6.05419

> <CNNscore>
0.4511187077

> <CNNaffinity>
6.7930932045

> <CNN_VS>
3.0644915104

> <CNNaffinity_variance>
1.1053051949

$$$$
896


 19 20  0  0  0  0  0  0  0  0999 V2000
  -10.7878   -3.3637   11.7062 N   0  0  0  0  0  0  0  0  0  0  0  0
   -9.1721   -4.0158   13.1000 C   0  0  0  0  0  0  0  0  0  0  0  0
   -9.0438   -4.7371   11.8695 C   0  0  0  0  0  0  0  0  0  0  0  0
  -10.0707   -4.3201   11.0261 C   0  0  0  0  0  0  0  0  0  0  0  0
  -10.2597   -3.1760   12.9574 C   0  0  0  0  0  0  0  0  0  0  0  0
   -8.1388   -5.7163   11.4061 C   0  0  0  0  0  0  0  0  0  0  0  0
  -10.2450   -4.8384    9.7392 C   0  0  0  0  0  0  0  0  0  0  0  0
   -8.2966   -6.2594   10.1272 C   0  0  0  0  0  0  0  0  0  0  0  0
   -9.3391   -5.8184    9.3117 C   0  0  0  0  0  0  0  0  0  0  0  0
  -11.5679   -2.8831   11.3465 H   0  0  0  0  0  0  0  0  0  0  0  0
   -7.4962   -7.2226    9.5723 O   0  0  0  0  0  0  0  0  0  0  0  0
   -6.8580   -8.1189   10.4754 C   0  0  0  0  0  0  0  0  0  0  0  0
   -8.2879   -4.1549   14.3041 C   0  0  0  0  0  0  0  0  0  0  0  0
   -6.9003   -3.5347   14.1055 C   0  0  0  0  0  0  0  0  0  0  0  0
   -5.8845   -3.1330   16.7293 O   0  0  0  0  0  0  0  0  0  0  0  0
   -5.8268   -4.2816   14.7409 N   0  0  0  0  0  0  0  0  0  0  0  0
   -5.3845   -3.9899   16.0104 C   0  0  0  0  0  0  0  0  0  0  0  0
   -4.2336   -4.8505   16.4568 C   0  0  0  0  0  0  0  0  0  0  0  0
   -5.4028   -5.0200   14.2467 H   0  0  0  0  0  0  0  0  0  0  0  0
 11  8  1  0
 11 12  1  0
 15 17  2  0
  1  4  1  0
  1  5  1  0
  1 10  1  0
 16 14  1  0
 16 17  1  0
 16 19  1  0
  2  3  1  0
  2 13  1  0
  2  5  2  0
  3  4  2  0
  3  6  1  0
 13 14  1  0
  4  7  1  0
  6  8  2  0
  7  9  2  0
  8  9  1  0
 17 18  1  0
M  END
> <PUBCHEM_COMPOUND_CID>
896

> <PUBCHEM_CONFORMER_RMSD>
0.6

> <PUBCHEM_CONFORMER_DIVERSEORDER>
1
13
50
55
28
16
42
48
27
15
62
60
65
61
36
4
20
58
41
17
59
21
2
63
47
57
40
56
22
64
54
37
51
7
31
53
26
8
49
39
32
11
5
33
38
52
23
45
43
12
14
9
34
44
35
10
25
29
46
6
30
24
3
19
18

> <PUBCHEM_MMFF94_PARTIAL_CHARGES>
22
1 -0.36
10 0.3
11 -0.15
12 -0.15
13 0.08
14 -0.15
15 0.57
16 0.06
17 0.28
2 -0.57
20 0.15
23 0.27
24 0.15
25 0.15
26 0.15
27 0.37
3 0.03
4 -0.73
5 -0.18
7 0.18
8 -0.15
9 -0.3

> <PUBCHEM_EFFECTIVE_ROTOR_COUNT>
5

> <PUBCHEM_PHARMACOPHORE_FEATURES>
7
1 1 acceptor
1 2 acceptor
1 3 cation
1 3 donor
1 4 donor
5 3 5 6 8 9 rings
6 6 8 11 12 13 14 rings

> <PUBCHEM_HEAVY_ATOM_COUNT>
17

> <PUBCHEM_ATOM_DEF_STEREO_COUNT>
0

> <PUBCHEM_ATOM_UDEF_STEREO_COUNT>
0

> <PUBCHEM_BOND_DEF_STEREO_COUNT>
0

> <PUBCHEM_BOND_UDEF_STEREO_COUNT>
0

> <PUBCHEM_ISOTOPIC_ATOM_COUNT>
0

> <PUBCHEM_COMPONENT_COUNT>
1

> <PUBCHEM_CACTVS_TAUTO_COUNT>
2

> <PUBCHEM_CONFORMER_ID>
0000038000000001

> <PUBCHEM_MMFF94_ENERGY>
32.7119

> <PUBCHEM_FEATURE_SELFOVERLAP>
35.612

> <PUBCHEM_SHAPE_FINGERPRINT>
10967382 1 18410853274190255273
11640471 11 17676780867509025316
13027679 85 18194690495324420133
13140716 1 17978229692519098697
13965767 371 16608554374032828400
1420 336 18266184924512803916
14787075 74 17896612875907719035
14790565 3 18341057316043312793
15006816 218 16754940689043299904
16945 1 18195239147136872059
19591789 44 18120376712306458779
19765921 60 17749382706469569763
20510252 161 18342458093286620745
21141583 151 18124894583888822372
21524375 3 17972887951224859043
2334 1 18410572855759727185
23419403 2 17326855944455494142
23557571 272 18201719608641642450
23559900 14 18342173410755765088
2748010 2 18337115553281152647
353137 74 18409164389875307419
44154327 71 18267028250037128041
526903 126 18410576235872810256
537710 114 18408601466050490037
7832392 63 17187566044572678455
9981440 41 18116712022929254594

> <PUBCHEM_SHAPE_MULTIPOLES>
328.15
4.94
3.77
0.97
2.92
1.2
-0.06
0.99
-1.27
-0.81
0.74
0.39
0.23
-0.66

> <PUBCHEM_SHAPE_SELFOVERLAP>
695.133

> <PUBCHEM_SHAPE_VOLUME>
185.3

> <PUBCHEM_COORDINATE_TYPE>
2
5
10

> <Energy>
0.232708

> <minimizedAffinity>
-6.77123

> <CNNscore>
0.4296742976

> <CNNaffinity>
6.4741120338

> <CNN_VS>
2.7817595005

> <CNNaffinity_variance>
0.4629198015

$$$$
896


 19 20  0  0  0  0  0  0  0  0999 V2000
   -8.6408   -2.5486    8.8800 N   0  0  0  0  0  0  0  0  0  0  0  0
   -8.2520   -2.5650   11.0770 C   0  0  0  0  0  0  0  0  0  0  0  0
   -7.7386   -3.7734   10.5049 C   0  0  0  0  0  0  0  0  0  0  0  0
   -8.0067   -3.7413    9.1386 C   0  0  0  0  0  0  0  0  0  0  0  0
   -8.7989   -1.8347   10.0397 C   0  0  0  0  0  0  0  0  0  0  0  0
   -7.0711   -4.8959   11.0406 C   0  0  0  0  0  0  0  0  0  0  0  0
   -7.6463   -4.7812    8.2762 C   0  0  0  0  0  0  0  0  0  0  0  0
   -6.7090   -5.9551   10.2024 C   0  0  0  0  0  0  0  0  0  0  0  0
   -6.9966   -5.8882    8.8389 C   0  0  0  0  0  0  0  0  0  0  0  0
   -8.9384   -2.2504    7.9903 H   0  0  0  0  0  0  0  0  0  0  0  0
   -6.0740   -7.1004   10.6039 O   0  0  0  0  0  0  0  0  0  0  0  0
   -6.8963   -8.2412   10.8242 C   0  0  0  0  0  0  0  0  0  0  0  0
   -8.1987   -2.1791   12.5258 C   0  0  0  0  0  0  0  0  0  0  0  0
   -8.0972   -3.3857   13.4657 C   0  0  0  0  0  0  0  0  0  0  0  0
   -7.6741   -4.6786   15.9611 O   0  0  0  0  0  0  0  0  0  0  0  0
   -6.8468   -3.4510   14.2047 N   0  0  0  0  0  0  0  0  0  0  0  0
   -6.7503   -4.0780   15.4253 C   0  0  0  0  0  0  0  0  0  0  0  0
   -5.3798   -3.9858   16.0399 C   0  0  0  0  0  0  0  0  0  0  0  0
   -6.0432   -3.0329   13.8191 H   0  0  0  0  0  0  0  0  0  0  0  0
 11  8  1  0
 11 12  1  0
 15 17  2  0
  1  4  1  0
  1  5  1  0
  1 10  1  0
 16 14  1  0
 16 17  1  0
 16 19  1  0
  2  3  1  0
  2 13  1  0
  2  5  2  0
  3  4  2  0
  3  6  1  0
 13 14  1  0
  4  7  1  0
  6  8  2  0
  7  9  2  0
  8  9  1  0
 17 18  1  0
M  END
> <PUBCHEM_COMPOUND_CID>
896

> <PUBCHEM_CONFORMER_RMSD>
0.6

> <PUBCHEM_CONFORMER_DIVERSEORDER>
1
13
50
55
28
16
42
48
27
15
62
60
65
61
36
4
20
58
41
17
59
21
2
63
47
57
40
56
22
64
54
37
51
7
31
53
26
8
49
39
32
11
5
33
38
52
23
45
43
12
14
9
34
44
35
10
25
29
46
6
30
24
3
19
18

> <PUBCHEM_MMFF94_PARTIAL_CHARGES>
22
1 -0.36
10 0.3
11 -0.15
12 -0.15
13 0.08
14 -0.15
15 0.57
16 0.06
17 0.28
2 -0.57
20 0.15
23 0.27
24 0.15
25 0.15
26 0.15
27 0.37
3 0.03
4 -0.73
5 -0.18
7 0.18
8 -0.15
9 -0.3

> <PUBCHEM_EFFECTIVE_ROTOR_COUNT>
5

> <PUBCHEM_PHARMACOPHORE_FEATURES>
7
1 1 acceptor
1 2 acceptor
1 3 cation
1 3 donor
1 4 donor
5 3 5 6 8 9 rings
6 6 8 11 12 13 14 rings

> <PUBCHEM_HEAVY_ATOM_COUNT>
17

> <PUBCHEM_ATOM_DEF_STEREO_COUNT>
0

> <PUBCHEM_ATOM_UDEF_STEREO_COUNT>
0

> <PUBCHEM_BOND_DEF_STEREO_COUNT>
0

> <PUBCHEM_BOND_UDEF_STEREO_COUNT>
0

> <PUBCHEM_ISOTOPIC_ATOM_COUNT>
0

> <PUBCHEM_COMPONENT_COUNT>
1

> <PUBCHEM_CACTVS_TAUTO_COUNT>
2

> <PUBCHEM_CONFORMER_ID>
0000038000000001

> <PUBCHEM_MMFF94_ENERGY>
32.7119

> <PUBCHEM_FEATURE_SELFOVERLAP>
35.612

> <PUBCHEM_SHAPE_FINGERPRINT>
10967382 1 18410853274190255273
11640471 11 17676780867509025316
13027679 85 18194690495324420133
13140716 1 17978229692519098697
13965767 371 16608554374032828400
1420 336 18266184924512803916
14787075 74 17896612875907719035
14790565 3 18341057316043312793
15006816 218 16754940689043299904
16945 1 18195239147136872059
19591789 44 18120376712306458779
19765921 60 17749382706469569763
20510252 161 18342458093286620745
21141583 151 18124894583888822372
21524375 3 17972887951224859043
2334 1 18410572855759727185
23419403 2 17326855944455494142
23557571 272 18201719608641642450
23559900 14 18342173410755765088
2748010 2 18337115553281152647
353137 74 18409164389875307419
44154327 71 18267028250037128041
526903 126 18410576235872810256
537710 114 18408601466050490037
7832392 63 17187566044572678455
9981440 41 18116712022929254594

> <PUBCHEM_SHAPE_MULTIPOLES>
328.15
4.94
3.77
0.97
2.92
1.2
-0.06
0.99
-1.27
-0.81
0.74
0.39
0.23
-0.66

> <PUBCHEM_SHAPE_SELFOVERLAP>
695.133

> <PUBCHEM_SHAPE_VOLUME>
185.3

> <PUBCHEM_COORDINATE_TYPE>
2
5
10

> <Energy>
0.232708

> <minimizedAffinity>
-6.54078

> <CNNscore>
0.4191997349

> <CNNaffinity>
6.4280700684

> <CNN_VS>
2.6946451664

> <CNNaffinity_variance>
0.3257055581

$$$$
896


 19 20  0  0  0  0  0  0  0  0999 V2000
   -8.6762   -3.9609   14.5796 N   0  0  0  0  0  0  0  0  0  0  0  0
   -6.8140   -4.3289   13.4071 C   0  0  0  0  0  0  0  0  0  0  0  0
   -7.8492   -3.9028   12.5140 C   0  0  0  0  0  0  0  0  0  0  0  0
   -9.0001   -3.6939   13.2700 C   0  0  0  0  0  0  0  0  0  0  0  0
   -7.3648   -4.3493   14.6739 C   0  0  0  0  0  0  0  0  0  0  0  0
   -7.9017   -3.6825   11.1207 C   0  0  0  0  0  0  0  0  0  0  0  0
  -10.2090   -3.2804   12.7020 C   0  0  0  0  0  0  0  0  0  0  0  0
   -9.1010   -3.2792   10.5251 C   0  0  0  0  0  0  0  0  0  0  0  0
  -10.2342   -3.0825   11.3148 C   0  0  0  0  0  0  0  0  0  0  0  0
   -9.2966   -3.8843   15.3401 H   0  0  0  0  0  0  0  0  0  0  0  0
   -9.2818   -3.0493    9.1870 O   0  0  0  0  0  0  0  0  0  0  0  0
   -9.8161   -4.1242    8.4221 C   0  0  0  0  0  0  0  0  0  0  0  0
   -5.4062   -4.6816   13.0266 C   0  0  0  0  0  0  0  0  0  0  0  0
   -4.3932   -4.3967   14.1412 C   0  0  0  0  0  0  0  0  0  0  0  0
   -4.6442   -3.5220   16.8336 O   0  0  0  0  0  0  0  0  0  0  0  0
   -4.5564   -5.2415   15.3131 N   0  0  0  0  0  0  0  0  0  0  0  0
   -4.6390   -4.7215   16.5840 C   0  0  0  0  0  0  0  0  0  0  0  0
   -4.7553   -5.7720   17.6552 C   0  0  0  0  0  0  0  0  0  0  0  0
   -4.6095   -6.2173   15.1934 H   0  0  0  0  0  0  0  0  0  0  0  0
 11  8  1  0
 11 12  1  0
 15 17  2  0
  1  4  1  0
  1  5  1  0
  1 10  1  0
 16 14  1  0
 16 17  1  0
 16 19  1  0
  2  3  1  0
  2 13  1  0
  2  5  2  0
  3  4  2  0
  3  6  1  0
 13 14  1  0
  4  7  1  0
  6  8  2  0
  7  9  2  0
  8  9  1  0
 17 18  1  0
M  END
> <PUBCHEM_COMPOUND_CID>
896

> <PUBCHEM_CONFORMER_RMSD>
0.6

> <PUBCHEM_CONFORMER_DIVERSEORDER>
1
13
50
55
28
16
42
48
27
15
62
60
65
61
36
4
20
58
41
17
59
21
2
63
47
57
40
56
22
64
54
37
51
7
31
53
26
8
49
39
32
11
5
33
38
52
23
45
43
12
14
9
34
44
35
10
25
29
46
6
30
24
3
19
18

> <PUBCHEM_MMFF94_PARTIAL_CHARGES>
22
1 -0.36
10 0.3
11 -0.15
12 -0.15
13 0.08
14 -0.15
15 0.57
16 0.06
17 0.28
2 -0.57
20 0.15
23 0.27
24 0.15
25 0.15
26 0.15
27 0.37
3 0.03
4 -0.73
5 -0.18
7 0.18
8 -0.15
9 -0.3

> <PUBCHEM_EFFECTIVE_ROTOR_COUNT>
5

> <PUBCHEM_PHARMACOPHORE_FEATURES>
7
1 1 acceptor
1 2 acceptor
1 3 cation
1 3 donor
1 4 donor
5 3 5 6 8 9 rings
6 6 8 11 12 13 14 rings

> <PUBCHEM_HEAVY_ATOM_COUNT>
17

> <PUBCHEM_ATOM_DEF_STEREO_COUNT>
0

> <PUBCHEM_ATOM_UDEF_STEREO_COUNT>
0

> <PUBCHEM_BOND_DEF_STEREO_COUNT>
0

> <PUBCHEM_BOND_UDEF_STEREO_COUNT>
0

> <PUBCHEM_ISOTOPIC_ATOM_COUNT>
0

> <PUBCHEM_COMPONENT_COUNT>
1

> <PUBCHEM_CACTVS_TAUTO_COUNT>
2

> <PUBCHEM_CONFORMER_ID>
0000038000000001

> <PUBCHEM_MMFF94_ENERGY>
32.7119

> <PUBCHEM_FEATURE_SELFOVERLAP>
35.612

> <PUBCHEM_SHAPE_FINGERPRINT>
10967382 1 18410853274190255273
11640471 11 17676780867509025316
13027679 85 18194690495324420133
13140716 1 17978229692519098697
13965767 371 16608554374032828400
1420 336 18266184924512803916
14787075 74 17896612875907719035
14790565 3 18341057316043312793
15006816 218 16754940689043299904
16945 1 18195239147136872059
19591789 44 18120376712306458779
19765921 60 17749382706469569763
20510252 161 18342458093286620745
21141583 151 18124894583888822372
21524375 3 17972887951224859043
2334 1 18410572855759727185
23419403 2 17326855944455494142
23557571 272 18201719608641642450
23559900 14 18342173410755765088
2748010 2 18337115553281152647
353137 74 18409164389875307419
44154327 71 18267028250037128041
526903 126 18410576235872810256
537710 114 18408601466050490037
7832392 63 17187566044572678455
9981440 41 18116712022929254594

> <PUBCHEM_SHAPE_MULTIPOLES>
328.15
4.94
3.77
0.97
2.92
1.2
-0.06
0.99
-1.27
-0.81
0.74
0.39
0.23
-0.66

> <PUBCHEM_SHAPE_SELFOVERLAP>
695.133

> <PUBCHEM_SHAPE_VOLUME>
185.3

> <PUBCHEM_COORDINATE_TYPE>
2
5
10

> <Energy>
0.232708

> <minimizedAffinity>
-6.42279

> <CNNscore>
0.4005225301

> <CNNaffinity>
6.4206061363

> <CNN_VS>
2.5715973377

> <CNNaffinity_variance>
0.6834068298

$$$$
896


 19 20  0  0  0  0  0  0  0  0999 V2000
   -7.9424   -4.1620   15.8098 N   0  0  0  0  0  0  0  0  0  0  0  0
   -8.2198   -4.2263   13.5969 C   0  0  0  0  0  0  0  0  0  0  0  0
   -6.8453   -4.4890   13.9010 C   0  0  0  0  0  0  0  0  0  0  0  0
   -6.6997   -4.4295   15.2848 C   0  0  0  0  0  0  0  0  0  0  0  0
   -8.8642   -4.0323   14.8034 C   0  0  0  0  0  0  0  0  0  0  0  0
   -5.7103   -4.7680   13.1093 C   0  0  0  0  0  0  0  0  0  0  0  0
   -5.4710   -4.6289   15.9217 C   0  0  0  0  0  0  0  0  0  0  0  0
   -4.4670   -4.9608   13.7197 C   0  0  0  0  0  0  0  0  0  0  0  0
   -4.3597   -4.8910   15.1090 C   0  0  0  0  0  0  0  0  0  0  0  0
   -8.1414   -4.0761   16.7701 H   0  0  0  0  0  0  0  0  0  0  0  0
   -3.2944   -5.2213   13.0616 O   0  0  0  0  0  0  0  0  0  0  0  0
   -3.4053   -5.8136   11.7720 C   0  0  0  0  0  0  0  0  0  0  0  0
   -8.8294   -4.1753   12.2270 C   0  0  0  0  0  0  0  0  0  0  0  0
   -9.0487   -5.5633   11.6147 C   0  0  0  0  0  0  0  0  0  0  0  0
  -10.3589   -5.3764    9.0996 O   0  0  0  0  0  0  0  0  0  0  0  0
   -8.4370   -5.7315   10.3065 N   0  0  0  0  0  0  0  0  0  0  0  0
   -9.1657   -5.6515    9.1425 C   0  0  0  0  0  0  0  0  0  0  0  0
   -8.3483   -5.9054    7.9048 C   0  0  0  0  0  0  0  0  0  0  0  0
   -7.4700   -5.9083   10.2519 H   0  0  0  0  0  0  0  0  0  0  0  0
 11  8  1  0
 11 12  1  0
 15 17  2  0
  1  4  1  0
  1  5  1  0
  1 10  1  0
 16 14  1  0
 16 17  1  0
 16 19  1  0
  2  3  1  0
  2 13  1  0
  2  5  2  0
  3  4  2  0
  3  6  1  0
 13 14  1  0
  4  7  1  0
  6  8  2  0
  7  9  2  0
  8  9  1  0
 17 18  1  0
M  END
> <PUBCHEM_COMPOUND_CID>
896

> <PUBCHEM_CONFORMER_RMSD>
0.6

> <PUBCHEM_CONFORMER_DIVERSEORDER>
1
13
50
55
28
16
42
48
27
15
62
60
65
61
36
4
20
58
41
17
59
21
2
63
47
57
40
56
22
64
54
37
51
7
31
53
26
8
49
39
32
11
5
33
38
52
23
45
43
12
14
9
34
44
35
10
25
29
46
6
30
24
3
19
18

> <PUBCHEM_MMFF94_PARTIAL_CHARGES>
22
1 -0.36
10 0.3
11 -0.15
12 -0.15
13 0.08
14 -0.15
15 0.57
16 0.06
17 0.28
2 -0.57
20 0.15
23 0.27
24 0.15
25 0.15
26 0.15
27 0.37
3 0.03
4 -0.73
5 -0.18
7 0.18
8 -0.15
9 -0.3

> <PUBCHEM_EFFECTIVE_ROTOR_COUNT>
5

> <PUBCHEM_PHARMACOPHORE_FEATURES>
7
1 1 acceptor
1 2 acceptor
1 3 cation
1 3 donor
1 4 donor
5 3 5 6 8 9 rings
6 6 8 11 12 13 14 rings

> <PUBCHEM_HEAVY_ATOM_COUNT>
17

> <PUBCHEM_ATOM_DEF_STEREO_COUNT>
0

> <PUBCHEM_ATOM_UDEF_STEREO_COUNT>
0

> <PUBCHEM_BOND_DEF_STEREO_COUNT>
0

> <PUBCHEM_BOND_UDEF_STEREO_COUNT>
0

> <PUBCHEM_ISOTOPIC_ATOM_COUNT>
0

> <PUBCHEM_COMPONENT_COUNT>
1

> <PUBCHEM_CACTVS_TAUTO_COUNT>
2

> <PUBCHEM_CONFORMER_ID>
0000038000000001

> <PUBCHEM_MMFF94_ENERGY>
32.7119

> <PUBCHEM_FEATURE_SELFOVERLAP>
35.612

> <PUBCHEM_SHAPE_FINGERPRINT>
10967382 1 18410853274190255273
11640471 11 17676780867509025316
13027679 85 18194690495324420133
13140716 1 17978229692519098697
13965767 371 16608554374032828400
1420 336 18266184924512803916
14787075 74 17896612875907719035
14790565 3 18341057316043312793
15006816 218 16754940689043299904
16945 1 18195239147136872059
19591789 44 18120376712306458779
19765921 60 17749382706469569763
20510252 161 18342458093286620745
21141583 151 18124894583888822372
21524375 3 17972887951224859043
2334 1 18410572855759727185
23419403 2 17326855944455494142
23557571 272 18201719608641642450
23559900 14 18342173410755765088
2748010 2 18337115553281152647
353137 74 18409164389875307419
44154327 71 18267028250037128041
526903 126 18410576235872810256
537710 114 18408601466050490037
7832392 63 17187566044572678455
9981440 41 18116712022929254594

> <PUBCHEM_SHAPE_MULTIPOLES>
328.15
4.94
3.77
0.97
2.92
1.2
-0.06
0.99
-1.27
-0.81
0.74
0.39
0.23
-0.66

> <PUBCHEM_SHAPE_SELFOVERLAP>
695.133

> <PUBCHEM_SHAPE_VOLUME>
185.3

> <PUBCHEM_COORDINATE_TYPE>
2
5
10

> <Energy>
0.232708

> <minimizedAffinity>
-5.12373

> <CNNscore>
0.3806384504

> <CNNaffinity>
6.3850612640

> <CNN_VS>
2.4303998947

> <CNNaffinity_variance>
0.3442354202

$$$$
