448537


 22 23  0  0  0  0  0  0  0  0999 V2000
    9.6667   45.9098  130.1915 C   0  0  0  0  0  0  0  0  0  0  0  0
    8.7356   46.6306  130.8648 C   0  0  0  0  0  0  0  0  0  0  0  0
   11.5564   41.0148  132.2284 O   0  0  0  0  0  0  0  0  0  0  0  0
   10.1676   44.6319  130.7373 C   0  0  0  0  0  0  0  0  0  0  0  0
   11.3619   44.5968  131.4696 C   0  0  0  0  0  0  0  0  0  0  0  0
    9.4571   43.4442  130.5216 C   0  0  0  0  0  0  0  0  0  0  0  0
   11.8424   43.3871  131.9774 C   0  0  0  0  0  0  0  0  0  0  0  0
    9.9375   42.2360  131.0296 C   0  0  0  0  0  0  0  0  0  0  0  0
   11.1240   42.2174  131.7520 C   0  0  0  0  0  0  0  0  0  0  0  0
   12.3525   40.9644  132.7198 H   0  0  0  0  0  0  0  0  0  0  0  0
    6.8010   51.5060  128.8227 O   0  0  0  0  0  0  0  0  0  0  0  0
    8.2322   47.9076  130.3183 C   0  0  0  0  0  0  0  0  0  0  0  0
    8.5120   49.1166  130.9678 C   0  0  0  0  0  0  0  0  0  0  0  0
    7.4612   47.9167  129.1485 C   0  0  0  0  0  0  0  0  0  0  0  0
    8.0234   50.3182  130.4522 C   0  0  0  0  0  0  0  0  0  0  0  0
    6.9736   49.1180  128.6326 C   0  0  0  0  0  0  0  0  0  0  0  0
    7.2592   50.3099  129.2910 C   0  0  0  0  0  0  0  0  0  0  0  0
    7.0045   52.2975  129.2809 H   0  0  0  0  0  0  0  0  0  0  0  0
   10.2573   46.2716  128.8402 C   0  0  0  0  0  0  0  0  0  0  0  0
   10.8779   45.0808  128.1212 C   0  0  0  0  0  0  0  0  0  0  0  0
    8.0874   46.2294  132.1779 C   0  0  0  0  0  0  0  0  0  0  0  0
    8.9139   46.6227  133.3953 C   0  0  0  0  0  0  0  0  0  0  0  0
  3  9  1  0
  3 10  1  0
 11 17  1  0
 11 18  1  0
  1  2  2  0
  1 19  1  0
  1  4  1  0
  2 21  1  0
  2 12  1  0
 19 20  1  0
 21 22  1  0
  4  5  2  0
  4  6  1  0
 12 13  2  0
 12 14  1  0
  5  7  1  0
 13 15  1  0
  6  8  2  0
 14 16  2  0
  7  9  2  0
 15 17  2  0
  8  9  1  0
 16 17  1  0
M  END
> <PUBCHEM_COMPOUND_CID>
448537

> <PUBCHEM_CONFORMER_RMSD>
0.6

> <PUBCHEM_CONFORMER_DIVERSEORDER>
1
3
2

> <PUBCHEM_MMFF94_PARTIAL_CHARGES>
28
1 -0.53
11 -0.15
12 -0.15
13 -0.15
14 -0.15
15 -0.15
16 -0.15
17 -0.15
18 -0.15
19 0.08
2 -0.53
20 0.08
3 -0.17
31 0.15
32 0.15
33 0.15
34 0.15
35 0.15
36 0.15
37 0.15
38 0.15
39 0.45
4 -0.17
40 0.45
5 0.14
6 0.14
7 0.03
8 0.03

> <PUBCHEM_EFFECTIVE_ROTOR_COUNT>
4

> <PUBCHEM_PHARMACOPHORE_FEATURES>
6
1 1 donor
1 10 hydrophobe
1 2 donor
1 9 hydrophobe
6 7 11 13 15 17 19 rings
6 8 12 14 16 18 20 rings

> <PUBCHEM_HEAVY_ATOM_COUNT>
20

> <PUBCHEM_ATOM_DEF_STEREO_COUNT>
0

> <PUBCHEM_ATOM_UDEF_STEREO_COUNT>
0

> <PUBCHEM_BOND_DEF_STEREO_COUNT>
1

> <PUBCHEM_BOND_UDEF_STEREO_COUNT>
0

> <PUBCHEM_ISOTOPIC_ATOM_COUNT>
0

> <PUBCHEM_COMPONENT_COUNT>
1

> <PUBCHEM_CACTVS_TAUTO_COUNT>
3

> <PUBCHEM_CONFORMER_ID>
0006D81900000001

> <PUBCHEM_MMFF94_ENERGY>
60.231

> <PUBCHEM_FEATURE_SELFOVERLAP>
30.447

> <PUBCHEM_SHAPE_FINGERPRINT>
10366900 7 18186514428534874893
104564 63 18339924792832442081
10906281 52 18129397028286092948
11646440 116 18130798871235594657
12592029 89 16950278473467191938
12788726 201 18270697410649816016
13140716 1 18266458895859843337
13533116 47 18340201896197096762
13760787 19 16660644076447957075
14115302 16 18186806919849492430
14341114 176 15647057049052281551
15099037 51 18335139812416525942
15848700 24 18202843262111810220
15848702 151 16988848262958300981
16752209 62 18335696105492573576
16945 1 18410855473013063775
1813 80 18272378572207267076
18186145 218 18338228362096015613
187816 3 18410857663704853992
19141452 34 17131829889222033293
19784866 9 18113613452605694563
200 152 16950282905968490344
20028762 73 18055641861278493167
20600515 1 18340218469921978116
20645477 70 16009301016701038466
21285901 2 17917162606291067244
23175994 123 18333735723499757565
23402539 116 17988639696664490244
23493267 7 17313098635762053785
23557571 272 17489592229515708168
23559900 14 15554438621982335170
266924 87 18194116322357846868
347723 3 18410856551049855057
34934 24 18129105515976021729
3545911 37 15719391732852524422
4072396 5 18261662693185545291
4214541 1 15791727494979709055
465052 167 17240208741576471315
474 4 17917140731779840409
59755656 215 18270402685366324510
633830 44 18342455975941661781
69090 78 17060620005479420895
7226269 152 18410853270196137312
7495541 125 17531535390133293585
77779 3 15719110262139125926
81228 2 18128838385973970688
8272917 22 16660357039657468298
9971528 1 17775283884826915592

> <PUBCHEM_SHAPE_MULTIPOLES>
399.85
10.42
1.74
1.37
0
0
0.06
0
1.28
0
-0.74
0
0
-0.06

> <PUBCHEM_SHAPE_SELFOVERLAP>
850.96

> <PUBCHEM_SHAPE_VOLUME>
224.1

> <PUBCHEM_COORDINATE_TYPE>
2
5
10

> <Energy>
28.3223

> <minimizedAffinity>
-8.17377

> <CNNscore>
0.9171782136

> <CNNaffinity>
8.2367668152

> <CNN_VS>
7.5545830727

> <CNNaffinity_variance>
1.2832167149

$$$$
448537


 22 23  0  0  0  0  0  0  0  0999 V2000
    8.7071   46.6269  130.9100 C   0  0  0  0  0  0  0  0  0  0  0  0
    9.6495   45.9334  130.2239 C   0  0  0  0  0  0  0  0  0  0  0  0
    6.7465   51.5126  128.9183 O   0  0  0  0  0  0  0  0  0  0  0  0
    8.1806   47.9027  130.3839 C   0  0  0  0  0  0  0  0  0  0  0  0
    7.3389   47.9106  129.2634 C   0  0  0  0  0  0  0  0  0  0  0  0
    8.5236   49.1151  130.9958 C   0  0  0  0  0  0  0  0  0  0  0  0
    6.8487   49.1175  128.7582 C   0  0  0  0  0  0  0  0  0  0  0  0
    8.0331   50.3205  130.4908 C   0  0  0  0  0  0  0  0  0  0  0  0
    7.2012   50.3118  129.3782 C   0  0  0  0  0  0  0  0  0  0  0  0
    6.1834   51.5449  128.1701 H   0  0  0  0  0  0  0  0  0  0  0  0
   11.6109   41.0583  132.2410 O   0  0  0  0  0  0  0  0  0  0  0  0
   10.1747   44.6559  130.7484 C   0  0  0  0  0  0  0  0  0  0  0  0
    9.4710   43.4622  130.5441 C   0  0  0  0  0  0  0  0  0  0  0  0
   11.3790   44.6314  131.4639 C   0  0  0  0  0  0  0  0  0  0  0  0
    9.9672   42.2607  131.0524 C   0  0  0  0  0  0  0  0  0  0  0  0
   11.8755   43.4301  131.9713 C   0  0  0  0  0  0  0  0  0  0  0  0
   11.1632   42.2536  131.7610 C   0  0  0  0  0  0  0  0  0  0  0  0
   11.1164   40.2773  132.0885 H   0  0  0  0  0  0  0  0  0  0  0  0
    8.0663   46.1927  132.2164 C   0  0  0  0  0  0  0  0  0  0  0  0
    8.8503   46.6387  133.4438 C   0  0  0  0  0  0  0  0  0  0  0  0
   10.2328   46.3284  128.8790 C   0  0  0  0  0  0  0  0  0  0  0  0
   10.8061   45.1467  128.1077 C   0  0  0  0  0  0  0  0  0  0  0  0
  3  9  1  0
  3 10  1  0
 11 17  1  0
 11 18  1  0
  1  2  2  0
  1 19  1  0
  1  4  1  0
  2 21  1  0
  2 12  1  0
 19 20  1  0
 21 22  1  0
  4  5  2  0
  4  6  1  0
 12 13  2  0
 12 14  1  0
  5  7  1  0
 13 15  1  0
  6  8  2  0
 14 16  2  0
  7  9  2  0
 15 17  2  0
  8  9  1  0
 16 17  1  0
M  END
> <PUBCHEM_COMPOUND_CID>
448537

> <PUBCHEM_CONFORMER_RMSD>
0.6

> <PUBCHEM_CONFORMER_DIVERSEORDER>
1
3
2

> <PUBCHEM_MMFF94_PARTIAL_CHARGES>
28
1 -0.53
11 -0.15
12 -0.15
13 -0.15
14 -0.15
15 -0.15
16 -0.15
17 -0.15
18 -0.15
19 0.08
2 -0.53
20 0.08
3 -0.17
31 0.15
32 0.15
33 0.15
34 0.15
35 0.15
36 0.15
37 0.15
38 0.15
39 0.45
4 -0.17
40 0.45
5 0.14
6 0.14
7 0.03
8 0.03

> <PUBCHEM_EFFECTIVE_ROTOR_COUNT>
4

> <PUBCHEM_PHARMACOPHORE_FEATURES>
6
1 1 donor
1 10 hydrophobe
1 2 donor
1 9 hydrophobe
6 7 11 13 15 17 19 rings
6 8 12 14 16 18 20 rings

> <PUBCHEM_HEAVY_ATOM_COUNT>
20

> <PUBCHEM_ATOM_DEF_STEREO_COUNT>
0

> <PUBCHEM_ATOM_UDEF_STEREO_COUNT>
0

> <PUBCHEM_BOND_DEF_STEREO_COUNT>
1

> <PUBCHEM_BOND_UDEF_STEREO_COUNT>
0

> <PUBCHEM_ISOTOPIC_ATOM_COUNT>
0

> <PUBCHEM_COMPONENT_COUNT>
1

> <PUBCHEM_CACTVS_TAUTO_COUNT>
3

> <PUBCHEM_CONFORMER_ID>
0006D81900000001

> <PUBCHEM_MMFF94_ENERGY>
60.231

> <PUBCHEM_FEATURE_SELFOVERLAP>
30.447

> <PUBCHEM_SHAPE_FINGERPRINT>
10366900 7 18186514428534874893
104564 63 18339924792832442081
10906281 52 18129397028286092948
11646440 116 18130798871235594657
12592029 89 16950278473467191938
12788726 201 18270697410649816016
13140716 1 18266458895859843337
13533116 47 18340201896197096762
13760787 19 16660644076447957075
14115302 16 18186806919849492430
14341114 176 15647057049052281551
15099037 51 18335139812416525942
15848700 24 18202843262111810220
15848702 151 16988848262958300981
16752209 62 18335696105492573576
16945 1 18410855473013063775
1813 80 18272378572207267076
18186145 218 18338228362096015613
187816 3 18410857663704853992
19141452 34 17131829889222033293
19784866 9 18113613452605694563
200 152 16950282905968490344
20028762 73 18055641861278493167
20600515 1 18340218469921978116
20645477 70 16009301016701038466
21285901 2 17917162606291067244
23175994 123 18333735723499757565
23402539 116 17988639696664490244
23493267 7 17313098635762053785
23557571 272 17489592229515708168
23559900 14 15554438621982335170
266924 87 18194116322357846868
347723 3 18410856551049855057
34934 24 18129105515976021729
3545911 37 15719391732852524422
4072396 5 18261662693185545291
4214541 1 15791727494979709055
465052 167 17240208741576471315
474 4 17917140731779840409
59755656 215 18270402685366324510
633830 44 18342455975941661781
69090 78 17060620005479420895
7226269 152 18410853270196137312
7495541 125 17531535390133293585
77779 3 15719110262139125926
81228 2 18128838385973970688
8272917 22 16660357039657468298
9971528 1 17775283884826915592

> <PUBCHEM_SHAPE_MULTIPOLES>
399.85
10.42
1.74
1.37
0
0
0.06
0
1.28
0
-0.74
0
0
-0.06

> <PUBCHEM_SHAPE_SELFOVERLAP>
850.96

> <PUBCHEM_SHAPE_VOLUME>
224.1

> <PUBCHEM_COORDINATE_TYPE>
2
5
10

> <Energy>
28.3223

> <minimizedAffinity>
-8.09378

> <CNNscore>
0.9110669494

> <CNNaffinity>
8.1702985764

> <CNN_VS>
7.4436888695

> <CNNaffinity_variance>
1.2370486259

$$$$
448537


 22 23  0  0  0  0  0  0  0  0999 V2000
    9.4140   46.9880  130.3064 C   0  0  0  0  0  0  0  0  0  0  0  0
   10.0150   46.8862  131.5181 C   0  0  0  0  0  0  0  0  0  0  0  0
    6.4962   51.5920  128.9030 O   0  0  0  0  0  0  0  0  0  0  0  0
    8.6596   48.2040  129.9409 C   0  0  0  0  0  0  0  0  0  0  0  0
    8.8872   49.4075  130.6220 C   0  0  0  0  0  0  0  0  0  0  0  0
    7.7058   48.1629  128.9159 C   0  0  0  0  0  0  0  0  0  0  0  0
    8.1667   50.5560  130.2845 C   0  0  0  0  0  0  0  0  0  0  0  0
    6.9867   49.3109  128.5788 C   0  0  0  0  0  0  0  0  0  0  0  0
    7.2226   50.4958  129.2647 C   0  0  0  0  0  0  0  0  0  0  0  0
    6.6288   52.4081  129.3437 H   0  0  0  0  0  0  0  0  0  0  0  0
   12.9032   42.2470  132.8663 O   0  0  0  0  0  0  0  0  0  0  0  0
   10.7721   45.6712  131.8834 C   0  0  0  0  0  0  0  0  0  0  0  0
   12.0101   45.4006  131.2868 C   0  0  0  0  0  0  0  0  0  0  0  0
   10.2505   44.7740  132.8246 C   0  0  0  0  0  0  0  0  0  0  0  0
   12.7144   44.2448  131.6281 C   0  0  0  0  0  0  0  0  0  0  0  0
   10.9551   43.6190  133.1664 C   0  0  0  0  0  0  0  0  0  0  0  0
   12.1826   43.3643  132.5632 C   0  0  0  0  0  0  0  0  0  0  0  0
   13.7280   42.0938  132.4489 H   0  0  0  0  0  0  0  0  0  0  0  0
    9.4668   45.9458  129.2033 C   0  0  0  0  0  0  0  0  0  0  0  0
    8.5622   44.7493  129.4679 C   0  0  0  0  0  0  0  0  0  0  0  0
   10.0283   47.9606  132.5908 C   0  0  0  0  0  0  0  0  0  0  0  0
    8.9603   47.7521  133.6566 C   0  0  0  0  0  0  0  0  0  0  0  0
  3  9  1  0
  3 10  1  0
 11 17  1  0
 11 18  1  0
  1  2  2  0
  1 19  1  0
  1  4  1  0
  2 21  1  0
  2 12  1  0
 19 20  1  0
 21 22  1  0
  4  5  2  0
  4  6  1  0
 12 13  2  0
 12 14  1  0
  5  7  1  0
 13 15  1  0
  6  8  2  0
 14 16  2  0
  7  9  2  0
 15 17  2  0
  8  9  1  0
 16 17  1  0
M  END
> <PUBCHEM_COMPOUND_CID>
448537

> <PUBCHEM_CONFORMER_RMSD>
0.6

> <PUBCHEM_CONFORMER_DIVERSEORDER>
1
3
2

> <PUBCHEM_MMFF94_PARTIAL_CHARGES>
28
1 -0.53
11 -0.15
12 -0.15
13 -0.15
14 -0.15
15 -0.15
16 -0.15
17 -0.15
18 -0.15
19 0.08
2 -0.53
20 0.08
3 -0.17
31 0.15
32 0.15
33 0.15
34 0.15
35 0.15
36 0.15
37 0.15
38 0.15
39 0.45
4 -0.17
40 0.45
5 0.14
6 0.14
7 0.03
8 0.03

> <PUBCHEM_EFFECTIVE_ROTOR_COUNT>
4

> <PUBCHEM_PHARMACOPHORE_FEATURES>
6
1 1 donor
1 10 hydrophobe
1 2 donor
1 9 hydrophobe
6 7 11 13 15 17 19 rings
6 8 12 14 16 18 20 rings

> <PUBCHEM_HEAVY_ATOM_COUNT>
20

> <PUBCHEM_ATOM_DEF_STEREO_COUNT>
0

> <PUBCHEM_ATOM_UDEF_STEREO_COUNT>
0

> <PUBCHEM_BOND_DEF_STEREO_COUNT>
1

> <PUBCHEM_BOND_UDEF_STEREO_COUNT>
0

> <PUBCHEM_ISOTOPIC_ATOM_COUNT>
0

> <PUBCHEM_COMPONENT_COUNT>
1

> <PUBCHEM_CACTVS_TAUTO_COUNT>
3

> <PUBCHEM_CONFORMER_ID>
0006D81900000001

> <PUBCHEM_MMFF94_ENERGY>
60.231

> <PUBCHEM_FEATURE_SELFOVERLAP>
30.447

> <PUBCHEM_SHAPE_FINGERPRINT>
10366900 7 18186514428534874893
104564 63 18339924792832442081
10906281 52 18129397028286092948
11646440 116 18130798871235594657
12592029 89 16950278473467191938
12788726 201 18270697410649816016
13140716 1 18266458895859843337
13533116 47 18340201896197096762
13760787 19 16660644076447957075
14115302 16 18186806919849492430
14341114 176 15647057049052281551
15099037 51 18335139812416525942
15848700 24 18202843262111810220
15848702 151 16988848262958300981
16752209 62 18335696105492573576
16945 1 18410855473013063775
1813 80 18272378572207267076
18186145 218 18338228362096015613
187816 3 18410857663704853992
19141452 34 17131829889222033293
19784866 9 18113613452605694563
200 152 16950282905968490344
20028762 73 18055641861278493167
20600515 1 18340218469921978116
20645477 70 16009301016701038466
21285901 2 17917162606291067244
23175994 123 18333735723499757565
23402539 116 17988639696664490244
23493267 7 17313098635762053785
23557571 272 17489592229515708168
23559900 14 15554438621982335170
266924 87 18194116322357846868
347723 3 18410856551049855057
34934 24 18129105515976021729
3545911 37 15719391732852524422
4072396 5 18261662693185545291
4214541 1 15791727494979709055
465052 167 17240208741576471315
474 4 17917140731779840409
59755656 215 18270402685366324510
633830 44 18342455975941661781
69090 78 17060620005479420895
7226269 152 18410853270196137312
7495541 125 17531535390133293585
77779 3 15719110262139125926
81228 2 18128838385973970688
8272917 22 16660357039657468298
9971528 1 17775283884826915592

> <PUBCHEM_SHAPE_MULTIPOLES>
399.85
10.42
1.74
1.37
0
0
0.06
0
1.28
0
-0.74
0
0
-0.06

> <PUBCHEM_SHAPE_SELFOVERLAP>
850.96

> <PUBCHEM_SHAPE_VOLUME>
224.1

> <PUBCHEM_COORDINATE_TYPE>
2
5
10

> <Energy>
28.3223

> <minimizedAffinity>
-7.58986

> <CNNscore>
0.9009727836

> <CNNaffinity>
8.0498209000

> <CNN_VS>
7.2526693344

> <CNNaffinity_variance>
1.0598951578

$$$$
448537


 22 23  0  0  0  0  0  0  0  0999 V2000
    9.5202   46.2188  131.4672 C   0  0  0  0  0  0  0  0  0  0  0  0
    9.0982   46.5943  130.2340 C   0  0  0  0  0  0  0  0  0  0  0  0
   11.7565   41.1151  132.2622 O   0  0  0  0  0  0  0  0  0  0  0  0
   10.1169   44.8851  131.6840 C   0  0  0  0  0  0  0  0  0  0  0  0
   11.5045   44.7466  131.8227 C   0  0  0  0  0  0  0  0  0  0  0  0
    9.3019   43.7476  131.7459 C   0  0  0  0  0  0  0  0  0  0  0  0
   12.0712   43.4844  132.0173 C   0  0  0  0  0  0  0  0  0  0  0  0
    9.8687   42.4869  131.9409 C   0  0  0  0  0  0  0  0  0  0  0  0
   11.2462   42.3659  132.0746 C   0  0  0  0  0  0  0  0  0  0  0  0
   12.6810   40.9956  132.3564 H   0  0  0  0  0  0  0  0  0  0  0  0
    6.8428   51.6766  129.3593 O   0  0  0  0  0  0  0  0  0  0  0  0
    8.5037   47.9291  130.0158 C   0  0  0  0  0  0  0  0  0  0  0  0
    7.5453   48.1235  129.0131 C   0  0  0  0  0  0  0  0  0  0  0  0
    8.9029   49.0146  130.8065 C   0  0  0  0  0  0  0  0  0  0  0  0
    6.9963   49.3898  128.8048 C   0  0  0  0  0  0  0  0  0  0  0  0
    8.3534   50.2803  130.5989 C   0  0  0  0  0  0  0  0  0  0  0  0
    7.4038   50.4567  129.5975 C   0  0  0  0  0  0  0  0  0  0  0  0
    6.2049   51.7744  128.6801 H   0  0  0  0  0  0  0  0  0  0  0  0
    9.4819   47.0824  132.7155 C   0  0  0  0  0  0  0  0  0  0  0  0
    8.6992   46.4474  133.8576 C   0  0  0  0  0  0  0  0  0  0  0  0
    9.2089   45.7601  128.9703 C   0  0  0  0  0  0  0  0  0  0  0  0
   10.6174   45.7402  128.3906 C   0  0  0  0  0  0  0  0  0  0  0  0
  3  9  1  0
  3 10  1  0
 11 17  1  0
 11 18  1  0
  1  2  2  0
  1 19  1  0
  1  4  1  0
  2 21  1  0
  2 12  1  0
 19 20  1  0
 21 22  1  0
  4  5  2  0
  4  6  1  0
 12 13  2  0
 12 14  1  0
  5  7  1  0
 13 15  1  0
  6  8  2  0
 14 16  2  0
  7  9  2  0
 15 17  2  0
  8  9  1  0
 16 17  1  0
M  END
> <PUBCHEM_COMPOUND_CID>
448537

> <PUBCHEM_CONFORMER_RMSD>
0.6

> <PUBCHEM_CONFORMER_DIVERSEORDER>
1
3
2

> <PUBCHEM_MMFF94_PARTIAL_CHARGES>
28
1 -0.53
11 -0.15
12 -0.15
13 -0.15
14 -0.15
15 -0.15
16 -0.15
17 -0.15
18 -0.15
19 0.08
2 -0.53
20 0.08
3 -0.17
31 0.15
32 0.15
33 0.15
34 0.15
35 0.15
36 0.15
37 0.15
38 0.15
39 0.45
4 -0.17
40 0.45
5 0.14
6 0.14
7 0.03
8 0.03

> <PUBCHEM_EFFECTIVE_ROTOR_COUNT>
4

> <PUBCHEM_PHARMACOPHORE_FEATURES>
6
1 1 donor
1 10 hydrophobe
1 2 donor
1 9 hydrophobe
6 7 11 13 15 17 19 rings
6 8 12 14 16 18 20 rings

> <PUBCHEM_HEAVY_ATOM_COUNT>
20

> <PUBCHEM_ATOM_DEF_STEREO_COUNT>
0

> <PUBCHEM_ATOM_UDEF_STEREO_COUNT>
0

> <PUBCHEM_BOND_DEF_STEREO_COUNT>
1

> <PUBCHEM_BOND_UDEF_STEREO_COUNT>
0

> <PUBCHEM_ISOTOPIC_ATOM_COUNT>
0

> <PUBCHEM_COMPONENT_COUNT>
1

> <PUBCHEM_CACTVS_TAUTO_COUNT>
3

> <PUBCHEM_CONFORMER_ID>
0006D81900000001

> <PUBCHEM_MMFF94_ENERGY>
60.231

> <PUBCHEM_FEATURE_SELFOVERLAP>
30.447

> <PUBCHEM_SHAPE_FINGERPRINT>
10366900 7 18186514428534874893
104564 63 18339924792832442081
10906281 52 18129397028286092948
11646440 116 18130798871235594657
12592029 89 16950278473467191938
12788726 201 18270697410649816016
13140716 1 18266458895859843337
13533116 47 18340201896197096762
13760787 19 16660644076447957075
14115302 16 18186806919849492430
14341114 176 15647057049052281551
15099037 51 18335139812416525942
15848700 24 18202843262111810220
15848702 151 16988848262958300981
16752209 62 18335696105492573576
16945 1 18410855473013063775
1813 80 18272378572207267076
18186145 218 18338228362096015613
187816 3 18410857663704853992
19141452 34 17131829889222033293
19784866 9 18113613452605694563
200 152 16950282905968490344
20028762 73 18055641861278493167
20600515 1 18340218469921978116
20645477 70 16009301016701038466
21285901 2 17917162606291067244
23175994 123 18333735723499757565
23402539 116 17988639696664490244
23493267 7 17313098635762053785
23557571 272 17489592229515708168
23559900 14 15554438621982335170
266924 87 18194116322357846868
347723 3 18410856551049855057
34934 24 18129105515976021729
3545911 37 15719391732852524422
4072396 5 18261662693185545291
4214541 1 15791727494979709055
465052 167 17240208741576471315
474 4 17917140731779840409
59755656 215 18270402685366324510
633830 44 18342455975941661781
69090 78 17060620005479420895
7226269 152 18410853270196137312
7495541 125 17531535390133293585
77779 3 15719110262139125926
81228 2 18128838385973970688
8272917 22 16660357039657468298
9971528 1 17775283884826915592

> <PUBCHEM_SHAPE_MULTIPOLES>
399.85
10.42
1.74
1.37
0
0
0.06
0
1.28
0
-0.74
0
0
-0.06

> <PUBCHEM_SHAPE_SELFOVERLAP>
850.96

> <PUBCHEM_SHAPE_VOLUME>
224.1

> <PUBCHEM_COORDINATE_TYPE>
2
5
10

> <Energy>
28.3223

> <minimizedAffinity>
-7.81074

> <CNNscore>
0.8982846141

> <CNNaffinity>
8.0382480621

> <CNN_VS>
7.2206344604

> <CNNaffinity_variance>
1.1319535971

$$$$
448537


 22 23  0  0  0  0  0  0  0  0999 V2000
    9.5046   46.9032  130.4165 C   0  0  0  0  0  0  0  0  0  0  0  0
   10.1829   46.8793  131.5908 C   0  0  0  0  0  0  0  0  0  0  0  0
    6.6178   51.4895  128.8956 O   0  0  0  0  0  0  0  0  0  0  0  0
    8.7353   48.0991  130.0166 C   0  0  0  0  0  0  0  0  0  0  0  0
    7.6710   47.9840  129.1123 C   0  0  0  0  0  0  0  0  0  0  0  0
    9.0675   49.3583  130.5323 C   0  0  0  0  0  0  0  0  0  0  0  0
    6.9492   49.1160  128.7250 C   0  0  0  0  0  0  0  0  0  0  0  0
    8.3456   50.4887  130.1454 C   0  0  0  0  0  0  0  0  0  0  0  0
    7.2944   50.3585  129.2466 C   0  0  0  0  0  0  0  0  0  0  0  0
    5.9031   51.4394  128.2918 H   0  0  0  0  0  0  0  0  0  0  0  0
   13.1162   42.3094  133.0720 O   0  0  0  0  0  0  0  0  0  0  0  0
   10.9547   45.6844  131.9902 C   0  0  0  0  0  0  0  0  0  0  0  0
   11.9977   45.2114  131.1839 C   0  0  0  0  0  0  0  0  0  0  0  0
   10.6411   45.0089  133.1769 C   0  0  0  0  0  0  0  0  0  0  0  0
   12.7151   44.0751  131.5615 C   0  0  0  0  0  0  0  0  0  0  0  0
   11.3589   43.8735  133.5549 C   0  0  0  0  0  0  0  0  0  0  0  0
   12.3908   43.4158  132.7417 C   0  0  0  0  0  0  0  0  0  0  0  0
   13.8073   42.0174  132.5107 H   0  0  0  0  0  0  0  0  0  0  0  0
    9.4787   45.7866  129.3877 C   0  0  0  0  0  0  0  0  0  0  0  0
    8.3848   44.7592  129.6485 C   0  0  0  0  0  0  0  0  0  0  0  0
   10.2730   48.0252  132.5827 C   0  0  0  0  0  0  0  0  0  0  0  0
    9.0522   48.1274  133.4879 C   0  0  0  0  0  0  0  0  0  0  0  0
  3  9  1  0
  3 10  1  0
 11 17  1  0
 11 18  1  0
  1  2  2  0
  1 19  1  0
  1  4  1  0
  2 21  1  0
  2 12  1  0
 19 20  1  0
 21 22  1  0
  4  5  2  0
  4  6  1  0
 12 13  2  0
 12 14  1  0
  5  7  1  0
 13 15  1  0
  6  8  2  0
 14 16  2  0
  7  9  2  0
 15 17  2  0
  8  9  1  0
 16 17  1  0
M  END
> <PUBCHEM_COMPOUND_CID>
448537

> <PUBCHEM_CONFORMER_RMSD>
0.6

> <PUBCHEM_CONFORMER_DIVERSEORDER>
1
3
2

> <PUBCHEM_MMFF94_PARTIAL_CHARGES>
28
1 -0.53
11 -0.15
12 -0.15
13 -0.15
14 -0.15
15 -0.15
16 -0.15
17 -0.15
18 -0.15
19 0.08
2 -0.53
20 0.08
3 -0.17
31 0.15
32 0.15
33 0.15
34 0.15
35 0.15
36 0.15
37 0.15
38 0.15
39 0.45
4 -0.17
40 0.45
5 0.14
6 0.14
7 0.03
8 0.03

> <PUBCHEM_EFFECTIVE_ROTOR_COUNT>
4

> <PUBCHEM_PHARMACOPHORE_FEATURES>
6
1 1 donor
1 10 hydrophobe
1 2 donor
1 9 hydrophobe
6 7 11 13 15 17 19 rings
6 8 12 14 16 18 20 rings

> <PUBCHEM_HEAVY_ATOM_COUNT>
20

> <PUBCHEM_ATOM_DEF_STEREO_COUNT>
0

> <PUBCHEM_ATOM_UDEF_STEREO_COUNT>
0

> <PUBCHEM_BOND_DEF_STEREO_COUNT>
1

> <PUBCHEM_BOND_UDEF_STEREO_COUNT>
0

> <PUBCHEM_ISOTOPIC_ATOM_COUNT>
0

> <PUBCHEM_COMPONENT_COUNT>
1

> <PUBCHEM_CACTVS_TAUTO_COUNT>
3

> <PUBCHEM_CONFORMER_ID>
0006D81900000001

> <PUBCHEM_MMFF94_ENERGY>
60.231

> <PUBCHEM_FEATURE_SELFOVERLAP>
30.447

> <PUBCHEM_SHAPE_FINGERPRINT>
10366900 7 18186514428534874893
104564 63 18339924792832442081
10906281 52 18129397028286092948
11646440 116 18130798871235594657
12592029 89 16950278473467191938
12788726 201 18270697410649816016
13140716 1 18266458895859843337
13533116 47 18340201896197096762
13760787 19 16660644076447957075
14115302 16 18186806919849492430
14341114 176 15647057049052281551
15099037 51 18335139812416525942
15848700 24 18202843262111810220
15848702 151 16988848262958300981
16752209 62 18335696105492573576
16945 1 18410855473013063775
1813 80 18272378572207267076
18186145 218 18338228362096015613
187816 3 18410857663704853992
19141452 34 17131829889222033293
19784866 9 18113613452605694563
200 152 16950282905968490344
20028762 73 18055641861278493167
20600515 1 18340218469921978116
20645477 70 16009301016701038466
21285901 2 17917162606291067244
23175994 123 18333735723499757565
23402539 116 17988639696664490244
23493267 7 17313098635762053785
23557571 272 17489592229515708168
23559900 14 15554438621982335170
266924 87 18194116322357846868
347723 3 18410856551049855057
34934 24 18129105515976021729
3545911 37 15719391732852524422
4072396 5 18261662693185545291
4214541 1 15791727494979709055
465052 167 17240208741576471315
474 4 17917140731779840409
59755656 215 18270402685366324510
633830 44 18342455975941661781
69090 78 17060620005479420895
7226269 152 18410853270196137312
7495541 125 17531535390133293585
77779 3 15719110262139125926
81228 2 18128838385973970688
8272917 22 16660357039657468298
9971528 1 17775283884826915592

> <PUBCHEM_SHAPE_MULTIPOLES>
399.85
10.42
1.74
1.37
0
0
0.06
0
1.28
0
-0.74
0
0
-0.06

> <PUBCHEM_SHAPE_SELFOVERLAP>
850.96

> <PUBCHEM_SHAPE_VOLUME>
224.1

> <PUBCHEM_COORDINATE_TYPE>
2
5
10

> <Energy>
28.3223

> <minimizedAffinity>
-7.43767

> <CNNscore>
0.8837544322

> <CNNaffinity>
8.0085926056

> <CNN_VS>
7.0776290894

> <CNNaffinity_variance>
1.0949196815

$$$$
448537


 22 23  0  0  0  0  0  0  0  0999 V2000
    8.9676   47.0862  131.0469 C   0  0  0  0  0  0  0  0  0  0  0  0
    9.0621   45.7589  130.7840 C   0  0  0  0  0  0  0  0  0  0  0  0
    4.7274   50.1022  128.9009 O   0  0  0  0  0  0  0  0  0  0  0  0
    7.8638   47.8882  130.4812 C   0  0  0  0  0  0  0  0  0  0  0  0
    7.8392   49.2783  130.6567 C   0  0  0  0  0  0  0  0  0  0  0  0
    6.8294   47.2655  129.7711 C   0  0  0  0  0  0  0  0  0  0  0  0
    6.7901   50.0370  130.1312 C   0  0  0  0  0  0  0  0  0  0  0  0
    5.7819   48.0241  129.2459 C   0  0  0  0  0  0  0  0  0  0  0  0
    5.7709   49.4010  129.4300 C   0  0  0  0  0  0  0  0  0  0  0  0
    4.6872   51.0323  129.0054 H   0  0  0  0  0  0  0  0  0  0  0  0
   13.2536   42.7157  132.9868 O   0  0  0  0  0  0  0  0  0  0  0  0
   10.1645   44.9555  131.3516 C   0  0  0  0  0  0  0  0  0  0  0  0
    9.9528   44.1622  132.4863 C   0  0  0  0  0  0  0  0  0  0  0  0
   11.4352   44.9896  130.7625 C   0  0  0  0  0  0  0  0  0  0  0  0
   11.0019   43.4148  133.0242 C   0  0  0  0  0  0  0  0  0  0  0  0
   12.4837   44.2417  131.2996 C   0  0  0  0  0  0  0  0  0  0  0  0
   12.2570   43.4603  132.4282 C   0  0  0  0  0  0  0  0  0  0  0  0
   13.0804   42.1960  133.7469 H   0  0  0  0  0  0  0  0  0  0  0  0
    9.9029   47.8785  131.9432 C   0  0  0  0  0  0  0  0  0  0  0  0
    9.5444   47.7762  133.4200 C   0  0  0  0  0  0  0  0  0  0  0  0
    8.0822   44.9511  129.9519 C   0  0  0  0  0  0  0  0  0  0  0  0
    8.7678   43.9753  129.0042 C   0  0  0  0  0  0  0  0  0  0  0  0
  3  9  1  0
  3 10  1  0
 11 17  1  0
 11 18  1  0
  1  2  2  0
  1 19  1  0
  1  4  1  0
  2 21  1  0
  2 12  1  0
 19 20  1  0
 21 22  1  0
  4  5  2  0
  4  6  1  0
 12 13  2  0
 12 14  1  0
  5  7  1  0
 13 15  1  0
  6  8  2  0
 14 16  2  0
  7  9  2  0
 15 17  2  0
  8  9  1  0
 16 17  1  0
M  END
> <PUBCHEM_COMPOUND_CID>
448537

> <PUBCHEM_CONFORMER_RMSD>
0.6

> <PUBCHEM_CONFORMER_DIVERSEORDER>
1
3
2

> <PUBCHEM_MMFF94_PARTIAL_CHARGES>
28
1 -0.53
11 -0.15
12 -0.15
13 -0.15
14 -0.15
15 -0.15
16 -0.15
17 -0.15
18 -0.15
19 0.08
2 -0.53
20 0.08
3 -0.17
31 0.15
32 0.15
33 0.15
34 0.15
35 0.15
36 0.15
37 0.15
38 0.15
39 0.45
4 -0.17
40 0.45
5 0.14
6 0.14
7 0.03
8 0.03

> <PUBCHEM_EFFECTIVE_ROTOR_COUNT>
4

> <PUBCHEM_PHARMACOPHORE_FEATURES>
6
1 1 donor
1 10 hydrophobe
1 2 donor
1 9 hydrophobe
6 7 11 13 15 17 19 rings
6 8 12 14 16 18 20 rings

> <PUBCHEM_HEAVY_ATOM_COUNT>
20

> <PUBCHEM_ATOM_DEF_STEREO_COUNT>
0

> <PUBCHEM_ATOM_UDEF_STEREO_COUNT>
0

> <PUBCHEM_BOND_DEF_STEREO_COUNT>
1

> <PUBCHEM_BOND_UDEF_STEREO_COUNT>
0

> <PUBCHEM_ISOTOPIC_ATOM_COUNT>
0

> <PUBCHEM_COMPONENT_COUNT>
1

> <PUBCHEM_CACTVS_TAUTO_COUNT>
3

> <PUBCHEM_CONFORMER_ID>
0006D81900000001

> <PUBCHEM_MMFF94_ENERGY>
60.231

> <PUBCHEM_FEATURE_SELFOVERLAP>
30.447

> <PUBCHEM_SHAPE_FINGERPRINT>
10366900 7 18186514428534874893
104564 63 18339924792832442081
10906281 52 18129397028286092948
11646440 116 18130798871235594657
12592029 89 16950278473467191938
12788726 201 18270697410649816016
13140716 1 18266458895859843337
13533116 47 18340201896197096762
13760787 19 16660644076447957075
14115302 16 18186806919849492430
14341114 176 15647057049052281551
15099037 51 18335139812416525942
15848700 24 18202843262111810220
15848702 151 16988848262958300981
16752209 62 18335696105492573576
16945 1 18410855473013063775
1813 80 18272378572207267076
18186145 218 18338228362096015613
187816 3 18410857663704853992
19141452 34 17131829889222033293
19784866 9 18113613452605694563
200 152 16950282905968490344
20028762 73 18055641861278493167
20600515 1 18340218469921978116
20645477 70 16009301016701038466
21285901 2 17917162606291067244
23175994 123 18333735723499757565
23402539 116 17988639696664490244
23493267 7 17313098635762053785
23557571 272 17489592229515708168
23559900 14 15554438621982335170
266924 87 18194116322357846868
347723 3 18410856551049855057
34934 24 18129105515976021729
3545911 37 15719391732852524422
4072396 5 18261662693185545291
4214541 1 15791727494979709055
465052 167 17240208741576471315
474 4 17917140731779840409
59755656 215 18270402685366324510
633830 44 18342455975941661781
69090 78 17060620005479420895
7226269 152 18410853270196137312
7495541 125 17531535390133293585
77779 3 15719110262139125926
81228 2 18128838385973970688
8272917 22 16660357039657468298
9971528 1 17775283884826915592

> <PUBCHEM_SHAPE_MULTIPOLES>
399.85
10.42
1.74
1.37
0
0
0.06
0
1.28
0
-0.74
0
0
-0.06

> <PUBCHEM_SHAPE_SELFOVERLAP>
850.96

> <PUBCHEM_SHAPE_VOLUME>
224.1

> <PUBCHEM_COORDINATE_TYPE>
2
5
10

> <Energy>
28.3223

> <minimizedAffinity>
-7.89623

> <CNNscore>
0.8475491405

> <CNNaffinity>
8.0419635773

> <CNN_VS>
6.8159594536

> <CNNaffinity_variance>
1.4875541925

$$$$
448537


 22 23  0  0  0  0  0  0  0  0999 V2000
    9.0599   45.7888  130.8348 C   0  0  0  0  0  0  0  0  0  0  0  0
    8.9843   47.1267  131.0454 C   0  0  0  0  0  0  0  0  0  0  0  0
   13.2546   42.7424  133.0267 O   0  0  0  0  0  0  0  0  0  0  0  0
   10.1698   44.9992  131.4059 C   0  0  0  0  0  0  0  0  0  0  0  0
   11.4251   44.9924  130.7828 C   0  0  0  0  0  0  0  0  0  0  0  0
    9.9752   44.2455  132.5704 C   0  0  0  0  0  0  0  0  0  0  0  0
   12.4729   44.2375  131.3160 C   0  0  0  0  0  0  0  0  0  0  0  0
   11.0226   43.4919  133.1029 C   0  0  0  0  0  0  0  0  0  0  0  0
   12.2606   43.4940  132.4724 C   0  0  0  0  0  0  0  0  0  0  0  0
   14.1025   42.7201  132.6286 H   0  0  0  0  0  0  0  0  0  0  0  0
    4.7435   50.1554  128.9185 O   0  0  0  0  0  0  0  0  0  0  0  0
    7.8730   47.9167  130.4766 C   0  0  0  0  0  0  0  0  0  0  0  0
    7.8204   49.3038  130.6636 C   0  0  0  0  0  0  0  0  0  0  0  0
    6.8563   47.2805  129.7525 C   0  0  0  0  0  0  0  0  0  0  0  0
    6.7613   50.0425  130.1333 C   0  0  0  0  0  0  0  0  0  0  0  0
    5.7981   48.0190  129.2216 C   0  0  0  0  0  0  0  0  0  0  0  0
    5.7600   49.3958  129.4180 C   0  0  0  0  0  0  0  0  0  0  0  0
    4.7363   51.0813  129.0617 H   0  0  0  0  0  0  0  0  0  0  0  0
    8.0494   44.9567  130.0652 C   0  0  0  0  0  0  0  0  0  0  0  0
    8.6974   43.9663  129.1064 C   0  0  0  0  0  0  0  0  0  0  0  0
    9.9520   47.9456  131.8809 C   0  0  0  0  0  0  0  0  0  0  0  0
    9.6379   47.9020  133.3707 C   0  0  0  0  0  0  0  0  0  0  0  0
  3  9  1  0
  3 10  1  0
 11 17  1  0
 11 18  1  0
  1  2  2  0
  1 19  1  0
  1  4  1  0
  2 21  1  0
  2 12  1  0
 19 20  1  0
 21 22  1  0
  4  5  2  0
  4  6  1  0
 12 13  2  0
 12 14  1  0
  5  7  1  0
 13 15  1  0
  6  8  2  0
 14 16  2  0
  7  9  2  0
 15 17  2  0
  8  9  1  0
 16 17  1  0
M  END
> <PUBCHEM_COMPOUND_CID>
448537

> <PUBCHEM_CONFORMER_RMSD>
0.6

> <PUBCHEM_CONFORMER_DIVERSEORDER>
1
3
2

> <PUBCHEM_MMFF94_PARTIAL_CHARGES>
28
1 -0.53
11 -0.15
12 -0.15
13 -0.15
14 -0.15
15 -0.15
16 -0.15
17 -0.15
18 -0.15
19 0.08
2 -0.53
20 0.08
3 -0.17
31 0.15
32 0.15
33 0.15
34 0.15
35 0.15
36 0.15
37 0.15
38 0.15
39 0.45
4 -0.17
40 0.45
5 0.14
6 0.14
7 0.03
8 0.03

> <PUBCHEM_EFFECTIVE_ROTOR_COUNT>
4

> <PUBCHEM_PHARMACOPHORE_FEATURES>
6
1 1 donor
1 10 hydrophobe
1 2 donor
1 9 hydrophobe
6 7 11 13 15 17 19 rings
6 8 12 14 16 18 20 rings

> <PUBCHEM_HEAVY_ATOM_COUNT>
20

> <PUBCHEM_ATOM_DEF_STEREO_COUNT>
0

> <PUBCHEM_ATOM_UDEF_STEREO_COUNT>
0

> <PUBCHEM_BOND_DEF_STEREO_COUNT>
1

> <PUBCHEM_BOND_UDEF_STEREO_COUNT>
0

> <PUBCHEM_ISOTOPIC_ATOM_COUNT>
0

> <PUBCHEM_COMPONENT_COUNT>
1

> <PUBCHEM_CACTVS_TAUTO_COUNT>
3

> <PUBCHEM_CONFORMER_ID>
0006D81900000001

> <PUBCHEM_MMFF94_ENERGY>
60.231

> <PUBCHEM_FEATURE_SELFOVERLAP>
30.447

> <PUBCHEM_SHAPE_FINGERPRINT>
10366900 7 18186514428534874893
104564 63 18339924792832442081
10906281 52 18129397028286092948
11646440 116 18130798871235594657
12592029 89 16950278473467191938
12788726 201 18270697410649816016
13140716 1 18266458895859843337
13533116 47 18340201896197096762
13760787 19 16660644076447957075
14115302 16 18186806919849492430
14341114 176 15647057049052281551
15099037 51 18335139812416525942
15848700 24 18202843262111810220
15848702 151 16988848262958300981
16752209 62 18335696105492573576
16945 1 18410855473013063775
1813 80 18272378572207267076
18186145 218 18338228362096015613
187816 3 18410857663704853992
19141452 34 17131829889222033293
19784866 9 18113613452605694563
200 152 16950282905968490344
20028762 73 18055641861278493167
20600515 1 18340218469921978116
20645477 70 16009301016701038466
21285901 2 17917162606291067244
23175994 123 18333735723499757565
23402539 116 17988639696664490244
23493267 7 17313098635762053785
23557571 272 17489592229515708168
23559900 14 15554438621982335170
266924 87 18194116322357846868
347723 3 18410856551049855057
34934 24 18129105515976021729
3545911 37 15719391732852524422
4072396 5 18261662693185545291
4214541 1 15791727494979709055
465052 167 17240208741576471315
474 4 17917140731779840409
59755656 215 18270402685366324510
633830 44 18342455975941661781
69090 78 17060620005479420895
7226269 152 18410853270196137312
7495541 125 17531535390133293585
77779 3 15719110262139125926
81228 2 18128838385973970688
8272917 22 16660357039657468298
9971528 1 17775283884826915592

> <PUBCHEM_SHAPE_MULTIPOLES>
399.85
10.42
1.74
1.37
0
0
0.06
0
1.28
0
-0.74
0
0
-0.06

> <PUBCHEM_SHAPE_SELFOVERLAP>
850.96

> <PUBCHEM_SHAPE_VOLUME>
224.1

> <PUBCHEM_COORDINATE_TYPE>
2
5
10

> <Energy>
28.3223

> <minimizedAffinity>
-7.89751

> <CNNscore>
0.8377363086

> <CNNaffinity>
8.0048456192

> <CNN_VS>
6.7059497833

> <CNNaffinity_variance>
1.3562186956

$$$$
448537


 22 23  0  0  0  0  0  0  0  0999 V2000
    8.8548   45.9285  131.5059 C   0  0  0  0  0  0  0  0  0  0  0  0
    8.8591   46.6472  130.3555 C   0  0  0  0  0  0  0  0  0  0  0  0
   13.1994   42.6106  132.8460 O   0  0  0  0  0  0  0  0  0  0  0  0
    9.9912   45.0490  131.8473 C   0  0  0  0  0  0  0  0  0  0  0  0
    9.8698   43.6584  131.7234 C   0  0  0  0  0  0  0  0  0  0  0  0
   11.1967   45.5968  132.3042 C   0  0  0  0  0  0  0  0  0  0  0  0
   10.9405   42.8246  132.0561 C   0  0  0  0  0  0  0  0  0  0  0  0
   12.2662   44.7633  132.6359 C   0  0  0  0  0  0  0  0  0  0  0  0
   12.1295   43.3866  132.5094 C   0  0  0  0  0  0  0  0  0  0  0  0
   13.1432   41.6782  132.7732 H   0  0  0  0  0  0  0  0  0  0  0  0
    4.5337   50.0226  129.0986 O   0  0  0  0  0  0  0  0  0  0  0  0
    7.7238   47.5292  130.0146 C   0  0  0  0  0  0  0  0  0  0  0  0
    7.7719   48.8960  130.3163 C   0  0  0  0  0  0  0  0  0  0  0  0
    6.5843   47.0006  129.3941 C   0  0  0  0  0  0  0  0  0  0  0  0
    6.6909   49.7213  130.0019 C   0  0  0  0  0  0  0  0  0  0  0  0
    5.5040   47.8258  129.0789 C   0  0  0  0  0  0  0  0  0  0  0  0
    5.5672   49.1810  129.3871 C   0  0  0  0  0  0  0  0  0  0  0  0
    4.5960   50.9322  129.3143 H   0  0  0  0  0  0  0  0  0  0  0  0
    7.7656   45.9595  132.5634 C   0  0  0  0  0  0  0  0  0  0  0  0
    8.3081   45.8579  133.9831 C   0  0  0  0  0  0  0  0  0  0  0  0
    9.9838   46.6764  129.3361 C   0  0  0  0  0  0  0  0  0  0  0  0
   10.1165   45.3741  128.5574 C   0  0  0  0  0  0  0  0  0  0  0  0
  3  9  1  0
  3 10  1  0
 11 17  1  0
 11 18  1  0
  1  2  2  0
  1 19  1  0
  1  4  1  0
  2 21  1  0
  2 12  1  0
 19 20  1  0
 21 22  1  0
  4  5  2  0
  4  6  1  0
 12 13  2  0
 12 14  1  0
  5  7  1  0
 13 15  1  0
  6  8  2  0
 14 16  2  0
  7  9  2  0
 15 17  2  0
  8  9  1  0
 16 17  1  0
M  END
> <PUBCHEM_COMPOUND_CID>
448537

> <PUBCHEM_CONFORMER_RMSD>
0.6

> <PUBCHEM_CONFORMER_DIVERSEORDER>
1
3
2

> <PUBCHEM_MMFF94_PARTIAL_CHARGES>
28
1 -0.53
11 -0.15
12 -0.15
13 -0.15
14 -0.15
15 -0.15
16 -0.15
17 -0.15
18 -0.15
19 0.08
2 -0.53
20 0.08
3 -0.17
31 0.15
32 0.15
33 0.15
34 0.15
35 0.15
36 0.15
37 0.15
38 0.15
39 0.45
4 -0.17
40 0.45
5 0.14
6 0.14
7 0.03
8 0.03

> <PUBCHEM_EFFECTIVE_ROTOR_COUNT>
4

> <PUBCHEM_PHARMACOPHORE_FEATURES>
6
1 1 donor
1 10 hydrophobe
1 2 donor
1 9 hydrophobe
6 7 11 13 15 17 19 rings
6 8 12 14 16 18 20 rings

> <PUBCHEM_HEAVY_ATOM_COUNT>
20

> <PUBCHEM_ATOM_DEF_STEREO_COUNT>
0

> <PUBCHEM_ATOM_UDEF_STEREO_COUNT>
0

> <PUBCHEM_BOND_DEF_STEREO_COUNT>
1

> <PUBCHEM_BOND_UDEF_STEREO_COUNT>
0

> <PUBCHEM_ISOTOPIC_ATOM_COUNT>
0

> <PUBCHEM_COMPONENT_COUNT>
1

> <PUBCHEM_CACTVS_TAUTO_COUNT>
3

> <PUBCHEM_CONFORMER_ID>
0006D81900000001

> <PUBCHEM_MMFF94_ENERGY>
60.231

> <PUBCHEM_FEATURE_SELFOVERLAP>
30.447

> <PUBCHEM_SHAPE_FINGERPRINT>
10366900 7 18186514428534874893
104564 63 18339924792832442081
10906281 52 18129397028286092948
11646440 116 18130798871235594657
12592029 89 16950278473467191938
12788726 201 18270697410649816016
13140716 1 18266458895859843337
13533116 47 18340201896197096762
13760787 19 16660644076447957075
14115302 16 18186806919849492430
14341114 176 15647057049052281551
15099037 51 18335139812416525942
15848700 24 18202843262111810220
15848702 151 16988848262958300981
16752209 62 18335696105492573576
16945 1 18410855473013063775
1813 80 18272378572207267076
18186145 218 18338228362096015613
187816 3 18410857663704853992
19141452 34 17131829889222033293
19784866 9 18113613452605694563
200 152 16950282905968490344
20028762 73 18055641861278493167
20600515 1 18340218469921978116
20645477 70 16009301016701038466
21285901 2 17917162606291067244
23175994 123 18333735723499757565
23402539 116 17988639696664490244
23493267 7 17313098635762053785
23557571 272 17489592229515708168
23559900 14 15554438621982335170
266924 87 18194116322357846868
347723 3 18410856551049855057
34934 24 18129105515976021729
3545911 37 15719391732852524422
4072396 5 18261662693185545291
4214541 1 15791727494979709055
465052 167 17240208741576471315
474 4 17917140731779840409
59755656 215 18270402685366324510
633830 44 18342455975941661781
69090 78 17060620005479420895
7226269 152 18410853270196137312
7495541 125 17531535390133293585
77779 3 15719110262139125926
81228 2 18128838385973970688
8272917 22 16660357039657468298
9971528 1 17775283884826915592

> <PUBCHEM_SHAPE_MULTIPOLES>
399.85
10.42
1.74
1.37
0
0
0.06
0
1.28
0
-0.74
0
0
-0.06

> <PUBCHEM_SHAPE_SELFOVERLAP>
850.96

> <PUBCHEM_SHAPE_VOLUME>
224.1

> <PUBCHEM_COORDINATE_TYPE>
2
5
10

> <Energy>
28.3223

> <minimizedAffinity>
-8.08899

> <CNNscore>
0.8090842366

> <CNNaffinity>
7.9684615135

> <CNN_VS>
6.4471564293

> <CNNaffinity_variance>
1.1937479973

$$$$
448537


 22 23  0  0  0  0  0  0  0  0999 V2000
    8.8564   45.9369  131.5130 C   0  0  0  0  0  0  0  0  0  0  0  0
    8.8678   46.6707  130.3722 C   0  0  0  0  0  0  0  0  0  0  0  0
   13.1871   42.5736  132.7834 O   0  0  0  0  0  0  0  0  0  0  0  0
    9.9967   45.0631  131.8565 C   0  0  0  0  0  0  0  0  0  0  0  0
   11.2064   45.6200  132.2928 C   0  0  0  0  0  0  0  0  0  0  0  0
    9.8807   43.6719  131.7424 C   0  0  0  0  0  0  0  0  0  0  0  0
   12.2893   44.7953  132.6080 C   0  0  0  0  0  0  0  0  0  0  0  0
   10.9628   42.8484  132.0579 C   0  0  0  0  0  0  0  0  0  0  0  0
   12.1560   43.4159  132.4873 C   0  0  0  0  0  0  0  0  0  0  0  0
   14.0066   42.9211  133.0759 H   0  0  0  0  0  0  0  0  0  0  0  0
    4.5278   50.0243  129.1074 O   0  0  0  0  0  0  0  0  0  0  0  0
    7.7287   47.5468  130.0293 C   0  0  0  0  0  0  0  0  0  0  0  0
    7.7725   48.9154  130.3241 C   0  0  0  0  0  0  0  0  0  0  0  0
    6.5899   47.0112  129.4136 C   0  0  0  0  0  0  0  0  0  0  0  0
    6.6879   49.7352  130.0078 C   0  0  0  0  0  0  0  0  0  0  0  0
    5.5060   47.8309  129.0965 C   0  0  0  0  0  0  0  0  0  0  0  0
    5.5649   49.1878  129.3979 C   0  0  0  0  0  0  0  0  0  0  0  0
    4.5873   50.9352  129.3184 H   0  0  0  0  0  0  0  0  0  0  0  0
    7.7544   45.9441  132.5576 C   0  0  0  0  0  0  0  0  0  0  0  0
    8.2848   45.9521  133.9855 C   0  0  0  0  0  0  0  0  0  0  0  0
   10.0043   46.7234  129.3669 C   0  0  0  0  0  0  0  0  0  0  0  0
   10.1868   45.4174  128.6045 C   0  0  0  0  0  0  0  0  0  0  0  0
  3  9  1  0
  3 10  1  0
 11 17  1  0
 11 18  1  0
  1  2  2  0
  1 19  1  0
  1  4  1  0
  2 21  1  0
  2 12  1  0
 19 20  1  0
 21 22  1  0
  4  5  2  0
  4  6  1  0
 12 13  2  0
 12 14  1  0
  5  7  1  0
 13 15  1  0
  6  8  2  0
 14 16  2  0
  7  9  2  0
 15 17  2  0
  8  9  1  0
 16 17  1  0
M  END
> <PUBCHEM_COMPOUND_CID>
448537

> <PUBCHEM_CONFORMER_RMSD>
0.6

> <PUBCHEM_CONFORMER_DIVERSEORDER>
1
3
2

> <PUBCHEM_MMFF94_PARTIAL_CHARGES>
28
1 -0.53
11 -0.15
12 -0.15
13 -0.15
14 -0.15
15 -0.15
16 -0.15
17 -0.15
18 -0.15
19 0.08
2 -0.53
20 0.08
3 -0.17
31 0.15
32 0.15
33 0.15
34 0.15
35 0.15
36 0.15
37 0.15
38 0.15
39 0.45
4 -0.17
40 0.45
5 0.14
6 0.14
7 0.03
8 0.03

> <PUBCHEM_EFFECTIVE_ROTOR_COUNT>
4

> <PUBCHEM_PHARMACOPHORE_FEATURES>
6
1 1 donor
1 10 hydrophobe
1 2 donor
1 9 hydrophobe
6 7 11 13 15 17 19 rings
6 8 12 14 16 18 20 rings

> <PUBCHEM_HEAVY_ATOM_COUNT>
20

> <PUBCHEM_ATOM_DEF_STEREO_COUNT>
0

> <PUBCHEM_ATOM_UDEF_STEREO_COUNT>
0

> <PUBCHEM_BOND_DEF_STEREO_COUNT>
1

> <PUBCHEM_BOND_UDEF_STEREO_COUNT>
0

> <PUBCHEM_ISOTOPIC_ATOM_COUNT>
0

> <PUBCHEM_COMPONENT_COUNT>
1

> <PUBCHEM_CACTVS_TAUTO_COUNT>
3

> <PUBCHEM_CONFORMER_ID>
0006D81900000001

> <PUBCHEM_MMFF94_ENERGY>
60.231

> <PUBCHEM_FEATURE_SELFOVERLAP>
30.447

> <PUBCHEM_SHAPE_FINGERPRINT>
10366900 7 18186514428534874893
104564 63 18339924792832442081
10906281 52 18129397028286092948
11646440 116 18130798871235594657
12592029 89 16950278473467191938
12788726 201 18270697410649816016
13140716 1 18266458895859843337
13533116 47 18340201896197096762
13760787 19 16660644076447957075
14115302 16 18186806919849492430
14341114 176 15647057049052281551
15099037 51 18335139812416525942
15848700 24 18202843262111810220
15848702 151 16988848262958300981
16752209 62 18335696105492573576
16945 1 18410855473013063775
1813 80 18272378572207267076
18186145 218 18338228362096015613
187816 3 18410857663704853992
19141452 34 17131829889222033293
19784866 9 18113613452605694563
200 152 16950282905968490344
20028762 73 18055641861278493167
20600515 1 18340218469921978116
20645477 70 16009301016701038466
21285901 2 17917162606291067244
23175994 123 18333735723499757565
23402539 116 17988639696664490244
23493267 7 17313098635762053785
23557571 272 17489592229515708168
23559900 14 15554438621982335170
266924 87 18194116322357846868
347723 3 18410856551049855057
34934 24 18129105515976021729
3545911 37 15719391732852524422
4072396 5 18261662693185545291
4214541 1 15791727494979709055
465052 167 17240208741576471315
474 4 17917140731779840409
59755656 215 18270402685366324510
633830 44 18342455975941661781
69090 78 17060620005479420895
7226269 152 18410853270196137312
7495541 125 17531535390133293585
77779 3 15719110262139125926
81228 2 18128838385973970688
8272917 22 16660357039657468298
9971528 1 17775283884826915592

> <PUBCHEM_SHAPE_MULTIPOLES>
399.85
10.42
1.74
1.37
0
0
0.06
0
1.28
0
-0.74
0
0
-0.06

> <PUBCHEM_SHAPE_SELFOVERLAP>
850.96

> <PUBCHEM_SHAPE_VOLUME>
224.1

> <PUBCHEM_COORDINATE_TYPE>
2
5
10

> <Energy>
28.3223

> <minimizedAffinity>
-8.07462

> <CNNscore>
0.8039985895

> <CNNaffinity>
7.9664559364

> <CNN_VS>
6.4050192833

> <CNNaffinity_variance>
1.2023407221

$$$$
