896


 19 20  0  0  0  0  0  0  0  0999 V2000
   -5.4811   -1.7066   23.4190 N   0  0  0  0  0  0  0  0  0  0  0  0
   -3.5978   -2.8829   23.2012 C   0  0  0  0  0  0  0  0  0  0  0  0
   -4.5845   -3.4157   22.3104 C   0  0  0  0  0  0  0  0  0  0  0  0
   -5.7502   -2.6721   22.4774 C   0  0  0  0  0  0  0  0  0  0  0  0
   -4.1906   -1.8269   23.8658 C   0  0  0  0  0  0  0  0  0  0  0  0
   -4.5818   -4.4754   21.3777 C   0  0  0  0  0  0  0  0  0  0  0  0
   -6.9217   -2.9381   21.7617 C   0  0  0  0  0  0  0  0  0  0  0  0
   -5.7430   -4.7699   20.6565 C   0  0  0  0  0  0  0  0  0  0  0  0
   -6.8927   -4.0043   20.8526 C   0  0  0  0  0  0  0  0  0  0  0  0
   -6.1228   -1.0269   23.7278 H   0  0  0  0  0  0  0  0  0  0  0  0
   -5.8698   -5.7786   19.7384 O   0  0  0  0  0  0  0  0  0  0  0  0
   -5.9914   -7.0992   20.2553 C   0  0  0  0  0  0  0  0  0  0  0  0
   -2.1939   -3.3846   23.3695 C   0  0  0  0  0  0  0  0  0  0  0  0
   -1.2299   -2.8395   22.3097 C   0  0  0  0  0  0  0  0  0  0  0  0
   -0.6836   -1.2380   20.0262 O   0  0  0  0  0  0  0  0  0  0  0  0
   -1.6443   -3.1122   20.9430 N   0  0  0  0  0  0  0  0  0  0  0  0
   -1.3550   -2.2558   19.9061 C   0  0  0  0  0  0  0  0  0  0  0  0
   -1.9191   -2.7025   18.5844 C   0  0  0  0  0  0  0  0  0  0  0  0
   -2.1483   -3.9365   20.7535 H   0  0  0  0  0  0  0  0  0  0  0  0
 11  8  1  0
 11 12  1  0
 15 17  2  0
  1  4  1  0
  1  5  1  0
  1 10  1  0
 16 14  1  0
 16 17  1  0
 16 19  1  0
  2  3  1  0
  2 13  1  0
  2  5  2  0
  3  4  2  0
  3  6  1  0
 13 14  1  0
  4  7  1  0
  6  8  2  0
  7  9  2  0
  8  9  1  0
 17 18  1  0
M  END
> <PUBCHEM_COMPOUND_CID>
896

> <PUBCHEM_CONFORMER_RMSD>
0.6

> <PUBCHEM_CONFORMER_DIVERSEORDER>
1
13
50
55
28
16
42
48
27
15
62
60
65
61
36
4
20
58
41
17
59
21
2
63
47
57
40
56
22
64
54
37
51
7
31
53
26
8
49
39
32
11
5
33
38
52
23
45
43
12
14
9
34
44
35
10
25
29
46
6
30
24
3
19
18

> <PUBCHEM_MMFF94_PARTIAL_CHARGES>
22
1 -0.36
10 0.3
11 -0.15
12 -0.15
13 0.08
14 -0.15
15 0.57
16 0.06
17 0.28
2 -0.57
20 0.15
23 0.27
24 0.15
25 0.15
26 0.15
27 0.37
3 0.03
4 -0.73
5 -0.18
7 0.18
8 -0.15
9 -0.3

> <PUBCHEM_EFFECTIVE_ROTOR_COUNT>
5

> <PUBCHEM_PHARMACOPHORE_FEATURES>
7
1 1 acceptor
1 2 acceptor
1 3 cation
1 3 donor
1 4 donor
5 3 5 6 8 9 rings
6 6 8 11 12 13 14 rings

> <PUBCHEM_HEAVY_ATOM_COUNT>
17

> <PUBCHEM_ATOM_DEF_STEREO_COUNT>
0

> <PUBCHEM_ATOM_UDEF_STEREO_COUNT>
0

> <PUBCHEM_BOND_DEF_STEREO_COUNT>
0

> <PUBCHEM_BOND_UDEF_STEREO_COUNT>
0

> <PUBCHEM_ISOTOPIC_ATOM_COUNT>
0

> <PUBCHEM_COMPONENT_COUNT>
1

> <PUBCHEM_CACTVS_TAUTO_COUNT>
2

> <PUBCHEM_CONFORMER_ID>
0000038000000001

> <PUBCHEM_MMFF94_ENERGY>
32.7119

> <PUBCHEM_FEATURE_SELFOVERLAP>
35.612

> <PUBCHEM_SHAPE_FINGERPRINT>
10967382 1 18410853274190255273
11640471 11 17676780867509025316
13027679 85 18194690495324420133
13140716 1 17978229692519098697
13965767 371 16608554374032828400
1420 336 18266184924512803916
14787075 74 17896612875907719035
14790565 3 18341057316043312793
15006816 218 16754940689043299904
16945 1 18195239147136872059
19591789 44 18120376712306458779
19765921 60 17749382706469569763
20510252 161 18342458093286620745
21141583 151 18124894583888822372
21524375 3 17972887951224859043
2334 1 18410572855759727185
23419403 2 17326855944455494142
23557571 272 18201719608641642450
23559900 14 18342173410755765088
2748010 2 18337115553281152647
353137 74 18409164389875307419
44154327 71 18267028250037128041
526903 126 18410576235872810256
537710 114 18408601466050490037
7832392 63 17187566044572678455
9981440 41 18116712022929254594

> <PUBCHEM_SHAPE_MULTIPOLES>
328.15
4.94
3.77
0.97
2.92
1.2
-0.06
0.99
-1.27
-0.81
0.74
0.39
0.23
-0.66

> <PUBCHEM_SHAPE_SELFOVERLAP>
695.133

> <PUBCHEM_SHAPE_VOLUME>
185.3

> <PUBCHEM_COORDINATE_TYPE>
2
5
10

> <Energy>
0.232708

> <minimizedAffinity>
-6.52510

> <CNNscore>
0.7574767470

> <CNNaffinity>
6.7719702721

> <CNN_VS>
5.1296100616

> <CNNaffinity_variance>
0.3941645622

$$$$
896


 19 20  0  0  0  0  0  0  0  0999 V2000
   -3.9163   -2.0691   22.9688 N   0  0  0  0  0  0  0  0  0  0  0  0
   -4.1326   -2.7958   20.8704 C   0  0  0  0  0  0  0  0  0  0  0  0
   -5.2738   -3.2146   21.6275 C   0  0  0  0  0  0  0  0  0  0  0  0
   -5.1052   -2.7593   22.9329 C   0  0  0  0  0  0  0  0  0  0  0  0
   -3.3193   -2.0888   21.7348 C   0  0  0  0  0  0  0  0  0  0  0  0
   -6.4359   -3.9498   21.3086 C   0  0  0  0  0  0  0  0  0  0  0  0
   -6.0395   -3.0075   23.9432 C   0  0  0  0  0  0  0  0  0  0  0  0
   -7.3813   -4.2217   22.3025 C   0  0  0  0  0  0  0  0  0  0  0  0
   -7.1767   -3.7511   23.5998 C   0  0  0  0  0  0  0  0  0  0  0  0
   -3.5470   -1.6247   23.7658 H   0  0  0  0  0  0  0  0  0  0  0  0
   -8.5366   -4.9350   22.1216 O   0  0  0  0  0  0  0  0  0  0  0  0
   -8.6860   -5.6002   20.8721 C   0  0  0  0  0  0  0  0  0  0  0  0
   -3.8818   -3.0771   19.4182 C   0  0  0  0  0  0  0  0  0  0  0  0
   -2.5129   -2.5822   18.9379 C   0  0  0  0  0  0  0  0  0  0  0  0
   -0.4534   -0.9780   20.0616 O   0  0  0  0  0  0  0  0  0  0  0  0
   -1.4016   -3.0472   19.7520 N   0  0  0  0  0  0  0  0  0  0  0  0
   -0.4342   -2.1919   20.2264 C   0  0  0  0  0  0  0  0  0  0  0  0
    0.6508   -2.8864   21.0042 C   0  0  0  0  0  0  0  0  0  0  0  0
   -1.3393   -4.0051   19.9707 H   0  0  0  0  0  0  0  0  0  0  0  0
 11  8  1  0
 11 12  1  0
 15 17  2  0
  1  4  1  0
  1  5  1  0
  1 10  1  0
 16 14  1  0
 16 17  1  0
 16 19  1  0
  2  3  1  0
  2 13  1  0
  2  5  2  0
  3  4  2  0
  3  6  1  0
 13 14  1  0
  4  7  1  0
  6  8  2  0
  7  9  2  0
  8  9  1  0
 17 18  1  0
M  END
> <PUBCHEM_COMPOUND_CID>
896

> <PUBCHEM_CONFORMER_RMSD>
0.6

> <PUBCHEM_CONFORMER_DIVERSEORDER>
1
13
50
55
28
16
42
48
27
15
62
60
65
61
36
4
20
58
41
17
59
21
2
63
47
57
40
56
22
64
54
37
51
7
31
53
26
8
49
39
32
11
5
33
38
52
23
45
43
12
14
9
34
44
35
10
25
29
46
6
30
24
3
19
18

> <PUBCHEM_MMFF94_PARTIAL_CHARGES>
22
1 -0.36
10 0.3
11 -0.15
12 -0.15
13 0.08
14 -0.15
15 0.57
16 0.06
17 0.28
2 -0.57
20 0.15
23 0.27
24 0.15
25 0.15
26 0.15
27 0.37
3 0.03
4 -0.73
5 -0.18
7 0.18
8 -0.15
9 -0.3

> <PUBCHEM_EFFECTIVE_ROTOR_COUNT>
5

> <PUBCHEM_PHARMACOPHORE_FEATURES>
7
1 1 acceptor
1 2 acceptor
1 3 cation
1 3 donor
1 4 donor
5 3 5 6 8 9 rings
6 6 8 11 12 13 14 rings

> <PUBCHEM_HEAVY_ATOM_COUNT>
17

> <PUBCHEM_ATOM_DEF_STEREO_COUNT>
0

> <PUBCHEM_ATOM_UDEF_STEREO_COUNT>
0

> <PUBCHEM_BOND_DEF_STEREO_COUNT>
0

> <PUBCHEM_BOND_UDEF_STEREO_COUNT>
0

> <PUBCHEM_ISOTOPIC_ATOM_COUNT>
0

> <PUBCHEM_COMPONENT_COUNT>
1

> <PUBCHEM_CACTVS_TAUTO_COUNT>
2

> <PUBCHEM_CONFORMER_ID>
0000038000000001

> <PUBCHEM_MMFF94_ENERGY>
32.7119

> <PUBCHEM_FEATURE_SELFOVERLAP>
35.612

> <PUBCHEM_SHAPE_FINGERPRINT>
10967382 1 18410853274190255273
11640471 11 17676780867509025316
13027679 85 18194690495324420133
13140716 1 17978229692519098697
13965767 371 16608554374032828400
1420 336 18266184924512803916
14787075 74 17896612875907719035
14790565 3 18341057316043312793
15006816 218 16754940689043299904
16945 1 18195239147136872059
19591789 44 18120376712306458779
19765921 60 17749382706469569763
20510252 161 18342458093286620745
21141583 151 18124894583888822372
21524375 3 17972887951224859043
2334 1 18410572855759727185
23419403 2 17326855944455494142
23557571 272 18201719608641642450
23559900 14 18342173410755765088
2748010 2 18337115553281152647
353137 74 18409164389875307419
44154327 71 18267028250037128041
526903 126 18410576235872810256
537710 114 18408601466050490037
7832392 63 17187566044572678455
9981440 41 18116712022929254594

> <PUBCHEM_SHAPE_MULTIPOLES>
328.15
4.94
3.77
0.97
2.92
1.2
-0.06
0.99
-1.27
-0.81
0.74
0.39
0.23
-0.66

> <PUBCHEM_SHAPE_SELFOVERLAP>
695.133

> <PUBCHEM_SHAPE_VOLUME>
185.3

> <PUBCHEM_COORDINATE_TYPE>
2
5
10

> <Energy>
0.232708

> <minimizedAffinity>
-5.62409

> <CNNscore>
0.6709713936

> <CNNaffinity>
6.8386421204

> <CNN_VS>
4.5885334015

> <CNNaffinity_variance>
0.6281375289

$$$$
896


 19 20  0  0  0  0  0  0  0  0999 V2000
   -4.5513   -4.4091   19.7118 N   0  0  0  0  0  0  0  0  0  0  0  0
   -3.4629   -4.2124   21.6494 C   0  0  0  0  0  0  0  0  0  0  0  0
   -4.8683   -4.2949   21.9119 C   0  0  0  0  0  0  0  0  0  0  0  0
   -5.5214   -4.4034   20.6866 C   0  0  0  0  0  0  0  0  0  0  0  0
   -3.3089   -4.2893   20.2787 C   0  0  0  0  0  0  0  0  0  0  0  0
   -5.6392   -4.2809   23.0943 C   0  0  0  0  0  0  0  0  0  0  0  0
   -6.9128   -4.4925   20.5806 C   0  0  0  0  0  0  0  0  0  0  0  0
   -7.0333   -4.3576   23.0165 C   0  0  0  0  0  0  0  0  0  0  0  0
   -7.6523   -4.4628   21.7706 C   0  0  0  0  0  0  0  0  0  0  0  0
   -4.7241   -4.4879   18.7458 H   0  0  0  0  0  0  0  0  0  0  0  0
   -7.8878   -4.3379   24.0869 O   0  0  0  0  0  0  0  0  0  0  0  0
   -7.5844   -3.4156   25.1277 C   0  0  0  0  0  0  0  0  0  0  0  0
   -2.3775   -4.0707   22.6755 C   0  0  0  0  0  0  0  0  0  0  0  0
   -1.6389   -2.7304   22.5877 C   0  0  0  0  0  0  0  0  0  0  0  0
    0.5685   -2.3851   20.8311 O   0  0  0  0  0  0  0  0  0  0  0  0
   -1.6723   -2.1270   21.2653 N   0  0  0  0  0  0  0  0  0  0  0  0
   -0.5386   -1.9772   20.5007 C   0  0  0  0  0  0  0  0  0  0  0  0
   -0.7878   -1.2844   19.1883 C   0  0  0  0  0  0  0  0  0  0  0  0
   -2.5341   -1.8154   20.9055 H   0  0  0  0  0  0  0  0  0  0  0  0
 11  8  1  0
 11 12  1  0
 15 17  2  0
  1  4  1  0
  1  5  1  0
  1 10  1  0
 16 14  1  0
 16 17  1  0
 16 19  1  0
  2  3  1  0
  2 13  1  0
  2  5  2  0
  3  4  2  0
  3  6  1  0
 13 14  1  0
  4  7  1  0
  6  8  2  0
  7  9  2  0
  8  9  1  0
 17 18  1  0
M  END
> <PUBCHEM_COMPOUND_CID>
896

> <PUBCHEM_CONFORMER_RMSD>
0.6

> <PUBCHEM_CONFORMER_DIVERSEORDER>
1
13
50
55
28
16
42
48
27
15
62
60
65
61
36
4
20
58
41
17
59
21
2
63
47
57
40
56
22
64
54
37
51
7
31
53
26
8
49
39
32
11
5
33
38
52
23
45
43
12
14
9
34
44
35
10
25
29
46
6
30
24
3
19
18

> <PUBCHEM_MMFF94_PARTIAL_CHARGES>
22
1 -0.36
10 0.3
11 -0.15
12 -0.15
13 0.08
14 -0.15
15 0.57
16 0.06
17 0.28
2 -0.57
20 0.15
23 0.27
24 0.15
25 0.15
26 0.15
27 0.37
3 0.03
4 -0.73
5 -0.18
7 0.18
8 -0.15
9 -0.3

> <PUBCHEM_EFFECTIVE_ROTOR_COUNT>
5

> <PUBCHEM_PHARMACOPHORE_FEATURES>
7
1 1 acceptor
1 2 acceptor
1 3 cation
1 3 donor
1 4 donor
5 3 5 6 8 9 rings
6 6 8 11 12 13 14 rings

> <PUBCHEM_HEAVY_ATOM_COUNT>
17

> <PUBCHEM_ATOM_DEF_STEREO_COUNT>
0

> <PUBCHEM_ATOM_UDEF_STEREO_COUNT>
0

> <PUBCHEM_BOND_DEF_STEREO_COUNT>
0

> <PUBCHEM_BOND_UDEF_STEREO_COUNT>
0

> <PUBCHEM_ISOTOPIC_ATOM_COUNT>
0

> <PUBCHEM_COMPONENT_COUNT>
1

> <PUBCHEM_CACTVS_TAUTO_COUNT>
2

> <PUBCHEM_CONFORMER_ID>
0000038000000001

> <PUBCHEM_MMFF94_ENERGY>
32.7119

> <PUBCHEM_FEATURE_SELFOVERLAP>
35.612

> <PUBCHEM_SHAPE_FINGERPRINT>
10967382 1 18410853274190255273
11640471 11 17676780867509025316
13027679 85 18194690495324420133
13140716 1 17978229692519098697
13965767 371 16608554374032828400
1420 336 18266184924512803916
14787075 74 17896612875907719035
14790565 3 18341057316043312793
15006816 218 16754940689043299904
16945 1 18195239147136872059
19591789 44 18120376712306458779
19765921 60 17749382706469569763
20510252 161 18342458093286620745
21141583 151 18124894583888822372
21524375 3 17972887951224859043
2334 1 18410572855759727185
23419403 2 17326855944455494142
23557571 272 18201719608641642450
23559900 14 18342173410755765088
2748010 2 18337115553281152647
353137 74 18409164389875307419
44154327 71 18267028250037128041
526903 126 18410576235872810256
537710 114 18408601466050490037
7832392 63 17187566044572678455
9981440 41 18116712022929254594

> <PUBCHEM_SHAPE_MULTIPOLES>
328.15
4.94
3.77
0.97
2.92
1.2
-0.06
0.99
-1.27
-0.81
0.74
0.39
0.23
-0.66

> <PUBCHEM_SHAPE_SELFOVERLAP>
695.133

> <PUBCHEM_SHAPE_VOLUME>
185.3

> <PUBCHEM_COORDINATE_TYPE>
2
5
10

> <Energy>
0.232708

> <minimizedAffinity>
-6.51330

> <CNNscore>
0.6126818657

> <CNNaffinity>
6.8933601379

> <CNN_VS>
4.2234368324

> <CNNaffinity_variance>
0.8161777854

$$$$
896


 19 20  0  0  0  0  0  0  0  0999 V2000
   -4.9344   -3.4211   19.5827 N   0  0  0  0  0  0  0  0  0  0  0  0
   -4.2110   -2.5914   21.5234 C   0  0  0  0  0  0  0  0  0  0  0  0
   -5.4372   -3.2964   21.7474 C   0  0  0  0  0  0  0  0  0  0  0  0
   -5.8708   -3.7908   20.5197 C   0  0  0  0  0  0  0  0  0  0  0  0
   -3.9336   -2.6943   20.1740 C   0  0  0  0  0  0  0  0  0  0  0  0
   -6.2172   -3.5501   22.8963 C   0  0  0  0  0  0  0  0  0  0  0  0
   -7.0532   -4.5238   20.3785 C   0  0  0  0  0  0  0  0  0  0  0  0
   -7.4098   -4.2713   22.7818 C   0  0  0  0  0  0  0  0  0  0  0  0
   -7.8132   -4.7485   21.5344 C   0  0  0  0  0  0  0  0  0  0  0  0
   -4.9766   -3.6461   18.6253 H   0  0  0  0  0  0  0  0  0  0  0  0
   -8.2578   -4.5674   23.8159 O   0  0  0  0  0  0  0  0  0  0  0  0
   -8.0483   -3.8615   25.0340 C   0  0  0  0  0  0  0  0  0  0  0  0
   -3.3947   -1.8824   22.5636 C   0  0  0  0  0  0  0  0  0  0  0  0
   -2.2043   -2.7105   23.0605 C   0  0  0  0  0  0  0  0  0  0  0  0
   -1.0363   -4.0099   20.8188 O   0  0  0  0  0  0  0  0  0  0  0  0
   -0.9435   -2.3679   22.4225 N   0  0  0  0  0  0  0  0  0  0  0  0
   -0.4461   -3.0802   21.3559 C   0  0  0  0  0  0  0  0  0  0  0  0
    0.8945   -2.5893   20.8801 C   0  0  0  0  0  0  0  0  0  0  0  0
   -0.4292   -1.6014   22.7649 H   0  0  0  0  0  0  0  0  0  0  0  0
 11  8  1  0
 11 12  1  0
 15 17  2  0
  1  4  1  0
  1  5  1  0
  1 10  1  0
 16 14  1  0
 16 17  1  0
 16 19  1  0
  2  3  1  0
  2 13  1  0
  2  5  2  0
  3  4  2  0
  3  6  1  0
 13 14  1  0
  4  7  1  0
  6  8  2  0
  7  9  2  0
  8  9  1  0
 17 18  1  0
M  END
> <PUBCHEM_COMPOUND_CID>
896

> <PUBCHEM_CONFORMER_RMSD>
0.6

> <PUBCHEM_CONFORMER_DIVERSEORDER>
1
13
50
55
28
16
42
48
27
15
62
60
65
61
36
4
20
58
41
17
59
21
2
63
47
57
40
56
22
64
54
37
51
7
31
53
26
8
49
39
32
11
5
33
38
52
23
45
43
12
14
9
34
44
35
10
25
29
46
6
30
24
3
19
18

> <PUBCHEM_MMFF94_PARTIAL_CHARGES>
22
1 -0.36
10 0.3
11 -0.15
12 -0.15
13 0.08
14 -0.15
15 0.57
16 0.06
17 0.28
2 -0.57
20 0.15
23 0.27
24 0.15
25 0.15
26 0.15
27 0.37
3 0.03
4 -0.73
5 -0.18
7 0.18
8 -0.15
9 -0.3

> <PUBCHEM_EFFECTIVE_ROTOR_COUNT>
5

> <PUBCHEM_PHARMACOPHORE_FEATURES>
7
1 1 acceptor
1 2 acceptor
1 3 cation
1 3 donor
1 4 donor
5 3 5 6 8 9 rings
6 6 8 11 12 13 14 rings

> <PUBCHEM_HEAVY_ATOM_COUNT>
17

> <PUBCHEM_ATOM_DEF_STEREO_COUNT>
0

> <PUBCHEM_ATOM_UDEF_STEREO_COUNT>
0

> <PUBCHEM_BOND_DEF_STEREO_COUNT>
0

> <PUBCHEM_BOND_UDEF_STEREO_COUNT>
0

> <PUBCHEM_ISOTOPIC_ATOM_COUNT>
0

> <PUBCHEM_COMPONENT_COUNT>
1

> <PUBCHEM_CACTVS_TAUTO_COUNT>
2

> <PUBCHEM_CONFORMER_ID>
0000038000000001

> <PUBCHEM_MMFF94_ENERGY>
32.7119

> <PUBCHEM_FEATURE_SELFOVERLAP>
35.612

> <PUBCHEM_SHAPE_FINGERPRINT>
10967382 1 18410853274190255273
11640471 11 17676780867509025316
13027679 85 18194690495324420133
13140716 1 17978229692519098697
13965767 371 16608554374032828400
1420 336 18266184924512803916
14787075 74 17896612875907719035
14790565 3 18341057316043312793
15006816 218 16754940689043299904
16945 1 18195239147136872059
19591789 44 18120376712306458779
19765921 60 17749382706469569763
20510252 161 18342458093286620745
21141583 151 18124894583888822372
21524375 3 17972887951224859043
2334 1 18410572855759727185
23419403 2 17326855944455494142
23557571 272 18201719608641642450
23559900 14 18342173410755765088
2748010 2 18337115553281152647
353137 74 18409164389875307419
44154327 71 18267028250037128041
526903 126 18410576235872810256
537710 114 18408601466050490037
7832392 63 17187566044572678455
9981440 41 18116712022929254594

> <PUBCHEM_SHAPE_MULTIPOLES>
328.15
4.94
3.77
0.97
2.92
1.2
-0.06
0.99
-1.27
-0.81
0.74
0.39
0.23
-0.66

> <PUBCHEM_SHAPE_SELFOVERLAP>
695.133

> <PUBCHEM_SHAPE_VOLUME>
185.3

> <PUBCHEM_COORDINATE_TYPE>
2
5
10

> <Energy>
0.232708

> <minimizedAffinity>
-5.64773

> <CNNscore>
0.5098910332

> <CNNaffinity>
6.6662116051

> <CNN_VS>
3.3990414143

> <CNNaffinity_variance>
0.7356467247

$$$$
896


 19 20  0  0  0  0  0  0  0  0999 V2000
   -3.2204   -1.6651   23.8057 N   0  0  0  0  0  0  0  0  0  0  0  0
   -3.0208   -3.6128   22.7359 C   0  0  0  0  0  0  0  0  0  0  0  0
   -4.3756   -3.4598   23.1741 C   0  0  0  0  0  0  0  0  0  0  0  0
   -4.4669   -2.2445   23.8483 C   0  0  0  0  0  0  0  0  0  0  0  0
   -2.3405   -2.4817   23.1436 C   0  0  0  0  0  0  0  0  0  0  0  0
   -5.5322   -4.2603   23.0560 C   0  0  0  0  0  0  0  0  0  0  0  0
   -5.6589   -1.7883   24.4194 C   0  0  0  0  0  0  0  0  0  0  0  0
   -6.7350   -3.8331   23.6273 C   0  0  0  0  0  0  0  0  0  0  0  0
   -6.7872   -2.6105   24.2975 C   0  0  0  0  0  0  0  0  0  0  0  0
   -2.9926   -0.7900   24.1947 H   0  0  0  0  0  0  0  0  0  0  0  0
   -7.9166   -4.5251   23.5939 O   0  0  0  0  0  0  0  0  0  0  0  0
   -8.7135   -4.4827   24.7726 C   0  0  0  0  0  0  0  0  0  0  0  0
   -2.4617   -4.7819   21.9798 C   0  0  0  0  0  0  0  0  0  0  0  0
   -1.5236   -4.3675   20.8405 C   0  0  0  0  0  0  0  0  0  0  0  0
   -0.9625   -1.9090   19.5295 O   0  0  0  0  0  0  0  0  0  0  0  0
   -2.2126   -3.8303   19.6784 N   0  0  0  0  0  0  0  0  0  0  0  0
   -1.8851   -2.6108   19.1326 C   0  0  0  0  0  0  0  0  0  0  0  0
   -2.7542   -2.2227   17.9671 C   0  0  0  0  0  0  0  0  0  0  0  0
   -2.9371   -4.3564   19.2687 H   0  0  0  0  0  0  0  0  0  0  0  0
 11  8  1  0
 11 12  1  0
 15 17  2  0
  1  4  1  0
  1  5  1  0
  1 10  1  0
 16 14  1  0
 16 17  1  0
 16 19  1  0
  2  3  1  0
  2 13  1  0
  2  5  2  0
  3  4  2  0
  3  6  1  0
 13 14  1  0
  4  7  1  0
  6  8  2  0
  7  9  2  0
  8  9  1  0
 17 18  1  0
M  END
> <PUBCHEM_COMPOUND_CID>
896

> <PUBCHEM_CONFORMER_RMSD>
0.6

> <PUBCHEM_CONFORMER_DIVERSEORDER>
1
13
50
55
28
16
42
48
27
15
62
60
65
61
36
4
20
58
41
17
59
21
2
63
47
57
40
56
22
64
54
37
51
7
31
53
26
8
49
39
32
11
5
33
38
52
23
45
43
12
14
9
34
44
35
10
25
29
46
6
30
24
3
19
18

> <PUBCHEM_MMFF94_PARTIAL_CHARGES>
22
1 -0.36
10 0.3
11 -0.15
12 -0.15
13 0.08
14 -0.15
15 0.57
16 0.06
17 0.28
2 -0.57
20 0.15
23 0.27
24 0.15
25 0.15
26 0.15
27 0.37
3 0.03
4 -0.73
5 -0.18
7 0.18
8 -0.15
9 -0.3

> <PUBCHEM_EFFECTIVE_ROTOR_COUNT>
5

> <PUBCHEM_PHARMACOPHORE_FEATURES>
7
1 1 acceptor
1 2 acceptor
1 3 cation
1 3 donor
1 4 donor
5 3 5 6 8 9 rings
6 6 8 11 12 13 14 rings

> <PUBCHEM_HEAVY_ATOM_COUNT>
17

> <PUBCHEM_ATOM_DEF_STEREO_COUNT>
0

> <PUBCHEM_ATOM_UDEF_STEREO_COUNT>
0

> <PUBCHEM_BOND_DEF_STEREO_COUNT>
0

> <PUBCHEM_BOND_UDEF_STEREO_COUNT>
0

> <PUBCHEM_ISOTOPIC_ATOM_COUNT>
0

> <PUBCHEM_COMPONENT_COUNT>
1

> <PUBCHEM_CACTVS_TAUTO_COUNT>
2

> <PUBCHEM_CONFORMER_ID>
0000038000000001

> <PUBCHEM_MMFF94_ENERGY>
32.7119

> <PUBCHEM_FEATURE_SELFOVERLAP>
35.612

> <PUBCHEM_SHAPE_FINGERPRINT>
10967382 1 18410853274190255273
11640471 11 17676780867509025316
13027679 85 18194690495324420133
13140716 1 17978229692519098697
13965767 371 16608554374032828400
1420 336 18266184924512803916
14787075 74 17896612875907719035
14790565 3 18341057316043312793
15006816 218 16754940689043299904
16945 1 18195239147136872059
19591789 44 18120376712306458779
19765921 60 17749382706469569763
20510252 161 18342458093286620745
21141583 151 18124894583888822372
21524375 3 17972887951224859043
2334 1 18410572855759727185
23419403 2 17326855944455494142
23557571 272 18201719608641642450
23559900 14 18342173410755765088
2748010 2 18337115553281152647
353137 74 18409164389875307419
44154327 71 18267028250037128041
526903 126 18410576235872810256
537710 114 18408601466050490037
7832392 63 17187566044572678455
9981440 41 18116712022929254594

> <PUBCHEM_SHAPE_MULTIPOLES>
328.15
4.94
3.77
0.97
2.92
1.2
-0.06
0.99
-1.27
-0.81
0.74
0.39
0.23
-0.66

> <PUBCHEM_SHAPE_SELFOVERLAP>
695.133

> <PUBCHEM_SHAPE_VOLUME>
185.3

> <PUBCHEM_COORDINATE_TYPE>
2
5
10

> <Energy>
0.232708

> <minimizedAffinity>
-5.65270

> <CNNscore>
0.4431827366

> <CNNaffinity>
6.5404129028

> <CNN_VS>
2.8985981941

> <CNNaffinity_variance>
0.6849422455

$$$$
896


 19 20  0  0  0  0  0  0  0  0999 V2000
   -5.5301   -4.5970   19.7583 N   0  0  0  0  0  0  0  0  0  0  0  0
   -5.4478   -4.7462   21.9829 C   0  0  0  0  0  0  0  0  0  0  0  0
   -4.2451   -4.1263   21.5138 C   0  0  0  0  0  0  0  0  0  0  0  0
   -4.3187   -4.0587   20.1246 C   0  0  0  0  0  0  0  0  0  0  0  0
   -6.2160   -5.0191   20.8677 C   0  0  0  0  0  0  0  0  0  0  0  0
   -3.0959   -3.6210   22.1591 C   0  0  0  0  0  0  0  0  0  0  0  0
   -3.2950   -3.5155   19.3422 C   0  0  0  0  0  0  0  0  0  0  0  0
   -2.0523   -3.0822   21.4000 C   0  0  0  0  0  0  0  0  0  0  0  0
   -2.1609   -3.0338   20.0099 C   0  0  0  0  0  0  0  0  0  0  0  0
   -5.8575   -4.6689   18.8328 H   0  0  0  0  0  0  0  0  0  0  0  0
   -0.8844   -2.5768   21.9067 O   0  0  0  0  0  0  0  0  0  0  0  0
    0.2026   -2.4489   20.9966 C   0  0  0  0  0  0  0  0  0  0  0  0
   -5.7941   -5.0366   23.4136 C   0  0  0  0  0  0  0  0  0  0  0  0
   -6.6625   -3.9482   24.0546 C   0  0  0  0  0  0  0  0  0  0  0  0
   -5.0014   -1.7112   24.6152 O   0  0  0  0  0  0  0  0  0  0  0  0
   -6.6437   -2.6837   23.3372 N   0  0  0  0  0  0  0  0  0  0  0  0
   -5.8203   -1.6454   23.7062 C   0  0  0  0  0  0  0  0  0  0  0  0
   -5.9954   -0.4122   22.8618 C   0  0  0  0  0  0  0  0  0  0  0  0
   -7.2397   -2.5668   22.5623 H   0  0  0  0  0  0  0  0  0  0  0  0
 11  8  1  0
 11 12  1  0
 15 17  2  0
  1  4  1  0
  1  5  1  0
  1 10  1  0
 16 14  1  0
 16 17  1  0
 16 19  1  0
  2  3  1  0
  2 13  1  0
  2  5  2  0
  3  4  2  0
  3  6  1  0
 13 14  1  0
  4  7  1  0
  6  8  2  0
  7  9  2  0
  8  9  1  0
 17 18  1  0
M  END
> <PUBCHEM_COMPOUND_CID>
896

> <PUBCHEM_CONFORMER_RMSD>
0.6

> <PUBCHEM_CONFORMER_DIVERSEORDER>
1
13
50
55
28
16
42
48
27
15
62
60
65
61
36
4
20
58
41
17
59
21
2
63
47
57
40
56
22
64
54
37
51
7
31
53
26
8
49
39
32
11
5
33
38
52
23
45
43
12
14
9
34
44
35
10
25
29
46
6
30
24
3
19
18

> <PUBCHEM_MMFF94_PARTIAL_CHARGES>
22
1 -0.36
10 0.3
11 -0.15
12 -0.15
13 0.08
14 -0.15
15 0.57
16 0.06
17 0.28
2 -0.57
20 0.15
23 0.27
24 0.15
25 0.15
26 0.15
27 0.37
3 0.03
4 -0.73
5 -0.18
7 0.18
8 -0.15
9 -0.3

> <PUBCHEM_EFFECTIVE_ROTOR_COUNT>
5

> <PUBCHEM_PHARMACOPHORE_FEATURES>
7
1 1 acceptor
1 2 acceptor
1 3 cation
1 3 donor
1 4 donor
5 3 5 6 8 9 rings
6 6 8 11 12 13 14 rings

> <PUBCHEM_HEAVY_ATOM_COUNT>
17

> <PUBCHEM_ATOM_DEF_STEREO_COUNT>
0

> <PUBCHEM_ATOM_UDEF_STEREO_COUNT>
0

> <PUBCHEM_BOND_DEF_STEREO_COUNT>
0

> <PUBCHEM_BOND_UDEF_STEREO_COUNT>
0

> <PUBCHEM_ISOTOPIC_ATOM_COUNT>
0

> <PUBCHEM_COMPONENT_COUNT>
1

> <PUBCHEM_CACTVS_TAUTO_COUNT>
2

> <PUBCHEM_CONFORMER_ID>
0000038000000001

> <PUBCHEM_MMFF94_ENERGY>
32.7119

> <PUBCHEM_FEATURE_SELFOVERLAP>
35.612

> <PUBCHEM_SHAPE_FINGERPRINT>
10967382 1 18410853274190255273
11640471 11 17676780867509025316
13027679 85 18194690495324420133
13140716 1 17978229692519098697
13965767 371 16608554374032828400
1420 336 18266184924512803916
14787075 74 17896612875907719035
14790565 3 18341057316043312793
15006816 218 16754940689043299904
16945 1 18195239147136872059
19591789 44 18120376712306458779
19765921 60 17749382706469569763
20510252 161 18342458093286620745
21141583 151 18124894583888822372
21524375 3 17972887951224859043
2334 1 18410572855759727185
23419403 2 17326855944455494142
23557571 272 18201719608641642450
23559900 14 18342173410755765088
2748010 2 18337115553281152647
353137 74 18409164389875307419
44154327 71 18267028250037128041
526903 126 18410576235872810256
537710 114 18408601466050490037
7832392 63 17187566044572678455
9981440 41 18116712022929254594

> <PUBCHEM_SHAPE_MULTIPOLES>
328.15
4.94
3.77
0.97
2.92
1.2
-0.06
0.99
-1.27
-0.81
0.74
0.39
0.23
-0.66

> <PUBCHEM_SHAPE_SELFOVERLAP>
695.133

> <PUBCHEM_SHAPE_VOLUME>
185.3

> <PUBCHEM_COORDINATE_TYPE>
2
5
10

> <Energy>
0.232708

> <minimizedAffinity>
-6.33903

> <CNNscore>
0.3605418801

> <CNNaffinity>
6.2606739998

> <CNN_VS>
2.2572352886

> <CNNaffinity_variance>
0.1053249240

$$$$
896


 19 20  0  0  0  0  0  0  0  0999 V2000
   -6.7701   -4.6929   19.7214 N   0  0  0  0  0  0  0  0  0  0  0  0
   -5.0566   -5.3382   20.9962 C   0  0  0  0  0  0  0  0  0  0  0  0
   -5.5081   -4.0536   21.4397 C   0  0  0  0  0  0  0  0  0  0  0  0
   -6.5668   -3.6714   20.6194 C   0  0  0  0  0  0  0  0  0  0  0  0
   -5.8638   -5.6991   19.9348 C   0  0  0  0  0  0  0  0  0  0  0  0
   -5.0979   -3.1813   22.4710 C   0  0  0  0  0  0  0  0  0  0  0  0
   -7.2361   -2.4533   20.7728 C   0  0  0  0  0  0  0  0  0  0  0  0
   -5.7428   -1.9521   22.6397 C   0  0  0  0  0  0  0  0  0  0  0  0
   -6.7980   -1.6025   21.7966 C   0  0  0  0  0  0  0  0  0  0  0  0
   -7.4663   -4.7005   19.0254 H   0  0  0  0  0  0  0  0  0  0  0  0
   -5.4277   -1.0171   23.5898 O   0  0  0  0  0  0  0  0  0  0  0  0
   -4.2675   -1.2714   24.3742 C   0  0  0  0  0  0  0  0  0  0  0  0
   -3.9238   -6.1290   21.5814 C   0  0  0  0  0  0  0  0  0  0  0  0
   -2.7181   -5.2616   21.9602 C   0  0  0  0  0  0  0  0  0  0  0  0
   -1.3597   -2.7840   22.2668 O   0  0  0  0  0  0  0  0  0  0  0  0
   -2.2664   -4.3852   20.8917 N   0  0  0  0  0  0  0  0  0  0  0  0
   -1.6415   -3.1859   21.1441 C   0  0  0  0  0  0  0  0  0  0  0  0
   -1.3018   -2.4130   19.8985 C   0  0  0  0  0  0  0  0  0  0  0  0
   -2.4124   -4.6588   19.9573 H   0  0  0  0  0  0  0  0  0  0  0  0
 11  8  1  0
 11 12  1  0
 15 17  2  0
  1  4  1  0
  1  5  1  0
  1 10  1  0
 16 14  1  0
 16 17  1  0
 16 19  1  0
  2  3  1  0
  2 13  1  0
  2  5  2  0
  3  4  2  0
  3  6  1  0
 13 14  1  0
  4  7  1  0
  6  8  2  0
  7  9  2  0
  8  9  1  0
 17 18  1  0
M  END
> <PUBCHEM_COMPOUND_CID>
896

> <PUBCHEM_CONFORMER_RMSD>
0.6

> <PUBCHEM_CONFORMER_DIVERSEORDER>
1
13
50
55
28
16
42
48
27
15
62
60
65
61
36
4
20
58
41
17
59
21
2
63
47
57
40
56
22
64
54
37
51
7
31
53
26
8
49
39
32
11
5
33
38
52
23
45
43
12
14
9
34
44
35
10
25
29
46
6
30
24
3
19
18

> <PUBCHEM_MMFF94_PARTIAL_CHARGES>
22
1 -0.36
10 0.3
11 -0.15
12 -0.15
13 0.08
14 -0.15
15 0.57
16 0.06
17 0.28
2 -0.57
20 0.15
23 0.27
24 0.15
25 0.15
26 0.15
27 0.37
3 0.03
4 -0.73
5 -0.18
7 0.18
8 -0.15
9 -0.3

> <PUBCHEM_EFFECTIVE_ROTOR_COUNT>
5

> <PUBCHEM_PHARMACOPHORE_FEATURES>
7
1 1 acceptor
1 2 acceptor
1 3 cation
1 3 donor
1 4 donor
5 3 5 6 8 9 rings
6 6 8 11 12 13 14 rings

> <PUBCHEM_HEAVY_ATOM_COUNT>
17

> <PUBCHEM_ATOM_DEF_STEREO_COUNT>
0

> <PUBCHEM_ATOM_UDEF_STEREO_COUNT>
0

> <PUBCHEM_BOND_DEF_STEREO_COUNT>
0

> <PUBCHEM_BOND_UDEF_STEREO_COUNT>
0

> <PUBCHEM_ISOTOPIC_ATOM_COUNT>
0

> <PUBCHEM_COMPONENT_COUNT>
1

> <PUBCHEM_CACTVS_TAUTO_COUNT>
2

> <PUBCHEM_CONFORMER_ID>
0000038000000001

> <PUBCHEM_MMFF94_ENERGY>
32.7119

> <PUBCHEM_FEATURE_SELFOVERLAP>
35.612

> <PUBCHEM_SHAPE_FINGERPRINT>
10967382 1 18410853274190255273
11640471 11 17676780867509025316
13027679 85 18194690495324420133
13140716 1 17978229692519098697
13965767 371 16608554374032828400
1420 336 18266184924512803916
14787075 74 17896612875907719035
14790565 3 18341057316043312793
15006816 218 16754940689043299904
16945 1 18195239147136872059
19591789 44 18120376712306458779
19765921 60 17749382706469569763
20510252 161 18342458093286620745
21141583 151 18124894583888822372
21524375 3 17972887951224859043
2334 1 18410572855759727185
23419403 2 17326855944455494142
23557571 272 18201719608641642450
23559900 14 18342173410755765088
2748010 2 18337115553281152647
353137 74 18409164389875307419
44154327 71 18267028250037128041
526903 126 18410576235872810256
537710 114 18408601466050490037
7832392 63 17187566044572678455
9981440 41 18116712022929254594

> <PUBCHEM_SHAPE_MULTIPOLES>
328.15
4.94
3.77
0.97
2.92
1.2
-0.06
0.99
-1.27
-0.81
0.74
0.39
0.23
-0.66

> <PUBCHEM_SHAPE_SELFOVERLAP>
695.133

> <PUBCHEM_SHAPE_VOLUME>
185.3

> <PUBCHEM_COORDINATE_TYPE>
2
5
10

> <Energy>
0.232708

> <minimizedAffinity>
-5.50092

> <CNNscore>
0.3591837883

> <CNNaffinity>
6.6388001442

> <CNN_VS>
2.3845493793

> <CNNaffinity_variance>
0.4972845018

$$$$
896


 19 20  0  0  0  0  0  0  0  0999 V2000
   -3.5594   -2.1566   24.0722 N   0  0  0  0  0  0  0  0  0  0  0  0
   -2.1676   -3.0390   22.5682 C   0  0  0  0  0  0  0  0  0  0  0  0
   -3.3739   -3.8104   22.5941 C   0  0  0  0  0  0  0  0  0  0  0  0
   -4.2162   -3.2456   23.5488 C   0  0  0  0  0  0  0  0  0  0  0  0
   -2.3235   -2.0253   23.4937 C   0  0  0  0  0  0  0  0  0  0  0  0
   -3.8160   -4.9482   21.8853 C   0  0  0  0  0  0  0  0  0  0  0  0
   -5.4815   -3.7656   23.8381 C   0  0  0  0  0  0  0  0  0  0  0  0
   -5.0728   -5.4953   22.1625 C   0  0  0  0  0  0  0  0  0  0  0  0
   -5.8878   -4.9034   23.1278 C   0  0  0  0  0  0  0  0  0  0  0  0
   -3.9243   -1.5574   24.7628 H   0  0  0  0  0  0  0  0  0  0  0  0
   -5.6053   -6.6019   21.5558 O   0  0  0  0  0  0  0  0  0  0  0  0
   -4.7443   -7.7261   21.4116 C   0  0  0  0  0  0  0  0  0  0  0  0
   -0.9725   -3.2937   21.6976 C   0  0  0  0  0  0  0  0  0  0  0  0
   -1.3149   -4.0638   20.4173 C   0  0  0  0  0  0  0  0  0  0  0  0
   -3.7844   -3.1039   19.3887 O   0  0  0  0  0  0  0  0  0  0  0  0
   -1.4941   -3.2142   19.2511 N   0  0  0  0  0  0  0  0  0  0  0  0
   -2.7390   -2.8260   18.8131 C   0  0  0  0  0  0  0  0  0  0  0  0
   -2.7009   -1.9908   17.5619 C   0  0  0  0  0  0  0  0  0  0  0  0
   -0.6988   -2.9068   18.7589 H   0  0  0  0  0  0  0  0  0  0  0  0
 11  8  1  0
 11 12  1  0
 15 17  2  0
  1  4  1  0
  1  5  1  0
  1 10  1  0
 16 14  1  0
 16 17  1  0
 16 19  1  0
  2  3  1  0
  2 13  1  0
  2  5  2  0
  3  4  2  0
  3  6  1  0
 13 14  1  0
  4  7  1  0
  6  8  2  0
  7  9  2  0
  8  9  1  0
 17 18  1  0
M  END
> <PUBCHEM_COMPOUND_CID>
896

> <PUBCHEM_CONFORMER_RMSD>
0.6

> <PUBCHEM_CONFORMER_DIVERSEORDER>
1
13
50
55
28
16
42
48
27
15
62
60
65
61
36
4
20
58
41
17
59
21
2
63
47
57
40
56
22
64
54
37
51
7
31
53
26
8
49
39
32
11
5
33
38
52
23
45
43
12
14
9
34
44
35
10
25
29
46
6
30
24
3
19
18

> <PUBCHEM_MMFF94_PARTIAL_CHARGES>
22
1 -0.36
10 0.3
11 -0.15
12 -0.15
13 0.08
14 -0.15
15 0.57
16 0.06
17 0.28
2 -0.57
20 0.15
23 0.27
24 0.15
25 0.15
26 0.15
27 0.37
3 0.03
4 -0.73
5 -0.18
7 0.18
8 -0.15
9 -0.3

> <PUBCHEM_EFFECTIVE_ROTOR_COUNT>
5

> <PUBCHEM_PHARMACOPHORE_FEATURES>
7
1 1 acceptor
1 2 acceptor
1 3 cation
1 3 donor
1 4 donor
5 3 5 6 8 9 rings
6 6 8 11 12 13 14 rings

> <PUBCHEM_HEAVY_ATOM_COUNT>
17

> <PUBCHEM_ATOM_DEF_STEREO_COUNT>
0

> <PUBCHEM_ATOM_UDEF_STEREO_COUNT>
0

> <PUBCHEM_BOND_DEF_STEREO_COUNT>
0

> <PUBCHEM_BOND_UDEF_STEREO_COUNT>
0

> <PUBCHEM_ISOTOPIC_ATOM_COUNT>
0

> <PUBCHEM_COMPONENT_COUNT>
1

> <PUBCHEM_CACTVS_TAUTO_COUNT>
2

> <PUBCHEM_CONFORMER_ID>
0000038000000001

> <PUBCHEM_MMFF94_ENERGY>
32.7119

> <PUBCHEM_FEATURE_SELFOVERLAP>
35.612

> <PUBCHEM_SHAPE_FINGERPRINT>
10967382 1 18410853274190255273
11640471 11 17676780867509025316
13027679 85 18194690495324420133
13140716 1 17978229692519098697
13965767 371 16608554374032828400
1420 336 18266184924512803916
14787075 74 17896612875907719035
14790565 3 18341057316043312793
15006816 218 16754940689043299904
16945 1 18195239147136872059
19591789 44 18120376712306458779
19765921 60 17749382706469569763
20510252 161 18342458093286620745
21141583 151 18124894583888822372
21524375 3 17972887951224859043
2334 1 18410572855759727185
23419403 2 17326855944455494142
23557571 272 18201719608641642450
23559900 14 18342173410755765088
2748010 2 18337115553281152647
353137 74 18409164389875307419
44154327 71 18267028250037128041
526903 126 18410576235872810256
537710 114 18408601466050490037
7832392 63 17187566044572678455
9981440 41 18116712022929254594

> <PUBCHEM_SHAPE_MULTIPOLES>
328.15
4.94
3.77
0.97
2.92
1.2
-0.06
0.99
-1.27
-0.81
0.74
0.39
0.23
-0.66

> <PUBCHEM_SHAPE_SELFOVERLAP>
695.133

> <PUBCHEM_SHAPE_VOLUME>
185.3

> <PUBCHEM_COORDINATE_TYPE>
2
5
10

> <Energy>
0.232708

> <minimizedAffinity>
-5.41505

> <CNNscore>
0.3366279900

> <CNNaffinity>
6.3154149055

> <CNN_VS>
2.1259453297

> <CNNaffinity_variance>
0.2522552311

$$$$
896


 19 20  0  0  0  0  0  0  0  0999 V2000
   -5.4387   -6.2093   21.1913 N   0  0  0  0  0  0  0  0  0  0  0  0
   -3.6790   -5.0465   21.9187 C   0  0  0  0  0  0  0  0  0  0  0  0
   -4.7979   -4.1626   21.7865 C   0  0  0  0  0  0  0  0  0  0  0  0
   -5.8753   -4.9115   21.3195 C   0  0  0  0  0  0  0  0  0  0  0  0
   -4.1171   -6.3019   21.5437 C   0  0  0  0  0  0  0  0  0  0  0  0
   -4.9803   -2.7827   22.0220 C   0  0  0  0  0  0  0  0  0  0  0  0
   -7.1304   -4.3488   21.0679 C   0  0  0  0  0  0  0  0  0  0  0  0
   -6.2222   -2.1922   21.7683 C   0  0  0  0  0  0  0  0  0  0  0  0
   -7.2776   -2.9743   21.2984 C   0  0  0  0  0  0  0  0  0  0  0  0
   -5.9951   -6.9634   20.8897 H   0  0  0  0  0  0  0  0  0  0  0  0
   -6.5179   -0.8660   21.9417 O   0  0  0  0  0  0  0  0  0  0  0  0
   -5.9408   -0.2272   23.0752 C   0  0  0  0  0  0  0  0  0  0  0  0
   -2.3015   -4.6685   22.3778 C   0  0  0  0  0  0  0  0  0  0  0  0
   -2.1888   -3.1969   22.7915 C   0  0  0  0  0  0  0  0  0  0  0  0
    0.1016   -3.2434   21.1094 O   0  0  0  0  0  0  0  0  0  0  0  0
   -1.9099   -2.2955   21.6853 N   0  0  0  0  0  0  0  0  0  0  0  0
   -0.7529   -2.3806   20.9462 C   0  0  0  0  0  0  0  0  0  0  0  0
   -0.6419   -1.3221   19.8823 C   0  0  0  0  0  0  0  0  0  0  0  0
   -2.5705   -1.6019   21.4579 H   0  0  0  0  0  0  0  0  0  0  0  0
 11  8  1  0
 11 12  1  0
 15 17  2  0
  1  4  1  0
  1  5  1  0
  1 10  1  0
 16 14  1  0
 16 17  1  0
 16 19  1  0
  2  3  1  0
  2 13  1  0
  2  5  2  0
  3  4  2  0
  3  6  1  0
 13 14  1  0
  4  7  1  0
  6  8  2  0
  7  9  2  0
  8  9  1  0
 17 18  1  0
M  END
> <PUBCHEM_COMPOUND_CID>
896

> <PUBCHEM_CONFORMER_RMSD>
0.6

> <PUBCHEM_CONFORMER_DIVERSEORDER>
1
13
50
55
28
16
42
48
27
15
62
60
65
61
36
4
20
58
41
17
59
21
2
63
47
57
40
56
22
64
54
37
51
7
31
53
26
8
49
39
32
11
5
33
38
52
23
45
43
12
14
9
34
44
35
10
25
29
46
6
30
24
3
19
18

> <PUBCHEM_MMFF94_PARTIAL_CHARGES>
22
1 -0.36
10 0.3
11 -0.15
12 -0.15
13 0.08
14 -0.15
15 0.57
16 0.06
17 0.28
2 -0.57
20 0.15
23 0.27
24 0.15
25 0.15
26 0.15
27 0.37
3 0.03
4 -0.73
5 -0.18
7 0.18
8 -0.15
9 -0.3

> <PUBCHEM_EFFECTIVE_ROTOR_COUNT>
5

> <PUBCHEM_PHARMACOPHORE_FEATURES>
7
1 1 acceptor
1 2 acceptor
1 3 cation
1 3 donor
1 4 donor
5 3 5 6 8 9 rings
6 6 8 11 12 13 14 rings

> <PUBCHEM_HEAVY_ATOM_COUNT>
17

> <PUBCHEM_ATOM_DEF_STEREO_COUNT>
0

> <PUBCHEM_ATOM_UDEF_STEREO_COUNT>
0

> <PUBCHEM_BOND_DEF_STEREO_COUNT>
0

> <PUBCHEM_BOND_UDEF_STEREO_COUNT>
0

> <PUBCHEM_ISOTOPIC_ATOM_COUNT>
0

> <PUBCHEM_COMPONENT_COUNT>
1

> <PUBCHEM_CACTVS_TAUTO_COUNT>
2

> <PUBCHEM_CONFORMER_ID>
0000038000000001

> <PUBCHEM_MMFF94_ENERGY>
32.7119

> <PUBCHEM_FEATURE_SELFOVERLAP>
35.612

> <PUBCHEM_SHAPE_FINGERPRINT>
10967382 1 18410853274190255273
11640471 11 17676780867509025316
13027679 85 18194690495324420133
13140716 1 17978229692519098697
13965767 371 16608554374032828400
1420 336 18266184924512803916
14787075 74 17896612875907719035
14790565 3 18341057316043312793
15006816 218 16754940689043299904
16945 1 18195239147136872059
19591789 44 18120376712306458779
19765921 60 17749382706469569763
20510252 161 18342458093286620745
21141583 151 18124894583888822372
21524375 3 17972887951224859043
2334 1 18410572855759727185
23419403 2 17326855944455494142
23557571 272 18201719608641642450
23559900 14 18342173410755765088
2748010 2 18337115553281152647
353137 74 18409164389875307419
44154327 71 18267028250037128041
526903 126 18410576235872810256
537710 114 18408601466050490037
7832392 63 17187566044572678455
9981440 41 18116712022929254594

> <PUBCHEM_SHAPE_MULTIPOLES>
328.15
4.94
3.77
0.97
2.92
1.2
-0.06
0.99
-1.27
-0.81
0.74
0.39
0.23
-0.66

> <PUBCHEM_SHAPE_SELFOVERLAP>
695.133

> <PUBCHEM_SHAPE_VOLUME>
185.3

> <PUBCHEM_COORDINATE_TYPE>
2
5
10

> <Energy>
0.232708

> <minimizedAffinity>
-5.67466

> <CNNscore>
0.3358864784

> <CNNaffinity>
6.4324951172

> <CNN_VS>
2.1605880260

> <CNNaffinity_variance>
0.4845594466

$$$$
