5757


 22 25  0  0  0  0  0  0  0  0999 V2000
  -10.3944   -6.1332   20.9204 O   0  0  0  0  0  0  0  0  0  0  0  0
    0.5030   -5.2798   20.0745 O   0  0  0  0  0  0  0  0  0  0  0  0
   -7.9673   -5.7127   21.0298 C   0  0  0  0  0  0  0  0  0  0  0  0
   -7.1651   -4.8516   22.0260 C   0  0  0  0  0  0  0  0  0  0  0  0
   -5.6636   -5.1277   21.9490 C   0  0  0  0  0  0  0  0  0  0  0  0
   -5.1630   -4.7692   20.5167 C   0  0  0  0  0  0  0  0  0  0  0  0
   -9.3923   -5.2574   21.3987 C   0  0  0  0  0  0  0  0  0  0  0  0
   -7.5191   -5.3428   19.6106 C   0  0  0  0  0  0  0  0  0  0  0  0
   -7.8973   -5.0627   23.3481 C   0  0  0  0  0  0  0  0  0  0  0  0
   -5.9967   -5.5014   19.4307 C   0  0  0  0  0  0  0  0  0  0  0  0
   -9.3759   -5.1927   22.9384 C   0  0  0  0  0  0  0  0  0  0  0  0
   -4.8632   -4.3196   22.9721 C   0  0  0  0  0  0  0  0  0  0  0  0
   -7.8221   -7.2431   21.2296 C   0  0  0  0  0  0  0  0  0  0  0  0
   -3.6496   -4.9437   20.3998 C   0  0  0  0  0  0  0  0  0  0  0  0
   -3.3975   -4.7462   22.9401 C   0  0  0  0  0  0  0  0  0  0  0  0
   -2.8281   -4.8869   21.5474 C   0  0  0  0  0  0  0  0  0  0  0  0
   -3.0298   -5.0735   19.1439 C   0  0  0  0  0  0  0  0  0  0  0  0
   -1.4326   -5.0149   21.4173 C   0  0  0  0  0  0  0  0  0  0  0  0
   -1.6427   -5.1894   19.0257 C   0  0  0  0  0  0  0  0  0  0  0  0
   -0.8538   -5.1644   20.1637 C   0  0  0  0  0  0  0  0  0  0  0  0
  -10.3747   -6.1482   19.9507 H   0  0  0  0  0  0  0  0  0  0  0  0
    1.0268   -5.2616   20.8511 H   0  0  0  0  0  0  0  0  0  0  0  0
  1  7  1  0
  1 21  1  0
  2 20  1  0
  2 22  1  0
  3  4  1  0
  3  7  1  0
  3  8  1  0
  3 13  1  0
  4  5  1  0
  4  9  1  0
  5  6  1  0
  5 12  1  0
  6 10  1  0
  6 14  1  0
  7 11  1  0
  8 10  1  0
  9 11  1  0
 12 15  1  0
 14 16  2  0
 14 17  1  0
 15 16  1  0
 16 18  1  0
 17 19  2  0
 18 20  2  0
 19 20  1  0
M  END
> <PUBCHEM_COMPOUND_CID>
5757

> <PUBCHEM_CONFORMER_RMSD>
0.6

> <PUBCHEM_CONFORMER_DIVERSEORDER>
1

> <PUBCHEM_MMFF94_PARTIAL_CHARGES>
16
1 -0.68
14 -0.14
15 0.14
16 -0.14
17 -0.15
18 -0.15
19 -0.15
2 -0.53
20 0.08
40 0.4
41 0.15
42 0.15
43 0.15
44 0.45
6 0.14
7 0.28

> <PUBCHEM_EFFECTIVE_ROTOR_COUNT>
1.4

> <PUBCHEM_PHARMACOPHORE_FEATURES>
7
1 1 acceptor
1 1 donor
1 2 donor
5 3 4 7 9 11 rings
6 14 16 17 18 19 20 rings
6 3 4 5 6 8 10 rings
6 5 6 12 14 15 16 rings

> <PUBCHEM_HEAVY_ATOM_COUNT>
20

> <PUBCHEM_ATOM_DEF_STEREO_COUNT>
5

> <PUBCHEM_ATOM_UDEF_STEREO_COUNT>
0

> <PUBCHEM_BOND_DEF_STEREO_COUNT>
0

> <PUBCHEM_BOND_UDEF_STEREO_COUNT>
0

> <PUBCHEM_ISOTOPIC_ATOM_COUNT>
0

> <PUBCHEM_COMPONENT_COUNT>
1

> <PUBCHEM_CACTVS_TAUTO_COUNT>
9

> <PUBCHEM_CONFORMER_ID>
0000167D00000001

> <PUBCHEM_MMFF94_ENERGY>
68.4596

> <PUBCHEM_FEATURE_SELFOVERLAP>
35.62

> <PUBCHEM_SHAPE_FINGERPRINT>
10 15 18262512710780645640
10411042 1 16969703283687688743
10616163 171 18338239395883154686
10967382 1 18410012100429229070
11132069 177 18409162216832884669
11578080 2 17201347718505248258
12011746 2 18410859841042374310
12107183 9 17690845558000159065
12236239 1 13470690338792453460
12251169 10 18335139816864396069
12403259 415 18410852127603240605
12403814 3 17530960289353343621
12500047 106 18271238421624861530
12592029 89 18334859377112304987
12788726 201 17703518696578858128
128620 24 11818992989152349105
13140716 1 18192429898953651512
13533116 47 17846218813073552003
13544592 145 18272379637759764926
13675066 3 18341893012844745609
14178342 30 18123731313450613666
14341114 176 18409738343777605753
14866123 147 17046555868986690930
15042514 8 18263932206156989787
15196674 1 18410012108982090935
15256400 18 18410857620686823693
15295992 7 17845930826899781123
15536298 74 18413671296627645270
1601671 61 18409168826940819996
16945 1 18266170819592368622
17349148 13 18412820287929204701
17804303 29 18410296916890392117
1813 80 16950285091842931756
18186145 218 17417805158171412875
19141452 34 18413108389914235807
192875 21 13830133918406568194
19591789 44 18192993725128068838
200 152 18131627885965453901
20028762 73 18272929458099065015
20261772 1 18410856577167961319
20510252 161 18341895147623301209
20645477 70 18200878374956666302
21033648 29 18271512131406579929
21267235 1 18337399244825179854
21279426 13 18124035632930519374
21421861 104 17895744090149736410
22854114 59 18412546505207311417
22892500 29 17274814788166584896
23184049 59 18410576175690384255
23402539 116 18342170081765240151
23557571 272 17773880972535682807
23558518 356 17682680979747269074
23559900 14 18413389822146813342
2748010 2 18337666399911122230
3004659 81 18260835844047909814
335352 9 18410013195572088855
34934 24 18411133675799850702
350125 39 18409735045496469133
351380 180 18409730664571278687
3545911 37 18411703192367818988
4214541 1 18409167684326479901
465052 167 17967541176940287083
495365 180 17346587600050392546
5104073 3 18409449150412323065
542803 24 17346883342628774985
59755656 215 18335983048405458773
69090 78 18341891905091661271
77779 3 18409450271409361990
7832392 63 18341046427736201710
9709674 26 18410862087368844367
9999458 23 17967819357476725574

> <PUBCHEM_SHAPE_MULTIPOLES>
399.85
9.72
2.11
0.84
3.73
0.39
0.22
-1.2
1.2
-0.24
-0.15
-0.38
-0.13
0.32

> <PUBCHEM_SHAPE_SELFOVERLAP>
871.414

> <PUBCHEM_SHAPE_VOLUME>
217.1

> <PUBCHEM_COORDINATE_TYPE>
2
5
10

> <Energy>
58.4396

> <minimizedAffinity>
-10.45488

> <CNNscore>
0.9514033794

> <CNNaffinity>
8.1049108505

> <CNN_VS>
7.7110395432

> <CNNaffinity_variance>
1.0323257446

$$$$
5757


 22 25  0  0  0  0  0  0  0  0999 V2000
   -9.8675   -5.4475   23.6773 O   0  0  0  0  0  0  0  0  0  0  0  0
    0.2805   -4.4827   19.6422 O   0  0  0  0  0  0  0  0  0  0  0  0
   -7.7263   -5.3864   22.4562 C   0  0  0  0  0  0  0  0  0  0  0  0
   -7.4037   -5.8422   21.0189 C   0  0  0  0  0  0  0  0  0  0  0  0
   -6.0482   -5.3234   20.5396 C   0  0  0  0  0  0  0  0  0  0  0  0
   -4.9365   -5.8976   21.4697 C   0  0  0  0  0  0  0  0  0  0  0  0
   -9.1334   -5.9974   22.6010 C   0  0  0  0  0  0  0  0  0  0  0  0
   -6.6667   -5.9781   23.3936 C   0  0  0  0  0  0  0  0  0  0  0  0
   -8.6630   -5.4757   20.2389 C   0  0  0  0  0  0  0  0  0  0  0  0
   -5.2389   -5.5912   22.9615 C   0  0  0  0  0  0  0  0  0  0  0  0
   -9.8055   -5.7107   21.2440 C   0  0  0  0  0  0  0  0  0  0  0  0
   -5.7425   -5.7226   19.0946 C   0  0  0  0  0  0  0  0  0  0  0  0
   -7.7834   -3.8499   22.6536 C   0  0  0  0  0  0  0  0  0  0  0  0
   -3.5460   -5.4829   20.9913 C   0  0  0  0  0  0  0  0  0  0  0  0
   -4.4486   -5.0561   18.6335 C   0  0  0  0  0  0  0  0  0  0  0  0
   -3.3249   -5.1310   19.6413 C   0  0  0  0  0  0  0  0  0  0  0  0
   -2.4382   -5.5285   21.8567 C   0  0  0  0  0  0  0  0  0  0  0  0
   -2.0307   -4.7851   19.2101 C   0  0  0  0  0  0  0  0  0  0  0  0
   -1.1560   -5.1930   21.4153 C   0  0  0  0  0  0  0  0  0  0  0  0
   -0.9617   -4.8187   20.0962 C   0  0  0  0  0  0  0  0  0  0  0  0
   -9.4159   -5.6473   24.5122 H   0  0  0  0  0  0  0  0  0  0  0  0
    0.4002   -4.2310   18.7477 H   0  0  0  0  0  0  0  0  0  0  0  0
  1  7  1  0
  1 21  1  0
  2 20  1  0
  2 22  1  0
  3  4  1  0
  3  7  1  0
  3  8  1  0
  3 13  1  0
  4  5  1  0
  4  9  1  0
  5  6  1  0
  5 12  1  0
  6 10  1  0
  6 14  1  0
  7 11  1  0
  8 10  1  0
  9 11  1  0
 12 15  1  0
 14 16  2  0
 14 17  1  0
 15 16  1  0
 16 18  1  0
 17 19  2  0
 18 20  2  0
 19 20  1  0
M  END
> <PUBCHEM_COMPOUND_CID>
5757

> <PUBCHEM_CONFORMER_RMSD>
0.6

> <PUBCHEM_CONFORMER_DIVERSEORDER>
1

> <PUBCHEM_MMFF94_PARTIAL_CHARGES>
16
1 -0.68
14 -0.14
15 0.14
16 -0.14
17 -0.15
18 -0.15
19 -0.15
2 -0.53
20 0.08
40 0.4
41 0.15
42 0.15
43 0.15
44 0.45
6 0.14
7 0.28

> <PUBCHEM_EFFECTIVE_ROTOR_COUNT>
1.4

> <PUBCHEM_PHARMACOPHORE_FEATURES>
7
1 1 acceptor
1 1 donor
1 2 donor
5 3 4 7 9 11 rings
6 14 16 17 18 19 20 rings
6 3 4 5 6 8 10 rings
6 5 6 12 14 15 16 rings

> <PUBCHEM_HEAVY_ATOM_COUNT>
20

> <PUBCHEM_ATOM_DEF_STEREO_COUNT>
5

> <PUBCHEM_ATOM_UDEF_STEREO_COUNT>
0

> <PUBCHEM_BOND_DEF_STEREO_COUNT>
0

> <PUBCHEM_BOND_UDEF_STEREO_COUNT>
0

> <PUBCHEM_ISOTOPIC_ATOM_COUNT>
0

> <PUBCHEM_COMPONENT_COUNT>
1

> <PUBCHEM_CACTVS_TAUTO_COUNT>
9

> <PUBCHEM_CONFORMER_ID>
0000167D00000001

> <PUBCHEM_MMFF94_ENERGY>
68.4596

> <PUBCHEM_FEATURE_SELFOVERLAP>
35.62

> <PUBCHEM_SHAPE_FINGERPRINT>
10 15 18262512710780645640
10411042 1 16969703283687688743
10616163 171 18338239395883154686
10967382 1 18410012100429229070
11132069 177 18409162216832884669
11578080 2 17201347718505248258
12011746 2 18410859841042374310
12107183 9 17690845558000159065
12236239 1 13470690338792453460
12251169 10 18335139816864396069
12403259 415 18410852127603240605
12403814 3 17530960289353343621
12500047 106 18271238421624861530
12592029 89 18334859377112304987
12788726 201 17703518696578858128
128620 24 11818992989152349105
13140716 1 18192429898953651512
13533116 47 17846218813073552003
13544592 145 18272379637759764926
13675066 3 18341893012844745609
14178342 30 18123731313450613666
14341114 176 18409738343777605753
14866123 147 17046555868986690930
15042514 8 18263932206156989787
15196674 1 18410012108982090935
15256400 18 18410857620686823693
15295992 7 17845930826899781123
15536298 74 18413671296627645270
1601671 61 18409168826940819996
16945 1 18266170819592368622
17349148 13 18412820287929204701
17804303 29 18410296916890392117
1813 80 16950285091842931756
18186145 218 17417805158171412875
19141452 34 18413108389914235807
192875 21 13830133918406568194
19591789 44 18192993725128068838
200 152 18131627885965453901
20028762 73 18272929458099065015
20261772 1 18410856577167961319
20510252 161 18341895147623301209
20645477 70 18200878374956666302
21033648 29 18271512131406579929
21267235 1 18337399244825179854
21279426 13 18124035632930519374
21421861 104 17895744090149736410
22854114 59 18412546505207311417
22892500 29 17274814788166584896
23184049 59 18410576175690384255
23402539 116 18342170081765240151
23557571 272 17773880972535682807
23558518 356 17682680979747269074
23559900 14 18413389822146813342
2748010 2 18337666399911122230
3004659 81 18260835844047909814
335352 9 18410013195572088855
34934 24 18411133675799850702
350125 39 18409735045496469133
351380 180 18409730664571278687
3545911 37 18411703192367818988
4214541 1 18409167684326479901
465052 167 17967541176940287083
495365 180 17346587600050392546
5104073 3 18409449150412323065
542803 24 17346883342628774985
59755656 215 18335983048405458773
69090 78 18341891905091661271
77779 3 18409450271409361990
7832392 63 18341046427736201710
9709674 26 18410862087368844367
9999458 23 17967819357476725574

> <PUBCHEM_SHAPE_MULTIPOLES>
399.85
9.72
2.11
0.84
3.73
0.39
0.22
-1.2
1.2
-0.24
-0.15
-0.38
-0.13
0.32

> <PUBCHEM_SHAPE_SELFOVERLAP>
871.414

> <PUBCHEM_SHAPE_VOLUME>
217.1

> <PUBCHEM_COORDINATE_TYPE>
2
5
10

> <Energy>
58.4396

> <minimizedAffinity>
-10.65677

> <CNNscore>
0.7981311083

> <CNNaffinity>
7.7163529396

> <CNN_VS>
6.1586613655

> <CNNaffinity_variance>
0.5277280807

$$$$
5757


 22 25  0  0  0  0  0  0  0  0999 V2000
   -9.8056   -4.5758   23.5142 O   0  0  0  0  0  0  0  0  0  0  0  0
   -1.1324   -6.2536   17.0214 O   0  0  0  0  0  0  0  0  0  0  0  0
   -7.6477   -4.8837   22.3619 C   0  0  0  0  0  0  0  0  0  0  0  0
   -6.2144   -4.7911   22.9228 C   0  0  0  0  0  0  0  0  0  0  0  0
   -5.1798   -5.3780   21.9627 C   0  0  0  0  0  0  0  0  0  0  0  0
   -5.2125   -4.5626   20.6343 C   0  0  0  0  0  0  0  0  0  0  0  0
   -8.4208   -4.2920   23.5560 C   0  0  0  0  0  0  0  0  0  0  0  0
   -7.7114   -4.0510   21.0757 C   0  0  0  0  0  0  0  0  0  0  0  0
   -6.3446   -5.3719   24.3280 C   0  0  0  0  0  0  0  0  0  0  0  0
   -6.6500   -4.4966   20.0511 C   0  0  0  0  0  0  0  0  0  0  0  0
   -7.7439   -4.9237   24.7881 C   0  0  0  0  0  0  0  0  0  0  0  0
   -3.7606   -5.3425   22.5329 C   0  0  0  0  0  0  0  0  0  0  0  0
   -8.1372   -6.3240   22.0636 C   0  0  0  0  0  0  0  0  0  0  0  0
   -4.1394   -5.0476   19.6609 C   0  0  0  0  0  0  0  0  0  0  0  0
   -2.8035   -6.0694   21.5914 C   0  0  0  0  0  0  0  0  0  0  0  0
   -2.9894   -5.7180   20.1334 C   0  0  0  0  0  0  0  0  0  0  0  0
   -4.2240   -4.7603   18.2866 C   0  0  0  0  0  0  0  0  0  0  0  0
   -1.9943   -6.1270   19.2262 C   0  0  0  0  0  0  0  0  0  0  0  0
   -3.2252   -5.1621   17.3965 C   0  0  0  0  0  0  0  0  0  0  0  0
   -2.1194   -5.8472   17.8716 C   0  0  0  0  0  0  0  0  0  0  0  0
  -10.1966   -4.1635   22.7281 H   0  0  0  0  0  0  0  0  0  0  0  0
   -0.3888   -6.7165   17.3541 H   0  0  0  0  0  0  0  0  0  0  0  0
  1  7  1  0
  1 21  1  0
  2 20  1  0
  2 22  1  0
  3  4  1  0
  3  7  1  0
  3  8  1  0
  3 13  1  0
  4  5  1  0
  4  9  1  0
  5  6  1  0
  5 12  1  0
  6 10  1  0
  6 14  1  0
  7 11  1  0
  8 10  1  0
  9 11  1  0
 12 15  1  0
 14 16  2  0
 14 17  1  0
 15 16  1  0
 16 18  1  0
 17 19  2  0
 18 20  2  0
 19 20  1  0
M  END
> <PUBCHEM_COMPOUND_CID>
5757

> <PUBCHEM_CONFORMER_RMSD>
0.6

> <PUBCHEM_CONFORMER_DIVERSEORDER>
1

> <PUBCHEM_MMFF94_PARTIAL_CHARGES>
16
1 -0.68
14 -0.14
15 0.14
16 -0.14
17 -0.15
18 -0.15
19 -0.15
2 -0.53
20 0.08
40 0.4
41 0.15
42 0.15
43 0.15
44 0.45
6 0.14
7 0.28

> <PUBCHEM_EFFECTIVE_ROTOR_COUNT>
1.4

> <PUBCHEM_PHARMACOPHORE_FEATURES>
7
1 1 acceptor
1 1 donor
1 2 donor
5 3 4 7 9 11 rings
6 14 16 17 18 19 20 rings
6 3 4 5 6 8 10 rings
6 5 6 12 14 15 16 rings

> <PUBCHEM_HEAVY_ATOM_COUNT>
20

> <PUBCHEM_ATOM_DEF_STEREO_COUNT>
5

> <PUBCHEM_ATOM_UDEF_STEREO_COUNT>
0

> <PUBCHEM_BOND_DEF_STEREO_COUNT>
0

> <PUBCHEM_BOND_UDEF_STEREO_COUNT>
0

> <PUBCHEM_ISOTOPIC_ATOM_COUNT>
0

> <PUBCHEM_COMPONENT_COUNT>
1

> <PUBCHEM_CACTVS_TAUTO_COUNT>
9

> <PUBCHEM_CONFORMER_ID>
0000167D00000001

> <PUBCHEM_MMFF94_ENERGY>
68.4596

> <PUBCHEM_FEATURE_SELFOVERLAP>
35.62

> <PUBCHEM_SHAPE_FINGERPRINT>
10 15 18262512710780645640
10411042 1 16969703283687688743
10616163 171 18338239395883154686
10967382 1 18410012100429229070
11132069 177 18409162216832884669
11578080 2 17201347718505248258
12011746 2 18410859841042374310
12107183 9 17690845558000159065
12236239 1 13470690338792453460
12251169 10 18335139816864396069
12403259 415 18410852127603240605
12403814 3 17530960289353343621
12500047 106 18271238421624861530
12592029 89 18334859377112304987
12788726 201 17703518696578858128
128620 24 11818992989152349105
13140716 1 18192429898953651512
13533116 47 17846218813073552003
13544592 145 18272379637759764926
13675066 3 18341893012844745609
14178342 30 18123731313450613666
14341114 176 18409738343777605753
14866123 147 17046555868986690930
15042514 8 18263932206156989787
15196674 1 18410012108982090935
15256400 18 18410857620686823693
15295992 7 17845930826899781123
15536298 74 18413671296627645270
1601671 61 18409168826940819996
16945 1 18266170819592368622
17349148 13 18412820287929204701
17804303 29 18410296916890392117
1813 80 16950285091842931756
18186145 218 17417805158171412875
19141452 34 18413108389914235807
192875 21 13830133918406568194
19591789 44 18192993725128068838
200 152 18131627885965453901
20028762 73 18272929458099065015
20261772 1 18410856577167961319
20510252 161 18341895147623301209
20645477 70 18200878374956666302
21033648 29 18271512131406579929
21267235 1 18337399244825179854
21279426 13 18124035632930519374
21421861 104 17895744090149736410
22854114 59 18412546505207311417
22892500 29 17274814788166584896
23184049 59 18410576175690384255
23402539 116 18342170081765240151
23557571 272 17773880972535682807
23558518 356 17682680979747269074
23559900 14 18413389822146813342
2748010 2 18337666399911122230
3004659 81 18260835844047909814
335352 9 18410013195572088855
34934 24 18411133675799850702
350125 39 18409735045496469133
351380 180 18409730664571278687
3545911 37 18411703192367818988
4214541 1 18409167684326479901
465052 167 17967541176940287083
495365 180 17346587600050392546
5104073 3 18409449150412323065
542803 24 17346883342628774985
59755656 215 18335983048405458773
69090 78 18341891905091661271
77779 3 18409450271409361990
7832392 63 18341046427736201710
9709674 26 18410862087368844367
9999458 23 17967819357476725574

> <PUBCHEM_SHAPE_MULTIPOLES>
399.85
9.72
2.11
0.84
3.73
0.39
0.22
-1.2
1.2
-0.24
-0.15
-0.38
-0.13
0.32

> <PUBCHEM_SHAPE_SELFOVERLAP>
871.414

> <PUBCHEM_SHAPE_VOLUME>
217.1

> <PUBCHEM_COORDINATE_TYPE>
2
5
10

> <Energy>
58.4396

> <minimizedAffinity>
-6.64239

> <CNNscore>
0.6275747418

> <CNNaffinity>
7.5230526924

> <CNN_VS>
4.7212777138

> <CNNaffinity_variance>
1.0248296261

$$$$
5757


 22 25  0  0  0  0  0  0  0  0999 V2000
    0.3497   -4.9540   20.1670 O   0  0  0  0  0  0  0  0  0  0  0  0
  -10.0905   -5.8211   23.3989 O   0  0  0  0  0  0  0  0  0  0  0  0
   -2.0856   -5.0367   20.5441 C   0  0  0  0  0  0  0  0  0  0  0  0
   -3.2399   -4.7272   19.5697 C   0  0  0  0  0  0  0  0  0  0  0  0
   -4.5870   -5.2234   20.0947 C   0  0  0  0  0  0  0  0  0  0  0  0
   -4.9010   -4.4909   21.4347 C   0  0  0  0  0  0  0  0  0  0  0  0
   -0.9073   -4.4890   19.7159 C   0  0  0  0  0  0  0  0  0  0  0  0
   -2.3547   -4.2889   21.8556 C   0  0  0  0  0  0  0  0  0  0  0  0
   -2.7227   -5.2447   18.2305 C   0  0  0  0  0  0  0  0  0  0  0  0
   -3.7329   -4.6451   22.4460 C   0  0  0  0  0  0  0  0  0  0  0  0
   -1.2103   -4.9603   18.2801 C   0  0  0  0  0  0  0  0  0  0  0  0
   -5.7311   -4.9717   19.1108 C   0  0  0  0  0  0  0  0  0  0  0  0
   -1.8769   -6.5426   20.8473 C   0  0  0  0  0  0  0  0  0  0  0  0
   -6.2778   -4.8818   21.9695 C   0  0  0  0  0  0  0  0  0  0  0  0
   -7.0145   -5.6156   19.6297 C   0  0  0  0  0  0  0  0  0  0  0  0
   -7.2763   -5.3694   21.0976 C   0  0  0  0  0  0  0  0  0  0  0  0
   -6.6144   -4.6814   23.3203 C   0  0  0  0  0  0  0  0  0  0  0  0
   -8.5502   -5.6919   21.6015 C   0  0  0  0  0  0  0  0  0  0  0  0
   -7.8853   -4.9953   23.8077 C   0  0  0  0  0  0  0  0  0  0  0  0
   -8.8432   -5.5031   22.9460 C   0  0  0  0  0  0  0  0  0  0  0  0
    0.5056   -4.6389   21.0711 H   0  0  0  0  0  0  0  0  0  0  0  0
  -10.7306   -6.1641   22.8068 H   0  0  0  0  0  0  0  0  0  0  0  0
  1  7  1  0
  1 21  1  0
  2 20  1  0
  2 22  1  0
  3  4  1  0
  3  7  1  0
  3  8  1  0
  3 13  1  0
  4  5  1  0
  4  9  1  0
  5  6  1  0
  5 12  1  0
  6 10  1  0
  6 14  1  0
  7 11  1  0
  8 10  1  0
  9 11  1  0
 12 15  1  0
 14 16  2  0
 14 17  1  0
 15 16  1  0
 16 18  1  0
 17 19  2  0
 18 20  2  0
 19 20  1  0
M  END
> <PUBCHEM_COMPOUND_CID>
5757

> <PUBCHEM_CONFORMER_RMSD>
0.6

> <PUBCHEM_CONFORMER_DIVERSEORDER>
1

> <PUBCHEM_MMFF94_PARTIAL_CHARGES>
16
1 -0.68
14 -0.14
15 0.14
16 -0.14
17 -0.15
18 -0.15
19 -0.15
2 -0.53
20 0.08
40 0.4
41 0.15
42 0.15
43 0.15
44 0.45
6 0.14
7 0.28

> <PUBCHEM_EFFECTIVE_ROTOR_COUNT>
1.4

> <PUBCHEM_PHARMACOPHORE_FEATURES>
7
1 1 acceptor
1 1 donor
1 2 donor
5 3 4 7 9 11 rings
6 14 16 17 18 19 20 rings
6 3 4 5 6 8 10 rings
6 5 6 12 14 15 16 rings

> <PUBCHEM_HEAVY_ATOM_COUNT>
20

> <PUBCHEM_ATOM_DEF_STEREO_COUNT>
5

> <PUBCHEM_ATOM_UDEF_STEREO_COUNT>
0

> <PUBCHEM_BOND_DEF_STEREO_COUNT>
0

> <PUBCHEM_BOND_UDEF_STEREO_COUNT>
0

> <PUBCHEM_ISOTOPIC_ATOM_COUNT>
0

> <PUBCHEM_COMPONENT_COUNT>
1

> <PUBCHEM_CACTVS_TAUTO_COUNT>
9

> <PUBCHEM_CONFORMER_ID>
0000167D00000001

> <PUBCHEM_MMFF94_ENERGY>
68.4596

> <PUBCHEM_FEATURE_SELFOVERLAP>
35.62

> <PUBCHEM_SHAPE_FINGERPRINT>
10 15 18262512710780645640
10411042 1 16969703283687688743
10616163 171 18338239395883154686
10967382 1 18410012100429229070
11132069 177 18409162216832884669
11578080 2 17201347718505248258
12011746 2 18410859841042374310
12107183 9 17690845558000159065
12236239 1 13470690338792453460
12251169 10 18335139816864396069
12403259 415 18410852127603240605
12403814 3 17530960289353343621
12500047 106 18271238421624861530
12592029 89 18334859377112304987
12788726 201 17703518696578858128
128620 24 11818992989152349105
13140716 1 18192429898953651512
13533116 47 17846218813073552003
13544592 145 18272379637759764926
13675066 3 18341893012844745609
14178342 30 18123731313450613666
14341114 176 18409738343777605753
14866123 147 17046555868986690930
15042514 8 18263932206156989787
15196674 1 18410012108982090935
15256400 18 18410857620686823693
15295992 7 17845930826899781123
15536298 74 18413671296627645270
1601671 61 18409168826940819996
16945 1 18266170819592368622
17349148 13 18412820287929204701
17804303 29 18410296916890392117
1813 80 16950285091842931756
18186145 218 17417805158171412875
19141452 34 18413108389914235807
192875 21 13830133918406568194
19591789 44 18192993725128068838
200 152 18131627885965453901
20028762 73 18272929458099065015
20261772 1 18410856577167961319
20510252 161 18341895147623301209
20645477 70 18200878374956666302
21033648 29 18271512131406579929
21267235 1 18337399244825179854
21279426 13 18124035632930519374
21421861 104 17895744090149736410
22854114 59 18412546505207311417
22892500 29 17274814788166584896
23184049 59 18410576175690384255
23402539 116 18342170081765240151
23557571 272 17773880972535682807
23558518 356 17682680979747269074
23559900 14 18413389822146813342
2748010 2 18337666399911122230
3004659 81 18260835844047909814
335352 9 18410013195572088855
34934 24 18411133675799850702
350125 39 18409735045496469133
351380 180 18409730664571278687
3545911 37 18411703192367818988
4214541 1 18409167684326479901
465052 167 17967541176940287083
495365 180 17346587600050392546
5104073 3 18409449150412323065
542803 24 17346883342628774985
59755656 215 18335983048405458773
69090 78 18341891905091661271
77779 3 18409450271409361990
7832392 63 18341046427736201710
9709674 26 18410862087368844367
9999458 23 17967819357476725574

> <PUBCHEM_SHAPE_MULTIPOLES>
399.85
9.72
2.11
0.84
3.73
0.39
0.22
-1.2
1.2
-0.24
-0.15
-0.38
-0.13
0.32

> <PUBCHEM_SHAPE_SELFOVERLAP>
871.414

> <PUBCHEM_SHAPE_VOLUME>
217.1

> <PUBCHEM_COORDINATE_TYPE>
2
5
10

> <Energy>
58.4396

> <minimizedAffinity>
-9.74605

> <CNNscore>
0.4946079552

> <CNNaffinity>
7.3204383850

> <CNN_VS>
3.6207470894

> <CNNaffinity_variance>
0.4363773167

$$$$
5757


 22 25  0  0  0  0  0  0  0  0999 V2000
   -0.6105   -5.9387   20.1310 O   0  0  0  0  0  0  0  0  0  0  0  0
  -11.5394   -5.5052   20.8838 O   0  0  0  0  0  0  0  0  0  0  0  0
   -3.0105   -5.7314   20.6569 C   0  0  0  0  0  0  0  0  0  0  0  0
   -3.6929   -5.2941   21.9687 C   0  0  0  0  0  0  0  0  0  0  0  0
   -5.1755   -4.9791   21.7709 C   0  0  0  0  0  0  0  0  0  0  0  0
   -5.8986   -6.2697   21.2788 C   0  0  0  0  0  0  0  0  0  0  0  0
   -1.5679   -5.9001   21.1711 C   0  0  0  0  0  0  0  0  0  0  0  0
   -3.6804   -7.0255   20.1790 C   0  0  0  0  0  0  0  0  0  0  0  0
   -2.7637   -4.2105   22.5083 C   0  0  0  0  0  0  0  0  0  0  0  0
   -5.2041   -6.8575   20.0207 C   0  0  0  0  0  0  0  0  0  0  0  0
   -1.3582   -4.6863   22.0974 C   0  0  0  0  0  0  0  0  0  0  0  0
   -5.8497   -4.4901   23.0542 C   0  0  0  0  0  0  0  0  0  0  0  0
   -3.0571   -4.6806   19.5182 C   0  0  0  0  0  0  0  0  0  0  0  0
   -7.4034   -6.0429   21.1426 C   0  0  0  0  0  0  0  0  0  0  0  0
   -7.2837   -4.0587   22.7564 C   0  0  0  0  0  0  0  0  0  0  0  0
   -8.0470   -5.0241   21.8794 C   0  0  0  0  0  0  0  0  0  0  0  0
   -8.1967   -6.8962   20.3546 C   0  0  0  0  0  0  0  0  0  0  0  0
   -9.4394   -4.8516   21.7683 C   0  0  0  0  0  0  0  0  0  0  0  0
   -9.5795   -6.7222   20.2597 C   0  0  0  0  0  0  0  0  0  0  0  0
  -10.1909   -5.6980   20.9633 C   0  0  0  0  0  0  0  0  0  0  0  0
   -0.7734   -6.7133   19.5703 H   0  0  0  0  0  0  0  0  0  0  0  0
  -11.9423   -4.8090   21.3642 H   0  0  0  0  0  0  0  0  0  0  0  0
  1  7  1  0
  1 21  1  0
  2 20  1  0
  2 22  1  0
  3  4  1  0
  3  7  1  0
  3  8  1  0
  3 13  1  0
  4  5  1  0
  4  9  1  0
  5  6  1  0
  5 12  1  0
  6 10  1  0
  6 14  1  0
  7 11  1  0
  8 10  1  0
  9 11  1  0
 12 15  1  0
 14 16  2  0
 14 17  1  0
 15 16  1  0
 16 18  1  0
 17 19  2  0
 18 20  2  0
 19 20  1  0
M  END
> <PUBCHEM_COMPOUND_CID>
5757

> <PUBCHEM_CONFORMER_RMSD>
0.6

> <PUBCHEM_CONFORMER_DIVERSEORDER>
1

> <PUBCHEM_MMFF94_PARTIAL_CHARGES>
16
1 -0.68
14 -0.14
15 0.14
16 -0.14
17 -0.15
18 -0.15
19 -0.15
2 -0.53
20 0.08
40 0.4
41 0.15
42 0.15
43 0.15
44 0.45
6 0.14
7 0.28

> <PUBCHEM_EFFECTIVE_ROTOR_COUNT>
1.4

> <PUBCHEM_PHARMACOPHORE_FEATURES>
7
1 1 acceptor
1 1 donor
1 2 donor
5 3 4 7 9 11 rings
6 14 16 17 18 19 20 rings
6 3 4 5 6 8 10 rings
6 5 6 12 14 15 16 rings

> <PUBCHEM_HEAVY_ATOM_COUNT>
20

> <PUBCHEM_ATOM_DEF_STEREO_COUNT>
5

> <PUBCHEM_ATOM_UDEF_STEREO_COUNT>
0

> <PUBCHEM_BOND_DEF_STEREO_COUNT>
0

> <PUBCHEM_BOND_UDEF_STEREO_COUNT>
0

> <PUBCHEM_ISOTOPIC_ATOM_COUNT>
0

> <PUBCHEM_COMPONENT_COUNT>
1

> <PUBCHEM_CACTVS_TAUTO_COUNT>
9

> <PUBCHEM_CONFORMER_ID>
0000167D00000001

> <PUBCHEM_MMFF94_ENERGY>
68.4596

> <PUBCHEM_FEATURE_SELFOVERLAP>
35.62

> <PUBCHEM_SHAPE_FINGERPRINT>
10 15 18262512710780645640
10411042 1 16969703283687688743
10616163 171 18338239395883154686
10967382 1 18410012100429229070
11132069 177 18409162216832884669
11578080 2 17201347718505248258
12011746 2 18410859841042374310
12107183 9 17690845558000159065
12236239 1 13470690338792453460
12251169 10 18335139816864396069
12403259 415 18410852127603240605
12403814 3 17530960289353343621
12500047 106 18271238421624861530
12592029 89 18334859377112304987
12788726 201 17703518696578858128
128620 24 11818992989152349105
13140716 1 18192429898953651512
13533116 47 17846218813073552003
13544592 145 18272379637759764926
13675066 3 18341893012844745609
14178342 30 18123731313450613666
14341114 176 18409738343777605753
14866123 147 17046555868986690930
15042514 8 18263932206156989787
15196674 1 18410012108982090935
15256400 18 18410857620686823693
15295992 7 17845930826899781123
15536298 74 18413671296627645270
1601671 61 18409168826940819996
16945 1 18266170819592368622
17349148 13 18412820287929204701
17804303 29 18410296916890392117
1813 80 16950285091842931756
18186145 218 17417805158171412875
19141452 34 18413108389914235807
192875 21 13830133918406568194
19591789 44 18192993725128068838
200 152 18131627885965453901
20028762 73 18272929458099065015
20261772 1 18410856577167961319
20510252 161 18341895147623301209
20645477 70 18200878374956666302
21033648 29 18271512131406579929
21267235 1 18337399244825179854
21279426 13 18124035632930519374
21421861 104 17895744090149736410
22854114 59 18412546505207311417
22892500 29 17274814788166584896
23184049 59 18410576175690384255
23402539 116 18342170081765240151
23557571 272 17773880972535682807
23558518 356 17682680979747269074
23559900 14 18413389822146813342
2748010 2 18337666399911122230
3004659 81 18260835844047909814
335352 9 18410013195572088855
34934 24 18411133675799850702
350125 39 18409735045496469133
351380 180 18409730664571278687
3545911 37 18411703192367818988
4214541 1 18409167684326479901
465052 167 17967541176940287083
495365 180 17346587600050392546
5104073 3 18409449150412323065
542803 24 17346883342628774985
59755656 215 18335983048405458773
69090 78 18341891905091661271
77779 3 18409450271409361990
7832392 63 18341046427736201710
9709674 26 18410862087368844367
9999458 23 17967819357476725574

> <PUBCHEM_SHAPE_MULTIPOLES>
399.85
9.72
2.11
0.84
3.73
0.39
0.22
-1.2
1.2
-0.24
-0.15
-0.38
-0.13
0.32

> <PUBCHEM_SHAPE_SELFOVERLAP>
871.414

> <PUBCHEM_SHAPE_VOLUME>
217.1

> <PUBCHEM_COORDINATE_TYPE>
2
5
10

> <Energy>
58.4396

> <minimizedAffinity>
-7.17617

> <CNNscore>
0.4392217398

> <CNNaffinity>
7.1287994385

> <CNN_VS>
3.1311237812

> <CNNaffinity_variance>
0.3643742502

$$$$
5757


 22 25  0  0  0  0  0  0  0  0999 V2000
   -1.5004   -6.3735   17.3537 O   0  0  0  0  0  0  0  0  0  0  0  0
   -9.6463   -4.0814   24.3241 O   0  0  0  0  0  0  0  0  0  0  0  0
   -3.0624   -5.8361   19.1843 C   0  0  0  0  0  0  0  0  0  0  0  0
   -2.7704   -5.5572   20.6725 C   0  0  0  0  0  0  0  0  0  0  0  0
   -3.9701   -4.9387   21.3899 C   0  0  0  0  0  0  0  0  0  0  0  0
   -5.1600   -5.9442   21.3304 C   0  0  0  0  0  0  0  0  0  0  0  0
   -1.6824   -6.3712   18.7561 C   0  0  0  0  0  0  0  0  0  0  0  0
   -4.2032   -6.8578   19.1053 C   0  0  0  0  0  0  0  0  0  0  0  0
   -1.4468   -4.7985   20.6387 C   0  0  0  0  0  0  0  0  0  0  0  0
   -5.4536   -6.3811   19.8696 C   0  0  0  0  0  0  0  0  0  0  0  0
   -0.6837   -5.4329   19.4614 C   0  0  0  0  0  0  0  0  0  0  0  0
   -3.6734   -4.6058   22.8533 C   0  0  0  0  0  0  0  0  0  0  0  0
   -3.4375   -4.5847   18.3498 C   0  0  0  0  0  0  0  0  0  0  0  0
   -6.3675   -5.4190   22.1054 C   0  0  0  0  0  0  0  0  0  0  0  0
   -4.8577   -3.8640   23.4684 C   0  0  0  0  0  0  0  0  0  0  0  0
   -6.2019   -4.4709   23.1391 C   0  0  0  0  0  0  0  0  0  0  0  0
   -7.6568   -5.9308   21.8725 C   0  0  0  0  0  0  0  0  0  0  0  0
   -7.3211   -4.0239   23.8660 C   0  0  0  0  0  0  0  0  0  0  0  0
   -8.7591   -5.4874   22.6072 C   0  0  0  0  0  0  0  0  0  0  0  0
   -8.5846   -4.5332   23.5957 C   0  0  0  0  0  0  0  0  0  0  0  0
   -2.1442   -6.9732   16.9451 H   0  0  0  0  0  0  0  0  0  0  0  0
   -9.5164   -3.4355   24.9904 H   0  0  0  0  0  0  0  0  0  0  0  0
  1  7  1  0
  1 21  1  0
  2 20  1  0
  2 22  1  0
  3  4  1  0
  3  7  1  0
  3  8  1  0
  3 13  1  0
  4  5  1  0
  4  9  1  0
  5  6  1  0
  5 12  1  0
  6 10  1  0
  6 14  1  0
  7 11  1  0
  8 10  1  0
  9 11  1  0
 12 15  1  0
 14 16  2  0
 14 17  1  0
 15 16  1  0
 16 18  1  0
 17 19  2  0
 18 20  2  0
 19 20  1  0
M  END
> <PUBCHEM_COMPOUND_CID>
5757

> <PUBCHEM_CONFORMER_RMSD>
0.6

> <PUBCHEM_CONFORMER_DIVERSEORDER>
1

> <PUBCHEM_MMFF94_PARTIAL_CHARGES>
16
1 -0.68
14 -0.14
15 0.14
16 -0.14
17 -0.15
18 -0.15
19 -0.15
2 -0.53
20 0.08
40 0.4
41 0.15
42 0.15
43 0.15
44 0.45
6 0.14
7 0.28

> <PUBCHEM_EFFECTIVE_ROTOR_COUNT>
1.4

> <PUBCHEM_PHARMACOPHORE_FEATURES>
7
1 1 acceptor
1 1 donor
1 2 donor
5 3 4 7 9 11 rings
6 14 16 17 18 19 20 rings
6 3 4 5 6 8 10 rings
6 5 6 12 14 15 16 rings

> <PUBCHEM_HEAVY_ATOM_COUNT>
20

> <PUBCHEM_ATOM_DEF_STEREO_COUNT>
5

> <PUBCHEM_ATOM_UDEF_STEREO_COUNT>
0

> <PUBCHEM_BOND_DEF_STEREO_COUNT>
0

> <PUBCHEM_BOND_UDEF_STEREO_COUNT>
0

> <PUBCHEM_ISOTOPIC_ATOM_COUNT>
0

> <PUBCHEM_COMPONENT_COUNT>
1

> <PUBCHEM_CACTVS_TAUTO_COUNT>
9

> <PUBCHEM_CONFORMER_ID>
0000167D00000001

> <PUBCHEM_MMFF94_ENERGY>
68.4596

> <PUBCHEM_FEATURE_SELFOVERLAP>
35.62

> <PUBCHEM_SHAPE_FINGERPRINT>
10 15 18262512710780645640
10411042 1 16969703283687688743
10616163 171 18338239395883154686
10967382 1 18410012100429229070
11132069 177 18409162216832884669
11578080 2 17201347718505248258
12011746 2 18410859841042374310
12107183 9 17690845558000159065
12236239 1 13470690338792453460
12251169 10 18335139816864396069
12403259 415 18410852127603240605
12403814 3 17530960289353343621
12500047 106 18271238421624861530
12592029 89 18334859377112304987
12788726 201 17703518696578858128
128620 24 11818992989152349105
13140716 1 18192429898953651512
13533116 47 17846218813073552003
13544592 145 18272379637759764926
13675066 3 18341893012844745609
14178342 30 18123731313450613666
14341114 176 18409738343777605753
14866123 147 17046555868986690930
15042514 8 18263932206156989787
15196674 1 18410012108982090935
15256400 18 18410857620686823693
15295992 7 17845930826899781123
15536298 74 18413671296627645270
1601671 61 18409168826940819996
16945 1 18266170819592368622
17349148 13 18412820287929204701
17804303 29 18410296916890392117
1813 80 16950285091842931756
18186145 218 17417805158171412875
19141452 34 18413108389914235807
192875 21 13830133918406568194
19591789 44 18192993725128068838
200 152 18131627885965453901
20028762 73 18272929458099065015
20261772 1 18410856577167961319
20510252 161 18341895147623301209
20645477 70 18200878374956666302
21033648 29 18271512131406579929
21267235 1 18337399244825179854
21279426 13 18124035632930519374
21421861 104 17895744090149736410
22854114 59 18412546505207311417
22892500 29 17274814788166584896
23184049 59 18410576175690384255
23402539 116 18342170081765240151
23557571 272 17773880972535682807
23558518 356 17682680979747269074
23559900 14 18413389822146813342
2748010 2 18337666399911122230
3004659 81 18260835844047909814
335352 9 18410013195572088855
34934 24 18411133675799850702
350125 39 18409735045496469133
351380 180 18409730664571278687
3545911 37 18411703192367818988
4214541 1 18409167684326479901
465052 167 17967541176940287083
495365 180 17346587600050392546
5104073 3 18409449150412323065
542803 24 17346883342628774985
59755656 215 18335983048405458773
69090 78 18341891905091661271
77779 3 18409450271409361990
7832392 63 18341046427736201710
9709674 26 18410862087368844367
9999458 23 17967819357476725574

> <PUBCHEM_SHAPE_MULTIPOLES>
399.85
9.72
2.11
0.84
3.73
0.39
0.22
-1.2
1.2
-0.24
-0.15
-0.38
-0.13
0.32

> <PUBCHEM_SHAPE_SELFOVERLAP>
871.414

> <PUBCHEM_SHAPE_VOLUME>
217.1

> <PUBCHEM_COORDINATE_TYPE>
2
5
10

> <Energy>
58.4396

> <minimizedAffinity>
-6.24529

> <CNNscore>
0.3843241036

> <CNNaffinity>
7.3232769966

> <CNN_VS>
2.8145117760

> <CNNaffinity_variance>
0.8272354007

$$$$
5757


 22 25  0  0  0  0  0  0  0  0999 V2000
   -0.9291   -4.5620   19.4282 O   0  0  0  0  0  0  0  0  0  0  0  0
  -11.6873   -5.7444   21.1771 O   0  0  0  0  0  0  0  0  0  0  0  0
   -3.2509   -5.1131   20.0489 C   0  0  0  0  0  0  0  0  0  0  0  0
   -3.7784   -6.2029   21.0038 C   0  0  0  0  0  0  0  0  0  0  0  0
   -5.2478   -5.9897   21.3672 C   0  0  0  0  0  0  0  0  0  0  0  0
   -6.1000   -6.0619   20.0637 C   0  0  0  0  0  0  0  0  0  0  0  0
   -1.7822   -5.5665   19.9413 C   0  0  0  0  0  0  0  0  0  0  0  0
   -4.0491   -5.1966   18.7421 C   0  0  0  0  0  0  0  0  0  0  0  0
   -2.7315   -6.2401   22.1134 C   0  0  0  0  0  0  0  0  0  0  0  0
   -5.5657   -5.0775   18.9883 C   0  0  0  0  0  0  0  0  0  0  0  0
   -1.4056   -5.9552   21.3843 C   0  0  0  0  0  0  0  0  0  0  0  0
   -5.7664   -7.0332   22.3585 C   0  0  0  0  0  0  0  0  0  0  0  0
   -3.3292   -3.6682   20.6049 C   0  0  0  0  0  0  0  0  0  0  0  0
   -7.5917   -5.9401   20.3704 C   0  0  0  0  0  0  0  0  0  0  0  0
   -7.1886   -6.6810   22.7879 C   0  0  0  0  0  0  0  0  0  0  0  0
   -8.0936   -6.2774   21.6469 C   0  0  0  0  0  0  0  0  0  0  0  0
   -8.5106   -5.5785   19.3688 C   0  0  0  0  0  0  0  0  0  0  0  0
   -9.4751   -6.1925   21.9017 C   0  0  0  0  0  0  0  0  0  0  0  0
   -9.8811   -5.5075   19.6301 C   0  0  0  0  0  0  0  0  0  0  0  0
  -10.3536   -5.8102   20.8962 C   0  0  0  0  0  0  0  0  0  0  0  0
   -1.1955   -4.3437   18.5214 H   0  0  0  0  0  0  0  0  0  0  0  0
  -11.9957   -5.9514   22.0374 H   0  0  0  0  0  0  0  0  0  0  0  0
  1  7  1  0
  1 21  1  0
  2 20  1  0
  2 22  1  0
  3  4  1  0
  3  7  1  0
  3  8  1  0
  3 13  1  0
  4  5  1  0
  4  9  1  0
  5  6  1  0
  5 12  1  0
  6 10  1  0
  6 14  1  0
  7 11  1  0
  8 10  1  0
  9 11  1  0
 12 15  1  0
 14 16  2  0
 14 17  1  0
 15 16  1  0
 16 18  1  0
 17 19  2  0
 18 20  2  0
 19 20  1  0
M  END
> <PUBCHEM_COMPOUND_CID>
5757

> <PUBCHEM_CONFORMER_RMSD>
0.6

> <PUBCHEM_CONFORMER_DIVERSEORDER>
1

> <PUBCHEM_MMFF94_PARTIAL_CHARGES>
16
1 -0.68
14 -0.14
15 0.14
16 -0.14
17 -0.15
18 -0.15
19 -0.15
2 -0.53
20 0.08
40 0.4
41 0.15
42 0.15
43 0.15
44 0.45
6 0.14
7 0.28

> <PUBCHEM_EFFECTIVE_ROTOR_COUNT>
1.4

> <PUBCHEM_PHARMACOPHORE_FEATURES>
7
1 1 acceptor
1 1 donor
1 2 donor
5 3 4 7 9 11 rings
6 14 16 17 18 19 20 rings
6 3 4 5 6 8 10 rings
6 5 6 12 14 15 16 rings

> <PUBCHEM_HEAVY_ATOM_COUNT>
20

> <PUBCHEM_ATOM_DEF_STEREO_COUNT>
5

> <PUBCHEM_ATOM_UDEF_STEREO_COUNT>
0

> <PUBCHEM_BOND_DEF_STEREO_COUNT>
0

> <PUBCHEM_BOND_UDEF_STEREO_COUNT>
0

> <PUBCHEM_ISOTOPIC_ATOM_COUNT>
0

> <PUBCHEM_COMPONENT_COUNT>
1

> <PUBCHEM_CACTVS_TAUTO_COUNT>
9

> <PUBCHEM_CONFORMER_ID>
0000167D00000001

> <PUBCHEM_MMFF94_ENERGY>
68.4596

> <PUBCHEM_FEATURE_SELFOVERLAP>
35.62

> <PUBCHEM_SHAPE_FINGERPRINT>
10 15 18262512710780645640
10411042 1 16969703283687688743
10616163 171 18338239395883154686
10967382 1 18410012100429229070
11132069 177 18409162216832884669
11578080 2 17201347718505248258
12011746 2 18410859841042374310
12107183 9 17690845558000159065
12236239 1 13470690338792453460
12251169 10 18335139816864396069
12403259 415 18410852127603240605
12403814 3 17530960289353343621
12500047 106 18271238421624861530
12592029 89 18334859377112304987
12788726 201 17703518696578858128
128620 24 11818992989152349105
13140716 1 18192429898953651512
13533116 47 17846218813073552003
13544592 145 18272379637759764926
13675066 3 18341893012844745609
14178342 30 18123731313450613666
14341114 176 18409738343777605753
14866123 147 17046555868986690930
15042514 8 18263932206156989787
15196674 1 18410012108982090935
15256400 18 18410857620686823693
15295992 7 17845930826899781123
15536298 74 18413671296627645270
1601671 61 18409168826940819996
16945 1 18266170819592368622
17349148 13 18412820287929204701
17804303 29 18410296916890392117
1813 80 16950285091842931756
18186145 218 17417805158171412875
19141452 34 18413108389914235807
192875 21 13830133918406568194
19591789 44 18192993725128068838
200 152 18131627885965453901
20028762 73 18272929458099065015
20261772 1 18410856577167961319
20510252 161 18341895147623301209
20645477 70 18200878374956666302
21033648 29 18271512131406579929
21267235 1 18337399244825179854
21279426 13 18124035632930519374
21421861 104 17895744090149736410
22854114 59 18412546505207311417
22892500 29 17274814788166584896
23184049 59 18410576175690384255
23402539 116 18342170081765240151
23557571 272 17773880972535682807
23558518 356 17682680979747269074
23559900 14 18413389822146813342
2748010 2 18337666399911122230
3004659 81 18260835844047909814
335352 9 18410013195572088855
34934 24 18411133675799850702
350125 39 18409735045496469133
351380 180 18409730664571278687
3545911 37 18411703192367818988
4214541 1 18409167684326479901
465052 167 17967541176940287083
495365 180 17346587600050392546
5104073 3 18409449150412323065
542803 24 17346883342628774985
59755656 215 18335983048405458773
69090 78 18341891905091661271
77779 3 18409450271409361990
7832392 63 18341046427736201710
9709674 26 18410862087368844367
9999458 23 17967819357476725574

> <PUBCHEM_SHAPE_MULTIPOLES>
399.85
9.72
2.11
0.84
3.73
0.39
0.22
-1.2
1.2
-0.24
-0.15
-0.38
-0.13
0.32

> <PUBCHEM_SHAPE_SELFOVERLAP>
871.414

> <PUBCHEM_SHAPE_VOLUME>
217.1

> <PUBCHEM_COORDINATE_TYPE>
2
5
10

> <Energy>
58.4396

> <minimizedAffinity>
-6.26723

> <CNNscore>
0.2620793283

> <CNNaffinity>
6.9189109802

> <CNN_VS>
1.8133035898

> <CNNaffinity_variance>
0.4827372134

$$$$
5757


 22 25  0  0  0  0  0  0  0  0999 V2000
   -0.7657   -3.6586   17.6039 O   0  0  0  0  0  0  0  0  0  0  0  0
  -10.2055   -5.7458   22.7740 O   0  0  0  0  0  0  0  0  0  0  0  0
   -2.8119   -4.4915   18.6989 C   0  0  0  0  0  0  0  0  0  0  0  0
   -3.2993   -5.9413   18.8937 C   0  0  0  0  0  0  0  0  0  0  0  0
   -4.4366   -6.0362   19.9106 C   0  0  0  0  0  0  0  0  0  0  0  0
   -5.6468   -5.2059   19.3849 C   0  0  0  0  0  0  0  0  0  0  0  0
   -1.6636   -4.7466   17.7038 C   0  0  0  0  0  0  0  0  0  0  0  0
   -3.9782   -3.6671   18.1403 C   0  0  0  0  0  0  0  0  0  0  0  0
   -2.0098   -6.7196   19.1393 C   0  0  0  0  0  0  0  0  0  0  0  0
   -5.2241   -3.7514   19.0434 C   0  0  0  0  0  0  0  0  0  0  0  0
   -0.9720   -6.0113   18.2493 C   0  0  0  0  0  0  0  0  0  0  0  0
   -4.8903   -7.4769   20.1537 C   0  0  0  0  0  0  0  0  0  0  0  0
   -2.2715   -3.8093   19.9818 C   0  0  0  0  0  0  0  0  0  0  0  0
   -6.8499   -5.3293   20.3186 C   0  0  0  0  0  0  0  0  0  0  0  0
   -5.9224   -7.5144   21.2782 C   0  0  0  0  0  0  0  0  0  0  0  0
   -6.9856   -6.4456   21.1733 C   0  0  0  0  0  0  0  0  0  0  0  0
   -7.8928   -4.3861   20.2858 C   0  0  0  0  0  0  0  0  0  0  0  0
   -8.1175   -6.5605   22.0016 C   0  0  0  0  0  0  0  0  0  0  0  0
   -9.0168   -4.5156   21.1051 C   0  0  0  0  0  0  0  0  0  0  0  0
   -9.1193   -5.5994   21.9611 C   0  0  0  0  0  0  0  0  0  0  0  0
   -1.2347   -2.8830   17.2583 H   0  0  0  0  0  0  0  0  0  0  0  0
  -10.2642   -6.4831   23.3492 H   0  0  0  0  0  0  0  0  0  0  0  0
  1  7  1  0
  1 21  1  0
  2 20  1  0
  2 22  1  0
  3  4  1  0
  3  7  1  0
  3  8  1  0
  3 13  1  0
  4  5  1  0
  4  9  1  0
  5  6  1  0
  5 12  1  0
  6 10  1  0
  6 14  1  0
  7 11  1  0
  8 10  1  0
  9 11  1  0
 12 15  1  0
 14 16  2  0
 14 17  1  0
 15 16  1  0
 16 18  1  0
 17 19  2  0
 18 20  2  0
 19 20  1  0
M  END
> <PUBCHEM_COMPOUND_CID>
5757

> <PUBCHEM_CONFORMER_RMSD>
0.6

> <PUBCHEM_CONFORMER_DIVERSEORDER>
1

> <PUBCHEM_MMFF94_PARTIAL_CHARGES>
16
1 -0.68
14 -0.14
15 0.14
16 -0.14
17 -0.15
18 -0.15
19 -0.15
2 -0.53
20 0.08
40 0.4
41 0.15
42 0.15
43 0.15
44 0.45
6 0.14
7 0.28

> <PUBCHEM_EFFECTIVE_ROTOR_COUNT>
1.4

> <PUBCHEM_PHARMACOPHORE_FEATURES>
7
1 1 acceptor
1 1 donor
1 2 donor
5 3 4 7 9 11 rings
6 14 16 17 18 19 20 rings
6 3 4 5 6 8 10 rings
6 5 6 12 14 15 16 rings

> <PUBCHEM_HEAVY_ATOM_COUNT>
20

> <PUBCHEM_ATOM_DEF_STEREO_COUNT>
5

> <PUBCHEM_ATOM_UDEF_STEREO_COUNT>
0

> <PUBCHEM_BOND_DEF_STEREO_COUNT>
0

> <PUBCHEM_BOND_UDEF_STEREO_COUNT>
0

> <PUBCHEM_ISOTOPIC_ATOM_COUNT>
0

> <PUBCHEM_COMPONENT_COUNT>
1

> <PUBCHEM_CACTVS_TAUTO_COUNT>
9

> <PUBCHEM_CONFORMER_ID>
0000167D00000001

> <PUBCHEM_MMFF94_ENERGY>
68.4596

> <PUBCHEM_FEATURE_SELFOVERLAP>
35.62

> <PUBCHEM_SHAPE_FINGERPRINT>
10 15 18262512710780645640
10411042 1 16969703283687688743
10616163 171 18338239395883154686
10967382 1 18410012100429229070
11132069 177 18409162216832884669
11578080 2 17201347718505248258
12011746 2 18410859841042374310
12107183 9 17690845558000159065
12236239 1 13470690338792453460
12251169 10 18335139816864396069
12403259 415 18410852127603240605
12403814 3 17530960289353343621
12500047 106 18271238421624861530
12592029 89 18334859377112304987
12788726 201 17703518696578858128
128620 24 11818992989152349105
13140716 1 18192429898953651512
13533116 47 17846218813073552003
13544592 145 18272379637759764926
13675066 3 18341893012844745609
14178342 30 18123731313450613666
14341114 176 18409738343777605753
14866123 147 17046555868986690930
15042514 8 18263932206156989787
15196674 1 18410012108982090935
15256400 18 18410857620686823693
15295992 7 17845930826899781123
15536298 74 18413671296627645270
1601671 61 18409168826940819996
16945 1 18266170819592368622
17349148 13 18412820287929204701
17804303 29 18410296916890392117
1813 80 16950285091842931756
18186145 218 17417805158171412875
19141452 34 18413108389914235807
192875 21 13830133918406568194
19591789 44 18192993725128068838
200 152 18131627885965453901
20028762 73 18272929458099065015
20261772 1 18410856577167961319
20510252 161 18341895147623301209
20645477 70 18200878374956666302
21033648 29 18271512131406579929
21267235 1 18337399244825179854
21279426 13 18124035632930519374
21421861 104 17895744090149736410
22854114 59 18412546505207311417
22892500 29 17274814788166584896
23184049 59 18410576175690384255
23402539 116 18342170081765240151
23557571 272 17773880972535682807
23558518 356 17682680979747269074
23559900 14 18413389822146813342
2748010 2 18337666399911122230
3004659 81 18260835844047909814
335352 9 18410013195572088855
34934 24 18411133675799850702
350125 39 18409735045496469133
351380 180 18409730664571278687
3545911 37 18411703192367818988
4214541 1 18409167684326479901
465052 167 17967541176940287083
495365 180 17346587600050392546
5104073 3 18409449150412323065
542803 24 17346883342628774985
59755656 215 18335983048405458773
69090 78 18341891905091661271
77779 3 18409450271409361990
7832392 63 18341046427736201710
9709674 26 18410862087368844367
9999458 23 17967819357476725574

> <PUBCHEM_SHAPE_MULTIPOLES>
399.85
9.72
2.11
0.84
3.73
0.39
0.22
-1.2
1.2
-0.24
-0.15
-0.38
-0.13
0.32

> <PUBCHEM_SHAPE_SELFOVERLAP>
871.414

> <PUBCHEM_SHAPE_VOLUME>
217.1

> <PUBCHEM_COORDINATE_TYPE>
2
5
10

> <Energy>
58.4396

> <minimizedAffinity>
-0.69728

> <CNNscore>
0.1805466712

> <CNNaffinity>
5.8645806313

> <CNN_VS>
1.0588304996

> <CNNaffinity_variance>
0.0929858908

$$$$
5757


 22 25  0  0  0  0  0  0  0  0999 V2000
   -1.5442   -5.6668   20.2537 O   0  0  0  0  0  0  0  0  0  0  0  0
  -12.3991   -5.9287   21.7694 O   0  0  0  0  0  0  0  0  0  0  0  0
   -4.0094   -5.6228   20.2320 C   0  0  0  0  0  0  0  0  0  0  0  0
   -4.9743   -5.2976   19.0742 C   0  0  0  0  0  0  0  0  0  0  0  0
   -6.4121   -5.7109   19.3877 C   0  0  0  0  0  0  0  0  0  0  0  0
   -6.8994   -4.9145   20.6363 C   0  0  0  0  0  0  0  0  0  0  0  0
   -2.6866   -5.1618   19.5904 C   0  0  0  0  0  0  0  0  0  0  0  0
   -4.4471   -4.8143   21.4594 C   0  0  0  0  0  0  0  0  0  0  0  0
   -4.2758   -5.8887   17.8529 C   0  0  0  0  0  0  0  0  0  0  0  0
   -5.9189   -5.0839   21.8283 C   0  0  0  0  0  0  0  0  0  0  0  0
   -2.7784   -5.6727   18.1392 C   0  0  0  0  0  0  0  0  0  0  0  0
   -7.3685   -5.4443   18.2237 C   0  0  0  0  0  0  0  0  0  0  0  0
   -3.9302   -7.1242   20.6101 C   0  0  0  0  0  0  0  0  0  0  0  0
   -8.3627   -5.2209   20.9515 C   0  0  0  0  0  0  0  0  0  0  0  0
   -8.7502   -6.0082   18.5462 C   0  0  0  0  0  0  0  0  0  0  0  0
   -9.2317   -5.6947   19.9439 C   0  0  0  0  0  0  0  0  0  0  0  0
   -8.9015   -4.9542   22.2231 C   0  0  0  0  0  0  0  0  0  0  0  0
  -10.5850   -5.9388   20.2434 C   0  0  0  0  0  0  0  0  0  0  0  0
  -10.2488   -5.1905   22.5065 C   0  0  0  0  0  0  0  0  0  0  0  0
  -11.0804   -5.6859   21.5161 C   0  0  0  0  0  0  0  0  0  0  0  0
   -1.5198   -5.3252   21.1612 H   0  0  0  0  0  0  0  0  0  0  0  0
  -12.9524   -6.2640   21.0917 H   0  0  0  0  0  0  0  0  0  0  0  0
  1  7  1  0
  1 21  1  0
  2 20  1  0
  2 22  1  0
  3  4  1  0
  3  7  1  0
  3  8  1  0
  3 13  1  0
  4  5  1  0
  4  9  1  0
  5  6  1  0
  5 12  1  0
  6 10  1  0
  6 14  1  0
  7 11  1  0
  8 10  1  0
  9 11  1  0
 12 15  1  0
 14 16  2  0
 14 17  1  0
 15 16  1  0
 16 18  1  0
 17 19  2  0
 18 20  2  0
 19 20  1  0
M  END
> <PUBCHEM_COMPOUND_CID>
5757

> <PUBCHEM_CONFORMER_RMSD>
0.6

> <PUBCHEM_CONFORMER_DIVERSEORDER>
1

> <PUBCHEM_MMFF94_PARTIAL_CHARGES>
16
1 -0.68
14 -0.14
15 0.14
16 -0.14
17 -0.15
18 -0.15
19 -0.15
2 -0.53
20 0.08
40 0.4
41 0.15
42 0.15
43 0.15
44 0.45
6 0.14
7 0.28

> <PUBCHEM_EFFECTIVE_ROTOR_COUNT>
1.4

> <PUBCHEM_PHARMACOPHORE_FEATURES>
7
1 1 acceptor
1 1 donor
1 2 donor
5 3 4 7 9 11 rings
6 14 16 17 18 19 20 rings
6 3 4 5 6 8 10 rings
6 5 6 12 14 15 16 rings

> <PUBCHEM_HEAVY_ATOM_COUNT>
20

> <PUBCHEM_ATOM_DEF_STEREO_COUNT>
5

> <PUBCHEM_ATOM_UDEF_STEREO_COUNT>
0

> <PUBCHEM_BOND_DEF_STEREO_COUNT>
0

> <PUBCHEM_BOND_UDEF_STEREO_COUNT>
0

> <PUBCHEM_ISOTOPIC_ATOM_COUNT>
0

> <PUBCHEM_COMPONENT_COUNT>
1

> <PUBCHEM_CACTVS_TAUTO_COUNT>
9

> <PUBCHEM_CONFORMER_ID>
0000167D00000001

> <PUBCHEM_MMFF94_ENERGY>
68.4596

> <PUBCHEM_FEATURE_SELFOVERLAP>
35.62

> <PUBCHEM_SHAPE_FINGERPRINT>
10 15 18262512710780645640
10411042 1 16969703283687688743
10616163 171 18338239395883154686
10967382 1 18410012100429229070
11132069 177 18409162216832884669
11578080 2 17201347718505248258
12011746 2 18410859841042374310
12107183 9 17690845558000159065
12236239 1 13470690338792453460
12251169 10 18335139816864396069
12403259 415 18410852127603240605
12403814 3 17530960289353343621
12500047 106 18271238421624861530
12592029 89 18334859377112304987
12788726 201 17703518696578858128
128620 24 11818992989152349105
13140716 1 18192429898953651512
13533116 47 17846218813073552003
13544592 145 18272379637759764926
13675066 3 18341893012844745609
14178342 30 18123731313450613666
14341114 176 18409738343777605753
14866123 147 17046555868986690930
15042514 8 18263932206156989787
15196674 1 18410012108982090935
15256400 18 18410857620686823693
15295992 7 17845930826899781123
15536298 74 18413671296627645270
1601671 61 18409168826940819996
16945 1 18266170819592368622
17349148 13 18412820287929204701
17804303 29 18410296916890392117
1813 80 16950285091842931756
18186145 218 17417805158171412875
19141452 34 18413108389914235807
192875 21 13830133918406568194
19591789 44 18192993725128068838
200 152 18131627885965453901
20028762 73 18272929458099065015
20261772 1 18410856577167961319
20510252 161 18341895147623301209
20645477 70 18200878374956666302
21033648 29 18271512131406579929
21267235 1 18337399244825179854
21279426 13 18124035632930519374
21421861 104 17895744090149736410
22854114 59 18412546505207311417
22892500 29 17274814788166584896
23184049 59 18410576175690384255
23402539 116 18342170081765240151
23557571 272 17773880972535682807
23558518 356 17682680979747269074
23559900 14 18413389822146813342
2748010 2 18337666399911122230
3004659 81 18260835844047909814
335352 9 18410013195572088855
34934 24 18411133675799850702
350125 39 18409735045496469133
351380 180 18409730664571278687
3545911 37 18411703192367818988
4214541 1 18409167684326479901
465052 167 17967541176940287083
495365 180 17346587600050392546
5104073 3 18409449150412323065
542803 24 17346883342628774985
59755656 215 18335983048405458773
69090 78 18341891905091661271
77779 3 18409450271409361990
7832392 63 18341046427736201710
9709674 26 18410862087368844367
9999458 23 17967819357476725574

> <PUBCHEM_SHAPE_MULTIPOLES>
399.85
9.72
2.11
0.84
3.73
0.39
0.22
-1.2
1.2
-0.24
-0.15
-0.38
-0.13
0.32

> <PUBCHEM_SHAPE_SELFOVERLAP>
871.414

> <PUBCHEM_SHAPE_VOLUME>
217.1

> <PUBCHEM_COORDINATE_TYPE>
2
5
10

> <Energy>
58.4396

> <minimizedAffinity>
0.19194

> <CNNscore>
0.1799910814

> <CNNaffinity>
6.2576270103

> <CNN_VS>
1.1263170242

> <CNNaffinity_variance>
0.2015486956

$$$$
