5757


 22 25  0  0  0  0  0  0  0  0999 V2000
   -9.0627   -5.5539   24.0093 O   0  0  0  0  0  0  0  0  0  0  0  0
    1.0702   -2.7210   20.9278 O   0  0  0  0  0  0  0  0  0  0  0  0
   -6.8724   -4.5727   23.4441 C   0  0  0  0  0  0  0  0  0  0  0  0
   -6.3568   -3.1355   23.6588 C   0  0  0  0  0  0  0  0  0  0  0  0
   -4.8424   -3.0327   23.4790 C   0  0  0  0  0  0  0  0  0  0  0  0
   -4.4843   -3.4413   22.0177 C   0  0  0  0  0  0  0  0  0  0  0  0
   -8.3652   -4.3504   23.7543 C   0  0  0  0  0  0  0  0  0  0  0  0
   -6.5677   -4.9777   21.9967 C   0  0  0  0  0  0  0  0  0  0  0  0
   -6.9809   -2.7295   24.9909 C   0  0  0  0  0  0  0  0  0  0  0  0
   -5.0694   -4.8356   21.6651 C   0  0  0  0  0  0  0  0  0  0  0  0
   -8.3559   -3.4224   24.9847 C   0  0  0  0  0  0  0  0  0  0  0  0
   -4.3123   -1.6224   23.7448 C   0  0  0  0  0  0  0  0  0  0  0  0
   -6.2734   -5.6290   24.4078 C   0  0  0  0  0  0  0  0  0  0  0  0
   -2.9893   -3.2782   21.7481 C   0  0  0  0  0  0  0  0  0  0  0  0
   -2.7865   -1.6212   23.6894 C   0  0  0  0  0  0  0  0  0  0  0  0
   -2.2129   -2.3837   22.5176 C   0  0  0  0  0  0  0  0  0  0  0  0
   -2.3697   -3.9423   20.6741 C   0  0  0  0  0  0  0  0  0  0  0  0
   -0.8444   -2.2201   22.2330 C   0  0  0  0  0  0  0  0  0  0  0  0
   -1.0127   -3.7645   20.3943 C   0  0  0  0  0  0  0  0  0  0  0  0
   -0.2580   -2.9083   21.1787 C   0  0  0  0  0  0  0  0  0  0  0  0
   -9.0476   -6.1109   23.2153 H   0  0  0  0  0  0  0  0  0  0  0  0
    1.5710   -2.1393   21.4652 H   0  0  0  0  0  0  0  0  0  0  0  0
  1  7  1  0
  1 21  1  0
  2 20  1  0
  2 22  1  0
  3  4  1  0
  3  7  1  0
  3  8  1  0
  3 13  1  0
  4  5  1  0
  4  9  1  0
  5  6  1  0
  5 12  1  0
  6 10  1  0
  6 14  1  0
  7 11  1  0
  8 10  1  0
  9 11  1  0
 12 15  1  0
 14 16  2  0
 14 17  1  0
 15 16  1  0
 16 18  1  0
 17 19  2  0
 18 20  2  0
 19 20  1  0
M  END
> <PUBCHEM_COMPOUND_CID>
5757

> <PUBCHEM_CONFORMER_RMSD>
0.6

> <PUBCHEM_CONFORMER_DIVERSEORDER>
1

> <PUBCHEM_MMFF94_PARTIAL_CHARGES>
16
1 -0.68
14 -0.14
15 0.14
16 -0.14
17 -0.15
18 -0.15
19 -0.15
2 -0.53
20 0.08
40 0.4
41 0.15
42 0.15
43 0.15
44 0.45
6 0.14
7 0.28

> <PUBCHEM_EFFECTIVE_ROTOR_COUNT>
1.4

> <PUBCHEM_PHARMACOPHORE_FEATURES>
7
1 1 acceptor
1 1 donor
1 2 donor
5 3 4 7 9 11 rings
6 14 16 17 18 19 20 rings
6 3 4 5 6 8 10 rings
6 5 6 12 14 15 16 rings

> <PUBCHEM_HEAVY_ATOM_COUNT>
20

> <PUBCHEM_ATOM_DEF_STEREO_COUNT>
5

> <PUBCHEM_ATOM_UDEF_STEREO_COUNT>
0

> <PUBCHEM_BOND_DEF_STEREO_COUNT>
0

> <PUBCHEM_BOND_UDEF_STEREO_COUNT>
0

> <PUBCHEM_ISOTOPIC_ATOM_COUNT>
0

> <PUBCHEM_COMPONENT_COUNT>
1

> <PUBCHEM_CACTVS_TAUTO_COUNT>
9

> <PUBCHEM_CONFORMER_ID>
0000167D00000001

> <PUBCHEM_MMFF94_ENERGY>
68.4596

> <PUBCHEM_FEATURE_SELFOVERLAP>
35.62

> <PUBCHEM_SHAPE_FINGERPRINT>
10 15 18262512710780645640
10411042 1 16969703283687688743
10616163 171 18338239395883154686
10967382 1 18410012100429229070
11132069 177 18409162216832884669
11578080 2 17201347718505248258
12011746 2 18410859841042374310
12107183 9 17690845558000159065
12236239 1 13470690338792453460
12251169 10 18335139816864396069
12403259 415 18410852127603240605
12403814 3 17530960289353343621
12500047 106 18271238421624861530
12592029 89 18334859377112304987
12788726 201 17703518696578858128
128620 24 11818992989152349105
13140716 1 18192429898953651512
13533116 47 17846218813073552003
13544592 145 18272379637759764926
13675066 3 18341893012844745609
14178342 30 18123731313450613666
14341114 176 18409738343777605753
14866123 147 17046555868986690930
15042514 8 18263932206156989787
15196674 1 18410012108982090935
15256400 18 18410857620686823693
15295992 7 17845930826899781123
15536298 74 18413671296627645270
1601671 61 18409168826940819996
16945 1 18266170819592368622
17349148 13 18412820287929204701
17804303 29 18410296916890392117
1813 80 16950285091842931756
18186145 218 17417805158171412875
19141452 34 18413108389914235807
192875 21 13830133918406568194
19591789 44 18192993725128068838
200 152 18131627885965453901
20028762 73 18272929458099065015
20261772 1 18410856577167961319
20510252 161 18341895147623301209
20645477 70 18200878374956666302
21033648 29 18271512131406579929
21267235 1 18337399244825179854
21279426 13 18124035632930519374
21421861 104 17895744090149736410
22854114 59 18412546505207311417
22892500 29 17274814788166584896
23184049 59 18410576175690384255
23402539 116 18342170081765240151
23557571 272 17773880972535682807
23558518 356 17682680979747269074
23559900 14 18413389822146813342
2748010 2 18337666399911122230
3004659 81 18260835844047909814
335352 9 18410013195572088855
34934 24 18411133675799850702
350125 39 18409735045496469133
351380 180 18409730664571278687
3545911 37 18411703192367818988
4214541 1 18409167684326479901
465052 167 17967541176940287083
495365 180 17346587600050392546
5104073 3 18409449150412323065
542803 24 17346883342628774985
59755656 215 18335983048405458773
69090 78 18341891905091661271
77779 3 18409450271409361990
7832392 63 18341046427736201710
9709674 26 18410862087368844367
9999458 23 17967819357476725574

> <PUBCHEM_SHAPE_MULTIPOLES>
399.85
9.72
2.11
0.84
3.73
0.39
0.22
-1.2
1.2
-0.24
-0.15
-0.38
-0.13
0.32

> <PUBCHEM_SHAPE_SELFOVERLAP>
871.414

> <PUBCHEM_SHAPE_VOLUME>
217.1

> <PUBCHEM_COORDINATE_TYPE>
2
5
10

> <Energy>
58.4396

> <minimizedAffinity>
-10.79728

> <CNNscore>
0.8963499069

> <CNNaffinity>
7.6772789955

> <CNN_VS>
6.8815283775

> <CNNaffinity_variance>
0.5855886936

$$$$
5757


 22 25  0  0  0  0  0  0  0  0999 V2000
   -9.3654   -2.6879   24.3023 O   0  0  0  0  0  0  0  0  0  0  0  0
    1.0197   -2.5006   20.7938 O   0  0  0  0  0  0  0  0  0  0  0  0
   -7.0834   -3.0091   23.4253 C   0  0  0  0  0  0  0  0  0  0  0  0
   -6.4351   -4.2685   22.8163 C   0  0  0  0  0  0  0  0  0  0  0  0
   -5.1258   -3.9518   22.0939 C   0  0  0  0  0  0  0  0  0  0  0  0
   -4.1165   -3.3621   23.1254 C   0  0  0  0  0  0  0  0  0  0  0  0
   -8.3668   -3.6416   23.9971 C   0  0  0  0  0  0  0  0  0  0  0  0
   -6.1227   -2.4381   24.4754 C   0  0  0  0  0  0  0  0  0  0  0  0
   -7.5786   -4.9175   22.0417 C   0  0  0  0  0  0  0  0  0  0  0  0
   -4.7292   -2.1528   23.8824 C   0  0  0  0  0  0  0  0  0  0  0  0
   -8.8245   -4.6169   22.8949 C   0  0  0  0  0  0  0  0  0  0  0  0
   -4.5023   -5.1851   21.4375 C   0  0  0  0  0  0  0  0  0  0  0  0
   -7.4391   -1.9010   22.4011 C   0  0  0  0  0  0  0  0  0  0  0  0
   -2.7555   -3.1022   22.4814 C   0  0  0  0  0  0  0  0  0  0  0  0
   -3.2815   -4.7763   20.6168 C   0  0  0  0  0  0  0  0  0  0  0  0
   -2.3605   -3.8091   21.3241 C   0  0  0  0  0  0  0  0  0  0  0  0
   -1.8295   -2.2242   23.0729 C   0  0  0  0  0  0  0  0  0  0  0  0
   -1.0895   -3.5824   20.7641 C   0  0  0  0  0  0  0  0  0  0  0  0
   -0.5664   -2.0146   22.5142 C   0  0  0  0  0  0  0  0  0  0  0  0
   -0.2067   -2.6914   21.3607 C   0  0  0  0  0  0  0  0  0  0  0  0
   -9.0429   -2.0933   24.9975 H   0  0  0  0  0  0  0  0  0  0  0  0
    1.2522   -2.9639   20.0132 H   0  0  0  0  0  0  0  0  0  0  0  0
  1  7  1  0
  1 21  1  0
  2 20  1  0
  2 22  1  0
  3  4  1  0
  3  7  1  0
  3  8  1  0
  3 13  1  0
  4  5  1  0
  4  9  1  0
  5  6  1  0
  5 12  1  0
  6 10  1  0
  6 14  1  0
  7 11  1  0
  8 10  1  0
  9 11  1  0
 12 15  1  0
 14 16  2  0
 14 17  1  0
 15 16  1  0
 16 18  1  0
 17 19  2  0
 18 20  2  0
 19 20  1  0
M  END
> <PUBCHEM_COMPOUND_CID>
5757

> <PUBCHEM_CONFORMER_RMSD>
0.6

> <PUBCHEM_CONFORMER_DIVERSEORDER>
1

> <PUBCHEM_MMFF94_PARTIAL_CHARGES>
16
1 -0.68
14 -0.14
15 0.14
16 -0.14
17 -0.15
18 -0.15
19 -0.15
2 -0.53
20 0.08
40 0.4
41 0.15
42 0.15
43 0.15
44 0.45
6 0.14
7 0.28

> <PUBCHEM_EFFECTIVE_ROTOR_COUNT>
1.4

> <PUBCHEM_PHARMACOPHORE_FEATURES>
7
1 1 acceptor
1 1 donor
1 2 donor
5 3 4 7 9 11 rings
6 14 16 17 18 19 20 rings
6 3 4 5 6 8 10 rings
6 5 6 12 14 15 16 rings

> <PUBCHEM_HEAVY_ATOM_COUNT>
20

> <PUBCHEM_ATOM_DEF_STEREO_COUNT>
5

> <PUBCHEM_ATOM_UDEF_STEREO_COUNT>
0

> <PUBCHEM_BOND_DEF_STEREO_COUNT>
0

> <PUBCHEM_BOND_UDEF_STEREO_COUNT>
0

> <PUBCHEM_ISOTOPIC_ATOM_COUNT>
0

> <PUBCHEM_COMPONENT_COUNT>
1

> <PUBCHEM_CACTVS_TAUTO_COUNT>
9

> <PUBCHEM_CONFORMER_ID>
0000167D00000001

> <PUBCHEM_MMFF94_ENERGY>
68.4596

> <PUBCHEM_FEATURE_SELFOVERLAP>
35.62

> <PUBCHEM_SHAPE_FINGERPRINT>
10 15 18262512710780645640
10411042 1 16969703283687688743
10616163 171 18338239395883154686
10967382 1 18410012100429229070
11132069 177 18409162216832884669
11578080 2 17201347718505248258
12011746 2 18410859841042374310
12107183 9 17690845558000159065
12236239 1 13470690338792453460
12251169 10 18335139816864396069
12403259 415 18410852127603240605
12403814 3 17530960289353343621
12500047 106 18271238421624861530
12592029 89 18334859377112304987
12788726 201 17703518696578858128
128620 24 11818992989152349105
13140716 1 18192429898953651512
13533116 47 17846218813073552003
13544592 145 18272379637759764926
13675066 3 18341893012844745609
14178342 30 18123731313450613666
14341114 176 18409738343777605753
14866123 147 17046555868986690930
15042514 8 18263932206156989787
15196674 1 18410012108982090935
15256400 18 18410857620686823693
15295992 7 17845930826899781123
15536298 74 18413671296627645270
1601671 61 18409168826940819996
16945 1 18266170819592368622
17349148 13 18412820287929204701
17804303 29 18410296916890392117
1813 80 16950285091842931756
18186145 218 17417805158171412875
19141452 34 18413108389914235807
192875 21 13830133918406568194
19591789 44 18192993725128068838
200 152 18131627885965453901
20028762 73 18272929458099065015
20261772 1 18410856577167961319
20510252 161 18341895147623301209
20645477 70 18200878374956666302
21033648 29 18271512131406579929
21267235 1 18337399244825179854
21279426 13 18124035632930519374
21421861 104 17895744090149736410
22854114 59 18412546505207311417
22892500 29 17274814788166584896
23184049 59 18410576175690384255
23402539 116 18342170081765240151
23557571 272 17773880972535682807
23558518 356 17682680979747269074
23559900 14 18413389822146813342
2748010 2 18337666399911122230
3004659 81 18260835844047909814
335352 9 18410013195572088855
34934 24 18411133675799850702
350125 39 18409735045496469133
351380 180 18409730664571278687
3545911 37 18411703192367818988
4214541 1 18409167684326479901
465052 167 17967541176940287083
495365 180 17346587600050392546
5104073 3 18409449150412323065
542803 24 17346883342628774985
59755656 215 18335983048405458773
69090 78 18341891905091661271
77779 3 18409450271409361990
7832392 63 18341046427736201710
9709674 26 18410862087368844367
9999458 23 17967819357476725574

> <PUBCHEM_SHAPE_MULTIPOLES>
399.85
9.72
2.11
0.84
3.73
0.39
0.22
-1.2
1.2
-0.24
-0.15
-0.38
-0.13
0.32

> <PUBCHEM_SHAPE_SELFOVERLAP>
871.414

> <PUBCHEM_SHAPE_VOLUME>
217.1

> <PUBCHEM_COORDINATE_TYPE>
2
5
10

> <Energy>
58.4396

> <minimizedAffinity>
-9.37549

> <CNNscore>
0.8944113255

> <CNNaffinity>
7.7700080872

> <CNN_VS>
6.9495830536

> <CNNaffinity_variance>
0.7847041488

$$$$
5757


 22 25  0  0  0  0  0  0  0  0999 V2000
   -8.9762   -0.9713   24.5623 O   0  0  0  0  0  0  0  0  0  0  0  0
    1.1546   -2.3991   20.6223 O   0  0  0  0  0  0  0  0  0  0  0  0
   -6.8472   -1.5747   23.4748 C   0  0  0  0  0  0  0  0  0  0  0  0
   -6.5547   -2.6741   22.4340 C   0  0  0  0  0  0  0  0  0  0  0  0
   -5.1882   -2.4943   21.7731 C   0  0  0  0  0  0  0  0  0  0  0  0
   -4.0860   -2.5894   22.8716 C   0  0  0  0  0  0  0  0  0  0  0  0
   -8.2717   -1.9940   23.8859 C   0  0  0  0  0  0  0  0  0  0  0  0
   -5.7974   -1.6798   24.5877 C   0  0  0  0  0  0  0  0  0  0  0  0
   -7.8097   -2.6843   21.5658 C   0  0  0  0  0  0  0  0  0  0  0  0
   -4.3625   -1.5954   24.0320 C   0  0  0  0  0  0  0  0  0  0  0  0
   -8.9485   -2.3704   22.5534 C   0  0  0  0  0  0  0  0  0  0  0  0
   -4.9109   -3.5471   20.6983 C   0  0  0  0  0  0  0  0  0  0  0  0
   -6.8523   -0.1306   22.9111 C   0  0  0  0  0  0  0  0  0  0  0  0
   -2.6879   -2.5015   22.2617 C   0  0  0  0  0  0  0  0  0  0  0  0
   -3.6010   -3.2270   19.9823 C   0  0  0  0  0  0  0  0  0  0  0  0
   -2.4698   -2.8473   20.9096 C   0  0  0  0  0  0  0  0  0  0  0  0
   -1.5731   -2.1638   23.0499 C   0  0  0  0  0  0  0  0  0  0  0  0
   -1.1697   -2.7940   20.3736 C   0  0  0  0  0  0  0  0  0  0  0  0
   -0.2854   -2.1241   22.5098 C   0  0  0  0  0  0  0  0  0  0  0  0
   -0.0930   -2.4346   21.1740 C   0  0  0  0  0  0  0  0  0  0  0  0
   -8.5225   -0.7614   25.3936 H   0  0  0  0  0  0  0  0  0  0  0  0
    1.2728   -2.6111   19.7173 H   0  0  0  0  0  0  0  0  0  0  0  0
  1  7  1  0
  1 21  1  0
  2 20  1  0
  2 22  1  0
  3  4  1  0
  3  7  1  0
  3  8  1  0
  3 13  1  0
  4  5  1  0
  4  9  1  0
  5  6  1  0
  5 12  1  0
  6 10  1  0
  6 14  1  0
  7 11  1  0
  8 10  1  0
  9 11  1  0
 12 15  1  0
 14 16  2  0
 14 17  1  0
 15 16  1  0
 16 18  1  0
 17 19  2  0
 18 20  2  0
 19 20  1  0
M  END
> <PUBCHEM_COMPOUND_CID>
5757

> <PUBCHEM_CONFORMER_RMSD>
0.6

> <PUBCHEM_CONFORMER_DIVERSEORDER>
1

> <PUBCHEM_MMFF94_PARTIAL_CHARGES>
16
1 -0.68
14 -0.14
15 0.14
16 -0.14
17 -0.15
18 -0.15
19 -0.15
2 -0.53
20 0.08
40 0.4
41 0.15
42 0.15
43 0.15
44 0.45
6 0.14
7 0.28

> <PUBCHEM_EFFECTIVE_ROTOR_COUNT>
1.4

> <PUBCHEM_PHARMACOPHORE_FEATURES>
7
1 1 acceptor
1 1 donor
1 2 donor
5 3 4 7 9 11 rings
6 14 16 17 18 19 20 rings
6 3 4 5 6 8 10 rings
6 5 6 12 14 15 16 rings

> <PUBCHEM_HEAVY_ATOM_COUNT>
20

> <PUBCHEM_ATOM_DEF_STEREO_COUNT>
5

> <PUBCHEM_ATOM_UDEF_STEREO_COUNT>
0

> <PUBCHEM_BOND_DEF_STEREO_COUNT>
0

> <PUBCHEM_BOND_UDEF_STEREO_COUNT>
0

> <PUBCHEM_ISOTOPIC_ATOM_COUNT>
0

> <PUBCHEM_COMPONENT_COUNT>
1

> <PUBCHEM_CACTVS_TAUTO_COUNT>
9

> <PUBCHEM_CONFORMER_ID>
0000167D00000001

> <PUBCHEM_MMFF94_ENERGY>
68.4596

> <PUBCHEM_FEATURE_SELFOVERLAP>
35.62

> <PUBCHEM_SHAPE_FINGERPRINT>
10 15 18262512710780645640
10411042 1 16969703283687688743
10616163 171 18338239395883154686
10967382 1 18410012100429229070
11132069 177 18409162216832884669
11578080 2 17201347718505248258
12011746 2 18410859841042374310
12107183 9 17690845558000159065
12236239 1 13470690338792453460
12251169 10 18335139816864396069
12403259 415 18410852127603240605
12403814 3 17530960289353343621
12500047 106 18271238421624861530
12592029 89 18334859377112304987
12788726 201 17703518696578858128
128620 24 11818992989152349105
13140716 1 18192429898953651512
13533116 47 17846218813073552003
13544592 145 18272379637759764926
13675066 3 18341893012844745609
14178342 30 18123731313450613666
14341114 176 18409738343777605753
14866123 147 17046555868986690930
15042514 8 18263932206156989787
15196674 1 18410012108982090935
15256400 18 18410857620686823693
15295992 7 17845930826899781123
15536298 74 18413671296627645270
1601671 61 18409168826940819996
16945 1 18266170819592368622
17349148 13 18412820287929204701
17804303 29 18410296916890392117
1813 80 16950285091842931756
18186145 218 17417805158171412875
19141452 34 18413108389914235807
192875 21 13830133918406568194
19591789 44 18192993725128068838
200 152 18131627885965453901
20028762 73 18272929458099065015
20261772 1 18410856577167961319
20510252 161 18341895147623301209
20645477 70 18200878374956666302
21033648 29 18271512131406579929
21267235 1 18337399244825179854
21279426 13 18124035632930519374
21421861 104 17895744090149736410
22854114 59 18412546505207311417
22892500 29 17274814788166584896
23184049 59 18410576175690384255
23402539 116 18342170081765240151
23557571 272 17773880972535682807
23558518 356 17682680979747269074
23559900 14 18413389822146813342
2748010 2 18337666399911122230
3004659 81 18260835844047909814
335352 9 18410013195572088855
34934 24 18411133675799850702
350125 39 18409735045496469133
351380 180 18409730664571278687
3545911 37 18411703192367818988
4214541 1 18409167684326479901
465052 167 17967541176940287083
495365 180 17346587600050392546
5104073 3 18409449150412323065
542803 24 17346883342628774985
59755656 215 18335983048405458773
69090 78 18341891905091661271
77779 3 18409450271409361990
7832392 63 18341046427736201710
9709674 26 18410862087368844367
9999458 23 17967819357476725574

> <PUBCHEM_SHAPE_MULTIPOLES>
399.85
9.72
2.11
0.84
3.73
0.39
0.22
-1.2
1.2
-0.24
-0.15
-0.38
-0.13
0.32

> <PUBCHEM_SHAPE_SELFOVERLAP>
871.414

> <PUBCHEM_SHAPE_VOLUME>
217.1

> <PUBCHEM_COORDINATE_TYPE>
2
5
10

> <Energy>
58.4396

> <minimizedAffinity>
-9.65514

> <CNNscore>
0.7101152539

> <CNNaffinity>
7.4723982811

> <CNN_VS>
5.3062639236

> <CNNaffinity_variance>
0.7949208617

$$$$
5757


 22 25  0  0  0  0  0  0  0  0999 V2000
   -7.2864   -3.8344   25.8578 O   0  0  0  0  0  0  0  0  0  0  0  0
    0.2947   -1.3319   18.3437 O   0  0  0  0  0  0  0  0  0  0  0  0
   -5.7513   -3.5309   23.9522 C   0  0  0  0  0  0  0  0  0  0  0  0
   -5.7445   -4.2292   22.5775 C   0  0  0  0  0  0  0  0  0  0  0  0
   -4.8406   -3.5158   21.5723 C   0  0  0  0  0  0  0  0  0  0  0  0
   -3.3782   -3.5383   22.1121 C   0  0  0  0  0  0  0  0  0  0  0  0
   -6.7717   -4.4263   24.6810 C   0  0  0  0  0  0  0  0  0  0  0  0
   -4.3277   -3.5811   24.5200 C   0  0  0  0  0  0  0  0  0  0  0  0
   -7.2269   -4.4016   22.2592 C   0  0  0  0  0  0  0  0  0  0  0  0
   -3.3020   -2.9608   23.5514 C   0  0  0  0  0  0  0  0  0  0  0  0
   -7.8743   -4.6655   23.6311 C   0  0  0  0  0  0  0  0  0  0  0  0
   -4.8697   -4.1675   20.1884 C   0  0  0  0  0  0  0  0  0  0  0  0
   -6.2425   -2.0607   23.9321 C   0  0  0  0  0  0  0  0  0  0  0  0
   -2.4089   -2.9129   21.1103 C   0  0  0  0  0  0  0  0  0  0  0  0
   -4.0636   -3.3273   19.2008 C   0  0  0  0  0  0  0  0  0  0  0  0
   -2.7293   -2.8609   19.7356 C   0  0  0  0  0  0  0  0  0  0  0  0
   -1.1410   -2.4583   21.5153 C   0  0  0  0  0  0  0  0  0  0  0  0
   -1.8099   -2.3128   18.8219 C   0  0  0  0  0  0  0  0  0  0  0  0
   -0.2320   -1.9255   20.5980 C   0  0  0  0  0  0  0  0  0  0  0  0
   -0.5745   -1.8518   19.2582 C   0  0  0  0  0  0  0  0  0  0  0  0
   -6.5662   -3.6993   26.4934 H   0  0  0  0  0  0  0  0  0  0  0  0
    0.0522   -1.2870   17.4397 H   0  0  0  0  0  0  0  0  0  0  0  0
  1  7  1  0
  1 21  1  0
  2 20  1  0
  2 22  1  0
  3  4  1  0
  3  7  1  0
  3  8  1  0
  3 13  1  0
  4  5  1  0
  4  9  1  0
  5  6  1  0
  5 12  1  0
  6 10  1  0
  6 14  1  0
  7 11  1  0
  8 10  1  0
  9 11  1  0
 12 15  1  0
 14 16  2  0
 14 17  1  0
 15 16  1  0
 16 18  1  0
 17 19  2  0
 18 20  2  0
 19 20  1  0
M  END
> <PUBCHEM_COMPOUND_CID>
5757

> <PUBCHEM_CONFORMER_RMSD>
0.6

> <PUBCHEM_CONFORMER_DIVERSEORDER>
1

> <PUBCHEM_MMFF94_PARTIAL_CHARGES>
16
1 -0.68
14 -0.14
15 0.14
16 -0.14
17 -0.15
18 -0.15
19 -0.15
2 -0.53
20 0.08
40 0.4
41 0.15
42 0.15
43 0.15
44 0.45
6 0.14
7 0.28

> <PUBCHEM_EFFECTIVE_ROTOR_COUNT>
1.4

> <PUBCHEM_PHARMACOPHORE_FEATURES>
7
1 1 acceptor
1 1 donor
1 2 donor
5 3 4 7 9 11 rings
6 14 16 17 18 19 20 rings
6 3 4 5 6 8 10 rings
6 5 6 12 14 15 16 rings

> <PUBCHEM_HEAVY_ATOM_COUNT>
20

> <PUBCHEM_ATOM_DEF_STEREO_COUNT>
5

> <PUBCHEM_ATOM_UDEF_STEREO_COUNT>
0

> <PUBCHEM_BOND_DEF_STEREO_COUNT>
0

> <PUBCHEM_BOND_UDEF_STEREO_COUNT>
0

> <PUBCHEM_ISOTOPIC_ATOM_COUNT>
0

> <PUBCHEM_COMPONENT_COUNT>
1

> <PUBCHEM_CACTVS_TAUTO_COUNT>
9

> <PUBCHEM_CONFORMER_ID>
0000167D00000001

> <PUBCHEM_MMFF94_ENERGY>
68.4596

> <PUBCHEM_FEATURE_SELFOVERLAP>
35.62

> <PUBCHEM_SHAPE_FINGERPRINT>
10 15 18262512710780645640
10411042 1 16969703283687688743
10616163 171 18338239395883154686
10967382 1 18410012100429229070
11132069 177 18409162216832884669
11578080 2 17201347718505248258
12011746 2 18410859841042374310
12107183 9 17690845558000159065
12236239 1 13470690338792453460
12251169 10 18335139816864396069
12403259 415 18410852127603240605
12403814 3 17530960289353343621
12500047 106 18271238421624861530
12592029 89 18334859377112304987
12788726 201 17703518696578858128
128620 24 11818992989152349105
13140716 1 18192429898953651512
13533116 47 17846218813073552003
13544592 145 18272379637759764926
13675066 3 18341893012844745609
14178342 30 18123731313450613666
14341114 176 18409738343777605753
14866123 147 17046555868986690930
15042514 8 18263932206156989787
15196674 1 18410012108982090935
15256400 18 18410857620686823693
15295992 7 17845930826899781123
15536298 74 18413671296627645270
1601671 61 18409168826940819996
16945 1 18266170819592368622
17349148 13 18412820287929204701
17804303 29 18410296916890392117
1813 80 16950285091842931756
18186145 218 17417805158171412875
19141452 34 18413108389914235807
192875 21 13830133918406568194
19591789 44 18192993725128068838
200 152 18131627885965453901
20028762 73 18272929458099065015
20261772 1 18410856577167961319
20510252 161 18341895147623301209
20645477 70 18200878374956666302
21033648 29 18271512131406579929
21267235 1 18337399244825179854
21279426 13 18124035632930519374
21421861 104 17895744090149736410
22854114 59 18412546505207311417
22892500 29 17274814788166584896
23184049 59 18410576175690384255
23402539 116 18342170081765240151
23557571 272 17773880972535682807
23558518 356 17682680979747269074
23559900 14 18413389822146813342
2748010 2 18337666399911122230
3004659 81 18260835844047909814
335352 9 18410013195572088855
34934 24 18411133675799850702
350125 39 18409735045496469133
351380 180 18409730664571278687
3545911 37 18411703192367818988
4214541 1 18409167684326479901
465052 167 17967541176940287083
495365 180 17346587600050392546
5104073 3 18409449150412323065
542803 24 17346883342628774985
59755656 215 18335983048405458773
69090 78 18341891905091661271
77779 3 18409450271409361990
7832392 63 18341046427736201710
9709674 26 18410862087368844367
9999458 23 17967819357476725574

> <PUBCHEM_SHAPE_MULTIPOLES>
399.85
9.72
2.11
0.84
3.73
0.39
0.22
-1.2
1.2
-0.24
-0.15
-0.38
-0.13
0.32

> <PUBCHEM_SHAPE_SELFOVERLAP>
871.414

> <PUBCHEM_SHAPE_VOLUME>
217.1

> <PUBCHEM_COORDINATE_TYPE>
2
5
10

> <Energy>
58.4396

> <minimizedAffinity>
-6.70412

> <CNNscore>
0.5730840564

> <CNNaffinity>
7.3524565697

> <CNN_VS>
4.2135758400

> <CNNaffinity_variance>
0.9232482314

$$$$
5757


 22 25  0  0  0  0  0  0  0  0999 V2000
    1.5593   -2.7890   19.6544 O   0  0  0  0  0  0  0  0  0  0  0  0
   -9.1722   -4.1534   21.4349 O   0  0  0  0  0  0  0  0  0  0  0  0
   -0.7934   -2.9163   20.3813 C   0  0  0  0  0  0  0  0  0  0  0  0
   -1.4525   -2.3804   21.6681 C   0  0  0  0  0  0  0  0  0  0  0  0
   -2.9782   -2.3705   21.5741 C   0  0  0  0  0  0  0  0  0  0  0  0
   -3.4754   -3.8342   21.3722 C   0  0  0  0  0  0  0  0  0  0  0  0
    0.6875   -2.7356   20.7666 C   0  0  0  0  0  0  0  0  0  0  0  0
   -1.2367   -4.3716   20.1885 C   0  0  0  0  0  0  0  0  0  0  0  0
   -0.7109   -1.0725   21.9291 C   0  0  0  0  0  0  0  0  0  0  0  0
   -2.7719   -4.5043   20.1609 C   0  0  0  0  0  0  0  0  0  0  0  0
    0.7270   -1.3594   21.4593 C   0  0  0  0  0  0  0  0  0  0  0  0
   -3.6413   -1.7882   22.8238 C   0  0  0  0  0  0  0  0  0  0  0  0
   -1.1188   -2.1081   19.0991 C   0  0  0  0  0  0  0  0  0  0  0  0
   -5.0016   -3.9027   21.3550 C   0  0  0  0  0  0  0  0  0  0  0  0
   -5.1485   -1.6746   22.6079 C   0  0  0  0  0  0  0  0  0  0  0  0
   -5.7739   -2.8986   21.9798 C   0  0  0  0  0  0  0  0  0  0  0  0
   -5.6714   -5.0077   20.7993 C   0  0  0  0  0  0  0  0  0  0  0  0
   -7.1779   -2.9955   21.9845 C   0  0  0  0  0  0  0  0  0  0  0  0
   -7.0653   -5.0985   20.8187 C   0  0  0  0  0  0  0  0  0  0  0  0
   -7.8094   -4.0894   21.4069 C   0  0  0  0  0  0  0  0  0  0  0  0
    1.5078   -3.6669   19.2450 H   0  0  0  0  0  0  0  0  0  0  0  0
   -9.6654   -3.4648   21.8355 H   0  0  0  0  0  0  0  0  0  0  0  0
  1  7  1  0
  1 21  1  0
  2 20  1  0
  2 22  1  0
  3  4  1  0
  3  7  1  0
  3  8  1  0
  3 13  1  0
  4  5  1  0
  4  9  1  0
  5  6  1  0
  5 12  1  0
  6 10  1  0
  6 14  1  0
  7 11  1  0
  8 10  1  0
  9 11  1  0
 12 15  1  0
 14 16  2  0
 14 17  1  0
 15 16  1  0
 16 18  1  0
 17 19  2  0
 18 20  2  0
 19 20  1  0
M  END
> <PUBCHEM_COMPOUND_CID>
5757

> <PUBCHEM_CONFORMER_RMSD>
0.6

> <PUBCHEM_CONFORMER_DIVERSEORDER>
1

> <PUBCHEM_MMFF94_PARTIAL_CHARGES>
16
1 -0.68
14 -0.14
15 0.14
16 -0.14
17 -0.15
18 -0.15
19 -0.15
2 -0.53
20 0.08
40 0.4
41 0.15
42 0.15
43 0.15
44 0.45
6 0.14
7 0.28

> <PUBCHEM_EFFECTIVE_ROTOR_COUNT>
1.4

> <PUBCHEM_PHARMACOPHORE_FEATURES>
7
1 1 acceptor
1 1 donor
1 2 donor
5 3 4 7 9 11 rings
6 14 16 17 18 19 20 rings
6 3 4 5 6 8 10 rings
6 5 6 12 14 15 16 rings

> <PUBCHEM_HEAVY_ATOM_COUNT>
20

> <PUBCHEM_ATOM_DEF_STEREO_COUNT>
5

> <PUBCHEM_ATOM_UDEF_STEREO_COUNT>
0

> <PUBCHEM_BOND_DEF_STEREO_COUNT>
0

> <PUBCHEM_BOND_UDEF_STEREO_COUNT>
0

> <PUBCHEM_ISOTOPIC_ATOM_COUNT>
0

> <PUBCHEM_COMPONENT_COUNT>
1

> <PUBCHEM_CACTVS_TAUTO_COUNT>
9

> <PUBCHEM_CONFORMER_ID>
0000167D00000001

> <PUBCHEM_MMFF94_ENERGY>
68.4596

> <PUBCHEM_FEATURE_SELFOVERLAP>
35.62

> <PUBCHEM_SHAPE_FINGERPRINT>
10 15 18262512710780645640
10411042 1 16969703283687688743
10616163 171 18338239395883154686
10967382 1 18410012100429229070
11132069 177 18409162216832884669
11578080 2 17201347718505248258
12011746 2 18410859841042374310
12107183 9 17690845558000159065
12236239 1 13470690338792453460
12251169 10 18335139816864396069
12403259 415 18410852127603240605
12403814 3 17530960289353343621
12500047 106 18271238421624861530
12592029 89 18334859377112304987
12788726 201 17703518696578858128
128620 24 11818992989152349105
13140716 1 18192429898953651512
13533116 47 17846218813073552003
13544592 145 18272379637759764926
13675066 3 18341893012844745609
14178342 30 18123731313450613666
14341114 176 18409738343777605753
14866123 147 17046555868986690930
15042514 8 18263932206156989787
15196674 1 18410012108982090935
15256400 18 18410857620686823693
15295992 7 17845930826899781123
15536298 74 18413671296627645270
1601671 61 18409168826940819996
16945 1 18266170819592368622
17349148 13 18412820287929204701
17804303 29 18410296916890392117
1813 80 16950285091842931756
18186145 218 17417805158171412875
19141452 34 18413108389914235807
192875 21 13830133918406568194
19591789 44 18192993725128068838
200 152 18131627885965453901
20028762 73 18272929458099065015
20261772 1 18410856577167961319
20510252 161 18341895147623301209
20645477 70 18200878374956666302
21033648 29 18271512131406579929
21267235 1 18337399244825179854
21279426 13 18124035632930519374
21421861 104 17895744090149736410
22854114 59 18412546505207311417
22892500 29 17274814788166584896
23184049 59 18410576175690384255
23402539 116 18342170081765240151
23557571 272 17773880972535682807
23558518 356 17682680979747269074
23559900 14 18413389822146813342
2748010 2 18337666399911122230
3004659 81 18260835844047909814
335352 9 18410013195572088855
34934 24 18411133675799850702
350125 39 18409735045496469133
351380 180 18409730664571278687
3545911 37 18411703192367818988
4214541 1 18409167684326479901
465052 167 17967541176940287083
495365 180 17346587600050392546
5104073 3 18409449150412323065
542803 24 17346883342628774985
59755656 215 18335983048405458773
69090 78 18341891905091661271
77779 3 18409450271409361990
7832392 63 18341046427736201710
9709674 26 18410862087368844367
9999458 23 17967819357476725574

> <PUBCHEM_SHAPE_MULTIPOLES>
399.85
9.72
2.11
0.84
3.73
0.39
0.22
-1.2
1.2
-0.24
-0.15
-0.38
-0.13
0.32

> <PUBCHEM_SHAPE_SELFOVERLAP>
871.414

> <PUBCHEM_SHAPE_VOLUME>
217.1

> <PUBCHEM_COORDINATE_TYPE>
2
5
10

> <Energy>
58.4396

> <minimizedAffinity>
1.14044

> <CNNscore>
0.5266803503

> <CNNaffinity>
6.8818264008

> <CNN_VS>
3.6245226860

> <CNNaffinity_variance>
0.9992659688

$$$$
5757


 22 25  0  0  0  0  0  0  0  0999 V2000
   -0.3216   -4.5346   19.8516 O   0  0  0  0  0  0  0  0  0  0  0  0
  -10.0586   -2.1722   24.3020 O   0  0  0  0  0  0  0  0  0  0  0  0
   -2.3221   -3.7531   21.0626 C   0  0  0  0  0  0  0  0  0  0  0  0
   -2.4480   -2.6689   22.1517 C   0  0  0  0  0  0  0  0  0  0  0  0
   -3.9009   -2.2605   22.3943 C   0  0  0  0  0  0  0  0  0  0  0  0
   -4.6946   -3.5085   22.8872 C   0  0  0  0  0  0  0  0  0  0  0  0
   -0.7875   -3.8829   21.0170 C   0  0  0  0  0  0  0  0  0  0  0  0
   -3.0613   -5.0057   21.5486 C   0  0  0  0  0  0  0  0  0  0  0  0
   -1.4363   -1.6115   21.7191 C   0  0  0  0  0  0  0  0  0  0  0  0
   -4.5288   -4.7021   21.9080 C   0  0  0  0  0  0  0  0  0  0  0  0
   -0.2879   -2.4271   21.0972 C   0  0  0  0  0  0  0  0  0  0  0  0
   -4.0333   -1.1452   23.4332 C   0  0  0  0  0  0  0  0  0  0  0  0
   -2.8697   -3.3435   19.6713 C   0  0  0  0  0  0  0  0  0  0  0  0
   -6.1390   -3.1461   23.2291 C   0  0  0  0  0  0  0  0  0  0  0  0
   -5.4871   -0.6875   23.5225 C   0  0  0  0  0  0  0  0  0  0  0  0
   -6.4868   -1.8198   23.5684 C   0  0  0  0  0  0  0  0  0  0  0  0
   -7.1364   -4.1350   23.3035 C   0  0  0  0  0  0  0  0  0  0  0  0
   -7.8154   -1.5104   23.9145 C   0  0  0  0  0  0  0  0  0  0  0  0
   -8.4498   -3.8183   23.6583 C   0  0  0  0  0  0  0  0  0  0  0  0
   -8.7817   -2.5072   23.9566 C   0  0  0  0  0  0  0  0  0  0  0  0
   -0.6549   -5.4454   19.8354 H   0  0  0  0  0  0  0  0  0  0  0  0
  -10.2716   -1.2819   24.5017 H   0  0  0  0  0  0  0  0  0  0  0  0
  1  7  1  0
  1 21  1  0
  2 20  1  0
  2 22  1  0
  3  4  1  0
  3  7  1  0
  3  8  1  0
  3 13  1  0
  4  5  1  0
  4  9  1  0
  5  6  1  0
  5 12  1  0
  6 10  1  0
  6 14  1  0
  7 11  1  0
  8 10  1  0
  9 11  1  0
 12 15  1  0
 14 16  2  0
 14 17  1  0
 15 16  1  0
 16 18  1  0
 17 19  2  0
 18 20  2  0
 19 20  1  0
M  END
> <PUBCHEM_COMPOUND_CID>
5757

> <PUBCHEM_CONFORMER_RMSD>
0.6

> <PUBCHEM_CONFORMER_DIVERSEORDER>
1

> <PUBCHEM_MMFF94_PARTIAL_CHARGES>
16
1 -0.68
14 -0.14
15 0.14
16 -0.14
17 -0.15
18 -0.15
19 -0.15
2 -0.53
20 0.08
40 0.4
41 0.15
42 0.15
43 0.15
44 0.45
6 0.14
7 0.28

> <PUBCHEM_EFFECTIVE_ROTOR_COUNT>
1.4

> <PUBCHEM_PHARMACOPHORE_FEATURES>
7
1 1 acceptor
1 1 donor
1 2 donor
5 3 4 7 9 11 rings
6 14 16 17 18 19 20 rings
6 3 4 5 6 8 10 rings
6 5 6 12 14 15 16 rings

> <PUBCHEM_HEAVY_ATOM_COUNT>
20

> <PUBCHEM_ATOM_DEF_STEREO_COUNT>
5

> <PUBCHEM_ATOM_UDEF_STEREO_COUNT>
0

> <PUBCHEM_BOND_DEF_STEREO_COUNT>
0

> <PUBCHEM_BOND_UDEF_STEREO_COUNT>
0

> <PUBCHEM_ISOTOPIC_ATOM_COUNT>
0

> <PUBCHEM_COMPONENT_COUNT>
1

> <PUBCHEM_CACTVS_TAUTO_COUNT>
9

> <PUBCHEM_CONFORMER_ID>
0000167D00000001

> <PUBCHEM_MMFF94_ENERGY>
68.4596

> <PUBCHEM_FEATURE_SELFOVERLAP>
35.62

> <PUBCHEM_SHAPE_FINGERPRINT>
10 15 18262512710780645640
10411042 1 16969703283687688743
10616163 171 18338239395883154686
10967382 1 18410012100429229070
11132069 177 18409162216832884669
11578080 2 17201347718505248258
12011746 2 18410859841042374310
12107183 9 17690845558000159065
12236239 1 13470690338792453460
12251169 10 18335139816864396069
12403259 415 18410852127603240605
12403814 3 17530960289353343621
12500047 106 18271238421624861530
12592029 89 18334859377112304987
12788726 201 17703518696578858128
128620 24 11818992989152349105
13140716 1 18192429898953651512
13533116 47 17846218813073552003
13544592 145 18272379637759764926
13675066 3 18341893012844745609
14178342 30 18123731313450613666
14341114 176 18409738343777605753
14866123 147 17046555868986690930
15042514 8 18263932206156989787
15196674 1 18410012108982090935
15256400 18 18410857620686823693
15295992 7 17845930826899781123
15536298 74 18413671296627645270
1601671 61 18409168826940819996
16945 1 18266170819592368622
17349148 13 18412820287929204701
17804303 29 18410296916890392117
1813 80 16950285091842931756
18186145 218 17417805158171412875
19141452 34 18413108389914235807
192875 21 13830133918406568194
19591789 44 18192993725128068838
200 152 18131627885965453901
20028762 73 18272929458099065015
20261772 1 18410856577167961319
20510252 161 18341895147623301209
20645477 70 18200878374956666302
21033648 29 18271512131406579929
21267235 1 18337399244825179854
21279426 13 18124035632930519374
21421861 104 17895744090149736410
22854114 59 18412546505207311417
22892500 29 17274814788166584896
23184049 59 18410576175690384255
23402539 116 18342170081765240151
23557571 272 17773880972535682807
23558518 356 17682680979747269074
23559900 14 18413389822146813342
2748010 2 18337666399911122230
3004659 81 18260835844047909814
335352 9 18410013195572088855
34934 24 18411133675799850702
350125 39 18409735045496469133
351380 180 18409730664571278687
3545911 37 18411703192367818988
4214541 1 18409167684326479901
465052 167 17967541176940287083
495365 180 17346587600050392546
5104073 3 18409449150412323065
542803 24 17346883342628774985
59755656 215 18335983048405458773
69090 78 18341891905091661271
77779 3 18409450271409361990
7832392 63 18341046427736201710
9709674 26 18410862087368844367
9999458 23 17967819357476725574

> <PUBCHEM_SHAPE_MULTIPOLES>
399.85
9.72
2.11
0.84
3.73
0.39
0.22
-1.2
1.2
-0.24
-0.15
-0.38
-0.13
0.32

> <PUBCHEM_SHAPE_SELFOVERLAP>
871.414

> <PUBCHEM_SHAPE_VOLUME>
217.1

> <PUBCHEM_COORDINATE_TYPE>
2
5
10

> <Energy>
58.4396

> <minimizedAffinity>
-10.21721

> <CNNscore>
0.4976793528

> <CNNaffinity>
7.2699866295

> <CNN_VS>
3.6181223392

> <CNNaffinity_variance>
0.6494430900

$$$$
5757


 22 25  0  0  0  0  0  0  0  0999 V2000
    0.8126   -2.1291   20.9196 O   0  0  0  0  0  0  0  0  0  0  0  0
   -9.0103   -5.2787   24.6325 O   0  0  0  0  0  0  0  0  0  0  0  0
   -1.5282   -2.7198   21.4208 C   0  0  0  0  0  0  0  0  0  0  0  0
   -2.7860   -2.5757   20.5407 C   0  0  0  0  0  0  0  0  0  0  0  0
   -3.9717   -3.3655   21.0947 C   0  0  0  0  0  0  0  0  0  0  0  0
   -4.3264   -2.8084   22.5070 C   0  0  0  0  0  0  0  0  0  0  0  0
   -0.5391   -1.8912   20.5787 C   0  0  0  0  0  0  0  0  0  0  0  0
   -1.8440   -2.1368   22.8036 C   0  0  0  0  0  0  0  0  0  0  0  0
   -2.2740   -2.8824   19.1363 C   0  0  0  0  0  0  0  0  0  0  0  0
   -3.0826   -2.8006   23.4363 C   0  0  0  0  0  0  0  0  0  0  0  0
   -0.8453   -2.3083   19.1270 C   0  0  0  0  0  0  0  0  0  0  0  0
   -5.2091   -3.2752   20.1996 C   0  0  0  0  0  0  0  0  0  0  0  0
   -1.0117   -4.1723   21.5839 C   0  0  0  0  0  0  0  0  0  0  0  0
   -5.5608   -3.5019   23.0813 C   0  0  0  0  0  0  0  0  0  0  0  0
   -6.3042   -4.1964   20.7317 C   0  0  0  0  0  0  0  0  0  0  0  0
   -6.5050   -4.1135   22.2272 C   0  0  0  0  0  0  0  0  0  0  0  0
   -5.8341   -3.4701   24.4606 C   0  0  0  0  0  0  0  0  0  0  0  0
   -7.6540   -4.7175   22.7710 C   0  0  0  0  0  0  0  0  0  0  0  0
   -6.9831   -4.0640   24.9884 C   0  0  0  0  0  0  0  0  0  0  0  0
   -7.8829   -4.6881   24.1405 C   0  0  0  0  0  0  0  0  0  0  0  0
    0.9677   -1.8554   21.8372 H   0  0  0  0  0  0  0  0  0  0  0  0
   -9.6120   -5.6981   24.0494 H   0  0  0  0  0  0  0  0  0  0  0  0
  1  7  1  0
  1 21  1  0
  2 20  1  0
  2 22  1  0
  3  4  1  0
  3  7  1  0
  3  8  1  0
  3 13  1  0
  4  5  1  0
  4  9  1  0
  5  6  1  0
  5 12  1  0
  6 10  1  0
  6 14  1  0
  7 11  1  0
  8 10  1  0
  9 11  1  0
 12 15  1  0
 14 16  2  0
 14 17  1  0
 15 16  1  0
 16 18  1  0
 17 19  2  0
 18 20  2  0
 19 20  1  0
M  END
> <PUBCHEM_COMPOUND_CID>
5757

> <PUBCHEM_CONFORMER_RMSD>
0.6

> <PUBCHEM_CONFORMER_DIVERSEORDER>
1

> <PUBCHEM_MMFF94_PARTIAL_CHARGES>
16
1 -0.68
14 -0.14
15 0.14
16 -0.14
17 -0.15
18 -0.15
19 -0.15
2 -0.53
20 0.08
40 0.4
41 0.15
42 0.15
43 0.15
44 0.45
6 0.14
7 0.28

> <PUBCHEM_EFFECTIVE_ROTOR_COUNT>
1.4

> <PUBCHEM_PHARMACOPHORE_FEATURES>
7
1 1 acceptor
1 1 donor
1 2 donor
5 3 4 7 9 11 rings
6 14 16 17 18 19 20 rings
6 3 4 5 6 8 10 rings
6 5 6 12 14 15 16 rings

> <PUBCHEM_HEAVY_ATOM_COUNT>
20

> <PUBCHEM_ATOM_DEF_STEREO_COUNT>
5

> <PUBCHEM_ATOM_UDEF_STEREO_COUNT>
0

> <PUBCHEM_BOND_DEF_STEREO_COUNT>
0

> <PUBCHEM_BOND_UDEF_STEREO_COUNT>
0

> <PUBCHEM_ISOTOPIC_ATOM_COUNT>
0

> <PUBCHEM_COMPONENT_COUNT>
1

> <PUBCHEM_CACTVS_TAUTO_COUNT>
9

> <PUBCHEM_CONFORMER_ID>
0000167D00000001

> <PUBCHEM_MMFF94_ENERGY>
68.4596

> <PUBCHEM_FEATURE_SELFOVERLAP>
35.62

> <PUBCHEM_SHAPE_FINGERPRINT>
10 15 18262512710780645640
10411042 1 16969703283687688743
10616163 171 18338239395883154686
10967382 1 18410012100429229070
11132069 177 18409162216832884669
11578080 2 17201347718505248258
12011746 2 18410859841042374310
12107183 9 17690845558000159065
12236239 1 13470690338792453460
12251169 10 18335139816864396069
12403259 415 18410852127603240605
12403814 3 17530960289353343621
12500047 106 18271238421624861530
12592029 89 18334859377112304987
12788726 201 17703518696578858128
128620 24 11818992989152349105
13140716 1 18192429898953651512
13533116 47 17846218813073552003
13544592 145 18272379637759764926
13675066 3 18341893012844745609
14178342 30 18123731313450613666
14341114 176 18409738343777605753
14866123 147 17046555868986690930
15042514 8 18263932206156989787
15196674 1 18410012108982090935
15256400 18 18410857620686823693
15295992 7 17845930826899781123
15536298 74 18413671296627645270
1601671 61 18409168826940819996
16945 1 18266170819592368622
17349148 13 18412820287929204701
17804303 29 18410296916890392117
1813 80 16950285091842931756
18186145 218 17417805158171412875
19141452 34 18413108389914235807
192875 21 13830133918406568194
19591789 44 18192993725128068838
200 152 18131627885965453901
20028762 73 18272929458099065015
20261772 1 18410856577167961319
20510252 161 18341895147623301209
20645477 70 18200878374956666302
21033648 29 18271512131406579929
21267235 1 18337399244825179854
21279426 13 18124035632930519374
21421861 104 17895744090149736410
22854114 59 18412546505207311417
22892500 29 17274814788166584896
23184049 59 18410576175690384255
23402539 116 18342170081765240151
23557571 272 17773880972535682807
23558518 356 17682680979747269074
23559900 14 18413389822146813342
2748010 2 18337666399911122230
3004659 81 18260835844047909814
335352 9 18410013195572088855
34934 24 18411133675799850702
350125 39 18409735045496469133
351380 180 18409730664571278687
3545911 37 18411703192367818988
4214541 1 18409167684326479901
465052 167 17967541176940287083
495365 180 17346587600050392546
5104073 3 18409449150412323065
542803 24 17346883342628774985
59755656 215 18335983048405458773
69090 78 18341891905091661271
77779 3 18409450271409361990
7832392 63 18341046427736201710
9709674 26 18410862087368844367
9999458 23 17967819357476725574

> <PUBCHEM_SHAPE_MULTIPOLES>
399.85
9.72
2.11
0.84
3.73
0.39
0.22
-1.2
1.2
-0.24
-0.15
-0.38
-0.13
0.32

> <PUBCHEM_SHAPE_SELFOVERLAP>
871.414

> <PUBCHEM_SHAPE_VOLUME>
217.1

> <PUBCHEM_COORDINATE_TYPE>
2
5
10

> <Energy>
58.4396

> <minimizedAffinity>
-9.99674

> <CNNscore>
0.3787880838

> <CNNaffinity>
7.1052498817

> <CNN_VS>
2.6913840771

> <CNNaffinity_variance>
0.4369285107

$$$$
5757


 22 25  0  0  0  0  0  0  0  0999 V2000
    0.2736   -2.5838   21.7131 O   0  0  0  0  0  0  0  0  0  0  0  0
  -10.3680   -2.1194   24.3084 O   0  0  0  0  0  0  0  0  0  0  0  0
   -2.1800   -2.6246   21.9535 C   0  0  0  0  0  0  0  0  0  0  0  0
   -3.2546   -3.1132   20.9615 C   0  0  0  0  0  0  0  0  0  0  0  0
   -4.6212   -3.2781   21.6260 C   0  0  0  0  0  0  0  0  0  0  0  0
   -5.0842   -1.8910   22.1665 C   0  0  0  0  0  0  0  0  0  0  0  0
   -0.9565   -2.6288   21.0169 C   0  0  0  0  0  0  0  0  0  0  0  0
   -2.5964   -1.2399   22.4642 C   0  0  0  0  0  0  0  0  0  0  0  0
   -2.5985   -4.3172   20.2917 C   0  0  0  0  0  0  0  0  0  0  0  0
   -4.0058   -1.2588   23.0876 C   0  0  0  0  0  0  0  0  0  0  0  0
   -1.1099   -3.9326   20.2095 C   0  0  0  0  0  0  0  0  0  0  0  0
   -5.6824   -3.8162   20.6643 C   0  0  0  0  0  0  0  0  0  0  0  0
   -1.9362   -3.5638   23.1625 C   0  0  0  0  0  0  0  0  0  0  0  0
   -6.4856   -1.9719   22.7697 C   0  0  0  0  0  0  0  0  0  0  0  0
   -6.9788   -4.0923   21.4219 C   0  0  0  0  0  0  0  0  0  0  0  0
   -7.3809   -2.9907   22.3751 C   0  0  0  0  0  0  0  0  0  0  0  0
   -6.9497   -0.9867   23.6597 C   0  0  0  0  0  0  0  0  0  0  0  0
   -8.6800   -3.0298   22.9149 C   0  0  0  0  0  0  0  0  0  0  0  0
   -8.2449   -1.0296   24.1815 C   0  0  0  0  0  0  0  0  0  0  0  0
   -9.0997   -2.0537   23.8094 C   0  0  0  0  0  0  0  0  0  0  0  0
    0.3347   -1.7519   22.2082 H   0  0  0  0  0  0  0  0  0  0  0  0
  -10.9377   -2.8169   24.0496 H   0  0  0  0  0  0  0  0  0  0  0  0
  1  7  1  0
  1 21  1  0
  2 20  1  0
  2 22  1  0
  3  4  1  0
  3  7  1  0
  3  8  1  0
  3 13  1  0
  4  5  1  0
  4  9  1  0
  5  6  1  0
  5 12  1  0
  6 10  1  0
  6 14  1  0
  7 11  1  0
  8 10  1  0
  9 11  1  0
 12 15  1  0
 14 16  2  0
 14 17  1  0
 15 16  1  0
 16 18  1  0
 17 19  2  0
 18 20  2  0
 19 20  1  0
M  END
> <PUBCHEM_COMPOUND_CID>
5757

> <PUBCHEM_CONFORMER_RMSD>
0.6

> <PUBCHEM_CONFORMER_DIVERSEORDER>
1

> <PUBCHEM_MMFF94_PARTIAL_CHARGES>
16
1 -0.68
14 -0.14
15 0.14
16 -0.14
17 -0.15
18 -0.15
19 -0.15
2 -0.53
20 0.08
40 0.4
41 0.15
42 0.15
43 0.15
44 0.45
6 0.14
7 0.28

> <PUBCHEM_EFFECTIVE_ROTOR_COUNT>
1.4

> <PUBCHEM_PHARMACOPHORE_FEATURES>
7
1 1 acceptor
1 1 donor
1 2 donor
5 3 4 7 9 11 rings
6 14 16 17 18 19 20 rings
6 3 4 5 6 8 10 rings
6 5 6 12 14 15 16 rings

> <PUBCHEM_HEAVY_ATOM_COUNT>
20

> <PUBCHEM_ATOM_DEF_STEREO_COUNT>
5

> <PUBCHEM_ATOM_UDEF_STEREO_COUNT>
0

> <PUBCHEM_BOND_DEF_STEREO_COUNT>
0

> <PUBCHEM_BOND_UDEF_STEREO_COUNT>
0

> <PUBCHEM_ISOTOPIC_ATOM_COUNT>
0

> <PUBCHEM_COMPONENT_COUNT>
1

> <PUBCHEM_CACTVS_TAUTO_COUNT>
9

> <PUBCHEM_CONFORMER_ID>
0000167D00000001

> <PUBCHEM_MMFF94_ENERGY>
68.4596

> <PUBCHEM_FEATURE_SELFOVERLAP>
35.62

> <PUBCHEM_SHAPE_FINGERPRINT>
10 15 18262512710780645640
10411042 1 16969703283687688743
10616163 171 18338239395883154686
10967382 1 18410012100429229070
11132069 177 18409162216832884669
11578080 2 17201347718505248258
12011746 2 18410859841042374310
12107183 9 17690845558000159065
12236239 1 13470690338792453460
12251169 10 18335139816864396069
12403259 415 18410852127603240605
12403814 3 17530960289353343621
12500047 106 18271238421624861530
12592029 89 18334859377112304987
12788726 201 17703518696578858128
128620 24 11818992989152349105
13140716 1 18192429898953651512
13533116 47 17846218813073552003
13544592 145 18272379637759764926
13675066 3 18341893012844745609
14178342 30 18123731313450613666
14341114 176 18409738343777605753
14866123 147 17046555868986690930
15042514 8 18263932206156989787
15196674 1 18410012108982090935
15256400 18 18410857620686823693
15295992 7 17845930826899781123
15536298 74 18413671296627645270
1601671 61 18409168826940819996
16945 1 18266170819592368622
17349148 13 18412820287929204701
17804303 29 18410296916890392117
1813 80 16950285091842931756
18186145 218 17417805158171412875
19141452 34 18413108389914235807
192875 21 13830133918406568194
19591789 44 18192993725128068838
200 152 18131627885965453901
20028762 73 18272929458099065015
20261772 1 18410856577167961319
20510252 161 18341895147623301209
20645477 70 18200878374956666302
21033648 29 18271512131406579929
21267235 1 18337399244825179854
21279426 13 18124035632930519374
21421861 104 17895744090149736410
22854114 59 18412546505207311417
22892500 29 17274814788166584896
23184049 59 18410576175690384255
23402539 116 18342170081765240151
23557571 272 17773880972535682807
23558518 356 17682680979747269074
23559900 14 18413389822146813342
2748010 2 18337666399911122230
3004659 81 18260835844047909814
335352 9 18410013195572088855
34934 24 18411133675799850702
350125 39 18409735045496469133
351380 180 18409730664571278687
3545911 37 18411703192367818988
4214541 1 18409167684326479901
465052 167 17967541176940287083
495365 180 17346587600050392546
5104073 3 18409449150412323065
542803 24 17346883342628774985
59755656 215 18335983048405458773
69090 78 18341891905091661271
77779 3 18409450271409361990
7832392 63 18341046427736201710
9709674 26 18410862087368844367
9999458 23 17967819357476725574

> <PUBCHEM_SHAPE_MULTIPOLES>
399.85
9.72
2.11
0.84
3.73
0.39
0.22
-1.2
1.2
-0.24
-0.15
-0.38
-0.13
0.32

> <PUBCHEM_SHAPE_SELFOVERLAP>
871.414

> <PUBCHEM_SHAPE_VOLUME>
217.1

> <PUBCHEM_COORDINATE_TYPE>
2
5
10

> <Energy>
58.4396

> <minimizedAffinity>
-9.10710

> <CNNscore>
0.3317411542

> <CNNaffinity>
6.9985389709

> <CNN_VS>
2.3217034340

> <CNNaffinity_variance>
0.4777512848

$$$$
5757


 22 25  0  0  0  0  0  0  0  0999 V2000
   -9.6144   -2.9037   24.0992 O   0  0  0  0  0  0  0  0  0  0  0  0
   -0.3577   -3.9381   18.3166 O   0  0  0  0  0  0  0  0  0  0  0  0
   -7.3556   -3.1003   23.1303 C   0  0  0  0  0  0  0  0  0  0  0  0
   -5.9823   -3.0736   23.8309 C   0  0  0  0  0  0  0  0  0  0  0  0
   -4.8586   -3.5623   22.9171 C   0  0  0  0  0  0  0  0  0  0  0  0
   -4.7696   -2.6128   21.6837 C   0  0  0  0  0  0  0  0  0  0  0  0
   -8.2413   -2.6324   24.3011 C   0  0  0  0  0  0  0  0  0  0  0  0
   -7.3017   -2.1379   21.9377 C   0  0  0  0  0  0  0  0  0  0  0  0
   -6.2418   -3.7969   25.1493 C   0  0  0  0  0  0  0  0  0  0  0  0
   -6.1459   -2.4795   20.9772 C   0  0  0  0  0  0  0  0  0  0  0  0
   -7.6807   -3.3923   25.5192 C   0  0  0  0  0  0  0  0  0  0  0  0
   -3.4999   -3.5932   23.6195 C   0  0  0  0  0  0  0  0  0  0  0  0
   -7.8075   -4.4994   22.6387 C   0  0  0  0  0  0  0  0  0  0  0  0
   -3.6068   -2.9989   20.7709 C   0  0  0  0  0  0  0  0  0  0  0  0
   -2.4543   -4.2227   22.7022 C   0  0  0  0  0  0  0  0  0  0  0  0
   -2.5033   -3.7204   21.2777 C   0  0  0  0  0  0  0  0  0  0  0  0
   -3.5626   -2.5697   19.4322 C   0  0  0  0  0  0  0  0  0  0  0  0
   -1.4248   -4.0376   20.4311 C   0  0  0  0  0  0  0  0  0  0  0  0
   -2.4821   -2.8814   18.6036 C   0  0  0  0  0  0  0  0  0  0  0  0
   -1.4227   -3.6176   19.1073 C   0  0  0  0  0  0  0  0  0  0  0  0
   -9.9314   -2.4099   23.3268 H   0  0  0  0  0  0  0  0  0  0  0  0
    0.3535   -4.4367   18.6681 H   0  0  0  0  0  0  0  0  0  0  0  0
  1  7  1  0
  1 21  1  0
  2 20  1  0
  2 22  1  0
  3  4  1  0
  3  7  1  0
  3  8  1  0
  3 13  1  0
  4  5  1  0
  4  9  1  0
  5  6  1  0
  5 12  1  0
  6 10  1  0
  6 14  1  0
  7 11  1  0
  8 10  1  0
  9 11  1  0
 12 15  1  0
 14 16  2  0
 14 17  1  0
 15 16  1  0
 16 18  1  0
 17 19  2  0
 18 20  2  0
 19 20  1  0
M  END
> <PUBCHEM_COMPOUND_CID>
5757

> <PUBCHEM_CONFORMER_RMSD>
0.6

> <PUBCHEM_CONFORMER_DIVERSEORDER>
1

> <PUBCHEM_MMFF94_PARTIAL_CHARGES>
16
1 -0.68
14 -0.14
15 0.14
16 -0.14
17 -0.15
18 -0.15
19 -0.15
2 -0.53
20 0.08
40 0.4
41 0.15
42 0.15
43 0.15
44 0.45
6 0.14
7 0.28

> <PUBCHEM_EFFECTIVE_ROTOR_COUNT>
1.4

> <PUBCHEM_PHARMACOPHORE_FEATURES>
7
1 1 acceptor
1 1 donor
1 2 donor
5 3 4 7 9 11 rings
6 14 16 17 18 19 20 rings
6 3 4 5 6 8 10 rings
6 5 6 12 14 15 16 rings

> <PUBCHEM_HEAVY_ATOM_COUNT>
20

> <PUBCHEM_ATOM_DEF_STEREO_COUNT>
5

> <PUBCHEM_ATOM_UDEF_STEREO_COUNT>
0

> <PUBCHEM_BOND_DEF_STEREO_COUNT>
0

> <PUBCHEM_BOND_UDEF_STEREO_COUNT>
0

> <PUBCHEM_ISOTOPIC_ATOM_COUNT>
0

> <PUBCHEM_COMPONENT_COUNT>
1

> <PUBCHEM_CACTVS_TAUTO_COUNT>
9

> <PUBCHEM_CONFORMER_ID>
0000167D00000001

> <PUBCHEM_MMFF94_ENERGY>
68.4596

> <PUBCHEM_FEATURE_SELFOVERLAP>
35.62

> <PUBCHEM_SHAPE_FINGERPRINT>
10 15 18262512710780645640
10411042 1 16969703283687688743
10616163 171 18338239395883154686
10967382 1 18410012100429229070
11132069 177 18409162216832884669
11578080 2 17201347718505248258
12011746 2 18410859841042374310
12107183 9 17690845558000159065
12236239 1 13470690338792453460
12251169 10 18335139816864396069
12403259 415 18410852127603240605
12403814 3 17530960289353343621
12500047 106 18271238421624861530
12592029 89 18334859377112304987
12788726 201 17703518696578858128
128620 24 11818992989152349105
13140716 1 18192429898953651512
13533116 47 17846218813073552003
13544592 145 18272379637759764926
13675066 3 18341893012844745609
14178342 30 18123731313450613666
14341114 176 18409738343777605753
14866123 147 17046555868986690930
15042514 8 18263932206156989787
15196674 1 18410012108982090935
15256400 18 18410857620686823693
15295992 7 17845930826899781123
15536298 74 18413671296627645270
1601671 61 18409168826940819996
16945 1 18266170819592368622
17349148 13 18412820287929204701
17804303 29 18410296916890392117
1813 80 16950285091842931756
18186145 218 17417805158171412875
19141452 34 18413108389914235807
192875 21 13830133918406568194
19591789 44 18192993725128068838
200 152 18131627885965453901
20028762 73 18272929458099065015
20261772 1 18410856577167961319
20510252 161 18341895147623301209
20645477 70 18200878374956666302
21033648 29 18271512131406579929
21267235 1 18337399244825179854
21279426 13 18124035632930519374
21421861 104 17895744090149736410
22854114 59 18412546505207311417
22892500 29 17274814788166584896
23184049 59 18410576175690384255
23402539 116 18342170081765240151
23557571 272 17773880972535682807
23558518 356 17682680979747269074
23559900 14 18413389822146813342
2748010 2 18337666399911122230
3004659 81 18260835844047909814
335352 9 18410013195572088855
34934 24 18411133675799850702
350125 39 18409735045496469133
351380 180 18409730664571278687
3545911 37 18411703192367818988
4214541 1 18409167684326479901
465052 167 17967541176940287083
495365 180 17346587600050392546
5104073 3 18409449150412323065
542803 24 17346883342628774985
59755656 215 18335983048405458773
69090 78 18341891905091661271
77779 3 18409450271409361990
7832392 63 18341046427736201710
9709674 26 18410862087368844367
9999458 23 17967819357476725574

> <PUBCHEM_SHAPE_MULTIPOLES>
399.85
9.72
2.11
0.84
3.73
0.39
0.22
-1.2
1.2
-0.24
-0.15
-0.38
-0.13
0.32

> <PUBCHEM_SHAPE_SELFOVERLAP>
871.414

> <PUBCHEM_SHAPE_VOLUME>
217.1

> <PUBCHEM_COORDINATE_TYPE>
2
5
10

> <Energy>
58.4396

> <minimizedAffinity>
-8.24027

> <CNNscore>
0.3157315850

> <CNNaffinity>
7.0240387917

> <CNN_VS>
2.2177109718

> <CNNaffinity_variance>
0.5375561714

$$$$
