7184


 15 15  0  0  0  0  0  0  0  0999 V2000
    0.7429   -2.8210   20.8380 O   0  0  0  0  0  0  0  0  0  0  0  0
   -3.2671   -3.2887   21.7523 C   0  0  0  0  0  0  0  0  0  0  0  0
   -2.4316   -2.5727   22.6183 C   0  0  0  0  0  0  0  0  0  0  0  0
   -2.7504   -3.8589   20.5854 C   0  0  0  0  0  0  0  0  0  0  0  0
   -1.0804   -2.4157   22.3016 C   0  0  0  0  0  0  0  0  0  0  0  0
   -1.4048   -3.7016   20.2735 C   0  0  0  0  0  0  0  0  0  0  0  0
   -0.5754   -2.9790   21.1325 C   0  0  0  0  0  0  0  0  0  0  0  0
    1.2972   -2.3354   21.4166 H   0  0  0  0  0  0  0  0  0  0  0  0
   -5.2336   -4.5515   22.1922 O   0  0  0  0  0  0  0  0  0  0  0  0
   -4.6917   -3.4624   22.0947 C   0  0  0  0  0  0  0  0  0  0  0  0
   -5.2614   -2.2475   22.2999 O   0  0  0  0  0  0  0  0  0  0  0  0
   -5.6707   -1.9943   23.6489 C   0  0  0  0  0  0  0  0  0  0  0  0
   -7.1314   -1.5511   23.6311 C   0  0  0  0  0  0  0  0  0  0  0  0
   -8.0760   -2.7277   23.8631 C   0  0  0  0  0  0  0  0  0  0  0  0
   -7.4516   -3.7735   24.7726 C   0  0  0  0  0  0  0  0  0  0  0  0
 11 12  1  0
 11 10  1  0
  9 10  2  0
  1  7  1  0
  1  8  1  0
 13 14  1  0
 13 12  1  0
 14 15  1  0
  2 10  1  0
  2  3  2  0
  2  4  1  0
  3  5  1  0
  4  6  2  0
  5  7  2  0
  6  7  1  0
M  END
> <PUBCHEM_COMPOUND_CID>
7184

> <PUBCHEM_CONFORMER_RMSD>
0.6

> <PUBCHEM_CONFORMER_DIVERSEORDER>
1
44
15
20
41
3
43
64
40
47
74
50
4
6
22
69
55
77
16
75
28
26
73
53
11
32
49
58
67
63
62
24
65
27
19
38
12
48
76
25
57
10
31
17
42
34
68
51
9
23
8
14
21
33
18
30
5
66
70
2
56
45
39
37
46
35
60
36
52
59
54
29
71
72
61
13
7

> <PUBCHEM_MMFF94_PARTIAL_CHARGES>
16
1 -0.43
10 -0.15
11 -0.15
12 -0.15
13 -0.15
14 0.08
2 -0.57
24 0.15
25 0.15
26 0.15
27 0.15
28 0.45
3 -0.53
6 0.28
8 0.09
9 0.63

> <PUBCHEM_EFFECTIVE_ROTOR_COUNT>
5

> <PUBCHEM_PHARMACOPHORE_FEATURES>
4
1 2 acceptor
1 3 donor
1 7 hydrophobe
6 8 10 11 12 13 14 rings

> <PUBCHEM_HEAVY_ATOM_COUNT>
14

> <PUBCHEM_ATOM_DEF_STEREO_COUNT>
0

> <PUBCHEM_ATOM_UDEF_STEREO_COUNT>
0

> <PUBCHEM_BOND_DEF_STEREO_COUNT>
0

> <PUBCHEM_BOND_UDEF_STEREO_COUNT>
0

> <PUBCHEM_ISOTOPIC_ATOM_COUNT>
0

> <PUBCHEM_COMPONENT_COUNT>
1

> <PUBCHEM_CACTVS_TAUTO_COUNT>
3

> <PUBCHEM_CONFORMER_ID>
00001C1000000001

> <PUBCHEM_MMFF94_ENERGY>
26.8162

> <PUBCHEM_FEATURE_SELFOVERLAP>
20.297

> <PUBCHEM_SHAPE_FINGERPRINT>
100836 57 10159698014692119138
10465860 250 17561082501386551480
10968037 39 18334860532716625766
11046707 91 18409446968869733128
12032990 46 18409167722807014732
12251169 10 18060418027818494140
13167823 11 18408602527187214402
13288520 33 18409730651148371639
13551218 46 18270963440792261598
13690532 89 18409730694483049495
13862211 1 18342737464162399199
14252887 29 17989215824084205230
17804303 29 18273497883401759577
17834072 33 18410577323021717172
1813 80 17968106291699631366
18186145 218 14923950067535008876
200 152 17530965761531918920
20281475 54 18337672035103360796
20767249 213 10735876175026745610
20828058 44 18273214175553485034
21267235 1 18410019844213228018
22485316 2 18408601440280660184
2297311 6 18130235869953600908
23402539 116 17846774109970031213
23463225 33 18411140233692529510
23559900 14 18270389602695558633
351380 180 10665231458300457486
351380 3 18259982652836299658
42 15 18342740719346176002
4214541 1 18340769252190604880
5104073 3 18271533095046590721
559249 180 18335415712557464698
7364860 26 18126566957732624024
83771 10 18407476665592062532

> <PUBCHEM_SHAPE_MULTIPOLES>
270.51
10.85
1.64
0.68
12.98
0.32
0
-5.61
1.62
-0.51
-0.11
-0.08
0
-0.42

> <PUBCHEM_SHAPE_SELFOVERLAP>
550.017

> <PUBCHEM_SHAPE_VOLUME>
158.1

> <PUBCHEM_COORDINATE_TYPE>
2
5
10

> <Energy>
17.0404

> <minimizedAffinity>
-6.14154

> <CNNscore>
0.9117622972

> <CNNaffinity>
5.8875193596

> <CNN_VS>
5.3680181503

> <CNNaffinity_variance>
0.4983281195

$$$$
7184


 15 15  0  0  0  0  0  0  0  0999 V2000
    0.7393   -2.9725   20.7892 O   0  0  0  0  0  0  0  0  0  0  0  0
   -3.2794   -3.2602   21.7388 C   0  0  0  0  0  0  0  0  0  0  0  0
   -2.7756   -3.9343   20.6196 C   0  0  0  0  0  0  0  0  0  0  0  0
   -2.4335   -2.4783   22.5306 C   0  0  0  0  0  0  0  0  0  0  0  0
   -1.4179   -3.8357   20.3074 C   0  0  0  0  0  0  0  0  0  0  0  0
   -1.0828   -2.3815   22.2166 C   0  0  0  0  0  0  0  0  0  0  0  0
   -0.5801   -3.0622   21.1066 C   0  0  0  0  0  0  0  0  0  0  0  0
    1.0739   -3.4305   20.0434 H   0  0  0  0  0  0  0  0  0  0  0  0
   -5.3365   -4.4080   22.0646 O   0  0  0  0  0  0  0  0  0  0  0  0
   -4.7162   -3.3571   22.0602 C   0  0  0  0  0  0  0  0  0  0  0  0
   -5.1983   -2.1249   22.3635 O   0  0  0  0  0  0  0  0  0  0  0  0
   -5.6787   -1.9797   23.7051 C   0  0  0  0  0  0  0  0  0  0  0  0
   -7.1493   -1.5747   23.6459 C   0  0  0  0  0  0  0  0  0  0  0  0
   -8.0693   -2.7784   23.8327 C   0  0  0  0  0  0  0  0  0  0  0  0
   -7.4502   -3.8160   24.7553 C   0  0  0  0  0  0  0  0  0  0  0  0
 11 12  1  0
 11 10  1  0
  9 10  2  0
  1  7  1  0
  1  8  1  0
 13 14  1  0
 13 12  1  0
 14 15  1  0
  2 10  1  0
  2  3  2  0
  2  4  1  0
  3  5  1  0
  4  6  2  0
  5  7  2  0
  6  7  1  0
M  END
> <PUBCHEM_COMPOUND_CID>
7184

> <PUBCHEM_CONFORMER_RMSD>
0.6

> <PUBCHEM_CONFORMER_DIVERSEORDER>
1
44
15
20
41
3
43
64
40
47
74
50
4
6
22
69
55
77
16
75
28
26
73
53
11
32
49
58
67
63
62
24
65
27
19
38
12
48
76
25
57
10
31
17
42
34
68
51
9
23
8
14
21
33
18
30
5
66
70
2
56
45
39
37
46
35
60
36
52
59
54
29
71
72
61
13
7

> <PUBCHEM_MMFF94_PARTIAL_CHARGES>
16
1 -0.43
10 -0.15
11 -0.15
12 -0.15
13 -0.15
14 0.08
2 -0.57
24 0.15
25 0.15
26 0.15
27 0.15
28 0.45
3 -0.53
6 0.28
8 0.09
9 0.63

> <PUBCHEM_EFFECTIVE_ROTOR_COUNT>
5

> <PUBCHEM_PHARMACOPHORE_FEATURES>
4
1 2 acceptor
1 3 donor
1 7 hydrophobe
6 8 10 11 12 13 14 rings

> <PUBCHEM_HEAVY_ATOM_COUNT>
14

> <PUBCHEM_ATOM_DEF_STEREO_COUNT>
0

> <PUBCHEM_ATOM_UDEF_STEREO_COUNT>
0

> <PUBCHEM_BOND_DEF_STEREO_COUNT>
0

> <PUBCHEM_BOND_UDEF_STEREO_COUNT>
0

> <PUBCHEM_ISOTOPIC_ATOM_COUNT>
0

> <PUBCHEM_COMPONENT_COUNT>
1

> <PUBCHEM_CACTVS_TAUTO_COUNT>
3

> <PUBCHEM_CONFORMER_ID>
00001C1000000001

> <PUBCHEM_MMFF94_ENERGY>
26.8162

> <PUBCHEM_FEATURE_SELFOVERLAP>
20.297

> <PUBCHEM_SHAPE_FINGERPRINT>
100836 57 10159698014692119138
10465860 250 17561082501386551480
10968037 39 18334860532716625766
11046707 91 18409446968869733128
12032990 46 18409167722807014732
12251169 10 18060418027818494140
13167823 11 18408602527187214402
13288520 33 18409730651148371639
13551218 46 18270963440792261598
13690532 89 18409730694483049495
13862211 1 18342737464162399199
14252887 29 17989215824084205230
17804303 29 18273497883401759577
17834072 33 18410577323021717172
1813 80 17968106291699631366
18186145 218 14923950067535008876
200 152 17530965761531918920
20281475 54 18337672035103360796
20767249 213 10735876175026745610
20828058 44 18273214175553485034
21267235 1 18410019844213228018
22485316 2 18408601440280660184
2297311 6 18130235869953600908
23402539 116 17846774109970031213
23463225 33 18411140233692529510
23559900 14 18270389602695558633
351380 180 10665231458300457486
351380 3 18259982652836299658
42 15 18342740719346176002
4214541 1 18340769252190604880
5104073 3 18271533095046590721
559249 180 18335415712557464698
7364860 26 18126566957732624024
83771 10 18407476665592062532

> <PUBCHEM_SHAPE_MULTIPOLES>
270.51
10.85
1.64
0.68
12.98
0.32
0
-5.61
1.62
-0.51
-0.11
-0.08
0
-0.42

> <PUBCHEM_SHAPE_SELFOVERLAP>
550.017

> <PUBCHEM_SHAPE_VOLUME>
158.1

> <PUBCHEM_COORDINATE_TYPE>
2
5
10

> <Energy>
17.0404

> <minimizedAffinity>
-6.16789

> <CNNscore>
0.9094544649

> <CNNaffinity>
5.9529247284

> <CNN_VS>
5.4139142036

> <CNNaffinity_variance>
0.4096872807

$$$$
7184


 15 15  0  0  0  0  0  0  0  0999 V2000
   -0.1242   -1.4686   18.6947 O   0  0  0  0  0  0  0  0  0  0  0  0
   -2.6715   -3.8798   20.8928 C   0  0  0  0  0  0  0  0  0  0  0  0
   -1.6196   -3.2102   21.5300 C   0  0  0  0  0  0  0  0  0  0  0  0
   -2.8580   -3.7488   19.5138 C   0  0  0  0  0  0  0  0  0  0  0  0
   -0.7663   -2.3954   20.7826 C   0  0  0  0  0  0  0  0  0  0  0  0
   -2.0063   -2.9377   18.7726 C   0  0  0  0  0  0  0  0  0  0  0  0
   -0.9645   -2.2628   19.4107 C   0  0  0  0  0  0  0  0  0  0  0  0
    0.5743   -1.0168   19.1258 H   0  0  0  0  0  0  0  0  0  0  0  0
   -3.5173   -5.9678   21.6547 O   0  0  0  0  0  0  0  0  0  0  0  0
   -3.5648   -4.7487   21.6828 C   0  0  0  0  0  0  0  0  0  0  0  0
   -4.3955   -3.9826   22.4350 O   0  0  0  0  0  0  0  0  0  0  0  0
   -5.7193   -4.5062   22.5932 C   0  0  0  0  0  0  0  0  0  0  0  0
   -6.1747   -4.2324   24.0243 C   0  0  0  0  0  0  0  0  0  0  0  0
   -6.6177   -2.7825   24.2028 C   0  0  0  0  0  0  0  0  0  0  0  0
   -8.1159   -2.6274   23.9972 C   0  0  0  0  0  0  0  0  0  0  0  0
 11 12  1  0
 11 10  1  0
  9 10  2  0
  1  7  1  0
  1  8  1  0
 13 14  1  0
 13 12  1  0
 14 15  1  0
  2 10  1  0
  2  3  2  0
  2  4  1  0
  3  5  1  0
  4  6  2  0
  5  7  2  0
  6  7  1  0
M  END
> <PUBCHEM_COMPOUND_CID>
7184

> <PUBCHEM_CONFORMER_RMSD>
0.6

> <PUBCHEM_CONFORMER_DIVERSEORDER>
1
44
15
20
41
3
43
64
40
47
74
50
4
6
22
69
55
77
16
75
28
26
73
53
11
32
49
58
67
63
62
24
65
27
19
38
12
48
76
25
57
10
31
17
42
34
68
51
9
23
8
14
21
33
18
30
5
66
70
2
56
45
39
37
46
35
60
36
52
59
54
29
71
72
61
13
7

> <PUBCHEM_MMFF94_PARTIAL_CHARGES>
16
1 -0.43
10 -0.15
11 -0.15
12 -0.15
13 -0.15
14 0.08
2 -0.57
24 0.15
25 0.15
26 0.15
27 0.15
28 0.45
3 -0.53
6 0.28
8 0.09
9 0.63

> <PUBCHEM_EFFECTIVE_ROTOR_COUNT>
5

> <PUBCHEM_PHARMACOPHORE_FEATURES>
4
1 2 acceptor
1 3 donor
1 7 hydrophobe
6 8 10 11 12 13 14 rings

> <PUBCHEM_HEAVY_ATOM_COUNT>
14

> <PUBCHEM_ATOM_DEF_STEREO_COUNT>
0

> <PUBCHEM_ATOM_UDEF_STEREO_COUNT>
0

> <PUBCHEM_BOND_DEF_STEREO_COUNT>
0

> <PUBCHEM_BOND_UDEF_STEREO_COUNT>
0

> <PUBCHEM_ISOTOPIC_ATOM_COUNT>
0

> <PUBCHEM_COMPONENT_COUNT>
1

> <PUBCHEM_CACTVS_TAUTO_COUNT>
3

> <PUBCHEM_CONFORMER_ID>
00001C1000000001

> <PUBCHEM_MMFF94_ENERGY>
26.8162

> <PUBCHEM_FEATURE_SELFOVERLAP>
20.297

> <PUBCHEM_SHAPE_FINGERPRINT>
100836 57 10159698014692119138
10465860 250 17561082501386551480
10968037 39 18334860532716625766
11046707 91 18409446968869733128
12032990 46 18409167722807014732
12251169 10 18060418027818494140
13167823 11 18408602527187214402
13288520 33 18409730651148371639
13551218 46 18270963440792261598
13690532 89 18409730694483049495
13862211 1 18342737464162399199
14252887 29 17989215824084205230
17804303 29 18273497883401759577
17834072 33 18410577323021717172
1813 80 17968106291699631366
18186145 218 14923950067535008876
200 152 17530965761531918920
20281475 54 18337672035103360796
20767249 213 10735876175026745610
20828058 44 18273214175553485034
21267235 1 18410019844213228018
22485316 2 18408601440280660184
2297311 6 18130235869953600908
23402539 116 17846774109970031213
23463225 33 18411140233692529510
23559900 14 18270389602695558633
351380 180 10665231458300457486
351380 3 18259982652836299658
42 15 18342740719346176002
4214541 1 18340769252190604880
5104073 3 18271533095046590721
559249 180 18335415712557464698
7364860 26 18126566957732624024
83771 10 18407476665592062532

> <PUBCHEM_SHAPE_MULTIPOLES>
270.51
10.85
1.64
0.68
12.98
0.32
0
-5.61
1.62
-0.51
-0.11
-0.08
0
-0.42

> <PUBCHEM_SHAPE_SELFOVERLAP>
550.017

> <PUBCHEM_SHAPE_VOLUME>
158.1

> <PUBCHEM_COORDINATE_TYPE>
2
5
10

> <Energy>
17.0404

> <minimizedAffinity>
-6.06679

> <CNNscore>
0.8812070489

> <CNNaffinity>
6.0098042488

> <CNN_VS>
5.2958817482

> <CNNaffinity_variance>
0.7104867101

$$$$
7184


 15 15  0  0  0  0  0  0  0  0999 V2000
    0.4026   -1.9844   20.1827 O   0  0  0  0  0  0  0  0  0  0  0  0
   -3.1743   -3.4571   21.6563 C   0  0  0  0  0  0  0  0  0  0  0  0
   -2.2134   -2.9451   22.5369 C   0  0  0  0  0  0  0  0  0  0  0  0
   -2.9260   -3.4860   20.2811 C   0  0  0  0  0  0  0  0  0  0  0  0
   -1.0104   -2.4465   22.0323 C   0  0  0  0  0  0  0  0  0  0  0  0
   -1.7271   -2.9897   19.7821 C   0  0  0  0  0  0  0  0  0  0  0  0
   -0.7745   -2.4704   20.6601 C   0  0  0  0  0  0  0  0  0  0  0  0
    1.0402   -1.6364   20.7746 H   0  0  0  0  0  0  0  0  0  0  0  0
   -4.7473   -3.9420   23.3727 O   0  0  0  0  0  0  0  0  0  0  0  0
   -4.4399   -3.9934   22.1929 C   0  0  0  0  0  0  0  0  0  0  0  0
   -5.1816   -4.5078   21.1791 O   0  0  0  0  0  0  0  0  0  0  0  0
   -6.5031   -4.9191   21.5483 C   0  0  0  0  0  0  0  0  0  0  0  0
   -7.4490   -3.7405   21.3334 C   0  0  0  0  0  0  0  0  0  0  0  0
   -8.5997   -3.7563   22.3365 C   0  0  0  0  0  0  0  0  0  0  0  0
   -8.1888   -3.1456   23.6666 C   0  0  0  0  0  0  0  0  0  0  0  0
 11 12  1  0
 11 10  1  0
  9 10  2  0
  1  7  1  0
  1  8  1  0
 13 14  1  0
 13 12  1  0
 14 15  1  0
  2 10  1  0
  2  3  2  0
  2  4  1  0
  3  5  1  0
  4  6  2  0
  5  7  2  0
  6  7  1  0
M  END
> <PUBCHEM_COMPOUND_CID>
7184

> <PUBCHEM_CONFORMER_RMSD>
0.6

> <PUBCHEM_CONFORMER_DIVERSEORDER>
1
44
15
20
41
3
43
64
40
47
74
50
4
6
22
69
55
77
16
75
28
26
73
53
11
32
49
58
67
63
62
24
65
27
19
38
12
48
76
25
57
10
31
17
42
34
68
51
9
23
8
14
21
33
18
30
5
66
70
2
56
45
39
37
46
35
60
36
52
59
54
29
71
72
61
13
7

> <PUBCHEM_MMFF94_PARTIAL_CHARGES>
16
1 -0.43
10 -0.15
11 -0.15
12 -0.15
13 -0.15
14 0.08
2 -0.57
24 0.15
25 0.15
26 0.15
27 0.15
28 0.45
3 -0.53
6 0.28
8 0.09
9 0.63

> <PUBCHEM_EFFECTIVE_ROTOR_COUNT>
5

> <PUBCHEM_PHARMACOPHORE_FEATURES>
4
1 2 acceptor
1 3 donor
1 7 hydrophobe
6 8 10 11 12 13 14 rings

> <PUBCHEM_HEAVY_ATOM_COUNT>
14

> <PUBCHEM_ATOM_DEF_STEREO_COUNT>
0

> <PUBCHEM_ATOM_UDEF_STEREO_COUNT>
0

> <PUBCHEM_BOND_DEF_STEREO_COUNT>
0

> <PUBCHEM_BOND_UDEF_STEREO_COUNT>
0

> <PUBCHEM_ISOTOPIC_ATOM_COUNT>
0

> <PUBCHEM_COMPONENT_COUNT>
1

> <PUBCHEM_CACTVS_TAUTO_COUNT>
3

> <PUBCHEM_CONFORMER_ID>
00001C1000000001

> <PUBCHEM_MMFF94_ENERGY>
26.8162

> <PUBCHEM_FEATURE_SELFOVERLAP>
20.297

> <PUBCHEM_SHAPE_FINGERPRINT>
100836 57 10159698014692119138
10465860 250 17561082501386551480
10968037 39 18334860532716625766
11046707 91 18409446968869733128
12032990 46 18409167722807014732
12251169 10 18060418027818494140
13167823 11 18408602527187214402
13288520 33 18409730651148371639
13551218 46 18270963440792261598
13690532 89 18409730694483049495
13862211 1 18342737464162399199
14252887 29 17989215824084205230
17804303 29 18273497883401759577
17834072 33 18410577323021717172
1813 80 17968106291699631366
18186145 218 14923950067535008876
200 152 17530965761531918920
20281475 54 18337672035103360796
20767249 213 10735876175026745610
20828058 44 18273214175553485034
21267235 1 18410019844213228018
22485316 2 18408601440280660184
2297311 6 18130235869953600908
23402539 116 17846774109970031213
23463225 33 18411140233692529510
23559900 14 18270389602695558633
351380 180 10665231458300457486
351380 3 18259982652836299658
42 15 18342740719346176002
4214541 1 18340769252190604880
5104073 3 18271533095046590721
559249 180 18335415712557464698
7364860 26 18126566957732624024
83771 10 18407476665592062532

> <PUBCHEM_SHAPE_MULTIPOLES>
270.51
10.85
1.64
0.68
12.98
0.32
0
-5.61
1.62
-0.51
-0.11
-0.08
0
-0.42

> <PUBCHEM_SHAPE_SELFOVERLAP>
550.017

> <PUBCHEM_SHAPE_VOLUME>
158.1

> <PUBCHEM_COORDINATE_TYPE>
2
5
10

> <Energy>
17.0404

> <minimizedAffinity>
-5.89496

> <CNNscore>
0.8778317571

> <CNNaffinity>
5.8899116516

> <CNN_VS>
5.1703515053

> <CNNaffinity_variance>
0.6418575644

$$$$
7184


 15 15  0  0  0  0  0  0  0  0999 V2000
   -0.0509   -1.5970   18.8070 O   0  0  0  0  0  0  0  0  0  0  0  0
   -2.7573   -3.6379   21.1828 C   0  0  0  0  0  0  0  0  0  0  0  0
   -1.7353   -2.8860   21.7752 C   0  0  0  0  0  0  0  0  0  0  0  0
   -2.8604   -3.7141   19.7909 C   0  0  0  0  0  0  0  0  0  0  0  0
   -0.8279   -2.1969   20.9674 C   0  0  0  0  0  0  0  0  0  0  0  0
   -1.9551   -3.0278   18.9897 C   0  0  0  0  0  0  0  0  0  0  0  0
   -0.9431   -2.2704   19.5816 C   0  0  0  0  0  0  0  0  0  0  0  0
    0.6275   -1.0894   19.2073 H   0  0  0  0  0  0  0  0  0  0  0  0
   -4.4563   -3.8319   22.8355 O   0  0  0  0  0  0  0  0  0  0  0  0
   -3.7079   -4.3738   22.0383 C   0  0  0  0  0  0  0  0  0  0  0  0
   -3.6243   -5.7023   21.7724 O   0  0  0  0  0  0  0  0  0  0  0  0
   -4.7769   -6.4653   22.1479 C   0  0  0  0  0  0  0  0  0  0  0  0
   -4.9334   -7.6157   21.1567 C   0  0  0  0  0  0  0  0  0  0  0  0
   -6.1109   -7.3850   20.2130 C   0  0  0  0  0  0  0  0  0  0  0  0
   -6.8199   -6.0748   20.5154 C   0  0  0  0  0  0  0  0  0  0  0  0
 11 12  1  0
 11 10  1  0
  9 10  2  0
  1  7  1  0
  1  8  1  0
 13 14  1  0
 13 12  1  0
 14 15  1  0
  2 10  1  0
  2  3  2  0
  2  4  1  0
  3  5  1  0
  4  6  2  0
  5  7  2  0
  6  7  1  0
M  END
> <PUBCHEM_COMPOUND_CID>
7184

> <PUBCHEM_CONFORMER_RMSD>
0.6

> <PUBCHEM_CONFORMER_DIVERSEORDER>
1
44
15
20
41
3
43
64
40
47
74
50
4
6
22
69
55
77
16
75
28
26
73
53
11
32
49
58
67
63
62
24
65
27
19
38
12
48
76
25
57
10
31
17
42
34
68
51
9
23
8
14
21
33
18
30
5
66
70
2
56
45
39
37
46
35
60
36
52
59
54
29
71
72
61
13
7

> <PUBCHEM_MMFF94_PARTIAL_CHARGES>
16
1 -0.43
10 -0.15
11 -0.15
12 -0.15
13 -0.15
14 0.08
2 -0.57
24 0.15
25 0.15
26 0.15
27 0.15
28 0.45
3 -0.53
6 0.28
8 0.09
9 0.63

> <PUBCHEM_EFFECTIVE_ROTOR_COUNT>
5

> <PUBCHEM_PHARMACOPHORE_FEATURES>
4
1 2 acceptor
1 3 donor
1 7 hydrophobe
6 8 10 11 12 13 14 rings

> <PUBCHEM_HEAVY_ATOM_COUNT>
14

> <PUBCHEM_ATOM_DEF_STEREO_COUNT>
0

> <PUBCHEM_ATOM_UDEF_STEREO_COUNT>
0

> <PUBCHEM_BOND_DEF_STEREO_COUNT>
0

> <PUBCHEM_BOND_UDEF_STEREO_COUNT>
0

> <PUBCHEM_ISOTOPIC_ATOM_COUNT>
0

> <PUBCHEM_COMPONENT_COUNT>
1

> <PUBCHEM_CACTVS_TAUTO_COUNT>
3

> <PUBCHEM_CONFORMER_ID>
00001C1000000001

> <PUBCHEM_MMFF94_ENERGY>
26.8162

> <PUBCHEM_FEATURE_SELFOVERLAP>
20.297

> <PUBCHEM_SHAPE_FINGERPRINT>
100836 57 10159698014692119138
10465860 250 17561082501386551480
10968037 39 18334860532716625766
11046707 91 18409446968869733128
12032990 46 18409167722807014732
12251169 10 18060418027818494140
13167823 11 18408602527187214402
13288520 33 18409730651148371639
13551218 46 18270963440792261598
13690532 89 18409730694483049495
13862211 1 18342737464162399199
14252887 29 17989215824084205230
17804303 29 18273497883401759577
17834072 33 18410577323021717172
1813 80 17968106291699631366
18186145 218 14923950067535008876
200 152 17530965761531918920
20281475 54 18337672035103360796
20767249 213 10735876175026745610
20828058 44 18273214175553485034
21267235 1 18410019844213228018
22485316 2 18408601440280660184
2297311 6 18130235869953600908
23402539 116 17846774109970031213
23463225 33 18411140233692529510
23559900 14 18270389602695558633
351380 180 10665231458300457486
351380 3 18259982652836299658
42 15 18342740719346176002
4214541 1 18340769252190604880
5104073 3 18271533095046590721
559249 180 18335415712557464698
7364860 26 18126566957732624024
83771 10 18407476665592062532

> <PUBCHEM_SHAPE_MULTIPOLES>
270.51
10.85
1.64
0.68
12.98
0.32
0
-5.61
1.62
-0.51
-0.11
-0.08
0
-0.42

> <PUBCHEM_SHAPE_SELFOVERLAP>
550.017

> <PUBCHEM_SHAPE_VOLUME>
158.1

> <PUBCHEM_COORDINATE_TYPE>
2
5
10

> <Energy>
17.0404

> <minimizedAffinity>
-6.33170

> <CNNscore>
0.8701280355

> <CNNaffinity>
5.2828865051

> <CNN_VS>
4.5967874527

> <CNNaffinity_variance>
0.0579042993

$$$$
7184


 15 15  0  0  0  0  0  0  0  0999 V2000
    0.0155   -1.4120   18.7091 O   0  0  0  0  0  0  0  0  0  0  0  0
   -2.5614   -3.7571   20.9440 C   0  0  0  0  0  0  0  0  0  0  0  0
   -2.7113   -3.6836   19.5537 C   0  0  0  0  0  0  0  0  0  0  0  0
   -1.5529   -3.0308   21.5837 C   0  0  0  0  0  0  0  0  0  0  0  0
   -1.8358   -2.8933   18.8056 C   0  0  0  0  0  0  0  0  0  0  0  0
   -0.6837   -2.2444   20.8363 C   0  0  0  0  0  0  0  0  0  0  0  0
   -0.8280   -2.1801   19.4495 C   0  0  0  0  0  0  0  0  0  0  0  0
   -0.0838   -1.3708   17.7783 H   0  0  0  0  0  0  0  0  0  0  0  0
   -3.5978   -5.7931   21.6042 O   0  0  0  0  0  0  0  0  0  0  0  0
   -3.4944   -4.5840   21.7332 C   0  0  0  0  0  0  0  0  0  0  0  0
   -4.1690   -3.7973   22.6099 O   0  0  0  0  0  0  0  0  0  0  0  0
   -5.5609   -3.6264   22.3180 C   0  0  0  0  0  0  0  0  0  0  0  0
   -5.6944   -2.5721   21.2221 C   0  0  0  0  0  0  0  0  0  0  0  0
   -6.4169   -1.3265   21.7290 C   0  0  0  0  0  0  0  0  0  0  0  0
   -6.2072   -1.1285   23.2216 C   0  0  0  0  0  0  0  0  0  0  0  0
 11 12  1  0
 11 10  1  0
  9 10  2  0
  1  7  1  0
  1  8  1  0
 13 14  1  0
 13 12  1  0
 14 15  1  0
  2 10  1  0
  2  3  2  0
  2  4  1  0
  3  5  1  0
  4  6  2  0
  5  7  2  0
  6  7  1  0
M  END
> <PUBCHEM_COMPOUND_CID>
7184

> <PUBCHEM_CONFORMER_RMSD>
0.6

> <PUBCHEM_CONFORMER_DIVERSEORDER>
1
44
15
20
41
3
43
64
40
47
74
50
4
6
22
69
55
77
16
75
28
26
73
53
11
32
49
58
67
63
62
24
65
27
19
38
12
48
76
25
57
10
31
17
42
34
68
51
9
23
8
14
21
33
18
30
5
66
70
2
56
45
39
37
46
35
60
36
52
59
54
29
71
72
61
13
7

> <PUBCHEM_MMFF94_PARTIAL_CHARGES>
16
1 -0.43
10 -0.15
11 -0.15
12 -0.15
13 -0.15
14 0.08
2 -0.57
24 0.15
25 0.15
26 0.15
27 0.15
28 0.45
3 -0.53
6 0.28
8 0.09
9 0.63

> <PUBCHEM_EFFECTIVE_ROTOR_COUNT>
5

> <PUBCHEM_PHARMACOPHORE_FEATURES>
4
1 2 acceptor
1 3 donor
1 7 hydrophobe
6 8 10 11 12 13 14 rings

> <PUBCHEM_HEAVY_ATOM_COUNT>
14

> <PUBCHEM_ATOM_DEF_STEREO_COUNT>
0

> <PUBCHEM_ATOM_UDEF_STEREO_COUNT>
0

> <PUBCHEM_BOND_DEF_STEREO_COUNT>
0

> <PUBCHEM_BOND_UDEF_STEREO_COUNT>
0

> <PUBCHEM_ISOTOPIC_ATOM_COUNT>
0

> <PUBCHEM_COMPONENT_COUNT>
1

> <PUBCHEM_CACTVS_TAUTO_COUNT>
3

> <PUBCHEM_CONFORMER_ID>
00001C1000000001

> <PUBCHEM_MMFF94_ENERGY>
26.8162

> <PUBCHEM_FEATURE_SELFOVERLAP>
20.297

> <PUBCHEM_SHAPE_FINGERPRINT>
100836 57 10159698014692119138
10465860 250 17561082501386551480
10968037 39 18334860532716625766
11046707 91 18409446968869733128
12032990 46 18409167722807014732
12251169 10 18060418027818494140
13167823 11 18408602527187214402
13288520 33 18409730651148371639
13551218 46 18270963440792261598
13690532 89 18409730694483049495
13862211 1 18342737464162399199
14252887 29 17989215824084205230
17804303 29 18273497883401759577
17834072 33 18410577323021717172
1813 80 17968106291699631366
18186145 218 14923950067535008876
200 152 17530965761531918920
20281475 54 18337672035103360796
20767249 213 10735876175026745610
20828058 44 18273214175553485034
21267235 1 18410019844213228018
22485316 2 18408601440280660184
2297311 6 18130235869953600908
23402539 116 17846774109970031213
23463225 33 18411140233692529510
23559900 14 18270389602695558633
351380 180 10665231458300457486
351380 3 18259982652836299658
42 15 18342740719346176002
4214541 1 18340769252190604880
5104073 3 18271533095046590721
559249 180 18335415712557464698
7364860 26 18126566957732624024
83771 10 18407476665592062532

> <PUBCHEM_SHAPE_MULTIPOLES>
270.51
10.85
1.64
0.68
12.98
0.32
0
-5.61
1.62
-0.51
-0.11
-0.08
0
-0.42

> <PUBCHEM_SHAPE_SELFOVERLAP>
550.017

> <PUBCHEM_SHAPE_VOLUME>
158.1

> <PUBCHEM_COORDINATE_TYPE>
2
5
10

> <Energy>
17.0404

> <minimizedAffinity>
-6.21092

> <CNNscore>
0.8688101172

> <CNNaffinity>
5.9633135796

> <CNN_VS>
5.1809873581

> <CNNaffinity_variance>
0.4602483213

$$$$
7184


 15 15  0  0  0  0  0  0  0  0999 V2000
    0.3789   -1.9207   20.4267 O   0  0  0  0  0  0  0  0  0  0  0  0
   -3.0590   -3.9454   21.5291 C   0  0  0  0  0  0  0  0  0  0  0  0
   -2.2741   -3.3182   22.5044 C   0  0  0  0  0  0  0  0  0  0  0  0
   -2.6798   -3.9028   20.1844 C   0  0  0  0  0  0  0  0  0  0  0  0
   -1.1174   -2.6337   22.1248 C   0  0  0  0  0  0  0  0  0  0  0  0
   -1.5275   -3.2214   19.8099 C   0  0  0  0  0  0  0  0  0  0  0  0
   -0.7515   -2.5881   20.7820 C   0  0  0  0  0  0  0  0  0  0  0  0
    0.8979   -1.4965   21.0815 H   0  0  0  0  0  0  0  0  0  0  0  0
   -4.3813   -5.8914   21.8757 O   0  0  0  0  0  0  0  0  0  0  0  0
   -4.2746   -4.6772   21.9341 C   0  0  0  0  0  0  0  0  0  0  0  0
   -5.2037   -3.7984   22.3895 O   0  0  0  0  0  0  0  0  0  0  0  0
   -6.1899   -3.4114   21.4256 C   0  0  0  0  0  0  0  0  0  0  0  0
   -6.2217   -1.8867   21.3587 C   0  0  0  0  0  0  0  0  0  0  0  0
   -5.6304   -1.2588   22.6182 C   0  0  0  0  0  0  0  0  0  0  0  0
   -6.7048   -0.9665   23.6532 C   0  0  0  0  0  0  0  0  0  0  0  0
 11 12  1  0
 11 10  1  0
  9 10  2  0
  1  7  1  0
  1  8  1  0
 13 14  1  0
 13 12  1  0
 14 15  1  0
  2 10  1  0
  2  3  2  0
  2  4  1  0
  3  5  1  0
  4  6  2  0
  5  7  2  0
  6  7  1  0
M  END
> <PUBCHEM_COMPOUND_CID>
7184

> <PUBCHEM_CONFORMER_RMSD>
0.6

> <PUBCHEM_CONFORMER_DIVERSEORDER>
1
44
15
20
41
3
43
64
40
47
74
50
4
6
22
69
55
77
16
75
28
26
73
53
11
32
49
58
67
63
62
24
65
27
19
38
12
48
76
25
57
10
31
17
42
34
68
51
9
23
8
14
21
33
18
30
5
66
70
2
56
45
39
37
46
35
60
36
52
59
54
29
71
72
61
13
7

> <PUBCHEM_MMFF94_PARTIAL_CHARGES>
16
1 -0.43
10 -0.15
11 -0.15
12 -0.15
13 -0.15
14 0.08
2 -0.57
24 0.15
25 0.15
26 0.15
27 0.15
28 0.45
3 -0.53
6 0.28
8 0.09
9 0.63

> <PUBCHEM_EFFECTIVE_ROTOR_COUNT>
5

> <PUBCHEM_PHARMACOPHORE_FEATURES>
4
1 2 acceptor
1 3 donor
1 7 hydrophobe
6 8 10 11 12 13 14 rings

> <PUBCHEM_HEAVY_ATOM_COUNT>
14

> <PUBCHEM_ATOM_DEF_STEREO_COUNT>
0

> <PUBCHEM_ATOM_UDEF_STEREO_COUNT>
0

> <PUBCHEM_BOND_DEF_STEREO_COUNT>
0

> <PUBCHEM_BOND_UDEF_STEREO_COUNT>
0

> <PUBCHEM_ISOTOPIC_ATOM_COUNT>
0

> <PUBCHEM_COMPONENT_COUNT>
1

> <PUBCHEM_CACTVS_TAUTO_COUNT>
3

> <PUBCHEM_CONFORMER_ID>
00001C1000000001

> <PUBCHEM_MMFF94_ENERGY>
26.8162

> <PUBCHEM_FEATURE_SELFOVERLAP>
20.297

> <PUBCHEM_SHAPE_FINGERPRINT>
100836 57 10159698014692119138
10465860 250 17561082501386551480
10968037 39 18334860532716625766
11046707 91 18409446968869733128
12032990 46 18409167722807014732
12251169 10 18060418027818494140
13167823 11 18408602527187214402
13288520 33 18409730651148371639
13551218 46 18270963440792261598
13690532 89 18409730694483049495
13862211 1 18342737464162399199
14252887 29 17989215824084205230
17804303 29 18273497883401759577
17834072 33 18410577323021717172
1813 80 17968106291699631366
18186145 218 14923950067535008876
200 152 17530965761531918920
20281475 54 18337672035103360796
20767249 213 10735876175026745610
20828058 44 18273214175553485034
21267235 1 18410019844213228018
22485316 2 18408601440280660184
2297311 6 18130235869953600908
23402539 116 17846774109970031213
23463225 33 18411140233692529510
23559900 14 18270389602695558633
351380 180 10665231458300457486
351380 3 18259982652836299658
42 15 18342740719346176002
4214541 1 18340769252190604880
5104073 3 18271533095046590721
559249 180 18335415712557464698
7364860 26 18126566957732624024
83771 10 18407476665592062532

> <PUBCHEM_SHAPE_MULTIPOLES>
270.51
10.85
1.64
0.68
12.98
0.32
0
-5.61
1.62
-0.51
-0.11
-0.08
0
-0.42

> <PUBCHEM_SHAPE_SELFOVERLAP>
550.017

> <PUBCHEM_SHAPE_VOLUME>
158.1

> <PUBCHEM_COORDINATE_TYPE>
2
5
10

> <Energy>
17.0404

> <minimizedAffinity>
-6.06558

> <CNNscore>
0.8685851097

> <CNNaffinity>
5.7812895775

> <CNN_VS>
5.0215420723

> <CNNaffinity_variance>
0.1460766792

$$$$
7184


 15 15  0  0  0  0  0  0  0  0999 V2000
    1.1672   -1.9595   20.7703 O   0  0  0  0  0  0  0  0  0  0  0  0
   -2.7687   -3.1287   20.2446 C   0  0  0  0  0  0  0  0  0  0  0  0
   -2.2008   -3.1411   21.5245 C   0  0  0  0  0  0  0  0  0  0  0  0
   -2.0080   -2.7359   19.1397 C   0  0  0  0  0  0  0  0  0  0  0  0
   -0.8734   -2.7417   21.6949 C   0  0  0  0  0  0  0  0  0  0  0  0
   -0.6868   -2.3398   19.3125 C   0  0  0  0  0  0  0  0  0  0  0  0
   -0.1252   -2.3429   20.5903 C   0  0  0  0  0  0  0  0  0  0  0  0
    1.5415   -1.9627   21.6293 H   0  0  0  0  0  0  0  0  0  0  0  0
   -4.4929   -4.7163   19.8420 O   0  0  0  0  0  0  0  0  0  0  0  0
   -4.1679   -3.5615   20.0657 C   0  0  0  0  0  0  0  0  0  0  0  0
   -4.9958   -2.4962   20.2149 O   0  0  0  0  0  0  0  0  0  0  0  0
   -5.7568   -2.4901   21.4284 C   0  0  0  0  0  0  0  0  0  0  0  0
   -7.2238   -2.7209   21.0749 C   0  0  0  0  0  0  0  0  0  0  0  0
   -7.7783   -3.9620   21.7696 C   0  0  0  0  0  0  0  0  0  0  0  0
   -7.5114   -5.2207   20.9601 C   0  0  0  0  0  0  0  0  0  0  0  0
 11 12  1  0
 11 10  1  0
  9 10  2  0
  1  7  1  0
  1  8  1  0
 13 14  1  0
 13 12  1  0
 14 15  1  0
  2 10  1  0
  2  3  2  0
  2  4  1  0
  3  5  1  0
  4  6  2  0
  5  7  2  0
  6  7  1  0
M  END
> <PUBCHEM_COMPOUND_CID>
7184

> <PUBCHEM_CONFORMER_RMSD>
0.6

> <PUBCHEM_CONFORMER_DIVERSEORDER>
1
44
15
20
41
3
43
64
40
47
74
50
4
6
22
69
55
77
16
75
28
26
73
53
11
32
49
58
67
63
62
24
65
27
19
38
12
48
76
25
57
10
31
17
42
34
68
51
9
23
8
14
21
33
18
30
5
66
70
2
56
45
39
37
46
35
60
36
52
59
54
29
71
72
61
13
7

> <PUBCHEM_MMFF94_PARTIAL_CHARGES>
16
1 -0.43
10 -0.15
11 -0.15
12 -0.15
13 -0.15
14 0.08
2 -0.57
24 0.15
25 0.15
26 0.15
27 0.15
28 0.45
3 -0.53
6 0.28
8 0.09
9 0.63

> <PUBCHEM_EFFECTIVE_ROTOR_COUNT>
5

> <PUBCHEM_PHARMACOPHORE_FEATURES>
4
1 2 acceptor
1 3 donor
1 7 hydrophobe
6 8 10 11 12 13 14 rings

> <PUBCHEM_HEAVY_ATOM_COUNT>
14

> <PUBCHEM_ATOM_DEF_STEREO_COUNT>
0

> <PUBCHEM_ATOM_UDEF_STEREO_COUNT>
0

> <PUBCHEM_BOND_DEF_STEREO_COUNT>
0

> <PUBCHEM_BOND_UDEF_STEREO_COUNT>
0

> <PUBCHEM_ISOTOPIC_ATOM_COUNT>
0

> <PUBCHEM_COMPONENT_COUNT>
1

> <PUBCHEM_CACTVS_TAUTO_COUNT>
3

> <PUBCHEM_CONFORMER_ID>
00001C1000000001

> <PUBCHEM_MMFF94_ENERGY>
26.8162

> <PUBCHEM_FEATURE_SELFOVERLAP>
20.297

> <PUBCHEM_SHAPE_FINGERPRINT>
100836 57 10159698014692119138
10465860 250 17561082501386551480
10968037 39 18334860532716625766
11046707 91 18409446968869733128
12032990 46 18409167722807014732
12251169 10 18060418027818494140
13167823 11 18408602527187214402
13288520 33 18409730651148371639
13551218 46 18270963440792261598
13690532 89 18409730694483049495
13862211 1 18342737464162399199
14252887 29 17989215824084205230
17804303 29 18273497883401759577
17834072 33 18410577323021717172
1813 80 17968106291699631366
18186145 218 14923950067535008876
200 152 17530965761531918920
20281475 54 18337672035103360796
20767249 213 10735876175026745610
20828058 44 18273214175553485034
21267235 1 18410019844213228018
22485316 2 18408601440280660184
2297311 6 18130235869953600908
23402539 116 17846774109970031213
23463225 33 18411140233692529510
23559900 14 18270389602695558633
351380 180 10665231458300457486
351380 3 18259982652836299658
42 15 18342740719346176002
4214541 1 18340769252190604880
5104073 3 18271533095046590721
559249 180 18335415712557464698
7364860 26 18126566957732624024
83771 10 18407476665592062532

> <PUBCHEM_SHAPE_MULTIPOLES>
270.51
10.85
1.64
0.68
12.98
0.32
0
-5.61
1.62
-0.51
-0.11
-0.08
0
-0.42

> <PUBCHEM_SHAPE_SELFOVERLAP>
550.017

> <PUBCHEM_SHAPE_VOLUME>
158.1

> <PUBCHEM_COORDINATE_TYPE>
2
5
10

> <Energy>
17.0404

> <minimizedAffinity>
-5.62326

> <CNNscore>
0.8617819548

> <CNNaffinity>
5.9691500664

> <CNN_VS>
5.1441059113

> <CNNaffinity_variance>
0.6566168666

$$$$
7184


 15 15  0  0  0  0  0  0  0  0999 V2000
    0.0547   -1.3884   18.4877 O   0  0  0  0  0  0  0  0  0  0  0  0
   -2.8611   -3.5656   20.4608 C   0  0  0  0  0  0  0  0  0  0  0  0
   -1.8713   -2.8986   21.1930 C   0  0  0  0  0  0  0  0  0  0  0  0
   -2.8618   -3.5111   19.0640 C   0  0  0  0  0  0  0  0  0  0  0  0
   -0.8928   -2.1629   20.5208 C   0  0  0  0  0  0  0  0  0  0  0  0
   -1.8859   -2.7787   18.3979 C   0  0  0  0  0  0  0  0  0  0  0  0
   -0.9059   -2.1060   19.1295 C   0  0  0  0  0  0  0  0  0  0  0  0
    0.7114   -0.9380   18.9815 H   0  0  0  0  0  0  0  0  0  0  0  0
   -3.6262   -5.1933   22.0165 O   0  0  0  0  0  0  0  0  0  0  0  0
   -3.8872   -4.3511   21.1729 C   0  0  0  0  0  0  0  0  0  0  0  0
   -5.1218   -3.9671   20.7594 O   0  0  0  0  0  0  0  0  0  0  0  0
   -5.9410   -3.3777   21.7758 C   0  0  0  0  0  0  0  0  0  0  0  0
   -6.0951   -1.8912   21.4646 C   0  0  0  0  0  0  0  0  0  0  0  0
   -5.7202   -1.0263   22.6653 C   0  0  0  0  0  0  0  0  0  0  0  0
   -4.6621   -1.6963   23.5269 C   0  0  0  0  0  0  0  0  0  0  0  0
 11 12  1  0
 11 10  1  0
  9 10  2  0
  1  7  1  0
  1  8  1  0
 13 14  1  0
 13 12  1  0
 14 15  1  0
  2 10  1  0
  2  3  2  0
  2  4  1  0
  3  5  1  0
  4  6  2  0
  5  7  2  0
  6  7  1  0
M  END
> <PUBCHEM_COMPOUND_CID>
7184

> <PUBCHEM_CONFORMER_RMSD>
0.6

> <PUBCHEM_CONFORMER_DIVERSEORDER>
1
44
15
20
41
3
43
64
40
47
74
50
4
6
22
69
55
77
16
75
28
26
73
53
11
32
49
58
67
63
62
24
65
27
19
38
12
48
76
25
57
10
31
17
42
34
68
51
9
23
8
14
21
33
18
30
5
66
70
2
56
45
39
37
46
35
60
36
52
59
54
29
71
72
61
13
7

> <PUBCHEM_MMFF94_PARTIAL_CHARGES>
16
1 -0.43
10 -0.15
11 -0.15
12 -0.15
13 -0.15
14 0.08
2 -0.57
24 0.15
25 0.15
26 0.15
27 0.15
28 0.45
3 -0.53
6 0.28
8 0.09
9 0.63

> <PUBCHEM_EFFECTIVE_ROTOR_COUNT>
5

> <PUBCHEM_PHARMACOPHORE_FEATURES>
4
1 2 acceptor
1 3 donor
1 7 hydrophobe
6 8 10 11 12 13 14 rings

> <PUBCHEM_HEAVY_ATOM_COUNT>
14

> <PUBCHEM_ATOM_DEF_STEREO_COUNT>
0

> <PUBCHEM_ATOM_UDEF_STEREO_COUNT>
0

> <PUBCHEM_BOND_DEF_STEREO_COUNT>
0

> <PUBCHEM_BOND_UDEF_STEREO_COUNT>
0

> <PUBCHEM_ISOTOPIC_ATOM_COUNT>
0

> <PUBCHEM_COMPONENT_COUNT>
1

> <PUBCHEM_CACTVS_TAUTO_COUNT>
3

> <PUBCHEM_CONFORMER_ID>
00001C1000000001

> <PUBCHEM_MMFF94_ENERGY>
26.8162

> <PUBCHEM_FEATURE_SELFOVERLAP>
20.297

> <PUBCHEM_SHAPE_FINGERPRINT>
100836 57 10159698014692119138
10465860 250 17561082501386551480
10968037 39 18334860532716625766
11046707 91 18409446968869733128
12032990 46 18409167722807014732
12251169 10 18060418027818494140
13167823 11 18408602527187214402
13288520 33 18409730651148371639
13551218 46 18270963440792261598
13690532 89 18409730694483049495
13862211 1 18342737464162399199
14252887 29 17989215824084205230
17804303 29 18273497883401759577
17834072 33 18410577323021717172
1813 80 17968106291699631366
18186145 218 14923950067535008876
200 152 17530965761531918920
20281475 54 18337672035103360796
20767249 213 10735876175026745610
20828058 44 18273214175553485034
21267235 1 18410019844213228018
22485316 2 18408601440280660184
2297311 6 18130235869953600908
23402539 116 17846774109970031213
23463225 33 18411140233692529510
23559900 14 18270389602695558633
351380 180 10665231458300457486
351380 3 18259982652836299658
42 15 18342740719346176002
4214541 1 18340769252190604880
5104073 3 18271533095046590721
559249 180 18335415712557464698
7364860 26 18126566957732624024
83771 10 18407476665592062532

> <PUBCHEM_SHAPE_MULTIPOLES>
270.51
10.85
1.64
0.68
12.98
0.32
0
-5.61
1.62
-0.51
-0.11
-0.08
0
-0.42

> <PUBCHEM_SHAPE_SELFOVERLAP>
550.017

> <PUBCHEM_SHAPE_VOLUME>
158.1

> <PUBCHEM_COORDINATE_TYPE>
2
5
10

> <Energy>
17.0404

> <minimizedAffinity>
-6.08227

> <CNNscore>
0.8591033220

> <CNNaffinity>
5.9115462303

> <CNN_VS>
5.0786290169

> <CNNaffinity_variance>
0.3111776114

$$$$
