8814


 16 16  0  0  0  0  0  0  0  0999 V2000
   -7.0432   -4.6942   12.4669 C   0  0  0  0  0  0  0  0  0  0  0  0
   -8.1706   -5.7446   12.7061 C   0  0  0  0  0  0  0  0  0  0  0  0
   -6.2101   -5.2716   11.2988 C   0  0  0  0  0  0  0  0  0  0  0  0
   -4.1596   -4.1202   17.3666 O   0  0  0  0  0  0  0  0  0  0  0  0
   -6.2657   -4.5673   13.7856 C   0  0  0  0  0  0  0  0  0  0  0  0
   -6.8726   -3.9673   14.9099 C   0  0  0  0  0  0  0  0  0  0  0  0
   -4.9441   -5.0223   13.9294 C   0  0  0  0  0  0  0  0  0  0  0  0
   -6.1835   -3.8111   16.1154 C   0  0  0  0  0  0  0  0  0  0  0  0
   -4.2527   -4.8656   15.1328 C   0  0  0  0  0  0  0  0  0  0  0  0
   -4.8757   -4.2588   16.2143 C   0  0  0  0  0  0  0  0  0  0  0  0
   -4.5507   -3.7149   18.1154 H   0  0  0  0  0  0  0  0  0  0  0  0
   -7.7428   -3.3529   12.0422 C   0  0  0  0  0  0  0  0  0  0  0  0
   -8.4416   -3.1476   10.6549 C   0  0  0  0  0  0  0  0  0  0  0  0
   -8.7043   -1.6275   10.5090 C   0  0  0  0  0  0  0  0  0  0  0  0
   -9.7972   -3.8612   10.5560 C   0  0  0  0  0  0  0  0  0  0  0  0
   -7.5752   -3.5648    9.4562 C   0  0  0  0  0  0  0  0  0  0  0  0
  4 10  1  0
  4 11  1  0
  1 12  1  0
  1  5  1  0
  1  2  1  0
  1  3  1  0
 13 12  1  0
 13 14  1  0
 13 15  1  0
 13 16  1  0
  5  6  2  0
  5  7  1  0
  6  8  1  0
  7  9  2  0
  8 10  2  0
  9 10  1  0
M  END
> <PUBCHEM_COMPOUND_CID>
8814

> <PUBCHEM_CONFORMER_RMSD>
0.6

> <PUBCHEM_CONFORMER_DIVERSEORDER>
1
5
4
3
2

> <PUBCHEM_MMFF94_PARTIAL_CHARGES>
13
1 -0.53
11 -0.15
12 -0.15
13 -0.15
14 -0.15
15 0.08
2 0.14
33 0.15
34 0.15
35 0.15
36 0.15
37 0.45
5 -0.14

> <PUBCHEM_EFFECTIVE_ROTOR_COUNT>
3

> <PUBCHEM_PHARMACOPHORE_FEATURES>
4
1 1 donor
3 2 6 7 hydrophobe
4 3 8 9 10 hydrophobe
6 5 11 12 13 14 15 rings

> <PUBCHEM_HEAVY_ATOM_COUNT>
15

> <PUBCHEM_ATOM_DEF_STEREO_COUNT>
0

> <PUBCHEM_ATOM_UDEF_STEREO_COUNT>
0

> <PUBCHEM_BOND_DEF_STEREO_COUNT>
0

> <PUBCHEM_BOND_UDEF_STEREO_COUNT>
0

> <PUBCHEM_ISOTOPIC_ATOM_COUNT>
0

> <PUBCHEM_COMPONENT_COUNT>
1

> <PUBCHEM_CACTVS_TAUTO_COUNT>
2

> <PUBCHEM_CONFORMER_ID>
0000226E00000001

> <PUBCHEM_MMFF94_ENERGY>
60.6732

> <PUBCHEM_FEATURE_SELFOVERLAP>
20.297

> <PUBCHEM_SHAPE_FINGERPRINT>
1 1 18122065299635933247
11471102 22 13984658170435925480
12138202 97 18272929444633088966
12251169 10 14923953348599690641
12423570 1 15084294979065354379
124424 183 18201999928641116818
12491281 212 18273493468196309381
12532896 13 18409735040726507851
13299463 15 16200422598337566991
13538477 17 17822291326855117498
13764800 53 18335714831507604569
13839132 238 18413110537123213324
14817 1 11689340854733718479
15375462 478 15647061443078261877
15775835 57 18339078194495494345
16945 1 17988065786023185643
18186145 218 18200036118541666588
18534176 82 18271243927656786518
19837323 101 18335708272823803859
20525323 117 18337111292773698462
20645476 183 17894351081266785547
21296965 12 18260545576729377063
21501502 16 18271800211963701222
21524375 3 18339638928324873163
21947302 44 18059017168310697110
22802520 49 18199766781279703998
23402539 116 18267296706830970519
23419403 2 17194099544908694927
23557571 272 18198918083120765556
23559900 14 18342742906418193234
25 1 17845383149850037993
2748010 2 18262817159083630983
276578 36 18189342281366350763
305870 269 18040992882718168402
430814 3 18041565736850213531
549884 4 17416683544816290937
6333449 129 18343582975122638285
6442390 28 18269297706777891659
7364860 26 17834677097914689979
81228 2 18191593162379223291

> <PUBCHEM_SHAPE_MULTIPOLES>
302.82
5.29
2.15
1.39
2.11
0.81
0.13
-3.45
0.34
-1.29
-0.24
-0.12
0.26
0.01

> <PUBCHEM_SHAPE_SELFOVERLAP>
615.427

> <PUBCHEM_SHAPE_VOLUME>
178.4

> <PUBCHEM_COORDINATE_TYPE>
2
5
10

> <Energy>
46.4329

> <minimizedAffinity>
-7.69109

> <CNNscore>
0.9051461816

> <CNNaffinity>
6.8267383575

> <CNN_VS>
6.1791963577

> <CNNaffinity_variance>
0.6258202195

$$$$
8814


 16 16  0  0  0  0  0  0  0  0999 V2000
   -7.0950   -4.5755   12.4323 C   0  0  0  0  0  0  0  0  0  0  0  0
   -8.1152   -5.7534   12.4900 C   0  0  0  0  0  0  0  0  0  0  0  0
   -6.1574   -4.9255   11.2533 C   0  0  0  0  0  0  0  0  0  0  0  0
   -4.4620   -4.5011   17.5032 O   0  0  0  0  0  0  0  0  0  0  0  0
   -6.3915   -4.5283   13.7971 C   0  0  0  0  0  0  0  0  0  0  0  0
   -5.0373   -4.9106   13.9087 C   0  0  0  0  0  0  0  0  0  0  0  0
   -7.0480   -4.1218   14.9709 C   0  0  0  0  0  0  0  0  0  0  0  0
   -4.3763   -4.9060   15.1397 C   0  0  0  0  0  0  0  0  0  0  0  0
   -6.3899   -4.1182   16.2029 C   0  0  0  0  0  0  0  0  0  0  0  0
   -5.0616   -4.5132   16.2784 C   0  0  0  0  0  0  0  0  0  0  0  0
   -3.5662   -4.7620   17.5889 H   0  0  0  0  0  0  0  0  0  0  0  0
   -7.9128   -3.2696   12.1246 C   0  0  0  0  0  0  0  0  0  0  0  0
   -8.5112   -2.9401   10.7145 C   0  0  0  0  0  0  0  0  0  0  0  0
   -9.9555   -3.5009   10.7012 C   0  0  0  0  0  0  0  0  0  0  0  0
   -7.7449   -3.6130    9.5669 C   0  0  0  0  0  0  0  0  0  0  0  0
   -8.6172   -1.4352   10.4220 C   0  0  0  0  0  0  0  0  0  0  0  0
  4 10  1  0
  4 11  1  0
  1 12  1  0
  1  5  1  0
  1  2  1  0
  1  3  1  0
 13 12  1  0
 13 14  1  0
 13 15  1  0
 13 16  1  0
  5  6  2  0
  5  7  1  0
  6  8  1  0
  7  9  2  0
  8 10  2  0
  9 10  1  0
M  END
> <PUBCHEM_COMPOUND_CID>
8814

> <PUBCHEM_CONFORMER_RMSD>
0.6

> <PUBCHEM_CONFORMER_DIVERSEORDER>
1
5
4
3
2

> <PUBCHEM_MMFF94_PARTIAL_CHARGES>
13
1 -0.53
11 -0.15
12 -0.15
13 -0.15
14 -0.15
15 0.08
2 0.14
33 0.15
34 0.15
35 0.15
36 0.15
37 0.45
5 -0.14

> <PUBCHEM_EFFECTIVE_ROTOR_COUNT>
3

> <PUBCHEM_PHARMACOPHORE_FEATURES>
4
1 1 donor
3 2 6 7 hydrophobe
4 3 8 9 10 hydrophobe
6 5 11 12 13 14 15 rings

> <PUBCHEM_HEAVY_ATOM_COUNT>
15

> <PUBCHEM_ATOM_DEF_STEREO_COUNT>
0

> <PUBCHEM_ATOM_UDEF_STEREO_COUNT>
0

> <PUBCHEM_BOND_DEF_STEREO_COUNT>
0

> <PUBCHEM_BOND_UDEF_STEREO_COUNT>
0

> <PUBCHEM_ISOTOPIC_ATOM_COUNT>
0

> <PUBCHEM_COMPONENT_COUNT>
1

> <PUBCHEM_CACTVS_TAUTO_COUNT>
2

> <PUBCHEM_CONFORMER_ID>
0000226E00000001

> <PUBCHEM_MMFF94_ENERGY>
60.6732

> <PUBCHEM_FEATURE_SELFOVERLAP>
20.297

> <PUBCHEM_SHAPE_FINGERPRINT>
1 1 18122065299635933247
11471102 22 13984658170435925480
12138202 97 18272929444633088966
12251169 10 14923953348599690641
12423570 1 15084294979065354379
124424 183 18201999928641116818
12491281 212 18273493468196309381
12532896 13 18409735040726507851
13299463 15 16200422598337566991
13538477 17 17822291326855117498
13764800 53 18335714831507604569
13839132 238 18413110537123213324
14817 1 11689340854733718479
15375462 478 15647061443078261877
15775835 57 18339078194495494345
16945 1 17988065786023185643
18186145 218 18200036118541666588
18534176 82 18271243927656786518
19837323 101 18335708272823803859
20525323 117 18337111292773698462
20645476 183 17894351081266785547
21296965 12 18260545576729377063
21501502 16 18271800211963701222
21524375 3 18339638928324873163
21947302 44 18059017168310697110
22802520 49 18199766781279703998
23402539 116 18267296706830970519
23419403 2 17194099544908694927
23557571 272 18198918083120765556
23559900 14 18342742906418193234
25 1 17845383149850037993
2748010 2 18262817159083630983
276578 36 18189342281366350763
305870 269 18040992882718168402
430814 3 18041565736850213531
549884 4 17416683544816290937
6333449 129 18343582975122638285
6442390 28 18269297706777891659
7364860 26 17834677097914689979
81228 2 18191593162379223291

> <PUBCHEM_SHAPE_MULTIPOLES>
302.82
5.29
2.15
1.39
2.11
0.81
0.13
-3.45
0.34
-1.29
-0.24
-0.12
0.26
0.01

> <PUBCHEM_SHAPE_SELFOVERLAP>
615.427

> <PUBCHEM_SHAPE_VOLUME>
178.4

> <PUBCHEM_COORDINATE_TYPE>
2
5
10

> <Energy>
46.4329

> <minimizedAffinity>
-7.61409

> <CNNscore>
0.8990703225

> <CNNaffinity>
6.6003222466

> <CNN_VS>
5.9341540337

> <CNNaffinity_variance>
0.3753081262

$$$$
8814


 16 16  0  0  0  0  0  0  0  0999 V2000
   -7.4455   -4.0108   12.9288 C   0  0  0  0  0  0  0  0  0  0  0  0
   -6.4057   -4.3321   11.8120 C   0  0  0  0  0  0  0  0  0  0  0  0
   -7.7562   -2.5058   12.7548 C   0  0  0  0  0  0  0  0  0  0  0  0
   -5.0027   -5.2199   17.9510 O   0  0  0  0  0  0  0  0  0  0  0  0
   -6.7817   -4.3606   14.2693 C   0  0  0  0  0  0  0  0  0  0  0  0
   -7.5510   -4.3944   15.4523 C   0  0  0  0  0  0  0  0  0  0  0  0
   -5.4107   -4.6473   14.3805 C   0  0  0  0  0  0  0  0  0  0  0  0
   -6.9727   -4.6813   16.6915 C   0  0  0  0  0  0  0  0  0  0  0  0
   -4.8301   -4.9325   15.6183 C   0  0  0  0  0  0  0  0  0  0  0  0
   -5.6138   -4.9440   16.7636 C   0  0  0  0  0  0  0  0  0  0  0  0
   -5.5031   -5.2355   18.7430 H   0  0  0  0  0  0  0  0  0  0  0  0
   -8.7215   -4.8802   12.6372 C   0  0  0  0  0  0  0  0  0  0  0  0
   -9.7553   -4.5415   11.5096 C   0  0  0  0  0  0  0  0  0  0  0  0
  -10.9717   -3.8795   12.2044 C   0  0  0  0  0  0  0  0  0  0  0  0
  -10.2670   -5.7873   10.7727 C   0  0  0  0  0  0  0  0  0  0  0  0
   -9.2343   -3.5338   10.4729 C   0  0  0  0  0  0  0  0  0  0  0  0
  4 10  1  0
  4 11  1  0
  1 12  1  0
  1  5  1  0
  1  2  1  0
  1  3  1  0
 13 12  1  0
 13 14  1  0
 13 15  1  0
 13 16  1  0
  5  6  2  0
  5  7  1  0
  6  8  1  0
  7  9  2  0
  8 10  2  0
  9 10  1  0
M  END
> <PUBCHEM_COMPOUND_CID>
8814

> <PUBCHEM_CONFORMER_RMSD>
0.6

> <PUBCHEM_CONFORMER_DIVERSEORDER>
1
5
4
3
2

> <PUBCHEM_MMFF94_PARTIAL_CHARGES>
13
1 -0.53
11 -0.15
12 -0.15
13 -0.15
14 -0.15
15 0.08
2 0.14
33 0.15
34 0.15
35 0.15
36 0.15
37 0.45
5 -0.14

> <PUBCHEM_EFFECTIVE_ROTOR_COUNT>
3

> <PUBCHEM_PHARMACOPHORE_FEATURES>
4
1 1 donor
3 2 6 7 hydrophobe
4 3 8 9 10 hydrophobe
6 5 11 12 13 14 15 rings

> <PUBCHEM_HEAVY_ATOM_COUNT>
15

> <PUBCHEM_ATOM_DEF_STEREO_COUNT>
0

> <PUBCHEM_ATOM_UDEF_STEREO_COUNT>
0

> <PUBCHEM_BOND_DEF_STEREO_COUNT>
0

> <PUBCHEM_BOND_UDEF_STEREO_COUNT>
0

> <PUBCHEM_ISOTOPIC_ATOM_COUNT>
0

> <PUBCHEM_COMPONENT_COUNT>
1

> <PUBCHEM_CACTVS_TAUTO_COUNT>
2

> <PUBCHEM_CONFORMER_ID>
0000226E00000001

> <PUBCHEM_MMFF94_ENERGY>
60.6732

> <PUBCHEM_FEATURE_SELFOVERLAP>
20.297

> <PUBCHEM_SHAPE_FINGERPRINT>
1 1 18122065299635933247
11471102 22 13984658170435925480
12138202 97 18272929444633088966
12251169 10 14923953348599690641
12423570 1 15084294979065354379
124424 183 18201999928641116818
12491281 212 18273493468196309381
12532896 13 18409735040726507851
13299463 15 16200422598337566991
13538477 17 17822291326855117498
13764800 53 18335714831507604569
13839132 238 18413110537123213324
14817 1 11689340854733718479
15375462 478 15647061443078261877
15775835 57 18339078194495494345
16945 1 17988065786023185643
18186145 218 18200036118541666588
18534176 82 18271243927656786518
19837323 101 18335708272823803859
20525323 117 18337111292773698462
20645476 183 17894351081266785547
21296965 12 18260545576729377063
21501502 16 18271800211963701222
21524375 3 18339638928324873163
21947302 44 18059017168310697110
22802520 49 18199766781279703998
23402539 116 18267296706830970519
23419403 2 17194099544908694927
23557571 272 18198918083120765556
23559900 14 18342742906418193234
25 1 17845383149850037993
2748010 2 18262817159083630983
276578 36 18189342281366350763
305870 269 18040992882718168402
430814 3 18041565736850213531
549884 4 17416683544816290937
6333449 129 18343582975122638285
6442390 28 18269297706777891659
7364860 26 17834677097914689979
81228 2 18191593162379223291

> <PUBCHEM_SHAPE_MULTIPOLES>
302.82
5.29
2.15
1.39
2.11
0.81
0.13
-3.45
0.34
-1.29
-0.24
-0.12
0.26
0.01

> <PUBCHEM_SHAPE_SELFOVERLAP>
615.427

> <PUBCHEM_SHAPE_VOLUME>
178.4

> <PUBCHEM_COORDINATE_TYPE>
2
5
10

> <Energy>
46.4329

> <minimizedAffinity>
-7.15098

> <CNNscore>
0.8924458623

> <CNNaffinity>
6.7395825386

> <CNN_VS>
6.0147123337

> <CNNaffinity_variance>
0.4907175004

$$$$
8814


 16 16  0  0  0  0  0  0  0  0999 V2000
   -7.3248   -4.2665   12.7856 C   0  0  0  0  0  0  0  0  0  0  0  0
   -7.9366   -2.8321   12.7863 C   0  0  0  0  0  0  0  0  0  0  0  0
   -8.5341   -5.2091   12.9874 C   0  0  0  0  0  0  0  0  0  0  0  0
   -3.5040   -4.3392   17.0339 O   0  0  0  0  0  0  0  0  0  0  0  0
   -6.2987   -4.3135   13.9278 C   0  0  0  0  0  0  0  0  0  0  0  0
   -6.5949   -3.7127   15.1702 C   0  0  0  0  0  0  0  0  0  0  0  0
   -5.0450   -4.9329   13.7910 C   0  0  0  0  0  0  0  0  0  0  0  0
   -5.6727   -3.7133   16.2200 C   0  0  0  0  0  0  0  0  0  0  0  0
   -4.1209   -4.9331   14.8383 C   0  0  0  0  0  0  0  0  0  0  0  0
   -4.4400   -4.3210   16.0423 C   0  0  0  0  0  0  0  0  0  0  0  0
   -3.6878   -3.9349   17.8590 H   0  0  0  0  0  0  0  0  0  0  0  0
   -6.6733   -4.4911   11.3736 C   0  0  0  0  0  0  0  0  0  0  0  0
   -7.0193   -5.7077   10.4489 C   0  0  0  0  0  0  0  0  0  0  0  0
   -6.0116   -6.8323   10.7963 C   0  0  0  0  0  0  0  0  0  0  0  0
   -6.8583   -5.3896    8.9556 C   0  0  0  0  0  0  0  0  0  0  0  0
   -8.4246   -6.2841   10.6822 C   0  0  0  0  0  0  0  0  0  0  0  0
  4 10  1  0
  4 11  1  0
  1 12  1  0
  1  5  1  0
  1  2  1  0
  1  3  1  0
 13 12  1  0
 13 14  1  0
 13 15  1  0
 13 16  1  0
  5  6  2  0
  5  7  1  0
  6  8  1  0
  7  9  2  0
  8 10  2  0
  9 10  1  0
M  END
> <PUBCHEM_COMPOUND_CID>
8814

> <PUBCHEM_CONFORMER_RMSD>
0.6

> <PUBCHEM_CONFORMER_DIVERSEORDER>
1
5
4
3
2

> <PUBCHEM_MMFF94_PARTIAL_CHARGES>
13
1 -0.53
11 -0.15
12 -0.15
13 -0.15
14 -0.15
15 0.08
2 0.14
33 0.15
34 0.15
35 0.15
36 0.15
37 0.45
5 -0.14

> <PUBCHEM_EFFECTIVE_ROTOR_COUNT>
3

> <PUBCHEM_PHARMACOPHORE_FEATURES>
4
1 1 donor
3 2 6 7 hydrophobe
4 3 8 9 10 hydrophobe
6 5 11 12 13 14 15 rings

> <PUBCHEM_HEAVY_ATOM_COUNT>
15

> <PUBCHEM_ATOM_DEF_STEREO_COUNT>
0

> <PUBCHEM_ATOM_UDEF_STEREO_COUNT>
0

> <PUBCHEM_BOND_DEF_STEREO_COUNT>
0

> <PUBCHEM_BOND_UDEF_STEREO_COUNT>
0

> <PUBCHEM_ISOTOPIC_ATOM_COUNT>
0

> <PUBCHEM_COMPONENT_COUNT>
1

> <PUBCHEM_CACTVS_TAUTO_COUNT>
2

> <PUBCHEM_CONFORMER_ID>
0000226E00000001

> <PUBCHEM_MMFF94_ENERGY>
60.6732

> <PUBCHEM_FEATURE_SELFOVERLAP>
20.297

> <PUBCHEM_SHAPE_FINGERPRINT>
1 1 18122065299635933247
11471102 22 13984658170435925480
12138202 97 18272929444633088966
12251169 10 14923953348599690641
12423570 1 15084294979065354379
124424 183 18201999928641116818
12491281 212 18273493468196309381
12532896 13 18409735040726507851
13299463 15 16200422598337566991
13538477 17 17822291326855117498
13764800 53 18335714831507604569
13839132 238 18413110537123213324
14817 1 11689340854733718479
15375462 478 15647061443078261877
15775835 57 18339078194495494345
16945 1 17988065786023185643
18186145 218 18200036118541666588
18534176 82 18271243927656786518
19837323 101 18335708272823803859
20525323 117 18337111292773698462
20645476 183 17894351081266785547
21296965 12 18260545576729377063
21501502 16 18271800211963701222
21524375 3 18339638928324873163
21947302 44 18059017168310697110
22802520 49 18199766781279703998
23402539 116 18267296706830970519
23419403 2 17194099544908694927
23557571 272 18198918083120765556
23559900 14 18342742906418193234
25 1 17845383149850037993
2748010 2 18262817159083630983
276578 36 18189342281366350763
305870 269 18040992882718168402
430814 3 18041565736850213531
549884 4 17416683544816290937
6333449 129 18343582975122638285
6442390 28 18269297706777891659
7364860 26 17834677097914689979
81228 2 18191593162379223291

> <PUBCHEM_SHAPE_MULTIPOLES>
302.82
5.29
2.15
1.39
2.11
0.81
0.13
-3.45
0.34
-1.29
-0.24
-0.12
0.26
0.01

> <PUBCHEM_SHAPE_SELFOVERLAP>
615.427

> <PUBCHEM_SHAPE_VOLUME>
178.4

> <PUBCHEM_COORDINATE_TYPE>
2
5
10

> <Energy>
46.4329

> <minimizedAffinity>
-7.29325

> <CNNscore>
0.8888603449

> <CNNaffinity>
6.6777606010

> <CNN_VS>
5.9355964661

> <CNNaffinity_variance>
0.3550495803

$$$$
8814


 16 16  0  0  0  0  0  0  0  0999 V2000
   -7.5120   -3.8952   12.9713 C   0  0  0  0  0  0  0  0  0  0  0  0
   -6.4997   -4.2837   11.8506 C   0  0  0  0  0  0  0  0  0  0  0  0
   -7.7797   -2.3877   12.7531 C   0  0  0  0  0  0  0  0  0  0  0  0
   -4.9707   -5.1987   17.9205 O   0  0  0  0  0  0  0  0  0  0  0  0
   -6.8385   -4.2222   14.3127 C   0  0  0  0  0  0  0  0  0  0  0  0
   -5.4358   -4.3618   14.3846 C   0  0  0  0  0  0  0  0  0  0  0  0
   -7.5685   -4.4025   15.4996 C   0  0  0  0  0  0  0  0  0  0  0  0
   -4.7947   -4.6866   15.5830 C   0  0  0  0  0  0  0  0  0  0  0  0
   -6.9301   -4.7290   16.6982 C   0  0  0  0  0  0  0  0  0  0  0  0
   -5.5500   -4.8718   16.7300 C   0  0  0  0  0  0  0  0  0  0  0  0
   -4.0411   -5.3027   17.9763 H   0  0  0  0  0  0  0  0  0  0  0  0
   -8.8179   -4.7338   12.7264 C   0  0  0  0  0  0  0  0  0  0  0  0
   -9.8064   -4.4625   11.5414 C   0  0  0  0  0  0  0  0  0  0  0  0
  -11.0853   -3.8446   12.1604 C   0  0  0  0  0  0  0  0  0  0  0  0
  -10.2234   -5.7431   10.8045 C   0  0  0  0  0  0  0  0  0  0  0  0
   -9.2783   -3.4505   10.5126 C   0  0  0  0  0  0  0  0  0  0  0  0
  4 10  1  0
  4 11  1  0
  1 12  1  0
  1  5  1  0
  1  2  1  0
  1  3  1  0
 13 12  1  0
 13 14  1  0
 13 15  1  0
 13 16  1  0
  5  6  2  0
  5  7  1  0
  6  8  1  0
  7  9  2  0
  8 10  2  0
  9 10  1  0
M  END
> <PUBCHEM_COMPOUND_CID>
8814

> <PUBCHEM_CONFORMER_RMSD>
0.6

> <PUBCHEM_CONFORMER_DIVERSEORDER>
1
5
4
3
2

> <PUBCHEM_MMFF94_PARTIAL_CHARGES>
13
1 -0.53
11 -0.15
12 -0.15
13 -0.15
14 -0.15
15 0.08
2 0.14
33 0.15
34 0.15
35 0.15
36 0.15
37 0.45
5 -0.14

> <PUBCHEM_EFFECTIVE_ROTOR_COUNT>
3

> <PUBCHEM_PHARMACOPHORE_FEATURES>
4
1 1 donor
3 2 6 7 hydrophobe
4 3 8 9 10 hydrophobe
6 5 11 12 13 14 15 rings

> <PUBCHEM_HEAVY_ATOM_COUNT>
15

> <PUBCHEM_ATOM_DEF_STEREO_COUNT>
0

> <PUBCHEM_ATOM_UDEF_STEREO_COUNT>
0

> <PUBCHEM_BOND_DEF_STEREO_COUNT>
0

> <PUBCHEM_BOND_UDEF_STEREO_COUNT>
0

> <PUBCHEM_ISOTOPIC_ATOM_COUNT>
0

> <PUBCHEM_COMPONENT_COUNT>
1

> <PUBCHEM_CACTVS_TAUTO_COUNT>
2

> <PUBCHEM_CONFORMER_ID>
0000226E00000001

> <PUBCHEM_MMFF94_ENERGY>
60.6732

> <PUBCHEM_FEATURE_SELFOVERLAP>
20.297

> <PUBCHEM_SHAPE_FINGERPRINT>
1 1 18122065299635933247
11471102 22 13984658170435925480
12138202 97 18272929444633088966
12251169 10 14923953348599690641
12423570 1 15084294979065354379
124424 183 18201999928641116818
12491281 212 18273493468196309381
12532896 13 18409735040726507851
13299463 15 16200422598337566991
13538477 17 17822291326855117498
13764800 53 18335714831507604569
13839132 238 18413110537123213324
14817 1 11689340854733718479
15375462 478 15647061443078261877
15775835 57 18339078194495494345
16945 1 17988065786023185643
18186145 218 18200036118541666588
18534176 82 18271243927656786518
19837323 101 18335708272823803859
20525323 117 18337111292773698462
20645476 183 17894351081266785547
21296965 12 18260545576729377063
21501502 16 18271800211963701222
21524375 3 18339638928324873163
21947302 44 18059017168310697110
22802520 49 18199766781279703998
23402539 116 18267296706830970519
23419403 2 17194099544908694927
23557571 272 18198918083120765556
23559900 14 18342742906418193234
25 1 17845383149850037993
2748010 2 18262817159083630983
276578 36 18189342281366350763
305870 269 18040992882718168402
430814 3 18041565736850213531
549884 4 17416683544816290937
6333449 129 18343582975122638285
6442390 28 18269297706777891659
7364860 26 17834677097914689979
81228 2 18191593162379223291

> <PUBCHEM_SHAPE_MULTIPOLES>
302.82
5.29
2.15
1.39
2.11
0.81
0.13
-3.45
0.34
-1.29
-0.24
-0.12
0.26
0.01

> <PUBCHEM_SHAPE_SELFOVERLAP>
615.427

> <PUBCHEM_SHAPE_VOLUME>
178.4

> <PUBCHEM_COORDINATE_TYPE>
2
5
10

> <Energy>
46.4329

> <minimizedAffinity>
-7.15162

> <CNNscore>
0.8851132393

> <CNNaffinity>
6.6614909172

> <CNN_VS>
5.8961739540

> <CNNaffinity_variance>
0.3735280335

$$$$
8814


 16 16  0  0  0  0  0  0  0  0999 V2000
   -8.0194   -3.4654   12.9217 C   0  0  0  0  0  0  0  0  0  0  0  0
   -7.8602   -1.9214   12.7717 C   0  0  0  0  0  0  0  0  0  0  0  0
   -9.5386   -3.6872   13.1078 C   0  0  0  0  0  0  0  0  0  0  0  0
   -4.9149   -4.9476   17.4843 O   0  0  0  0  0  0  0  0  0  0  0  0
   -7.1739   -3.8846   14.1338 C   0  0  0  0  0  0  0  0  0  0  0  0
   -7.8040   -4.2798   15.3334 C   0  0  0  0  0  0  0  0  0  0  0  0
   -5.7690   -3.8859   14.1099 C   0  0  0  0  0  0  0  0  0  0  0  0
   -7.0641   -4.6397   16.4628 C   0  0  0  0  0  0  0  0  0  0  0  0
   -5.0273   -4.2435   15.2381 C   0  0  0  0  0  0  0  0  0  0  0  0
   -5.6796   -4.6139   16.4057 C   0  0  0  0  0  0  0  0  0  0  0  0
   -5.3239   -5.2023   18.2879 H   0  0  0  0  0  0  0  0  0  0  0  0
   -7.5220   -4.1145   11.5800 C   0  0  0  0  0  0  0  0  0  0  0  0
   -8.1314   -3.7693   10.1784 C   0  0  0  0  0  0  0  0  0  0  0  0
   -9.2914   -4.7681    9.9386 C   0  0  0  0  0  0  0  0  0  0  0  0
   -7.1279   -3.9440    9.0298 C   0  0  0  0  0  0  0  0  0  0  0  0
   -8.7363   -2.3591   10.0954 C   0  0  0  0  0  0  0  0  0  0  0  0
  4 10  1  0
  4 11  1  0
  1 12  1  0
  1  5  1  0
  1  2  1  0
  1  3  1  0
 13 12  1  0
 13 14  1  0
 13 15  1  0
 13 16  1  0
  5  6  2  0
  5  7  1  0
  6  8  1  0
  7  9  2  0
  8 10  2  0
  9 10  1  0
M  END
> <PUBCHEM_COMPOUND_CID>
8814

> <PUBCHEM_CONFORMER_RMSD>
0.6

> <PUBCHEM_CONFORMER_DIVERSEORDER>
1
5
4
3
2

> <PUBCHEM_MMFF94_PARTIAL_CHARGES>
13
1 -0.53
11 -0.15
12 -0.15
13 -0.15
14 -0.15
15 0.08
2 0.14
33 0.15
34 0.15
35 0.15
36 0.15
37 0.45
5 -0.14

> <PUBCHEM_EFFECTIVE_ROTOR_COUNT>
3

> <PUBCHEM_PHARMACOPHORE_FEATURES>
4
1 1 donor
3 2 6 7 hydrophobe
4 3 8 9 10 hydrophobe
6 5 11 12 13 14 15 rings

> <PUBCHEM_HEAVY_ATOM_COUNT>
15

> <PUBCHEM_ATOM_DEF_STEREO_COUNT>
0

> <PUBCHEM_ATOM_UDEF_STEREO_COUNT>
0

> <PUBCHEM_BOND_DEF_STEREO_COUNT>
0

> <PUBCHEM_BOND_UDEF_STEREO_COUNT>
0

> <PUBCHEM_ISOTOPIC_ATOM_COUNT>
0

> <PUBCHEM_COMPONENT_COUNT>
1

> <PUBCHEM_CACTVS_TAUTO_COUNT>
2

> <PUBCHEM_CONFORMER_ID>
0000226E00000001

> <PUBCHEM_MMFF94_ENERGY>
60.6732

> <PUBCHEM_FEATURE_SELFOVERLAP>
20.297

> <PUBCHEM_SHAPE_FINGERPRINT>
1 1 18122065299635933247
11471102 22 13984658170435925480
12138202 97 18272929444633088966
12251169 10 14923953348599690641
12423570 1 15084294979065354379
124424 183 18201999928641116818
12491281 212 18273493468196309381
12532896 13 18409735040726507851
13299463 15 16200422598337566991
13538477 17 17822291326855117498
13764800 53 18335714831507604569
13839132 238 18413110537123213324
14817 1 11689340854733718479
15375462 478 15647061443078261877
15775835 57 18339078194495494345
16945 1 17988065786023185643
18186145 218 18200036118541666588
18534176 82 18271243927656786518
19837323 101 18335708272823803859
20525323 117 18337111292773698462
20645476 183 17894351081266785547
21296965 12 18260545576729377063
21501502 16 18271800211963701222
21524375 3 18339638928324873163
21947302 44 18059017168310697110
22802520 49 18199766781279703998
23402539 116 18267296706830970519
23419403 2 17194099544908694927
23557571 272 18198918083120765556
23559900 14 18342742906418193234
25 1 17845383149850037993
2748010 2 18262817159083630983
276578 36 18189342281366350763
305870 269 18040992882718168402
430814 3 18041565736850213531
549884 4 17416683544816290937
6333449 129 18343582975122638285
6442390 28 18269297706777891659
7364860 26 17834677097914689979
81228 2 18191593162379223291

> <PUBCHEM_SHAPE_MULTIPOLES>
302.82
5.29
2.15
1.39
2.11
0.81
0.13
-3.45
0.34
-1.29
-0.24
-0.12
0.26
0.01

> <PUBCHEM_SHAPE_SELFOVERLAP>
615.427

> <PUBCHEM_SHAPE_VOLUME>
178.4

> <PUBCHEM_COORDINATE_TYPE>
2
5
10

> <Energy>
46.4329

> <minimizedAffinity>
-7.37099

> <CNNscore>
0.8775806427

> <CNNaffinity>
6.7349781990

> <CNN_VS>
5.9104866982

> <CNNaffinity_variance>
0.4967415333

$$$$
8814


 16 16  0  0  0  0  0  0  0  0999 V2000
   -7.8518   -4.8977   12.7138 C   0  0  0  0  0  0  0  0  0  0  0  0
   -7.1306   -4.0038   11.6591 C   0  0  0  0  0  0  0  0  0  0  0  0
   -9.2785   -4.3096   12.8170 C   0  0  0  0  0  0  0  0  0  0  0  0
   -4.7881   -4.6147   17.5289 O   0  0  0  0  0  0  0  0  0  0  0  0
   -7.0391   -4.7969   14.0134 C   0  0  0  0  0  0  0  0  0  0  0  0
   -5.6285   -4.8150   13.9690 C   0  0  0  0  0  0  0  0  0  0  0  0
   -7.6455   -4.6938   15.2767 C   0  0  0  0  0  0  0  0  0  0  0  0
   -4.8602   -4.7534   15.1345 C   0  0  0  0  0  0  0  0  0  0  0  0
   -6.8798   -4.6340   16.4432 C   0  0  0  0  0  0  0  0  0  0  0  0
   -5.4946   -4.6678   16.3637 C   0  0  0  0  0  0  0  0  0  0  0  0
   -3.8515   -4.6355   17.5103 H   0  0  0  0  0  0  0  0  0  0  0  0
   -7.8919   -6.3574   12.1336 C   0  0  0  0  0  0  0  0  0  0  0  0
   -7.0603   -6.8114   10.8857 C   0  0  0  0  0  0  0  0  0  0  0  0
   -7.8175   -6.2986    9.6349 C   0  0  0  0  0  0  0  0  0  0  0  0
   -6.9490   -8.3377   10.7635 C   0  0  0  0  0  0  0  0  0  0  0  0
   -5.6485   -6.2072   10.8280 C   0  0  0  0  0  0  0  0  0  0  0  0
  4 10  1  0
  4 11  1  0
  1 12  1  0
  1  5  1  0
  1  2  1  0
  1  3  1  0
 13 12  1  0
 13 14  1  0
 13 15  1  0
 13 16  1  0
  5  6  2  0
  5  7  1  0
  6  8  1  0
  7  9  2  0
  8 10  2  0
  9 10  1  0
M  END
> <PUBCHEM_COMPOUND_CID>
8814

> <PUBCHEM_CONFORMER_RMSD>
0.6

> <PUBCHEM_CONFORMER_DIVERSEORDER>
1
5
4
3
2

> <PUBCHEM_MMFF94_PARTIAL_CHARGES>
13
1 -0.53
11 -0.15
12 -0.15
13 -0.15
14 -0.15
15 0.08
2 0.14
33 0.15
34 0.15
35 0.15
36 0.15
37 0.45
5 -0.14

> <PUBCHEM_EFFECTIVE_ROTOR_COUNT>
3

> <PUBCHEM_PHARMACOPHORE_FEATURES>
4
1 1 donor
3 2 6 7 hydrophobe
4 3 8 9 10 hydrophobe
6 5 11 12 13 14 15 rings

> <PUBCHEM_HEAVY_ATOM_COUNT>
15

> <PUBCHEM_ATOM_DEF_STEREO_COUNT>
0

> <PUBCHEM_ATOM_UDEF_STEREO_COUNT>
0

> <PUBCHEM_BOND_DEF_STEREO_COUNT>
0

> <PUBCHEM_BOND_UDEF_STEREO_COUNT>
0

> <PUBCHEM_ISOTOPIC_ATOM_COUNT>
0

> <PUBCHEM_COMPONENT_COUNT>
1

> <PUBCHEM_CACTVS_TAUTO_COUNT>
2

> <PUBCHEM_CONFORMER_ID>
0000226E00000001

> <PUBCHEM_MMFF94_ENERGY>
60.6732

> <PUBCHEM_FEATURE_SELFOVERLAP>
20.297

> <PUBCHEM_SHAPE_FINGERPRINT>
1 1 18122065299635933247
11471102 22 13984658170435925480
12138202 97 18272929444633088966
12251169 10 14923953348599690641
12423570 1 15084294979065354379
124424 183 18201999928641116818
12491281 212 18273493468196309381
12532896 13 18409735040726507851
13299463 15 16200422598337566991
13538477 17 17822291326855117498
13764800 53 18335714831507604569
13839132 238 18413110537123213324
14817 1 11689340854733718479
15375462 478 15647061443078261877
15775835 57 18339078194495494345
16945 1 17988065786023185643
18186145 218 18200036118541666588
18534176 82 18271243927656786518
19837323 101 18335708272823803859
20525323 117 18337111292773698462
20645476 183 17894351081266785547
21296965 12 18260545576729377063
21501502 16 18271800211963701222
21524375 3 18339638928324873163
21947302 44 18059017168310697110
22802520 49 18199766781279703998
23402539 116 18267296706830970519
23419403 2 17194099544908694927
23557571 272 18198918083120765556
23559900 14 18342742906418193234
25 1 17845383149850037993
2748010 2 18262817159083630983
276578 36 18189342281366350763
305870 269 18040992882718168402
430814 3 18041565736850213531
549884 4 17416683544816290937
6333449 129 18343582975122638285
6442390 28 18269297706777891659
7364860 26 17834677097914689979
81228 2 18191593162379223291

> <PUBCHEM_SHAPE_MULTIPOLES>
302.82
5.29
2.15
1.39
2.11
0.81
0.13
-3.45
0.34
-1.29
-0.24
-0.12
0.26
0.01

> <PUBCHEM_SHAPE_SELFOVERLAP>
615.427

> <PUBCHEM_SHAPE_VOLUME>
178.4

> <PUBCHEM_COORDINATE_TYPE>
2
5
10

> <Energy>
46.4329

> <minimizedAffinity>
-7.36345

> <CNNscore>
0.8565664887

> <CNNaffinity>
6.5074830055

> <CNN_VS>
5.5740919113

> <CNNaffinity_variance>
0.2776614428

$$$$
8814


 16 16  0  0  0  0  0  0  0  0999 V2000
   -7.0547   -5.2213   11.5151 C   0  0  0  0  0  0  0  0  0  0  0  0
   -8.2138   -6.2484   11.3326 C   0  0  0  0  0  0  0  0  0  0  0  0
   -5.7889   -5.9682   11.0340 C   0  0  0  0  0  0  0  0  0  0  0  0
   -6.8703   -3.8619   17.0622 O   0  0  0  0  0  0  0  0  0  0  0  0
   -7.0276   -4.8402   13.0030 C   0  0  0  0  0  0  0  0  0  0  0  0
   -5.9147   -4.1565   13.5381 C   0  0  0  0  0  0  0  0  0  0  0  0
   -8.0780   -5.1541   13.8818 C   0  0  0  0  0  0  0  0  0  0  0  0
   -5.8463   -3.8203   14.8926 C   0  0  0  0  0  0  0  0  0  0  0  0
   -8.0111   -4.8208   15.2365 C   0  0  0  0  0  0  0  0  0  0  0  0
   -6.8955   -4.1603   15.7318 C   0  0  0  0  0  0  0  0  0  0  0  0
   -6.1318   -3.4164   17.4286 H   0  0  0  0  0  0  0  0  0  0  0  0
   -7.3687   -3.9982   10.5801 C   0  0  0  0  0  0  0  0  0  0  0  0
   -8.5679   -3.0181   10.8172 C   0  0  0  0  0  0  0  0  0  0  0  0
   -8.6619   -2.1166    9.5605 C   0  0  0  0  0  0  0  0  0  0  0  0
   -8.3594   -2.0991   12.0291 C   0  0  0  0  0  0  0  0  0  0  0  0
   -9.9260   -3.7229   10.9597 C   0  0  0  0  0  0  0  0  0  0  0  0
  4 10  1  0
  4 11  1  0
  1 12  1  0
  1  5  1  0
  1  2  1  0
  1  3  1  0
 13 12  1  0
 13 14  1  0
 13 15  1  0
 13 16  1  0
  5  6  2  0
  5  7  1  0
  6  8  1  0
  7  9  2  0
  8 10  2  0
  9 10  1  0
M  END
> <PUBCHEM_COMPOUND_CID>
8814

> <PUBCHEM_CONFORMER_RMSD>
0.6

> <PUBCHEM_CONFORMER_DIVERSEORDER>
1
5
4
3
2

> <PUBCHEM_MMFF94_PARTIAL_CHARGES>
13
1 -0.53
11 -0.15
12 -0.15
13 -0.15
14 -0.15
15 0.08
2 0.14
33 0.15
34 0.15
35 0.15
36 0.15
37 0.45
5 -0.14

> <PUBCHEM_EFFECTIVE_ROTOR_COUNT>
3

> <PUBCHEM_PHARMACOPHORE_FEATURES>
4
1 1 donor
3 2 6 7 hydrophobe
4 3 8 9 10 hydrophobe
6 5 11 12 13 14 15 rings

> <PUBCHEM_HEAVY_ATOM_COUNT>
15

> <PUBCHEM_ATOM_DEF_STEREO_COUNT>
0

> <PUBCHEM_ATOM_UDEF_STEREO_COUNT>
0

> <PUBCHEM_BOND_DEF_STEREO_COUNT>
0

> <PUBCHEM_BOND_UDEF_STEREO_COUNT>
0

> <PUBCHEM_ISOTOPIC_ATOM_COUNT>
0

> <PUBCHEM_COMPONENT_COUNT>
1

> <PUBCHEM_CACTVS_TAUTO_COUNT>
2

> <PUBCHEM_CONFORMER_ID>
0000226E00000001

> <PUBCHEM_MMFF94_ENERGY>
60.6732

> <PUBCHEM_FEATURE_SELFOVERLAP>
20.297

> <PUBCHEM_SHAPE_FINGERPRINT>
1 1 18122065299635933247
11471102 22 13984658170435925480
12138202 97 18272929444633088966
12251169 10 14923953348599690641
12423570 1 15084294979065354379
124424 183 18201999928641116818
12491281 212 18273493468196309381
12532896 13 18409735040726507851
13299463 15 16200422598337566991
13538477 17 17822291326855117498
13764800 53 18335714831507604569
13839132 238 18413110537123213324
14817 1 11689340854733718479
15375462 478 15647061443078261877
15775835 57 18339078194495494345
16945 1 17988065786023185643
18186145 218 18200036118541666588
18534176 82 18271243927656786518
19837323 101 18335708272823803859
20525323 117 18337111292773698462
20645476 183 17894351081266785547
21296965 12 18260545576729377063
21501502 16 18271800211963701222
21524375 3 18339638928324873163
21947302 44 18059017168310697110
22802520 49 18199766781279703998
23402539 116 18267296706830970519
23419403 2 17194099544908694927
23557571 272 18198918083120765556
23559900 14 18342742906418193234
25 1 17845383149850037993
2748010 2 18262817159083630983
276578 36 18189342281366350763
305870 269 18040992882718168402
430814 3 18041565736850213531
549884 4 17416683544816290937
6333449 129 18343582975122638285
6442390 28 18269297706777891659
7364860 26 17834677097914689979
81228 2 18191593162379223291

> <PUBCHEM_SHAPE_MULTIPOLES>
302.82
5.29
2.15
1.39
2.11
0.81
0.13
-3.45
0.34
-1.29
-0.24
-0.12
0.26
0.01

> <PUBCHEM_SHAPE_SELFOVERLAP>
615.427

> <PUBCHEM_SHAPE_VOLUME>
178.4

> <PUBCHEM_COORDINATE_TYPE>
2
5
10

> <Energy>
46.4329

> <minimizedAffinity>
-7.19256

> <CNNscore>
0.8144519925

> <CNNaffinity>
6.6770243645

> <CNN_VS>
5.4381155968

> <CNNaffinity_variance>
0.6339153051

$$$$
8814


 16 16  0  0  0  0  0  0  0  0999 V2000
   -7.0330   -5.2495   11.5387 C   0  0  0  0  0  0  0  0  0  0  0  0
   -8.2202   -6.2481   11.3807 C   0  0  0  0  0  0  0  0  0  0  0  0
   -5.7960   -6.0268   11.0314 C   0  0  0  0  0  0  0  0  0  0  0  0
   -6.8654   -3.7785   17.0578 O   0  0  0  0  0  0  0  0  0  0  0  0
   -6.9655   -4.8696   13.0256 C   0  0  0  0  0  0  0  0  0  0  0  0
   -8.0322   -5.1991   13.8892 C   0  0  0  0  0  0  0  0  0  0  0  0
   -5.8710   -4.1856   13.5809 C   0  0  0  0  0  0  0  0  0  0  0  0
   -8.0146   -4.8433   15.2404 C   0  0  0  0  0  0  0  0  0  0  0  0
   -5.8519   -3.8272   14.9307 C   0  0  0  0  0  0  0  0  0  0  0  0
   -6.9242   -4.1553   15.7485 C   0  0  0  0  0  0  0  0  0  0  0  0
   -7.5728   -3.9845   17.6368 H   0  0  0  0  0  0  0  0  0  0  0  0
   -7.3367   -4.0189   10.6102 C   0  0  0  0  0  0  0  0  0  0  0  0
   -8.5453   -3.0474   10.8352 C   0  0  0  0  0  0  0  0  0  0  0  0
   -8.6448   -2.1592    9.5696 C   0  0  0  0  0  0  0  0  0  0  0  0
   -8.3478   -2.1148   12.0385 C   0  0  0  0  0  0  0  0  0  0  0  0
   -9.8973   -3.7632   10.9818 C   0  0  0  0  0  0  0  0  0  0  0  0
  4 10  1  0
  4 11  1  0
  1 12  1  0
  1  5  1  0
  1  2  1  0
  1  3  1  0
 13 12  1  0
 13 14  1  0
 13 15  1  0
 13 16  1  0
  5  6  2  0
  5  7  1  0
  6  8  1  0
  7  9  2  0
  8 10  2  0
  9 10  1  0
M  END
> <PUBCHEM_COMPOUND_CID>
8814

> <PUBCHEM_CONFORMER_RMSD>
0.6

> <PUBCHEM_CONFORMER_DIVERSEORDER>
1
5
4
3
2

> <PUBCHEM_MMFF94_PARTIAL_CHARGES>
13
1 -0.53
11 -0.15
12 -0.15
13 -0.15
14 -0.15
15 0.08
2 0.14
33 0.15
34 0.15
35 0.15
36 0.15
37 0.45
5 -0.14

> <PUBCHEM_EFFECTIVE_ROTOR_COUNT>
3

> <PUBCHEM_PHARMACOPHORE_FEATURES>
4
1 1 donor
3 2 6 7 hydrophobe
4 3 8 9 10 hydrophobe
6 5 11 12 13 14 15 rings

> <PUBCHEM_HEAVY_ATOM_COUNT>
15

> <PUBCHEM_ATOM_DEF_STEREO_COUNT>
0

> <PUBCHEM_ATOM_UDEF_STEREO_COUNT>
0

> <PUBCHEM_BOND_DEF_STEREO_COUNT>
0

> <PUBCHEM_BOND_UDEF_STEREO_COUNT>
0

> <PUBCHEM_ISOTOPIC_ATOM_COUNT>
0

> <PUBCHEM_COMPONENT_COUNT>
1

> <PUBCHEM_CACTVS_TAUTO_COUNT>
2

> <PUBCHEM_CONFORMER_ID>
0000226E00000001

> <PUBCHEM_MMFF94_ENERGY>
60.6732

> <PUBCHEM_FEATURE_SELFOVERLAP>
20.297

> <PUBCHEM_SHAPE_FINGERPRINT>
1 1 18122065299635933247
11471102 22 13984658170435925480
12138202 97 18272929444633088966
12251169 10 14923953348599690641
12423570 1 15084294979065354379
124424 183 18201999928641116818
12491281 212 18273493468196309381
12532896 13 18409735040726507851
13299463 15 16200422598337566991
13538477 17 17822291326855117498
13764800 53 18335714831507604569
13839132 238 18413110537123213324
14817 1 11689340854733718479
15375462 478 15647061443078261877
15775835 57 18339078194495494345
16945 1 17988065786023185643
18186145 218 18200036118541666588
18534176 82 18271243927656786518
19837323 101 18335708272823803859
20525323 117 18337111292773698462
20645476 183 17894351081266785547
21296965 12 18260545576729377063
21501502 16 18271800211963701222
21524375 3 18339638928324873163
21947302 44 18059017168310697110
22802520 49 18199766781279703998
23402539 116 18267296706830970519
23419403 2 17194099544908694927
23557571 272 18198918083120765556
23559900 14 18342742906418193234
25 1 17845383149850037993
2748010 2 18262817159083630983
276578 36 18189342281366350763
305870 269 18040992882718168402
430814 3 18041565736850213531
549884 4 17416683544816290937
6333449 129 18343582975122638285
6442390 28 18269297706777891659
7364860 26 17834677097914689979
81228 2 18191593162379223291

> <PUBCHEM_SHAPE_MULTIPOLES>
302.82
5.29
2.15
1.39
2.11
0.81
0.13
-3.45
0.34
-1.29
-0.24
-0.12
0.26
0.01

> <PUBCHEM_SHAPE_SELFOVERLAP>
615.427

> <PUBCHEM_SHAPE_VOLUME>
178.4

> <PUBCHEM_COORDINATE_TYPE>
2
5
10

> <Energy>
46.4329

> <minimizedAffinity>
-7.17678

> <CNNscore>
0.7962906957

> <CNNaffinity>
6.6682415009

> <CNN_VS>
5.3098587990

> <CNNaffinity_variance>
0.5763158202

$$$$
