2519


 14 15  0  0  0  0  0  0  0  0999 V2000
   -4.9887   -5.8162   20.2441 O   0  0  0  0  0  0  0  0  0  0  0  0
   -8.4791   -5.2388   23.2306 O   0  0  0  0  0  0  0  0  0  0  0  0
   -6.4657   -4.2317   23.7182 N   0  0  0  0  0  0  0  0  0  0  0  0
   -3.3780   -4.1192   22.1063 N   0  0  0  0  0  0  0  0  0  0  0  0
   -6.7552   -5.5395   21.7303 N   0  0  0  0  0  0  0  0  0  0  0  0
   -4.2320   -3.2822   23.9821 N   0  0  0  0  0  0  0  0  0  0  0  0
   -4.6748   -4.5422   22.1632 C   0  0  0  0  0  0  0  0  0  0  0  0
   -5.1677   -4.0159   23.3180 C   0  0  0  0  0  0  0  0  0  0  0  0
   -5.4445   -5.3480   21.2829 C   0  0  0  0  0  0  0  0  0  0  0  0
   -7.3053   -5.0127   22.9197 C   0  0  0  0  0  0  0  0  0  0  0  0
   -3.1549   -3.3614   23.2256 C   0  0  0  0  0  0  0  0  0  0  0  0
   -6.9491   -3.6500   24.9583 C   0  0  0  0  0  0  0  0  0  0  0  0
   -2.4196   -4.4091   21.0705 C   0  0  0  0  0  0  0  0  0  0  0  0
   -7.6385   -6.3471   20.9113 C   0  0  0  0  0  0  0  0  0  0  0  0
  1  9  2  0
  2 10  2  0
  3  8  1  0
  3 10  1  0
  3 12  1  0
  4  7  1  0
  4 11  1  0
  4 13  1  0
  5  9  1  0
  5 10  1  0
  5 14  1  0
  6  8  1  0
  6 11  2  0
  7  8  2  0
  7  9  1  0
M  END
> <PUBCHEM_COMPOUND_CID>
2519

> <PUBCHEM_CONFORMER_RMSD>
0.4

> <PUBCHEM_CONFORMER_DIVERSEORDER>
1

> <PUBCHEM_MMFF94_PARTIAL_CHARGES>
15
1 -0.57
10 0.69
11 0.04
12 0.3
13 0.26
14 0.3
15 0.15
2 -0.57
3 -0.42
4 0.05
5 -0.42
6 -0.57
7 -0.24
8 0.29
9 0.71

> <PUBCHEM_EFFECTIVE_ROTOR_COUNT>
0

> <PUBCHEM_PHARMACOPHORE_FEATURES>
5
1 1 acceptor
1 2 acceptor
3 4 6 11 cation
5 4 6 7 8 11 rings
6 3 5 7 8 9 10 rings

> <PUBCHEM_HEAVY_ATOM_COUNT>
14

> <PUBCHEM_ATOM_DEF_STEREO_COUNT>
0

> <PUBCHEM_ATOM_UDEF_STEREO_COUNT>
0

> <PUBCHEM_BOND_DEF_STEREO_COUNT>
0

> <PUBCHEM_BOND_UDEF_STEREO_COUNT>
0

> <PUBCHEM_ISOTOPIC_ATOM_COUNT>
0

> <PUBCHEM_COMPONENT_COUNT>
1

> <PUBCHEM_CACTVS_TAUTO_COUNT>
1

> <PUBCHEM_CONFORMER_ID>
000009D700000001

> <PUBCHEM_MMFF94_ENERGY>
22.901

> <PUBCHEM_FEATURE_SELFOVERLAP>
25.487

> <PUBCHEM_SHAPE_FINGERPRINT>
10967382 1 18338799025773621285
11132069 177 18339075025094499008
12524768 44 18342463625094026902
13140716 1 17978511158789908153
16945 1 18338517550775811621
193761 8 15816500986559935910
20588541 1 18339082691204868851
21501502 16 18338796715286957384
22802520 49 18128840606503503494
2334 1 18338516344016692929
23402539 116 18270382932679789735
23552423 10 18262240993325675966
23559900 14 18199193898169584358
241688 4 18266458702623303353
2748010 2 18266180539182415717
5084963 1 17698433339235542986
528886 8 18267580380709240570
53812653 166 18198902694142226312
66348 1 18339079396917369615

> <PUBCHEM_SHAPE_MULTIPOLES>
256.45
4.01
2.83
0.58
0.71
0.08
0
-0.48
0
-0.81
0
0.01
0
0

> <PUBCHEM_SHAPE_SELFOVERLAP>
550.88

> <PUBCHEM_SHAPE_VOLUME>
143.9

> <PUBCHEM_COORDINATE_TYPE>
2
5
10

> <Energy>
-122.511

> <minimizedAffinity>
-5.54485

> <CNNscore>
0.6274066567

> <CNNaffinity>
5.0733127594

> <CNN_VS>
3.1830301285

> <CNNaffinity_variance>
0.4378666878

$$$$
2519


 14 15  0  0  0  0  0  0  0  0999 V2000
   -5.7405   -2.6133   23.9691 O   0  0  0  0  0  0  0  0  0  0  0  0
   -7.9225   -6.6831   23.6364 O   0  0  0  0  0  0  0  0  0  0  0  0
   -5.8356   -6.4977   22.6793 N   0  0  0  0  0  0  0  0  0  0  0  0
   -3.5202   -3.9043   22.4376 N   0  0  0  0  0  0  0  0  0  0  0  0
   -6.8545   -4.6482   23.8138 N   0  0  0  0  0  0  0  0  0  0  0  0
   -3.6240   -6.0211   21.7615 N   0  0  0  0  0  0  0  0  0  0  0  0
   -4.7249   -4.3870   22.8615 C   0  0  0  0  0  0  0  0  0  0  0  0
   -4.7581   -5.6791   22.4336 C   0  0  0  0  0  0  0  0  0  0  0  0
   -5.7827   -3.7791   23.5882 C   0  0  0  0  0  0  0  0  0  0  0  0
   -6.9290   -5.9928   23.3878 C   0  0  0  0  0  0  0  0  0  0  0  0
   -2.8897   -4.9261   21.7778 C   0  0  0  0  0  0  0  0  0  0  0  0
   -5.8277   -7.8702   22.2039 C   0  0  0  0  0  0  0  0  0  0  0  0
   -3.0023   -2.5755   22.6409 C   0  0  0  0  0  0  0  0  0  0  0  0
   -7.9959   -4.1383   24.5488 C   0  0  0  0  0  0  0  0  0  0  0  0
  1  9  2  0
  2 10  2  0
  3  8  1  0
  3 10  1  0
  3 12  1  0
  4  7  1  0
  4 11  1  0
  4 13  1  0
  5  9  1  0
  5 10  1  0
  5 14  1  0
  6  8  1  0
  6 11  2  0
  7  8  2  0
  7  9  1  0
M  END
> <PUBCHEM_COMPOUND_CID>
2519

> <PUBCHEM_CONFORMER_RMSD>
0.4

> <PUBCHEM_CONFORMER_DIVERSEORDER>
1

> <PUBCHEM_MMFF94_PARTIAL_CHARGES>
15
1 -0.57
10 0.69
11 0.04
12 0.3
13 0.26
14 0.3
15 0.15
2 -0.57
3 -0.42
4 0.05
5 -0.42
6 -0.57
7 -0.24
8 0.29
9 0.71

> <PUBCHEM_EFFECTIVE_ROTOR_COUNT>
0

> <PUBCHEM_PHARMACOPHORE_FEATURES>
5
1 1 acceptor
1 2 acceptor
3 4 6 11 cation
5 4 6 7 8 11 rings
6 3 5 7 8 9 10 rings

> <PUBCHEM_HEAVY_ATOM_COUNT>
14

> <PUBCHEM_ATOM_DEF_STEREO_COUNT>
0

> <PUBCHEM_ATOM_UDEF_STEREO_COUNT>
0

> <PUBCHEM_BOND_DEF_STEREO_COUNT>
0

> <PUBCHEM_BOND_UDEF_STEREO_COUNT>
0

> <PUBCHEM_ISOTOPIC_ATOM_COUNT>
0

> <PUBCHEM_COMPONENT_COUNT>
1

> <PUBCHEM_CACTVS_TAUTO_COUNT>
1

> <PUBCHEM_CONFORMER_ID>
000009D700000001

> <PUBCHEM_MMFF94_ENERGY>
22.901

> <PUBCHEM_FEATURE_SELFOVERLAP>
25.487

> <PUBCHEM_SHAPE_FINGERPRINT>
10967382 1 18338799025773621285
11132069 177 18339075025094499008
12524768 44 18342463625094026902
13140716 1 17978511158789908153
16945 1 18338517550775811621
193761 8 15816500986559935910
20588541 1 18339082691204868851
21501502 16 18338796715286957384
22802520 49 18128840606503503494
2334 1 18338516344016692929
23402539 116 18270382932679789735
23552423 10 18262240993325675966
23559900 14 18199193898169584358
241688 4 18266458702623303353
2748010 2 18266180539182415717
5084963 1 17698433339235542986
528886 8 18267580380709240570
53812653 166 18198902694142226312
66348 1 18339079396917369615

> <PUBCHEM_SHAPE_MULTIPOLES>
256.45
4.01
2.83
0.58
0.71
0.08
0
-0.48
0
-0.81
0
0.01
0
0

> <PUBCHEM_SHAPE_SELFOVERLAP>
550.88

> <PUBCHEM_SHAPE_VOLUME>
143.9

> <PUBCHEM_COORDINATE_TYPE>
2
5
10

> <Energy>
-122.511

> <minimizedAffinity>
-5.57916

> <CNNscore>
0.5563693643

> <CNNaffinity>
5.0951638222

> <CNN_VS>
2.8347930908

> <CNNaffinity_variance>
0.1173862442

$$$$
2519


 14 15  0  0  0  0  0  0  0  0999 V2000
   -7.3926   -6.1361   23.8596 O   0  0  0  0  0  0  0  0  0  0  0  0
   -5.6468   -1.8494   23.9655 O   0  0  0  0  0  0  0  0  0  0  0  0
   -4.4320   -3.4814   22.8856 N   0  0  0  0  0  0  0  0  0  0  0  0
   -4.9411   -6.8820   22.3182 N   0  0  0  0  0  0  0  0  0  0  0  0
   -6.5345   -3.9762   23.9251 N   0  0  0  0  0  0  0  0  0  0  0  0
   -3.3627   -5.3974   21.8150 N   0  0  0  0  0  0  0  0  0  0  0  0
   -5.3505   -5.6896   22.8421 C   0  0  0  0  0  0  0  0  0  0  0  0
   -4.3671   -4.8054   22.5189 C   0  0  0  0  0  0  0  0  0  0  0  0
   -6.5125   -5.3296   23.5749 C   0  0  0  0  0  0  0  0  0  0  0  0
   -5.5369   -3.0272   23.6104 C   0  0  0  0  0  0  0  0  0  0  0  0
   -3.7356   -6.6575   21.7073 C   0  0  0  0  0  0  0  0  0  0  0  0
   -3.3594   -2.5732   22.5186 C   0  0  0  0  0  0  0  0  0  0  0  0
   -5.6373   -8.1412   22.3891 C   0  0  0  0  0  0  0  0  0  0  0  0
   -7.6756   -3.4902   24.6767 C   0  0  0  0  0  0  0  0  0  0  0  0
  1  9  2  0
  2 10  2  0
  3  8  1  0
  3 10  1  0
  3 12  1  0
  4  7  1  0
  4 11  1  0
  4 13  1  0
  5  9  1  0
  5 10  1  0
  5 14  1  0
  6  8  1  0
  6 11  2  0
  7  8  2  0
  7  9  1  0
M  END
> <PUBCHEM_COMPOUND_CID>
2519

> <PUBCHEM_CONFORMER_RMSD>
0.4

> <PUBCHEM_CONFORMER_DIVERSEORDER>
1

> <PUBCHEM_MMFF94_PARTIAL_CHARGES>
15
1 -0.57
10 0.69
11 0.04
12 0.3
13 0.26
14 0.3
15 0.15
2 -0.57
3 -0.42
4 0.05
5 -0.42
6 -0.57
7 -0.24
8 0.29
9 0.71

> <PUBCHEM_EFFECTIVE_ROTOR_COUNT>
0

> <PUBCHEM_PHARMACOPHORE_FEATURES>
5
1 1 acceptor
1 2 acceptor
3 4 6 11 cation
5 4 6 7 8 11 rings
6 3 5 7 8 9 10 rings

> <PUBCHEM_HEAVY_ATOM_COUNT>
14

> <PUBCHEM_ATOM_DEF_STEREO_COUNT>
0

> <PUBCHEM_ATOM_UDEF_STEREO_COUNT>
0

> <PUBCHEM_BOND_DEF_STEREO_COUNT>
0

> <PUBCHEM_BOND_UDEF_STEREO_COUNT>
0

> <PUBCHEM_ISOTOPIC_ATOM_COUNT>
0

> <PUBCHEM_COMPONENT_COUNT>
1

> <PUBCHEM_CACTVS_TAUTO_COUNT>
1

> <PUBCHEM_CONFORMER_ID>
000009D700000001

> <PUBCHEM_MMFF94_ENERGY>
22.901

> <PUBCHEM_FEATURE_SELFOVERLAP>
25.487

> <PUBCHEM_SHAPE_FINGERPRINT>
10967382 1 18338799025773621285
11132069 177 18339075025094499008
12524768 44 18342463625094026902
13140716 1 17978511158789908153
16945 1 18338517550775811621
193761 8 15816500986559935910
20588541 1 18339082691204868851
21501502 16 18338796715286957384
22802520 49 18128840606503503494
2334 1 18338516344016692929
23402539 116 18270382932679789735
23552423 10 18262240993325675966
23559900 14 18199193898169584358
241688 4 18266458702623303353
2748010 2 18266180539182415717
5084963 1 17698433339235542986
528886 8 18267580380709240570
53812653 166 18198902694142226312
66348 1 18339079396917369615

> <PUBCHEM_SHAPE_MULTIPOLES>
256.45
4.01
2.83
0.58
0.71
0.08
0
-0.48
0
-0.81
0
0.01
0
0

> <PUBCHEM_SHAPE_SELFOVERLAP>
550.88

> <PUBCHEM_SHAPE_VOLUME>
143.9

> <PUBCHEM_COORDINATE_TYPE>
2
5
10

> <Energy>
-122.511

> <minimizedAffinity>
-5.42209

> <CNNscore>
0.5062713027

> <CNNaffinity>
5.2481541634

> <CNN_VS>
2.6569898129

> <CNNaffinity_variance>
0.0695809796

$$$$
2519


 14 15  0  0  0  0  0  0  0  0999 V2000
   -5.4794   -2.6786   24.4144 O   0  0  0  0  0  0  0  0  0  0  0  0
   -8.7395   -5.2564   22.3743 O   0  0  0  0  0  0  0  0  0  0  0  0
   -6.7908   -4.8643   21.2106 N   0  0  0  0  0  0  0  0  0  0  0  0
   -3.8757   -3.0931   21.9247 N   0  0  0  0  0  0  0  0  0  0  0  0
   -7.1303   -3.9705   23.4087 N   0  0  0  0  0  0  0  0  0  0  0  0
   -4.6372   -4.2921   20.2128 N   0  0  0  0  0  0  0  0  0  0  0  0
   -5.1190   -3.5300   22.2813 C   0  0  0  0  0  0  0  0  0  0  0  0
   -5.5566   -4.2574   21.2169 C   0  0  0  0  0  0  0  0  0  0  0  0
   -5.8854   -3.3362   23.4610 C   0  0  0  0  0  0  0  0  0  0  0  0
   -7.6219   -4.7329   22.3261 C   0  0  0  0  0  0  0  0  0  0  0  0
   -3.6268   -3.5775   20.6677 C   0  0  0  0  0  0  0  0  0  0  0  0
   -7.2164   -5.6312   20.0527 C   0  0  0  0  0  0  0  0  0  0  0  0
   -2.9875   -2.2779   22.7134 C   0  0  0  0  0  0  0  0  0  0  0  0
   -8.0032   -3.8438   24.5598 C   0  0  0  0  0  0  0  0  0  0  0  0
  1  9  2  0
  2 10  2  0
  3  8  1  0
  3 10  1  0
  3 12  1  0
  4  7  1  0
  4 11  1  0
  4 13  1  0
  5  9  1  0
  5 10  1  0
  5 14  1  0
  6  8  1  0
  6 11  2  0
  7  8  2  0
  7  9  1  0
M  END
> <PUBCHEM_COMPOUND_CID>
2519

> <PUBCHEM_CONFORMER_RMSD>
0.4

> <PUBCHEM_CONFORMER_DIVERSEORDER>
1

> <PUBCHEM_MMFF94_PARTIAL_CHARGES>
15
1 -0.57
10 0.69
11 0.04
12 0.3
13 0.26
14 0.3
15 0.15
2 -0.57
3 -0.42
4 0.05
5 -0.42
6 -0.57
7 -0.24
8 0.29
9 0.71

> <PUBCHEM_EFFECTIVE_ROTOR_COUNT>
0

> <PUBCHEM_PHARMACOPHORE_FEATURES>
5
1 1 acceptor
1 2 acceptor
3 4 6 11 cation
5 4 6 7 8 11 rings
6 3 5 7 8 9 10 rings

> <PUBCHEM_HEAVY_ATOM_COUNT>
14

> <PUBCHEM_ATOM_DEF_STEREO_COUNT>
0

> <PUBCHEM_ATOM_UDEF_STEREO_COUNT>
0

> <PUBCHEM_BOND_DEF_STEREO_COUNT>
0

> <PUBCHEM_BOND_UDEF_STEREO_COUNT>
0

> <PUBCHEM_ISOTOPIC_ATOM_COUNT>
0

> <PUBCHEM_COMPONENT_COUNT>
1

> <PUBCHEM_CACTVS_TAUTO_COUNT>
1

> <PUBCHEM_CONFORMER_ID>
000009D700000001

> <PUBCHEM_MMFF94_ENERGY>
22.901

> <PUBCHEM_FEATURE_SELFOVERLAP>
25.487

> <PUBCHEM_SHAPE_FINGERPRINT>
10967382 1 18338799025773621285
11132069 177 18339075025094499008
12524768 44 18342463625094026902
13140716 1 17978511158789908153
16945 1 18338517550775811621
193761 8 15816500986559935910
20588541 1 18339082691204868851
21501502 16 18338796715286957384
22802520 49 18128840606503503494
2334 1 18338516344016692929
23402539 116 18270382932679789735
23552423 10 18262240993325675966
23559900 14 18199193898169584358
241688 4 18266458702623303353
2748010 2 18266180539182415717
5084963 1 17698433339235542986
528886 8 18267580380709240570
53812653 166 18198902694142226312
66348 1 18339079396917369615

> <PUBCHEM_SHAPE_MULTIPOLES>
256.45
4.01
2.83
0.58
0.71
0.08
0
-0.48
0
-0.81
0
0.01
0
0

> <PUBCHEM_SHAPE_SELFOVERLAP>
550.88

> <PUBCHEM_SHAPE_VOLUME>
143.9

> <PUBCHEM_COORDINATE_TYPE>
2
5
10

> <Energy>
-122.511

> <minimizedAffinity>
-5.68126

> <CNNscore>
0.4304722846

> <CNNaffinity>
5.1270756721

> <CNN_VS>
2.2070639133

> <CNNaffinity_variance>
0.1265422851

$$$$
2519


 14 15  0  0  0  0  0  0  0  0999 V2000
   -4.7073   -4.4765   20.2156 O   0  0  0  0  0  0  0  0  0  0  0  0
   -8.7842   -5.3185   22.2418 O   0  0  0  0  0  0  0  0  0  0  0  0
   -7.2514   -4.0421   23.3936 N   0  0  0  0  0  0  0  0  0  0  0  0
   -4.0261   -2.9299   22.6825 N   0  0  0  0  0  0  0  0  0  0  0  0
   -6.7612   -4.9120   21.2145 N   0  0  0  0  0  0  0  0  0  0  0  0
   -5.4482   -2.7250   24.3808 N   0  0  0  0  0  0  0  0  0  0  0  0
   -5.1510   -3.6187   22.3302 C   0  0  0  0  0  0  0  0  0  0  0  0
   -5.9984   -3.4750   23.3861 C   0  0  0  0  0  0  0  0  0  0  0  0
   -5.4799   -4.3549   21.1613 C   0  0  0  0  0  0  0  0  0  0  0  0
   -7.6701   -4.7875   22.2884 C   0  0  0  0  0  0  0  0  0  0  0  0
   -4.2511   -2.4072   23.9287 C   0  0  0  0  0  0  0  0  0  0  0  0
   -8.1224   -3.8625   24.5421 C   0  0  0  0  0  0  0  0  0  0  0  0
   -2.8266   -2.7764   21.8996 C   0  0  0  0  0  0  0  0  0  0  0  0
   -7.2098   -5.6873   20.0740 C   0  0  0  0  0  0  0  0  0  0  0  0
  1  9  2  0
  2 10  2  0
  3  8  1  0
  3 10  1  0
  3 12  1  0
  4  7  1  0
  4 11  1  0
  4 13  1  0
  5  9  1  0
  5 10  1  0
  5 14  1  0
  6  8  1  0
  6 11  2  0
  7  8  2  0
  7  9  1  0
M  END
> <PUBCHEM_COMPOUND_CID>
2519

> <PUBCHEM_CONFORMER_RMSD>
0.4

> <PUBCHEM_CONFORMER_DIVERSEORDER>
1

> <PUBCHEM_MMFF94_PARTIAL_CHARGES>
15
1 -0.57
10 0.69
11 0.04
12 0.3
13 0.26
14 0.3
15 0.15
2 -0.57
3 -0.42
4 0.05
5 -0.42
6 -0.57
7 -0.24
8 0.29
9 0.71

> <PUBCHEM_EFFECTIVE_ROTOR_COUNT>
0

> <PUBCHEM_PHARMACOPHORE_FEATURES>
5
1 1 acceptor
1 2 acceptor
3 4 6 11 cation
5 4 6 7 8 11 rings
6 3 5 7 8 9 10 rings

> <PUBCHEM_HEAVY_ATOM_COUNT>
14

> <PUBCHEM_ATOM_DEF_STEREO_COUNT>
0

> <PUBCHEM_ATOM_UDEF_STEREO_COUNT>
0

> <PUBCHEM_BOND_DEF_STEREO_COUNT>
0

> <PUBCHEM_BOND_UDEF_STEREO_COUNT>
0

> <PUBCHEM_ISOTOPIC_ATOM_COUNT>
0

> <PUBCHEM_COMPONENT_COUNT>
1

> <PUBCHEM_CACTVS_TAUTO_COUNT>
1

> <PUBCHEM_CONFORMER_ID>
000009D700000001

> <PUBCHEM_MMFF94_ENERGY>
22.901

> <PUBCHEM_FEATURE_SELFOVERLAP>
25.487

> <PUBCHEM_SHAPE_FINGERPRINT>
10967382 1 18338799025773621285
11132069 177 18339075025094499008
12524768 44 18342463625094026902
13140716 1 17978511158789908153
16945 1 18338517550775811621
193761 8 15816500986559935910
20588541 1 18339082691204868851
21501502 16 18338796715286957384
22802520 49 18128840606503503494
2334 1 18338516344016692929
23402539 116 18270382932679789735
23552423 10 18262240993325675966
23559900 14 18199193898169584358
241688 4 18266458702623303353
2748010 2 18266180539182415717
5084963 1 17698433339235542986
528886 8 18267580380709240570
53812653 166 18198902694142226312
66348 1 18339079396917369615

> <PUBCHEM_SHAPE_MULTIPOLES>
256.45
4.01
2.83
0.58
0.71
0.08
0
-0.48
0
-0.81
0
0.01
0
0

> <PUBCHEM_SHAPE_SELFOVERLAP>
550.88

> <PUBCHEM_SHAPE_VOLUME>
143.9

> <PUBCHEM_COORDINATE_TYPE>
2
5
10

> <Energy>
-122.511

> <minimizedAffinity>
-5.64646

> <CNNscore>
0.4174373150

> <CNNaffinity>
4.9874229431

> <CNN_VS>
2.0819363594

> <CNNaffinity_variance>
0.0801355317

$$$$
2519


 14 15  0  0  0  0  0  0  0  0999 V2000
   -5.5784   -2.7693   24.0259 O   0  0  0  0  0  0  0  0  0  0  0  0
   -2.7940   -5.4400   21.4665 O   0  0  0  0  0  0  0  0  0  0  0  0
   -4.8254   -6.3109   22.1151 N   0  0  0  0  0  0  0  0  0  0  0  0
   -7.4859   -5.0719   23.9943 N   0  0  0  0  0  0  0  0  0  0  0  0
   -4.1641   -4.0933   22.7402 N   0  0  0  0  0  0  0  0  0  0  0  0
   -7.0258   -6.9750   22.9382 N   0  0  0  0  0  0  0  0  0  0  0  0
   -6.2494   -4.9158   23.4371 C   0  0  0  0  0  0  0  0  0  0  0  0
   -5.9974   -6.0928   22.8009 C   0  0  0  0  0  0  0  0  0  0  0  0
   -5.3392   -3.8258   23.4491 C   0  0  0  0  0  0  0  0  0  0  0  0
   -3.8637   -5.2984   22.0676 C   0  0  0  0  0  0  0  0  0  0  0  0
   -7.9161   -6.3308   23.6670 C   0  0  0  0  0  0  0  0  0  0  0  0
   -4.5992   -7.5826   21.4506 C   0  0  0  0  0  0  0  0  0  0  0  0
   -8.2086   -4.1032   24.7783 C   0  0  0  0  0  0  0  0  0  0  0  0
   -3.1573   -3.0512   22.6814 C   0  0  0  0  0  0  0  0  0  0  0  0
  1  9  2  0
  2 10  2  0
  3  8  1  0
  3 10  1  0
  3 12  1  0
  4  7  1  0
  4 11  1  0
  4 13  1  0
  5  9  1  0
  5 10  1  0
  5 14  1  0
  6  8  1  0
  6 11  2  0
  7  8  2  0
  7  9  1  0
M  END
> <PUBCHEM_COMPOUND_CID>
2519

> <PUBCHEM_CONFORMER_RMSD>
0.4

> <PUBCHEM_CONFORMER_DIVERSEORDER>
1

> <PUBCHEM_MMFF94_PARTIAL_CHARGES>
15
1 -0.57
10 0.69
11 0.04
12 0.3
13 0.26
14 0.3
15 0.15
2 -0.57
3 -0.42
4 0.05
5 -0.42
6 -0.57
7 -0.24
8 0.29
9 0.71

> <PUBCHEM_EFFECTIVE_ROTOR_COUNT>
0

> <PUBCHEM_PHARMACOPHORE_FEATURES>
5
1 1 acceptor
1 2 acceptor
3 4 6 11 cation
5 4 6 7 8 11 rings
6 3 5 7 8 9 10 rings

> <PUBCHEM_HEAVY_ATOM_COUNT>
14

> <PUBCHEM_ATOM_DEF_STEREO_COUNT>
0

> <PUBCHEM_ATOM_UDEF_STEREO_COUNT>
0

> <PUBCHEM_BOND_DEF_STEREO_COUNT>
0

> <PUBCHEM_BOND_UDEF_STEREO_COUNT>
0

> <PUBCHEM_ISOTOPIC_ATOM_COUNT>
0

> <PUBCHEM_COMPONENT_COUNT>
1

> <PUBCHEM_CACTVS_TAUTO_COUNT>
1

> <PUBCHEM_CONFORMER_ID>
000009D700000001

> <PUBCHEM_MMFF94_ENERGY>
22.901

> <PUBCHEM_FEATURE_SELFOVERLAP>
25.487

> <PUBCHEM_SHAPE_FINGERPRINT>
10967382 1 18338799025773621285
11132069 177 18339075025094499008
12524768 44 18342463625094026902
13140716 1 17978511158789908153
16945 1 18338517550775811621
193761 8 15816500986559935910
20588541 1 18339082691204868851
21501502 16 18338796715286957384
22802520 49 18128840606503503494
2334 1 18338516344016692929
23402539 116 18270382932679789735
23552423 10 18262240993325675966
23559900 14 18199193898169584358
241688 4 18266458702623303353
2748010 2 18266180539182415717
5084963 1 17698433339235542986
528886 8 18267580380709240570
53812653 166 18198902694142226312
66348 1 18339079396917369615

> <PUBCHEM_SHAPE_MULTIPOLES>
256.45
4.01
2.83
0.58
0.71
0.08
0
-0.48
0
-0.81
0
0.01
0
0

> <PUBCHEM_SHAPE_SELFOVERLAP>
550.88

> <PUBCHEM_SHAPE_VOLUME>
143.9

> <PUBCHEM_COORDINATE_TYPE>
2
5
10

> <Energy>
-122.511

> <minimizedAffinity>
-5.43671

> <CNNscore>
0.3697717190

> <CNNaffinity>
4.5729269981

> <CNN_VS>
1.6909390688

> <CNNaffinity_variance>
0.3851443827

$$$$
2519


 14 15  0  0  0  0  0  0  0  0999 V2000
   -3.7534   -4.4030   19.5820 O   0  0  0  0  0  0  0  0  0  0  0  0
   -5.2588   -2.5225   23.5358 O   0  0  0  0  0  0  0  0  0  0  0  0
   -2.9977   -2.4537   23.1019 N   0  0  0  0  0  0  0  0  0  0  0  0
   -1.0174   -3.5808   20.4651 N   0  0  0  0  0  0  0  0  0  0  0  0
   -4.5314   -3.4647   21.5619 N   0  0  0  0  0  0  0  0  0  0  0  0
   -0.6636   -2.5218   22.3892 N   0  0  0  0  0  0  0  0  0  0  0  0
   -2.2397   -3.4308   21.0544 C   0  0  0  0  0  0  0  0  0  0  0  0
   -1.9903   -2.7824   22.2253 C   0  0  0  0  0  0  0  0  0  0  0  0
   -3.5414   -3.8193   20.6405 C   0  0  0  0  0  0  0  0  0  0  0  0
   -4.3157   -2.7931   22.7856 C   0  0  0  0  0  0  0  0  0  0  0  0
   -0.0955   -3.0169   21.3072 C   0  0  0  0  0  0  0  0  0  0  0  0
   -2.6852   -1.7613   24.3401 C   0  0  0  0  0  0  0  0  0  0  0  0
   -0.7401   -4.2102   19.1993 C   0  0  0  0  0  0  0  0  0  0  0  0
   -5.9042   -3.8097   21.2465 C   0  0  0  0  0  0  0  0  0  0  0  0
  1  9  2  0
  2 10  2  0
  3  8  1  0
  3 10  1  0
  3 12  1  0
  4  7  1  0
  4 11  1  0
  4 13  1  0
  5  9  1  0
  5 10  1  0
  5 14  1  0
  6  8  1  0
  6 11  2  0
  7  8  2  0
  7  9  1  0
M  END
> <PUBCHEM_COMPOUND_CID>
2519

> <PUBCHEM_CONFORMER_RMSD>
0.4

> <PUBCHEM_CONFORMER_DIVERSEORDER>
1

> <PUBCHEM_MMFF94_PARTIAL_CHARGES>
15
1 -0.57
10 0.69
11 0.04
12 0.3
13 0.26
14 0.3
15 0.15
2 -0.57
3 -0.42
4 0.05
5 -0.42
6 -0.57
7 -0.24
8 0.29
9 0.71

> <PUBCHEM_EFFECTIVE_ROTOR_COUNT>
0

> <PUBCHEM_PHARMACOPHORE_FEATURES>
5
1 1 acceptor
1 2 acceptor
3 4 6 11 cation
5 4 6 7 8 11 rings
6 3 5 7 8 9 10 rings

> <PUBCHEM_HEAVY_ATOM_COUNT>
14

> <PUBCHEM_ATOM_DEF_STEREO_COUNT>
0

> <PUBCHEM_ATOM_UDEF_STEREO_COUNT>
0

> <PUBCHEM_BOND_DEF_STEREO_COUNT>
0

> <PUBCHEM_BOND_UDEF_STEREO_COUNT>
0

> <PUBCHEM_ISOTOPIC_ATOM_COUNT>
0

> <PUBCHEM_COMPONENT_COUNT>
1

> <PUBCHEM_CACTVS_TAUTO_COUNT>
1

> <PUBCHEM_CONFORMER_ID>
000009D700000001

> <PUBCHEM_MMFF94_ENERGY>
22.901

> <PUBCHEM_FEATURE_SELFOVERLAP>
25.487

> <PUBCHEM_SHAPE_FINGERPRINT>
10967382 1 18338799025773621285
11132069 177 18339075025094499008
12524768 44 18342463625094026902
13140716 1 17978511158789908153
16945 1 18338517550775811621
193761 8 15816500986559935910
20588541 1 18339082691204868851
21501502 16 18338796715286957384
22802520 49 18128840606503503494
2334 1 18338516344016692929
23402539 116 18270382932679789735
23552423 10 18262240993325675966
23559900 14 18199193898169584358
241688 4 18266458702623303353
2748010 2 18266180539182415717
5084963 1 17698433339235542986
528886 8 18267580380709240570
53812653 166 18198902694142226312
66348 1 18339079396917369615

> <PUBCHEM_SHAPE_MULTIPOLES>
256.45
4.01
2.83
0.58
0.71
0.08
0
-0.48
0
-0.81
0
0.01
0
0

> <PUBCHEM_SHAPE_SELFOVERLAP>
550.88

> <PUBCHEM_SHAPE_VOLUME>
143.9

> <PUBCHEM_COORDINATE_TYPE>
2
5
10

> <Energy>
-122.511

> <minimizedAffinity>
-5.29272

> <CNNscore>
0.3536940515

> <CNNaffinity>
4.4596366882

> <CNN_VS>
1.5773469210

> <CNNaffinity_variance>
0.2322967052

$$$$
2519


 14 15  0  0  0  0  0  0  0  0999 V2000
   -3.2569   -5.4240   21.2284 O   0  0  0  0  0  0  0  0  0  0  0  0
   -4.8146   -2.1573   24.1158 O   0  0  0  0  0  0  0  0  0  0  0  0
   -5.8459   -4.2163   24.1609 N   0  0  0  0  0  0  0  0  0  0  0  0
   -5.3675   -7.1870   22.4027 N   0  0  0  0  0  0  0  0  0  0  0  0
   -4.0232   -3.7686   22.6700 N   0  0  0  0  0  0  0  0  0  0  0  0
   -6.7484   -6.4789   23.9966 N   0  0  0  0  0  0  0  0  0  0  0  0
   -5.0270   -5.8905   22.6614 C   0  0  0  0  0  0  0  0  0  0  0  0
   -5.8871   -5.4873   23.6368 C   0  0  0  0  0  0  0  0  0  0  0  0
   -4.0269   -5.0484   22.1071 C   0  0  0  0  0  0  0  0  0  0  0  0
   -4.8962   -3.3106   23.6814 C   0  0  0  0  0  0  0  0  0  0  0  0
   -6.4120   -7.4994   23.2324 C   0  0  0  0  0  0  0  0  0  0  0  0
   -6.7833   -3.8296   25.2010 C   0  0  0  0  0  0  0  0  0  0  0  0
   -4.7515   -8.0667   21.4425 C   0  0  0  0  0  0  0  0  0  0  0  0
   -3.0422   -2.8180   22.1829 C   0  0  0  0  0  0  0  0  0  0  0  0
  1  9  2  0
  2 10  2  0
  3  8  1  0
  3 10  1  0
  3 12  1  0
  4  7  1  0
  4 11  1  0
  4 13  1  0
  5  9  1  0
  5 10  1  0
  5 14  1  0
  6  8  1  0
  6 11  2  0
  7  8  2  0
  7  9  1  0
M  END
> <PUBCHEM_COMPOUND_CID>
2519

> <PUBCHEM_CONFORMER_RMSD>
0.4

> <PUBCHEM_CONFORMER_DIVERSEORDER>
1

> <PUBCHEM_MMFF94_PARTIAL_CHARGES>
15
1 -0.57
10 0.69
11 0.04
12 0.3
13 0.26
14 0.3
15 0.15
2 -0.57
3 -0.42
4 0.05
5 -0.42
6 -0.57
7 -0.24
8 0.29
9 0.71

> <PUBCHEM_EFFECTIVE_ROTOR_COUNT>
0

> <PUBCHEM_PHARMACOPHORE_FEATURES>
5
1 1 acceptor
1 2 acceptor
3 4 6 11 cation
5 4 6 7 8 11 rings
6 3 5 7 8 9 10 rings

> <PUBCHEM_HEAVY_ATOM_COUNT>
14

> <PUBCHEM_ATOM_DEF_STEREO_COUNT>
0

> <PUBCHEM_ATOM_UDEF_STEREO_COUNT>
0

> <PUBCHEM_BOND_DEF_STEREO_COUNT>
0

> <PUBCHEM_BOND_UDEF_STEREO_COUNT>
0

> <PUBCHEM_ISOTOPIC_ATOM_COUNT>
0

> <PUBCHEM_COMPONENT_COUNT>
1

> <PUBCHEM_CACTVS_TAUTO_COUNT>
1

> <PUBCHEM_CONFORMER_ID>
000009D700000001

> <PUBCHEM_MMFF94_ENERGY>
22.901

> <PUBCHEM_FEATURE_SELFOVERLAP>
25.487

> <PUBCHEM_SHAPE_FINGERPRINT>
10967382 1 18338799025773621285
11132069 177 18339075025094499008
12524768 44 18342463625094026902
13140716 1 17978511158789908153
16945 1 18338517550775811621
193761 8 15816500986559935910
20588541 1 18339082691204868851
21501502 16 18338796715286957384
22802520 49 18128840606503503494
2334 1 18338516344016692929
23402539 116 18270382932679789735
23552423 10 18262240993325675966
23559900 14 18199193898169584358
241688 4 18266458702623303353
2748010 2 18266180539182415717
5084963 1 17698433339235542986
528886 8 18267580380709240570
53812653 166 18198902694142226312
66348 1 18339079396917369615

> <PUBCHEM_SHAPE_MULTIPOLES>
256.45
4.01
2.83
0.58
0.71
0.08
0
-0.48
0
-0.81
0
0.01
0
0

> <PUBCHEM_SHAPE_SELFOVERLAP>
550.88

> <PUBCHEM_SHAPE_VOLUME>
143.9

> <PUBCHEM_COORDINATE_TYPE>
2
5
10

> <Energy>
-122.511

> <minimizedAffinity>
-5.71967

> <CNNscore>
0.3440322578

> <CNNaffinity>
4.6221966743

> <CNN_VS>
1.5901848078

> <CNNaffinity_variance>
0.2916649878

$$$$
2519


 14 15  0  0  0  0  0  0  0  0999 V2000
   -5.6796   -3.8109   24.1684 O   0  0  0  0  0  0  0  0  0  0  0  0
   -1.9935   -2.3797   21.7601 O   0  0  0  0  0  0  0  0  0  0  0  0
   -3.3401   -3.9908   20.8134 N   0  0  0  0  0  0  0  0  0  0  0  0
   -6.2371   -5.6234   21.8562 N   0  0  0  0  0  0  0  0  0  0  0  0
   -3.8228   -3.0776   22.9765 N   0  0  0  0  0  0  0  0  0  0  0  0
   -4.9319   -5.6798   20.0557 N   0  0  0  0  0  0  0  0  0  0  0  0
   -5.2392   -4.7173   22.0734 C   0  0  0  0  0  0  0  0  0  0  0  0
   -4.4602   -4.7756   20.9583 C   0  0  0  0  0  0  0  0  0  0  0  0
   -4.9691   -3.8547   23.1687 C   0  0  0  0  0  0  0  0  0  0  0  0
   -2.9884   -3.1074   21.8373 C   0  0  0  0  0  0  0  0  0  0  0  0
   -6.0106   -6.1804   20.6253 C   0  0  0  0  0  0  0  0  0  0  0  0
   -2.5384   -4.0862   19.6059 C   0  0  0  0  0  0  0  0  0  0  0  0
   -7.3251   -5.9398   22.7459 C   0  0  0  0  0  0  0  0  0  0  0  0
   -3.4460   -2.1554   24.0304 C   0  0  0  0  0  0  0  0  0  0  0  0
  1  9  2  0
  2 10  2  0
  3  8  1  0
  3 10  1  0
  3 12  1  0
  4  7  1  0
  4 11  1  0
  4 13  1  0
  5  9  1  0
  5 10  1  0
  5 14  1  0
  6  8  1  0
  6 11  2  0
  7  8  2  0
  7  9  1  0
M  END
> <PUBCHEM_COMPOUND_CID>
2519

> <PUBCHEM_CONFORMER_RMSD>
0.4

> <PUBCHEM_CONFORMER_DIVERSEORDER>
1

> <PUBCHEM_MMFF94_PARTIAL_CHARGES>
15
1 -0.57
10 0.69
11 0.04
12 0.3
13 0.26
14 0.3
15 0.15
2 -0.57
3 -0.42
4 0.05
5 -0.42
6 -0.57
7 -0.24
8 0.29
9 0.71

> <PUBCHEM_EFFECTIVE_ROTOR_COUNT>
0

> <PUBCHEM_PHARMACOPHORE_FEATURES>
5
1 1 acceptor
1 2 acceptor
3 4 6 11 cation
5 4 6 7 8 11 rings
6 3 5 7 8 9 10 rings

> <PUBCHEM_HEAVY_ATOM_COUNT>
14

> <PUBCHEM_ATOM_DEF_STEREO_COUNT>
0

> <PUBCHEM_ATOM_UDEF_STEREO_COUNT>
0

> <PUBCHEM_BOND_DEF_STEREO_COUNT>
0

> <PUBCHEM_BOND_UDEF_STEREO_COUNT>
0

> <PUBCHEM_ISOTOPIC_ATOM_COUNT>
0

> <PUBCHEM_COMPONENT_COUNT>
1

> <PUBCHEM_CACTVS_TAUTO_COUNT>
1

> <PUBCHEM_CONFORMER_ID>
000009D700000001

> <PUBCHEM_MMFF94_ENERGY>
22.901

> <PUBCHEM_FEATURE_SELFOVERLAP>
25.487

> <PUBCHEM_SHAPE_FINGERPRINT>
10967382 1 18338799025773621285
11132069 177 18339075025094499008
12524768 44 18342463625094026902
13140716 1 17978511158789908153
16945 1 18338517550775811621
193761 8 15816500986559935910
20588541 1 18339082691204868851
21501502 16 18338796715286957384
22802520 49 18128840606503503494
2334 1 18338516344016692929
23402539 116 18270382932679789735
23552423 10 18262240993325675966
23559900 14 18199193898169584358
241688 4 18266458702623303353
2748010 2 18266180539182415717
5084963 1 17698433339235542986
528886 8 18267580380709240570
53812653 166 18198902694142226312
66348 1 18339079396917369615

> <PUBCHEM_SHAPE_MULTIPOLES>
256.45
4.01
2.83
0.58
0.71
0.08
0
-0.48
0
-0.81
0
0.01
0
0

> <PUBCHEM_SHAPE_SELFOVERLAP>
550.88

> <PUBCHEM_SHAPE_VOLUME>
143.9

> <PUBCHEM_COORDINATE_TYPE>
2
5
10

> <Energy>
-122.511

> <minimizedAffinity>
-5.32206

> <CNNscore>
0.3249715567

> <CNNaffinity>
4.7913570404

> <CNN_VS>
1.5570547581

> <CNNaffinity_variance>
0.4955619574

$$$$
