8814


 16 16  0  0  0  0  0  0  0  0999 V2000
   -4.0361   -4.4516   21.7984 C   0  0  0  0  0  0  0  0  0  0  0  0
   -5.3223   -3.9970   21.0430 C   0  0  0  0  0  0  0  0  0  0  0  0
   -4.2016   -3.8889   23.2293 C   0  0  0  0  0  0  0  0  0  0  0  0
    0.4378   -2.3734   18.9145 O   0  0  0  0  0  0  0  0  0  0  0  0
   -2.8397   -3.8677   21.0320 C   0  0  0  0  0  0  0  0  0  0  0  0
   -2.7709   -3.9904   19.6275 C   0  0  0  0  0  0  0  0  0  0  0  0
   -1.7794   -3.2085   21.6766 C   0  0  0  0  0  0  0  0  0  0  0  0
   -1.6831   -3.4954   18.9036 C   0  0  0  0  0  0  0  0  0  0  0  0
   -0.6902   -2.7144   20.9554 C   0  0  0  0  0  0  0  0  0  0  0  0
   -0.6487   -2.8645   19.5763 C   0  0  0  0  0  0  0  0  0  0  0  0
    0.4970   -2.4583   17.9832 H   0  0  0  0  0  0  0  0  0  0  0  0
   -4.0396   -6.0228   21.8141 C   0  0  0  0  0  0  0  0  0  0  0  0
   -5.2830   -6.8856   21.4084 C   0  0  0  0  0  0  0  0  0  0  0  0
   -5.6404   -6.4951   19.9521 C   0  0  0  0  0  0  0  0  0  0  0  0
   -6.5168   -6.6032   22.2773 C   0  0  0  0  0  0  0  0  0  0  0  0
   -5.0147   -8.3987   21.4086 C   0  0  0  0  0  0  0  0  0  0  0  0
  4 10  1  0
  4 11  1  0
  1 12  1  0
  1  5  1  0
  1  2  1  0
  1  3  1  0
 13 12  1  0
 13 14  1  0
 13 15  1  0
 13 16  1  0
  5  6  2  0
  5  7  1  0
  6  8  1  0
  7  9  2  0
  8 10  2  0
  9 10  1  0
M  END
> <PUBCHEM_COMPOUND_CID>
8814

> <PUBCHEM_CONFORMER_RMSD>
0.6

> <PUBCHEM_CONFORMER_DIVERSEORDER>
1
5
4
3
2

> <PUBCHEM_MMFF94_PARTIAL_CHARGES>
13
1 -0.53
11 -0.15
12 -0.15
13 -0.15
14 -0.15
15 0.08
2 0.14
33 0.15
34 0.15
35 0.15
36 0.15
37 0.45
5 -0.14

> <PUBCHEM_EFFECTIVE_ROTOR_COUNT>
3

> <PUBCHEM_PHARMACOPHORE_FEATURES>
4
1 1 donor
3 2 6 7 hydrophobe
4 3 8 9 10 hydrophobe
6 5 11 12 13 14 15 rings

> <PUBCHEM_HEAVY_ATOM_COUNT>
15

> <PUBCHEM_ATOM_DEF_STEREO_COUNT>
0

> <PUBCHEM_ATOM_UDEF_STEREO_COUNT>
0

> <PUBCHEM_BOND_DEF_STEREO_COUNT>
0

> <PUBCHEM_BOND_UDEF_STEREO_COUNT>
0

> <PUBCHEM_ISOTOPIC_ATOM_COUNT>
0

> <PUBCHEM_COMPONENT_COUNT>
1

> <PUBCHEM_CACTVS_TAUTO_COUNT>
2

> <PUBCHEM_CONFORMER_ID>
0000226E00000001

> <PUBCHEM_MMFF94_ENERGY>
60.6732

> <PUBCHEM_FEATURE_SELFOVERLAP>
20.297

> <PUBCHEM_SHAPE_FINGERPRINT>
1 1 18122065299635933247
11471102 22 13984658170435925480
12138202 97 18272929444633088966
12251169 10 14923953348599690641
12423570 1 15084294979065354379
124424 183 18201999928641116818
12491281 212 18273493468196309381
12532896 13 18409735040726507851
13299463 15 16200422598337566991
13538477 17 17822291326855117498
13764800 53 18335714831507604569
13839132 238 18413110537123213324
14817 1 11689340854733718479
15375462 478 15647061443078261877
15775835 57 18339078194495494345
16945 1 17988065786023185643
18186145 218 18200036118541666588
18534176 82 18271243927656786518
19837323 101 18335708272823803859
20525323 117 18337111292773698462
20645476 183 17894351081266785547
21296965 12 18260545576729377063
21501502 16 18271800211963701222
21524375 3 18339638928324873163
21947302 44 18059017168310697110
22802520 49 18199766781279703998
23402539 116 18267296706830970519
23419403 2 17194099544908694927
23557571 272 18198918083120765556
23559900 14 18342742906418193234
25 1 17845383149850037993
2748010 2 18262817159083630983
276578 36 18189342281366350763
305870 269 18040992882718168402
430814 3 18041565736850213531
549884 4 17416683544816290937
6333449 129 18343582975122638285
6442390 28 18269297706777891659
7364860 26 17834677097914689979
81228 2 18191593162379223291

> <PUBCHEM_SHAPE_MULTIPOLES>
302.82
5.29
2.15
1.39
2.11
0.81
0.13
-3.45
0.34
-1.29
-0.24
-0.12
0.26
0.01

> <PUBCHEM_SHAPE_SELFOVERLAP>
615.427

> <PUBCHEM_SHAPE_VOLUME>
178.4

> <PUBCHEM_COORDINATE_TYPE>
2
5
10

> <Energy>
46.4329

> <minimizedAffinity>
-7.53787

> <CNNscore>
0.8971933126

> <CNNaffinity>
6.2310771942

> <CNN_VS>
5.5904808044

> <CNNaffinity_variance>
0.0500097871

$$$$
8814


 16 16  0  0  0  0  0  0  0  0999 V2000
   -4.0554   -4.1279   21.5412 C   0  0  0  0  0  0  0  0  0  0  0  0
   -4.3296   -5.2569   20.5011 C   0  0  0  0  0  0  0  0  0  0  0  0
   -5.0074   -2.9792   21.1337 C   0  0  0  0  0  0  0  0  0  0  0  0
    1.4642   -2.7082   21.1285 O   0  0  0  0  0  0  0  0  0  0  0  0
   -2.5650   -3.7729   21.4306 C   0  0  0  0  0  0  0  0  0  0  0  0
   -1.9445   -3.0025   22.4375 C   0  0  0  0  0  0  0  0  0  0  0  0
   -1.7707   -4.1799   20.3454 C   0  0  0  0  0  0  0  0  0  0  0  0
   -0.5980   -2.6387   22.3532 C   0  0  0  0  0  0  0  0  0  0  0  0
   -0.4251   -3.8160   20.2580 C   0  0  0  0  0  0  0  0  0  0  0  0
    0.1495   -3.0461   21.2597 C   0  0  0  0  0  0  0  0  0  0  0  0
    1.8825   -2.1892   21.7870 H   0  0  0  0  0  0  0  0  0  0  0  0
   -4.4417   -4.6965   22.9541 C   0  0  0  0  0  0  0  0  0  0  0  0
   -5.7963   -5.4272   23.2477 C   0  0  0  0  0  0  0  0  0  0  0  0
   -6.1801   -5.0841   24.7091 C   0  0  0  0  0  0  0  0  0  0  0  0
   -5.6864   -6.9552   23.1465 C   0  0  0  0  0  0  0  0  0  0  0  0
   -6.9599   -4.9561   22.3613 C   0  0  0  0  0  0  0  0  0  0  0  0
  4 10  1  0
  4 11  1  0
  1 12  1  0
  1  5  1  0
  1  2  1  0
  1  3  1  0
 13 12  1  0
 13 14  1  0
 13 15  1  0
 13 16  1  0
  5  6  2  0
  5  7  1  0
  6  8  1  0
  7  9  2  0
  8 10  2  0
  9 10  1  0
M  END
> <PUBCHEM_COMPOUND_CID>
8814

> <PUBCHEM_CONFORMER_RMSD>
0.6

> <PUBCHEM_CONFORMER_DIVERSEORDER>
1
5
4
3
2

> <PUBCHEM_MMFF94_PARTIAL_CHARGES>
13
1 -0.53
11 -0.15
12 -0.15
13 -0.15
14 -0.15
15 0.08
2 0.14
33 0.15
34 0.15
35 0.15
36 0.15
37 0.45
5 -0.14

> <PUBCHEM_EFFECTIVE_ROTOR_COUNT>
3

> <PUBCHEM_PHARMACOPHORE_FEATURES>
4
1 1 donor
3 2 6 7 hydrophobe
4 3 8 9 10 hydrophobe
6 5 11 12 13 14 15 rings

> <PUBCHEM_HEAVY_ATOM_COUNT>
15

> <PUBCHEM_ATOM_DEF_STEREO_COUNT>
0

> <PUBCHEM_ATOM_UDEF_STEREO_COUNT>
0

> <PUBCHEM_BOND_DEF_STEREO_COUNT>
0

> <PUBCHEM_BOND_UDEF_STEREO_COUNT>
0

> <PUBCHEM_ISOTOPIC_ATOM_COUNT>
0

> <PUBCHEM_COMPONENT_COUNT>
1

> <PUBCHEM_CACTVS_TAUTO_COUNT>
2

> <PUBCHEM_CONFORMER_ID>
0000226E00000001

> <PUBCHEM_MMFF94_ENERGY>
60.6732

> <PUBCHEM_FEATURE_SELFOVERLAP>
20.297

> <PUBCHEM_SHAPE_FINGERPRINT>
1 1 18122065299635933247
11471102 22 13984658170435925480
12138202 97 18272929444633088966
12251169 10 14923953348599690641
12423570 1 15084294979065354379
124424 183 18201999928641116818
12491281 212 18273493468196309381
12532896 13 18409735040726507851
13299463 15 16200422598337566991
13538477 17 17822291326855117498
13764800 53 18335714831507604569
13839132 238 18413110537123213324
14817 1 11689340854733718479
15375462 478 15647061443078261877
15775835 57 18339078194495494345
16945 1 17988065786023185643
18186145 218 18200036118541666588
18534176 82 18271243927656786518
19837323 101 18335708272823803859
20525323 117 18337111292773698462
20645476 183 17894351081266785547
21296965 12 18260545576729377063
21501502 16 18271800211963701222
21524375 3 18339638928324873163
21947302 44 18059017168310697110
22802520 49 18199766781279703998
23402539 116 18267296706830970519
23419403 2 17194099544908694927
23557571 272 18198918083120765556
23559900 14 18342742906418193234
25 1 17845383149850037993
2748010 2 18262817159083630983
276578 36 18189342281366350763
305870 269 18040992882718168402
430814 3 18041565736850213531
549884 4 17416683544816290937
6333449 129 18343582975122638285
6442390 28 18269297706777891659
7364860 26 17834677097914689979
81228 2 18191593162379223291

> <PUBCHEM_SHAPE_MULTIPOLES>
302.82
5.29
2.15
1.39
2.11
0.81
0.13
-3.45
0.34
-1.29
-0.24
-0.12
0.26
0.01

> <PUBCHEM_SHAPE_SELFOVERLAP>
615.427

> <PUBCHEM_SHAPE_VOLUME>
178.4

> <PUBCHEM_COORDINATE_TYPE>
2
5
10

> <Energy>
46.4329

> <minimizedAffinity>
-7.61928

> <CNNscore>
0.8728965521

> <CNNaffinity>
6.9797186852

> <CNN_VS>
6.0925722122

> <CNNaffinity_variance>
0.6462366581

$$$$
8814


 16 16  0  0  0  0  0  0  0  0999 V2000
   -4.4387   -3.0837   22.1833 C   0  0  0  0  0  0  0  0  0  0  0  0
   -5.1247   -3.1953   20.7873 C   0  0  0  0  0  0  0  0  0  0  0  0
   -5.0260   -1.7962   22.8073 C   0  0  0  0  0  0  0  0  0  0  0  0
    1.1931   -2.9524   21.2254 O   0  0  0  0  0  0  0  0  0  0  0  0
   -2.9246   -3.0215   21.9318 C   0  0  0  0  0  0  0  0  0  0  0  0
   -2.4054   -3.3367   20.6576 C   0  0  0  0  0  0  0  0  0  0  0  0
   -2.0069   -2.6660   22.9346 C   0  0  0  0  0  0  0  0  0  0  0  0
   -1.0316   -3.3172   20.4036 C   0  0  0  0  0  0  0  0  0  0  0  0
   -0.6331   -2.6477   22.6836 C   0  0  0  0  0  0  0  0  0  0  0  0
   -0.1561   -2.9764   21.4224 C   0  0  0  0  0  0  0  0  0  0  0  0
    1.5478   -3.1690   20.3856 H   0  0  0  0  0  0  0  0  0  0  0  0
   -4.8659   -4.3488   23.0114 C   0  0  0  0  0  0  0  0  0  0  0  0
   -5.1499   -5.7469   22.3634 C   0  0  0  0  0  0  0  0  0  0  0  0
   -5.7469   -6.6418   23.4785 C   0  0  0  0  0  0  0  0  0  0  0  0
   -3.8790   -6.4376   21.8491 C   0  0  0  0  0  0  0  0  0  0  0  0
   -6.1837   -5.7054   21.2272 C   0  0  0  0  0  0  0  0  0  0  0  0
  4 10  1  0
  4 11  1  0
  1 12  1  0
  1  5  1  0
  1  2  1  0
  1  3  1  0
 13 12  1  0
 13 14  1  0
 13 15  1  0
 13 16  1  0
  5  6  2  0
  5  7  1  0
  6  8  1  0
  7  9  2  0
  8 10  2  0
  9 10  1  0
M  END
> <PUBCHEM_COMPOUND_CID>
8814

> <PUBCHEM_CONFORMER_RMSD>
0.6

> <PUBCHEM_CONFORMER_DIVERSEORDER>
1
5
4
3
2

> <PUBCHEM_MMFF94_PARTIAL_CHARGES>
13
1 -0.53
11 -0.15
12 -0.15
13 -0.15
14 -0.15
15 0.08
2 0.14
33 0.15
34 0.15
35 0.15
36 0.15
37 0.45
5 -0.14

> <PUBCHEM_EFFECTIVE_ROTOR_COUNT>
3

> <PUBCHEM_PHARMACOPHORE_FEATURES>
4
1 1 donor
3 2 6 7 hydrophobe
4 3 8 9 10 hydrophobe
6 5 11 12 13 14 15 rings

> <PUBCHEM_HEAVY_ATOM_COUNT>
15

> <PUBCHEM_ATOM_DEF_STEREO_COUNT>
0

> <PUBCHEM_ATOM_UDEF_STEREO_COUNT>
0

> <PUBCHEM_BOND_DEF_STEREO_COUNT>
0

> <PUBCHEM_BOND_UDEF_STEREO_COUNT>
0

> <PUBCHEM_ISOTOPIC_ATOM_COUNT>
0

> <PUBCHEM_COMPONENT_COUNT>
1

> <PUBCHEM_CACTVS_TAUTO_COUNT>
2

> <PUBCHEM_CONFORMER_ID>
0000226E00000001

> <PUBCHEM_MMFF94_ENERGY>
60.6732

> <PUBCHEM_FEATURE_SELFOVERLAP>
20.297

> <PUBCHEM_SHAPE_FINGERPRINT>
1 1 18122065299635933247
11471102 22 13984658170435925480
12138202 97 18272929444633088966
12251169 10 14923953348599690641
12423570 1 15084294979065354379
124424 183 18201999928641116818
12491281 212 18273493468196309381
12532896 13 18409735040726507851
13299463 15 16200422598337566991
13538477 17 17822291326855117498
13764800 53 18335714831507604569
13839132 238 18413110537123213324
14817 1 11689340854733718479
15375462 478 15647061443078261877
15775835 57 18339078194495494345
16945 1 17988065786023185643
18186145 218 18200036118541666588
18534176 82 18271243927656786518
19837323 101 18335708272823803859
20525323 117 18337111292773698462
20645476 183 17894351081266785547
21296965 12 18260545576729377063
21501502 16 18271800211963701222
21524375 3 18339638928324873163
21947302 44 18059017168310697110
22802520 49 18199766781279703998
23402539 116 18267296706830970519
23419403 2 17194099544908694927
23557571 272 18198918083120765556
23559900 14 18342742906418193234
25 1 17845383149850037993
2748010 2 18262817159083630983
276578 36 18189342281366350763
305870 269 18040992882718168402
430814 3 18041565736850213531
549884 4 17416683544816290937
6333449 129 18343582975122638285
6442390 28 18269297706777891659
7364860 26 17834677097914689979
81228 2 18191593162379223291

> <PUBCHEM_SHAPE_MULTIPOLES>
302.82
5.29
2.15
1.39
2.11
0.81
0.13
-3.45
0.34
-1.29
-0.24
-0.12
0.26
0.01

> <PUBCHEM_SHAPE_SELFOVERLAP>
615.427

> <PUBCHEM_SHAPE_VOLUME>
178.4

> <PUBCHEM_COORDINATE_TYPE>
2
5
10

> <Energy>
46.4329

> <minimizedAffinity>
-7.27069

> <CNNscore>
0.8698514700

> <CNNaffinity>
6.9044394493

> <CNN_VS>
6.0058369637

> <CNNaffinity_variance>
0.5529215932

$$$$
8814


 16 16  0  0  0  0  0  0  0  0999 V2000
   -3.8015   -4.8146   21.6819 C   0  0  0  0  0  0  0  0  0  0  0  0
   -3.5671   -6.3514   21.8038 C   0  0  0  0  0  0  0  0  0  0  0  0
   -4.7081   -4.6531   20.4395 C   0  0  0  0  0  0  0  0  0  0  0  0
    1.3878   -2.4853   21.1359 O   0  0  0  0  0  0  0  0  0  0  0  0
   -2.4180   -4.1634   21.5346 C   0  0  0  0  0  0  0  0  0  0  0  0
   -1.6127   -4.4587   20.4136 C   0  0  0  0  0  0  0  0  0  0  0  0
   -1.8975   -3.2728   22.4886 C   0  0  0  0  0  0  0  0  0  0  0  0
   -0.3384   -3.9054   20.2636 C   0  0  0  0  0  0  0  0  0  0  0  0
   -0.6234   -2.7199   22.3419 C   0  0  0  0  0  0  0  0  0  0  0  0
    0.1470   -3.0427   21.2335 C   0  0  0  0  0  0  0  0  0  0  0  0
    1.9334   -2.6825   20.4001 H   0  0  0  0  0  0  0  0  0  0  0  0
   -4.5534   -4.3565   22.9833 C   0  0  0  0  0  0  0  0  0  0  0  0
   -5.9096   -4.9802   23.4593 C   0  0  0  0  0  0  0  0  0  0  0  0
   -7.0307   -4.2770   22.6535 C   0  0  0  0  0  0  0  0  0  0  0  0
   -6.1904   -4.7367   24.9489 C   0  0  0  0  0  0  0  0  0  0  0  0
   -6.0347   -6.4848   23.1727 C   0  0  0  0  0  0  0  0  0  0  0  0
  4 10  1  0
  4 11  1  0
  1 12  1  0
  1  5  1  0
  1  2  1  0
  1  3  1  0
 13 12  1  0
 13 14  1  0
 13 15  1  0
 13 16  1  0
  5  6  2  0
  5  7  1  0
  6  8  1  0
  7  9  2  0
  8 10  2  0
  9 10  1  0
M  END
> <PUBCHEM_COMPOUND_CID>
8814

> <PUBCHEM_CONFORMER_RMSD>
0.6

> <PUBCHEM_CONFORMER_DIVERSEORDER>
1
5
4
3
2

> <PUBCHEM_MMFF94_PARTIAL_CHARGES>
13
1 -0.53
11 -0.15
12 -0.15
13 -0.15
14 -0.15
15 0.08
2 0.14
33 0.15
34 0.15
35 0.15
36 0.15
37 0.45
5 -0.14

> <PUBCHEM_EFFECTIVE_ROTOR_COUNT>
3

> <PUBCHEM_PHARMACOPHORE_FEATURES>
4
1 1 donor
3 2 6 7 hydrophobe
4 3 8 9 10 hydrophobe
6 5 11 12 13 14 15 rings

> <PUBCHEM_HEAVY_ATOM_COUNT>
15

> <PUBCHEM_ATOM_DEF_STEREO_COUNT>
0

> <PUBCHEM_ATOM_UDEF_STEREO_COUNT>
0

> <PUBCHEM_BOND_DEF_STEREO_COUNT>
0

> <PUBCHEM_BOND_UDEF_STEREO_COUNT>
0

> <PUBCHEM_ISOTOPIC_ATOM_COUNT>
0

> <PUBCHEM_COMPONENT_COUNT>
1

> <PUBCHEM_CACTVS_TAUTO_COUNT>
2

> <PUBCHEM_CONFORMER_ID>
0000226E00000001

> <PUBCHEM_MMFF94_ENERGY>
60.6732

> <PUBCHEM_FEATURE_SELFOVERLAP>
20.297

> <PUBCHEM_SHAPE_FINGERPRINT>
1 1 18122065299635933247
11471102 22 13984658170435925480
12138202 97 18272929444633088966
12251169 10 14923953348599690641
12423570 1 15084294979065354379
124424 183 18201999928641116818
12491281 212 18273493468196309381
12532896 13 18409735040726507851
13299463 15 16200422598337566991
13538477 17 17822291326855117498
13764800 53 18335714831507604569
13839132 238 18413110537123213324
14817 1 11689340854733718479
15375462 478 15647061443078261877
15775835 57 18339078194495494345
16945 1 17988065786023185643
18186145 218 18200036118541666588
18534176 82 18271243927656786518
19837323 101 18335708272823803859
20525323 117 18337111292773698462
20645476 183 17894351081266785547
21296965 12 18260545576729377063
21501502 16 18271800211963701222
21524375 3 18339638928324873163
21947302 44 18059017168310697110
22802520 49 18199766781279703998
23402539 116 18267296706830970519
23419403 2 17194099544908694927
23557571 272 18198918083120765556
23559900 14 18342742906418193234
25 1 17845383149850037993
2748010 2 18262817159083630983
276578 36 18189342281366350763
305870 269 18040992882718168402
430814 3 18041565736850213531
549884 4 17416683544816290937
6333449 129 18343582975122638285
6442390 28 18269297706777891659
7364860 26 17834677097914689979
81228 2 18191593162379223291

> <PUBCHEM_SHAPE_MULTIPOLES>
302.82
5.29
2.15
1.39
2.11
0.81
0.13
-3.45
0.34
-1.29
-0.24
-0.12
0.26
0.01

> <PUBCHEM_SHAPE_SELFOVERLAP>
615.427

> <PUBCHEM_SHAPE_VOLUME>
178.4

> <PUBCHEM_COORDINATE_TYPE>
2
5
10

> <Energy>
46.4329

> <minimizedAffinity>
-7.77850

> <CNNscore>
0.8640033603

> <CNNaffinity>
6.9395637512

> <CNN_VS>
5.9958062172

> <CNNaffinity_variance>
0.5635523796

$$$$
8814


 16 16  0  0  0  0  0  0  0  0999 V2000
   -3.7733   -4.6367   21.7350 C   0  0  0  0  0  0  0  0  0  0  0  0
   -3.5629   -6.1801   21.8088 C   0  0  0  0  0  0  0  0  0  0  0  0
   -4.7195   -4.4268   20.5298 C   0  0  0  0  0  0  0  0  0  0  0  0
    1.4341   -2.3838   21.0576 O   0  0  0  0  0  0  0  0  0  0  0  0
   -2.3842   -4.0059   21.5558 C   0  0  0  0  0  0  0  0  0  0  0  0
   -1.6699   -4.1973   20.3536 C   0  0  0  0  0  0  0  0  0  0  0  0
   -1.7700   -3.2358   22.5578 C   0  0  0  0  0  0  0  0  0  0  0  0
   -0.3928   -3.6609   20.1695 C   0  0  0  0  0  0  0  0  0  0  0  0
   -0.4929   -2.7002   22.3769 C   0  0  0  0  0  0  0  0  0  0  0  0
    0.1867   -2.9194   21.1869 C   0  0  0  0  0  0  0  0  0  0  0  0
    1.9199   -2.5132   20.2669 H   0  0  0  0  0  0  0  0  0  0  0  0
   -4.4711   -4.2002   23.0734 C   0  0  0  0  0  0  0  0  0  0  0  0
   -5.5935   -3.1093   23.1438 C   0  0  0  0  0  0  0  0  0  0  0  0
   -4.8782   -1.7429   23.2932 C   0  0  0  0  0  0  0  0  0  0  0  0
   -6.5191   -3.2800   24.3566 C   0  0  0  0  0  0  0  0  0  0  0  0
   -6.4544   -3.0224   21.8738 C   0  0  0  0  0  0  0  0  0  0  0  0
  4 10  1  0
  4 11  1  0
  1 12  1  0
  1  5  1  0
  1  2  1  0
  1  3  1  0
 13 12  1  0
 13 14  1  0
 13 15  1  0
 13 16  1  0
  5  6  2  0
  5  7  1  0
  6  8  1  0
  7  9  2  0
  8 10  2  0
  9 10  1  0
M  END
> <PUBCHEM_COMPOUND_CID>
8814

> <PUBCHEM_CONFORMER_RMSD>
0.6

> <PUBCHEM_CONFORMER_DIVERSEORDER>
1
5
4
3
2

> <PUBCHEM_MMFF94_PARTIAL_CHARGES>
13
1 -0.53
11 -0.15
12 -0.15
13 -0.15
14 -0.15
15 0.08
2 0.14
33 0.15
34 0.15
35 0.15
36 0.15
37 0.45
5 -0.14

> <PUBCHEM_EFFECTIVE_ROTOR_COUNT>
3

> <PUBCHEM_PHARMACOPHORE_FEATURES>
4
1 1 donor
3 2 6 7 hydrophobe
4 3 8 9 10 hydrophobe
6 5 11 12 13 14 15 rings

> <PUBCHEM_HEAVY_ATOM_COUNT>
15

> <PUBCHEM_ATOM_DEF_STEREO_COUNT>
0

> <PUBCHEM_ATOM_UDEF_STEREO_COUNT>
0

> <PUBCHEM_BOND_DEF_STEREO_COUNT>
0

> <PUBCHEM_BOND_UDEF_STEREO_COUNT>
0

> <PUBCHEM_ISOTOPIC_ATOM_COUNT>
0

> <PUBCHEM_COMPONENT_COUNT>
1

> <PUBCHEM_CACTVS_TAUTO_COUNT>
2

> <PUBCHEM_CONFORMER_ID>
0000226E00000001

> <PUBCHEM_MMFF94_ENERGY>
60.6732

> <PUBCHEM_FEATURE_SELFOVERLAP>
20.297

> <PUBCHEM_SHAPE_FINGERPRINT>
1 1 18122065299635933247
11471102 22 13984658170435925480
12138202 97 18272929444633088966
12251169 10 14923953348599690641
12423570 1 15084294979065354379
124424 183 18201999928641116818
12491281 212 18273493468196309381
12532896 13 18409735040726507851
13299463 15 16200422598337566991
13538477 17 17822291326855117498
13764800 53 18335714831507604569
13839132 238 18413110537123213324
14817 1 11689340854733718479
15375462 478 15647061443078261877
15775835 57 18339078194495494345
16945 1 17988065786023185643
18186145 218 18200036118541666588
18534176 82 18271243927656786518
19837323 101 18335708272823803859
20525323 117 18337111292773698462
20645476 183 17894351081266785547
21296965 12 18260545576729377063
21501502 16 18271800211963701222
21524375 3 18339638928324873163
21947302 44 18059017168310697110
22802520 49 18199766781279703998
23402539 116 18267296706830970519
23419403 2 17194099544908694927
23557571 272 18198918083120765556
23559900 14 18342742906418193234
25 1 17845383149850037993
2748010 2 18262817159083630983
276578 36 18189342281366350763
305870 269 18040992882718168402
430814 3 18041565736850213531
549884 4 17416683544816290937
6333449 129 18343582975122638285
6442390 28 18269297706777891659
7364860 26 17834677097914689979
81228 2 18191593162379223291

> <PUBCHEM_SHAPE_MULTIPOLES>
302.82
5.29
2.15
1.39
2.11
0.81
0.13
-3.45
0.34
-1.29
-0.24
-0.12
0.26
0.01

> <PUBCHEM_SHAPE_SELFOVERLAP>
615.427

> <PUBCHEM_SHAPE_VOLUME>
178.4

> <PUBCHEM_COORDINATE_TYPE>
2
5
10

> <Energy>
46.4329

> <minimizedAffinity>
-7.59483

> <CNNscore>
0.8574233651

> <CNNaffinity>
6.7168998718

> <CNN_VS>
5.7592267990

> <CNNaffinity_variance>
0.3090914488

$$$$
8814


 16 16  0  0  0  0  0  0  0  0999 V2000
   -4.1183   -3.1761   22.2162 C   0  0  0  0  0  0  0  0  0  0  0  0
   -5.3476   -2.6265   21.4297 C   0  0  0  0  0  0  0  0  0  0  0  0
   -3.7374   -2.0395   23.1934 C   0  0  0  0  0  0  0  0  0  0  0  0
   -0.0258   -4.2901   18.3870 O   0  0  0  0  0  0  0  0  0  0  0  0
   -3.0326   -3.4972   21.1779 C   0  0  0  0  0  0  0  0  0  0  0  0
   -1.7216   -3.8086   21.5982 C   0  0  0  0  0  0  0  0  0  0  0  0
   -3.2839   -3.4875   19.7956 C   0  0  0  0  0  0  0  0  0  0  0  0
   -0.7045   -4.0777   20.6787 C   0  0  0  0  0  0  0  0  0  0  0  0
   -2.2685   -3.7543   18.8745 C   0  0  0  0  0  0  0  0  0  0  0  0
   -0.9871   -4.0436   19.3224 C   0  0  0  0  0  0  0  0  0  0  0  0
    0.8496   -4.4886   18.6559 H   0  0  0  0  0  0  0  0  0  0  0  0
   -4.6025   -4.4474   23.0024 C   0  0  0  0  0  0  0  0  0  0  0  0
   -5.0308   -5.7820   22.3020 C   0  0  0  0  0  0  0  0  0  0  0  0
   -5.8390   -6.5935   23.3456 C   0  0  0  0  0  0  0  0  0  0  0  0
   -3.8348   -6.6439   21.8737 C   0  0  0  0  0  0  0  0  0  0  0  0
   -5.9521   -5.5779   21.0891 C   0  0  0  0  0  0  0  0  0  0  0  0
  4 10  1  0
  4 11  1  0
  1 12  1  0
  1  5  1  0
  1  2  1  0
  1  3  1  0
 13 12  1  0
 13 14  1  0
 13 15  1  0
 13 16  1  0
  5  6  2  0
  5  7  1  0
  6  8  1  0
  7  9  2  0
  8 10  2  0
  9 10  1  0
M  END
> <PUBCHEM_COMPOUND_CID>
8814

> <PUBCHEM_CONFORMER_RMSD>
0.6

> <PUBCHEM_CONFORMER_DIVERSEORDER>
1
5
4
3
2

> <PUBCHEM_MMFF94_PARTIAL_CHARGES>
13
1 -0.53
11 -0.15
12 -0.15
13 -0.15
14 -0.15
15 0.08
2 0.14
33 0.15
34 0.15
35 0.15
36 0.15
37 0.45
5 -0.14

> <PUBCHEM_EFFECTIVE_ROTOR_COUNT>
3

> <PUBCHEM_PHARMACOPHORE_FEATURES>
4
1 1 donor
3 2 6 7 hydrophobe
4 3 8 9 10 hydrophobe
6 5 11 12 13 14 15 rings

> <PUBCHEM_HEAVY_ATOM_COUNT>
15

> <PUBCHEM_ATOM_DEF_STEREO_COUNT>
0

> <PUBCHEM_ATOM_UDEF_STEREO_COUNT>
0

> <PUBCHEM_BOND_DEF_STEREO_COUNT>
0

> <PUBCHEM_BOND_UDEF_STEREO_COUNT>
0

> <PUBCHEM_ISOTOPIC_ATOM_COUNT>
0

> <PUBCHEM_COMPONENT_COUNT>
1

> <PUBCHEM_CACTVS_TAUTO_COUNT>
2

> <PUBCHEM_CONFORMER_ID>
0000226E00000001

> <PUBCHEM_MMFF94_ENERGY>
60.6732

> <PUBCHEM_FEATURE_SELFOVERLAP>
20.297

> <PUBCHEM_SHAPE_FINGERPRINT>
1 1 18122065299635933247
11471102 22 13984658170435925480
12138202 97 18272929444633088966
12251169 10 14923953348599690641
12423570 1 15084294979065354379
124424 183 18201999928641116818
12491281 212 18273493468196309381
12532896 13 18409735040726507851
13299463 15 16200422598337566991
13538477 17 17822291326855117498
13764800 53 18335714831507604569
13839132 238 18413110537123213324
14817 1 11689340854733718479
15375462 478 15647061443078261877
15775835 57 18339078194495494345
16945 1 17988065786023185643
18186145 218 18200036118541666588
18534176 82 18271243927656786518
19837323 101 18335708272823803859
20525323 117 18337111292773698462
20645476 183 17894351081266785547
21296965 12 18260545576729377063
21501502 16 18271800211963701222
21524375 3 18339638928324873163
21947302 44 18059017168310697110
22802520 49 18199766781279703998
23402539 116 18267296706830970519
23419403 2 17194099544908694927
23557571 272 18198918083120765556
23559900 14 18342742906418193234
25 1 17845383149850037993
2748010 2 18262817159083630983
276578 36 18189342281366350763
305870 269 18040992882718168402
430814 3 18041565736850213531
549884 4 17416683544816290937
6333449 129 18343582975122638285
6442390 28 18269297706777891659
7364860 26 17834677097914689979
81228 2 18191593162379223291

> <PUBCHEM_SHAPE_MULTIPOLES>
302.82
5.29
2.15
1.39
2.11
0.81
0.13
-3.45
0.34
-1.29
-0.24
-0.12
0.26
0.01

> <PUBCHEM_SHAPE_SELFOVERLAP>
615.427

> <PUBCHEM_SHAPE_VOLUME>
178.4

> <PUBCHEM_COORDINATE_TYPE>
2
5
10

> <Energy>
46.4329

> <minimizedAffinity>
-7.35133

> <CNNscore>
0.8566875458

> <CNNaffinity>
6.7799057961

> <CNN_VS>
5.8082609177

> <CNNaffinity_variance>
0.5135744214

$$$$
8814


 16 16  0  0  0  0  0  0  0  0999 V2000
   -3.9843   -4.0418   21.3522 C   0  0  0  0  0  0  0  0  0  0  0  0
   -4.2096   -4.8744   22.6513 C   0  0  0  0  0  0  0  0  0  0  0  0
   -4.4785   -4.9577   20.2083 C   0  0  0  0  0  0  0  0  0  0  0  0
    1.5711   -2.7261   21.1101 O   0  0  0  0  0  0  0  0  0  0  0  0
   -2.4847   -3.7149   21.2872 C   0  0  0  0  0  0  0  0  0  0  0  0
   -1.8761   -2.9754   22.3240 C   0  0  0  0  0  0  0  0  0  0  0  0
   -1.6702   -4.1182   20.2157 C   0  0  0  0  0  0  0  0  0  0  0  0
   -0.5210   -2.6373   22.2816 C   0  0  0  0  0  0  0  0  0  0  0  0
   -0.3158   -3.7798   20.1702 C   0  0  0  0  0  0  0  0  0  0  0  0
    0.2470   -3.0399   21.2006 C   0  0  0  0  0  0  0  0  0  0  0  0
    1.9820   -2.2277   21.7888 H   0  0  0  0  0  0  0  0  0  0  0  0
   -4.8821   -2.7571   21.4643 C   0  0  0  0  0  0  0  0  0  0  0  0
   -5.4647   -2.2289   22.8195 C   0  0  0  0  0  0  0  0  0  0  0  0
   -6.7054   -3.0997   23.1407 C   0  0  0  0  0  0  0  0  0  0  0  0
   -5.9339   -0.7693   22.7410 C   0  0  0  0  0  0  0  0  0  0  0  0
   -4.5011   -2.3747   24.0076 C   0  0  0  0  0  0  0  0  0  0  0  0
  4 10  1  0
  4 11  1  0
  1 12  1  0
  1  5  1  0
  1  2  1  0
  1  3  1  0
 13 12  1  0
 13 14  1  0
 13 15  1  0
 13 16  1  0
  5  6  2  0
  5  7  1  0
  6  8  1  0
  7  9  2  0
  8 10  2  0
  9 10  1  0
M  END
> <PUBCHEM_COMPOUND_CID>
8814

> <PUBCHEM_CONFORMER_RMSD>
0.6

> <PUBCHEM_CONFORMER_DIVERSEORDER>
1
5
4
3
2

> <PUBCHEM_MMFF94_PARTIAL_CHARGES>
13
1 -0.53
11 -0.15
12 -0.15
13 -0.15
14 -0.15
15 0.08
2 0.14
33 0.15
34 0.15
35 0.15
36 0.15
37 0.45
5 -0.14

> <PUBCHEM_EFFECTIVE_ROTOR_COUNT>
3

> <PUBCHEM_PHARMACOPHORE_FEATURES>
4
1 1 donor
3 2 6 7 hydrophobe
4 3 8 9 10 hydrophobe
6 5 11 12 13 14 15 rings

> <PUBCHEM_HEAVY_ATOM_COUNT>
15

> <PUBCHEM_ATOM_DEF_STEREO_COUNT>
0

> <PUBCHEM_ATOM_UDEF_STEREO_COUNT>
0

> <PUBCHEM_BOND_DEF_STEREO_COUNT>
0

> <PUBCHEM_BOND_UDEF_STEREO_COUNT>
0

> <PUBCHEM_ISOTOPIC_ATOM_COUNT>
0

> <PUBCHEM_COMPONENT_COUNT>
1

> <PUBCHEM_CACTVS_TAUTO_COUNT>
2

> <PUBCHEM_CONFORMER_ID>
0000226E00000001

> <PUBCHEM_MMFF94_ENERGY>
60.6732

> <PUBCHEM_FEATURE_SELFOVERLAP>
20.297

> <PUBCHEM_SHAPE_FINGERPRINT>
1 1 18122065299635933247
11471102 22 13984658170435925480
12138202 97 18272929444633088966
12251169 10 14923953348599690641
12423570 1 15084294979065354379
124424 183 18201999928641116818
12491281 212 18273493468196309381
12532896 13 18409735040726507851
13299463 15 16200422598337566991
13538477 17 17822291326855117498
13764800 53 18335714831507604569
13839132 238 18413110537123213324
14817 1 11689340854733718479
15375462 478 15647061443078261877
15775835 57 18339078194495494345
16945 1 17988065786023185643
18186145 218 18200036118541666588
18534176 82 18271243927656786518
19837323 101 18335708272823803859
20525323 117 18337111292773698462
20645476 183 17894351081266785547
21296965 12 18260545576729377063
21501502 16 18271800211963701222
21524375 3 18339638928324873163
21947302 44 18059017168310697110
22802520 49 18199766781279703998
23402539 116 18267296706830970519
23419403 2 17194099544908694927
23557571 272 18198918083120765556
23559900 14 18342742906418193234
25 1 17845383149850037993
2748010 2 18262817159083630983
276578 36 18189342281366350763
305870 269 18040992882718168402
430814 3 18041565736850213531
549884 4 17416683544816290937
6333449 129 18343582975122638285
6442390 28 18269297706777891659
7364860 26 17834677097914689979
81228 2 18191593162379223291

> <PUBCHEM_SHAPE_MULTIPOLES>
302.82
5.29
2.15
1.39
2.11
0.81
0.13
-3.45
0.34
-1.29
-0.24
-0.12
0.26
0.01

> <PUBCHEM_SHAPE_SELFOVERLAP>
615.427

> <PUBCHEM_SHAPE_VOLUME>
178.4

> <PUBCHEM_COORDINATE_TYPE>
2
5
10

> <Energy>
46.4329

> <minimizedAffinity>
-7.60700

> <CNNscore>
0.8529263735

> <CNNaffinity>
6.6130509377

> <CNN_VS>
5.6404457092

> <CNNaffinity_variance>
0.2093698382

$$$$
8814


 16 16  0  0  0  0  0  0  0  0999 V2000
   -4.5614   -4.0635   21.2282 C   0  0  0  0  0  0  0  0  0  0  0  0
   -4.2114   -4.8152   22.5489 C   0  0  0  0  0  0  0  0  0  0  0  0
   -5.4290   -5.0616   20.4265 C   0  0  0  0  0  0  0  0  0  0  0  0
    0.3998   -2.6615   18.7640 O   0  0  0  0  0  0  0  0  0  0  0  0
   -3.2290   -3.7096   20.5506 C   0  0  0  0  0  0  0  0  0  0  0  0
   -2.0537   -3.5856   21.3224 C   0  0  0  0  0  0  0  0  0  0  0  0
   -3.1210   -3.4889   19.1672 C   0  0  0  0  0  0  0  0  0  0  0  0
   -0.8317   -3.2374   20.7412 C   0  0  0  0  0  0  0  0  0  0  0  0
   -1.9010   -3.1389   18.5842 C   0  0  0  0  0  0  0  0  0  0  0  0
   -0.7676   -3.0125   19.3752 C   0  0  0  0  0  0  0  0  0  0  0  0
    1.1834   -2.5677   19.2692 H   0  0  0  0  0  0  0  0  0  0  0  0
   -5.3972   -2.7938   21.6260 C   0  0  0  0  0  0  0  0  0  0  0  0
   -5.3704   -2.1588   23.0581 C   0  0  0  0  0  0  0  0  0  0  0  0
   -5.8544   -0.6948   22.9056 C   0  0  0  0  0  0  0  0  0  0  0  0
   -3.9623   -2.1175   23.6684 C   0  0  0  0  0  0  0  0  0  0  0  0
   -6.3213   -2.8384   24.0558 C   0  0  0  0  0  0  0  0  0  0  0  0
  4 10  1  0
  4 11  1  0
  1 12  1  0
  1  5  1  0
  1  2  1  0
  1  3  1  0
 13 12  1  0
 13 14  1  0
 13 15  1  0
 13 16  1  0
  5  6  2  0
  5  7  1  0
  6  8  1  0
  7  9  2  0
  8 10  2  0
  9 10  1  0
M  END
> <PUBCHEM_COMPOUND_CID>
8814

> <PUBCHEM_CONFORMER_RMSD>
0.6

> <PUBCHEM_CONFORMER_DIVERSEORDER>
1
5
4
3
2

> <PUBCHEM_MMFF94_PARTIAL_CHARGES>
13
1 -0.53
11 -0.15
12 -0.15
13 -0.15
14 -0.15
15 0.08
2 0.14
33 0.15
34 0.15
35 0.15
36 0.15
37 0.45
5 -0.14

> <PUBCHEM_EFFECTIVE_ROTOR_COUNT>
3

> <PUBCHEM_PHARMACOPHORE_FEATURES>
4
1 1 donor
3 2 6 7 hydrophobe
4 3 8 9 10 hydrophobe
6 5 11 12 13 14 15 rings

> <PUBCHEM_HEAVY_ATOM_COUNT>
15

> <PUBCHEM_ATOM_DEF_STEREO_COUNT>
0

> <PUBCHEM_ATOM_UDEF_STEREO_COUNT>
0

> <PUBCHEM_BOND_DEF_STEREO_COUNT>
0

> <PUBCHEM_BOND_UDEF_STEREO_COUNT>
0

> <PUBCHEM_ISOTOPIC_ATOM_COUNT>
0

> <PUBCHEM_COMPONENT_COUNT>
1

> <PUBCHEM_CACTVS_TAUTO_COUNT>
2

> <PUBCHEM_CONFORMER_ID>
0000226E00000001

> <PUBCHEM_MMFF94_ENERGY>
60.6732

> <PUBCHEM_FEATURE_SELFOVERLAP>
20.297

> <PUBCHEM_SHAPE_FINGERPRINT>
1 1 18122065299635933247
11471102 22 13984658170435925480
12138202 97 18272929444633088966
12251169 10 14923953348599690641
12423570 1 15084294979065354379
124424 183 18201999928641116818
12491281 212 18273493468196309381
12532896 13 18409735040726507851
13299463 15 16200422598337566991
13538477 17 17822291326855117498
13764800 53 18335714831507604569
13839132 238 18413110537123213324
14817 1 11689340854733718479
15375462 478 15647061443078261877
15775835 57 18339078194495494345
16945 1 17988065786023185643
18186145 218 18200036118541666588
18534176 82 18271243927656786518
19837323 101 18335708272823803859
20525323 117 18337111292773698462
20645476 183 17894351081266785547
21296965 12 18260545576729377063
21501502 16 18271800211963701222
21524375 3 18339638928324873163
21947302 44 18059017168310697110
22802520 49 18199766781279703998
23402539 116 18267296706830970519
23419403 2 17194099544908694927
23557571 272 18198918083120765556
23559900 14 18342742906418193234
25 1 17845383149850037993
2748010 2 18262817159083630983
276578 36 18189342281366350763
305870 269 18040992882718168402
430814 3 18041565736850213531
549884 4 17416683544816290937
6333449 129 18343582975122638285
6442390 28 18269297706777891659
7364860 26 17834677097914689979
81228 2 18191593162379223291

> <PUBCHEM_SHAPE_MULTIPOLES>
302.82
5.29
2.15
1.39
2.11
0.81
0.13
-3.45
0.34
-1.29
-0.24
-0.12
0.26
0.01

> <PUBCHEM_SHAPE_SELFOVERLAP>
615.427

> <PUBCHEM_SHAPE_VOLUME>
178.4

> <PUBCHEM_COORDINATE_TYPE>
2
5
10

> <Energy>
46.4329

> <minimizedAffinity>
-7.35202

> <CNNscore>
0.8336231709

> <CNNaffinity>
6.3905715942

> <CNN_VS>
5.3273286819

> <CNNaffinity_variance>
0.0927512646

$$$$
8814


 16 16  0  0  0  0  0  0  0  0999 V2000
   -3.9144   -4.7470   21.8534 C   0  0  0  0  0  0  0  0  0  0  0  0
   -4.7823   -4.2636   20.6514 C   0  0  0  0  0  0  0  0  0  0  0  0
   -4.6598   -4.2338   23.1074 C   0  0  0  0  0  0  0  0  0  0  0  0
    1.3273   -2.5815   21.1554 O   0  0  0  0  0  0  0  0  0  0  0  0
   -2.5160   -4.1395   21.6657 C   0  0  0  0  0  0  0  0  0  0  0  0
   -1.7565   -4.4530   20.5180 C   0  0  0  0  0  0  0  0  0  0  0  0
   -1.9372   -3.2723   22.6076 C   0  0  0  0  0  0  0  0  0  0  0  0
   -0.4705   -3.9398   20.3306 C   0  0  0  0  0  0  0  0  0  0  0  0
   -0.6512   -2.7595   22.4235 C   0  0  0  0  0  0  0  0  0  0  0  0
    0.0730   -3.0995   21.2894 C   0  0  0  0  0  0  0  0  0  0  0  0
    1.8428   -2.7912   20.4015 H   0  0  0  0  0  0  0  0  0  0  0  0
   -3.9048   -6.3178   21.8152 C   0  0  0  0  0  0  0  0  0  0  0  0
   -5.1984   -7.1907   21.9550 C   0  0  0  0  0  0  0  0  0  0  0  0
   -4.9209   -8.5211   21.2109 C   0  0  0  0  0  0  0  0  0  0  0  0
   -6.4293   -6.5457   21.3025 C   0  0  0  0  0  0  0  0  0  0  0  0
   -5.5445   -7.5584   23.4064 C   0  0  0  0  0  0  0  0  0  0  0  0
  4 10  1  0
  4 11  1  0
  1 12  1  0
  1  5  1  0
  1  2  1  0
  1  3  1  0
 13 12  1  0
 13 14  1  0
 13 15  1  0
 13 16  1  0
  5  6  2  0
  5  7  1  0
  6  8  1  0
  7  9  2  0
  8 10  2  0
  9 10  1  0
M  END
> <PUBCHEM_COMPOUND_CID>
8814

> <PUBCHEM_CONFORMER_RMSD>
0.6

> <PUBCHEM_CONFORMER_DIVERSEORDER>
1
5
4
3
2

> <PUBCHEM_MMFF94_PARTIAL_CHARGES>
13
1 -0.53
11 -0.15
12 -0.15
13 -0.15
14 -0.15
15 0.08
2 0.14
33 0.15
34 0.15
35 0.15
36 0.15
37 0.45
5 -0.14

> <PUBCHEM_EFFECTIVE_ROTOR_COUNT>
3

> <PUBCHEM_PHARMACOPHORE_FEATURES>
4
1 1 donor
3 2 6 7 hydrophobe
4 3 8 9 10 hydrophobe
6 5 11 12 13 14 15 rings

> <PUBCHEM_HEAVY_ATOM_COUNT>
15

> <PUBCHEM_ATOM_DEF_STEREO_COUNT>
0

> <PUBCHEM_ATOM_UDEF_STEREO_COUNT>
0

> <PUBCHEM_BOND_DEF_STEREO_COUNT>
0

> <PUBCHEM_BOND_UDEF_STEREO_COUNT>
0

> <PUBCHEM_ISOTOPIC_ATOM_COUNT>
0

> <PUBCHEM_COMPONENT_COUNT>
1

> <PUBCHEM_CACTVS_TAUTO_COUNT>
2

> <PUBCHEM_CONFORMER_ID>
0000226E00000001

> <PUBCHEM_MMFF94_ENERGY>
60.6732

> <PUBCHEM_FEATURE_SELFOVERLAP>
20.297

> <PUBCHEM_SHAPE_FINGERPRINT>
1 1 18122065299635933247
11471102 22 13984658170435925480
12138202 97 18272929444633088966
12251169 10 14923953348599690641
12423570 1 15084294979065354379
124424 183 18201999928641116818
12491281 212 18273493468196309381
12532896 13 18409735040726507851
13299463 15 16200422598337566991
13538477 17 17822291326855117498
13764800 53 18335714831507604569
13839132 238 18413110537123213324
14817 1 11689340854733718479
15375462 478 15647061443078261877
15775835 57 18339078194495494345
16945 1 17988065786023185643
18186145 218 18200036118541666588
18534176 82 18271243927656786518
19837323 101 18335708272823803859
20525323 117 18337111292773698462
20645476 183 17894351081266785547
21296965 12 18260545576729377063
21501502 16 18271800211963701222
21524375 3 18339638928324873163
21947302 44 18059017168310697110
22802520 49 18199766781279703998
23402539 116 18267296706830970519
23419403 2 17194099544908694927
23557571 272 18198918083120765556
23559900 14 18342742906418193234
25 1 17845383149850037993
2748010 2 18262817159083630983
276578 36 18189342281366350763
305870 269 18040992882718168402
430814 3 18041565736850213531
549884 4 17416683544816290937
6333449 129 18343582975122638285
6442390 28 18269297706777891659
7364860 26 17834677097914689979
81228 2 18191593162379223291

> <PUBCHEM_SHAPE_MULTIPOLES>
302.82
5.29
2.15
1.39
2.11
0.81
0.13
-3.45
0.34
-1.29
-0.24
-0.12
0.26
0.01

> <PUBCHEM_SHAPE_SELFOVERLAP>
615.427

> <PUBCHEM_SHAPE_VOLUME>
178.4

> <PUBCHEM_COORDINATE_TYPE>
2
5
10

> <Energy>
46.4329

> <minimizedAffinity>
-8.27617

> <CNNscore>
0.8202485442

> <CNNaffinity>
6.4338393211

> <CNN_VS>
5.2773475647

> <CNNaffinity_variance>
0.1884679347

$$$$
