6013


 22 25  0  0  0  0  0  0  0  0999 V2000
   -5.2803   -4.6404   18.1185 O   0  0  0  0  0  0  0  0  0  0  0  0
    0.7479   -2.8902   26.9752 O   0  0  0  0  0  0  0  0  0  0  0  0
   -2.2239   -4.0807   20.0407 C   0  0  0  0  0  0  0  0  0  0  0  0
   -3.7307   -3.8107   19.8632 C   0  0  0  0  0  0  0  0  0  0  0  0
   -1.5681   -3.1241   21.0409 C   0  0  0  0  0  0  0  0  0  0  0  0
   -2.2630   -3.2943   22.4287 C   0  0  0  0  0  0  0  0  0  0  0  0
   -1.6300   -2.3796   23.5460 C   0  0  0  0  0  0  0  0  0  0  0  0
   -4.4175   -4.0553   21.2131 C   0  0  0  0  0  0  0  0  0  0  0  0
   -3.8089   -3.1779   22.3220 C   0  0  0  0  0  0  0  0  0  0  0  0
   -4.0483   -4.8605   18.7790 C   0  0  0  0  0  0  0  0  0  0  0  0
   -1.7000   -4.1319   18.6076 C   0  0  0  0  0  0  0  0  0  0  0  0
   -0.0631   -3.3926   21.1679 C   0  0  0  0  0  0  0  0  0  0  0  0
   -2.8496   -4.7757   17.8119 C   0  0  0  0  0  0  0  0  0  0  0  0
   -0.1032   -2.5397   23.5333 C   0  0  0  0  0  0  0  0  0  0  0  0
    0.5785   -2.4606   22.1875 C   0  0  0  0  0  0  0  0  0  0  0  0
   -4.0782   -2.3892   19.3555 C   0  0  0  0  0  0  0  0  0  0  0  0
   -2.1997   -2.8254   24.9251 C   0  0  0  0  0  0  0  0  0  0  0  0
   -1.9584   -0.8856   23.3282 C   0  0  0  0  0  0  0  0  0  0  0  0
   -1.4107   -2.2970   26.1140 C   0  0  0  0  0  0  0  0  0  0  0  0
    0.6385   -2.7201   24.6395 C   0  0  0  0  0  0  0  0  0  0  0  0
    0.0392   -2.6852   25.9943 C   0  0  0  0  0  0  0  0  0  0  0  0
   -6.0062   -4.7019   18.7589 H   0  0  0  0  0  0  0  0  0  0  0  0
  1 10  1  0
  1 22  1  0
  2 21  2  0
  3  4  1  0
  3  5  1  0
  3 11  1  0
  4  8  1  0
  4 10  1  0
  4 16  1  0
  5  6  1  0
  5 12  1  0
  6  7  1  0
  6  9  1  0
  7 14  1  0
  7 17  1  0
  7 18  1  0
  8  9  1  0
 10 13  1  0
 11 13  1  0
 12 15  1  0
 14 15  1  0
 14 20  2  0
 17 19  1  0
 19 21  1  0
 20 21  1  0
M  END
> <PUBCHEM_COMPOUND_CID>
6013

> <PUBCHEM_CONFORMER_RMSD>
0.6

> <PUBCHEM_CONFORMER_DIVERSEORDER>
1

> <PUBCHEM_MMFF94_PARTIAL_CHARGES>
11
1 -0.68
10 0.28
14 -0.28
15 0.14
19 0.06
2 -0.57
20 -0.14
21 0.49
48 0.15
49 0.4
7 0.14

> <PUBCHEM_EFFECTIVE_ROTOR_COUNT>
1.8

> <PUBCHEM_PHARMACOPHORE_FEATURES>
7
1 1 acceptor
1 1 donor
1 2 acceptor
5 3 4 10 11 13 rings
6 3 4 5 6 8 9 rings
6 5 6 7 12 14 15 rings
6 7 14 17 19 20 21 rings

> <PUBCHEM_HEAVY_ATOM_COUNT>
21

> <PUBCHEM_ATOM_DEF_STEREO_COUNT>
6

> <PUBCHEM_ATOM_UDEF_STEREO_COUNT>
0

> <PUBCHEM_BOND_DEF_STEREO_COUNT>
0

> <PUBCHEM_BOND_UDEF_STEREO_COUNT>
0

> <PUBCHEM_ISOTOPIC_ATOM_COUNT>
0

> <PUBCHEM_COMPONENT_COUNT>
1

> <PUBCHEM_CACTVS_TAUTO_COUNT>
5

> <PUBCHEM_CONFORMER_ID>
0000177D00000001

> <PUBCHEM_MMFF94_ENERGY>
67.5416

> <PUBCHEM_FEATURE_SELFOVERLAP>
35.618

> <PUBCHEM_SHAPE_FINGERPRINT>
10062212 137 18336825385559829163
10759866 29 17897457309511876188
10967382 1 18412548682291571786
11132069 177 18410018732180467827
11370993 70 18410569557056084199
11578080 2 16735503067342509174
12011746 2 18412547592124142406
12236239 1 18040155136873436768
12251169 10 18410008845387181634
12403259 226 18410006624652160988
12403259 415 18408880746209696412
12403260 363 18340481291412090749
12403814 3 17894914044785590877
12507557 5 18408881845467772304
12633257 1 18341888602346167976
12839892 36 18340758291450253690
13140716 1 18339643467883616216
13214271 11 18272369780793716703
13224815 77 18411987974316295335
13675066 3 18187087269080573787
14178342 30 18338527339117458393
14223421 5 18341052895787930134
14341114 176 18411985737129035682
14787075 74 18339640165090922602
14790565 3 18050014594947639924
15163728 17 14691189929019880809
15196674 1 18411420639180230811
15375358 24 18413110541697833299
15536298 74 18272376330249831326
15788980 27 17167859768361771669
16945 1 18267308633664624303
17349148 13 18260547844245275310
17492 89 18410012108956776131
1813 80 17168144512515476742
18186145 218 18411423903503023558
18522853 276 18412546492037592553
19050596 39 18410858775858764633
19784866 9 18412265021155473810
200 152 18202274819337965375
20715895 44 18116989984517715477
21033648 29 18262779827106925672
21267235 1 18410302427354843602
21421861 104 18042966467372004754
21637258 2 15647319828885568714
22182313 1 18189614934485510503
22854114 111 18409735070690792279
22854114 59 18343022189864506130
23402539 116 18272925046486162621
23557571 272 18059303161493107767
23559900 14 18343023255612643838
26918003 58 18409728456589012017
2748010 2 18410304609229794207
2838139 119 14835541671104639250
296302 2 16343984710473737934
335352 9 18411702045432157758
34934 24 18341610383102269379
350125 39 18410857681354741304
351380 180 18413386540454065762
3545911 37 18411703166439727155
42 15 18260548935156425576
5104073 3 18410294747868572393
59755656 215 18339930311854621398
633830 44 17988931080225984300
69090 78 18413386557386229218
7364860 26 18200601276388112774
9709674 26 18341058445033876271

> <PUBCHEM_SHAPE_MULTIPOLES>
420.43
9.43
2.1
1.06
1.16
0.42
0.43
-0.59
-2.56
-0.22
0.02
0.09
-0.22
0.11

> <PUBCHEM_SHAPE_SELFOVERLAP>
902.625

> <PUBCHEM_SHAPE_VOLUME>
230.1

> <PUBCHEM_COORDINATE_TYPE>
2
5
10

> <Energy>
71.9966

> <minimizedAffinity>
-9.71656

> <CNNscore>
0.8516715169

> <CNNaffinity>
8.0091800690

> <CNN_VS>
6.8211903572

> <CNNaffinity_variance>
0.7692134380

$$$$
6013


 22 25  0  0  0  0  0  0  0  0999 V2000
   -0.4413   -0.7520   26.2797 O   0  0  0  0  0  0  0  0  0  0  0  0
   -3.6422   -4.5746   16.6368 O   0  0  0  0  0  0  0  0  0  0  0  0
   -0.2586   -2.7772   23.2442 C   0  0  0  0  0  0  0  0  0  0  0  0
   -1.1299   -2.1046   24.3227 C   0  0  0  0  0  0  0  0  0  0  0  0
   -1.0404   -3.7906   22.4031 C   0  0  0  0  0  0  0  0  0  0  0  0
   -2.2172   -3.0514   21.6913 C   0  0  0  0  0  0  0  0  0  0  0  0
   -3.0637   -4.0024   20.7614 C   0  0  0  0  0  0  0  0  0  0  0  0
   -2.2382   -1.3169   23.6123 C   0  0  0  0  0  0  0  0  0  0  0  0
   -3.0730   -2.2250   22.6912 C   0  0  0  0  0  0  0  0  0  0  0  0
   -0.0564   -1.2331   25.0058 C   0  0  0  0  0  0  0  0  0  0  0  0
    0.9703   -3.2452   24.0198 C   0  0  0  0  0  0  0  0  0  0  0  0
   -0.1389   -4.4700   21.3645 C   0  0  0  0  0  0  0  0  0  0  0  0
    1.1798   -2.1526   25.0834 C   0  0  0  0  0  0  0  0  0  0  0  0
   -2.1194   -4.7989   19.8500 C   0  0  0  0  0  0  0  0  0  0  0  0
   -0.9278   -5.4528   20.5092 C   0  0  0  0  0  0  0  0  0  0  0  0
   -1.7625   -3.0810   25.3453 C   0  0  0  0  0  0  0  0  0  0  0  0
   -4.0176   -3.1231   19.9000 C   0  0  0  0  0  0  0  0  0  0  0  0
   -3.9085   -5.0083   21.5748 C   0  0  0  0  0  0  0  0  0  0  0  0
   -4.6157   -3.8548   18.7074 C   0  0  0  0  0  0  0  0  0  0  0  0
   -2.3117   -4.9558   18.5291 C   0  0  0  0  0  0  0  0  0  0  0  0
   -3.5242   -4.4400   17.8511 C   0  0  0  0  0  0  0  0  0  0  0  0
   -1.2192   -0.1799   26.1878 H   0  0  0  0  0  0  0  0  0  0  0  0
  1 10  1  0
  1 22  1  0
  2 21  2  0
  3  4  1  0
  3  5  1  0
  3 11  1  0
  4  8  1  0
  4 10  1  0
  4 16  1  0
  5  6  1  0
  5 12  1  0
  6  7  1  0
  6  9  1  0
  7 14  1  0
  7 17  1  0
  7 18  1  0
  8  9  1  0
 10 13  1  0
 11 13  1  0
 12 15  1  0
 14 15  1  0
 14 20  2  0
 17 19  1  0
 19 21  1  0
 20 21  1  0
M  END
> <PUBCHEM_COMPOUND_CID>
6013

> <PUBCHEM_CONFORMER_RMSD>
0.6

> <PUBCHEM_CONFORMER_DIVERSEORDER>
1

> <PUBCHEM_MMFF94_PARTIAL_CHARGES>
11
1 -0.68
10 0.28
14 -0.28
15 0.14
19 0.06
2 -0.57
20 -0.14
21 0.49
48 0.15
49 0.4
7 0.14

> <PUBCHEM_EFFECTIVE_ROTOR_COUNT>
1.8

> <PUBCHEM_PHARMACOPHORE_FEATURES>
7
1 1 acceptor
1 1 donor
1 2 acceptor
5 3 4 10 11 13 rings
6 3 4 5 6 8 9 rings
6 5 6 7 12 14 15 rings
6 7 14 17 19 20 21 rings

> <PUBCHEM_HEAVY_ATOM_COUNT>
21

> <PUBCHEM_ATOM_DEF_STEREO_COUNT>
6

> <PUBCHEM_ATOM_UDEF_STEREO_COUNT>
0

> <PUBCHEM_BOND_DEF_STEREO_COUNT>
0

> <PUBCHEM_BOND_UDEF_STEREO_COUNT>
0

> <PUBCHEM_ISOTOPIC_ATOM_COUNT>
0

> <PUBCHEM_COMPONENT_COUNT>
1

> <PUBCHEM_CACTVS_TAUTO_COUNT>
5

> <PUBCHEM_CONFORMER_ID>
0000177D00000001

> <PUBCHEM_MMFF94_ENERGY>
67.5416

> <PUBCHEM_FEATURE_SELFOVERLAP>
35.618

> <PUBCHEM_SHAPE_FINGERPRINT>
10062212 137 18336825385559829163
10759866 29 17897457309511876188
10967382 1 18412548682291571786
11132069 177 18410018732180467827
11370993 70 18410569557056084199
11578080 2 16735503067342509174
12011746 2 18412547592124142406
12236239 1 18040155136873436768
12251169 10 18410008845387181634
12403259 226 18410006624652160988
12403259 415 18408880746209696412
12403260 363 18340481291412090749
12403814 3 17894914044785590877
12507557 5 18408881845467772304
12633257 1 18341888602346167976
12839892 36 18340758291450253690
13140716 1 18339643467883616216
13214271 11 18272369780793716703
13224815 77 18411987974316295335
13675066 3 18187087269080573787
14178342 30 18338527339117458393
14223421 5 18341052895787930134
14341114 176 18411985737129035682
14787075 74 18339640165090922602
14790565 3 18050014594947639924
15163728 17 14691189929019880809
15196674 1 18411420639180230811
15375358 24 18413110541697833299
15536298 74 18272376330249831326
15788980 27 17167859768361771669
16945 1 18267308633664624303
17349148 13 18260547844245275310
17492 89 18410012108956776131
1813 80 17168144512515476742
18186145 218 18411423903503023558
18522853 276 18412546492037592553
19050596 39 18410858775858764633
19784866 9 18412265021155473810
200 152 18202274819337965375
20715895 44 18116989984517715477
21033648 29 18262779827106925672
21267235 1 18410302427354843602
21421861 104 18042966467372004754
21637258 2 15647319828885568714
22182313 1 18189614934485510503
22854114 111 18409735070690792279
22854114 59 18343022189864506130
23402539 116 18272925046486162621
23557571 272 18059303161493107767
23559900 14 18343023255612643838
26918003 58 18409728456589012017
2748010 2 18410304609229794207
2838139 119 14835541671104639250
296302 2 16343984710473737934
335352 9 18411702045432157758
34934 24 18341610383102269379
350125 39 18410857681354741304
351380 180 18413386540454065762
3545911 37 18411703166439727155
42 15 18260548935156425576
5104073 3 18410294747868572393
59755656 215 18339930311854621398
633830 44 17988931080225984300
69090 78 18413386557386229218
7364860 26 18200601276388112774
9709674 26 18341058445033876271

> <PUBCHEM_SHAPE_MULTIPOLES>
420.43
9.43
2.1
1.06
1.16
0.42
0.43
-0.59
-2.56
-0.22
0.02
0.09
-0.22
0.11

> <PUBCHEM_SHAPE_SELFOVERLAP>
902.625

> <PUBCHEM_SHAPE_VOLUME>
230.1

> <PUBCHEM_COORDINATE_TYPE>
2
5
10

> <Energy>
71.9966

> <minimizedAffinity>
-7.51487

> <CNNscore>
0.7978124022

> <CNNaffinity>
7.9010910988

> <CNN_VS>
6.3035883904

> <CNNaffinity_variance>
0.6944062114

$$$$
6013


 22 25  0  0  0  0  0  0  0  0999 V2000
    1.7859   -2.2562   24.6075 O   0  0  0  0  0  0  0  0  0  0  0  0
   -6.3699   -5.3737   18.1572 O   0  0  0  0  0  0  0  0  0  0  0  0
   -1.6832   -2.8939   23.6546 C   0  0  0  0  0  0  0  0  0  0  0  0
   -0.2628   -2.4704   23.2326 C   0  0  0  0  0  0  0  0  0  0  0  0
   -2.7335   -2.5801   22.5850 C   0  0  0  0  0  0  0  0  0  0  0  0
   -2.3624   -3.3464   21.2762 C   0  0  0  0  0  0  0  0  0  0  0  0
   -3.4098   -3.1236   20.1191 C   0  0  0  0  0  0  0  0  0  0  0  0
    0.1245   -3.2843   21.9911 C   0  0  0  0  0  0  0  0  0  0  0  0
   -0.8903   -3.0885   20.8501 C   0  0  0  0  0  0  0  0  0  0  0  0
    0.5041   -2.8487   24.5161 C   0  0  0  0  0  0  0  0  0  0  0  0
   -1.8364   -2.2882   25.0476 C   0  0  0  0  0  0  0  0  0  0  0  0
   -4.1405   -2.9780   23.0485 C   0  0  0  0  0  0  0  0  0  0  0  0
   -0.4273   -2.3927   25.6580 C   0  0  0  0  0  0  0  0  0  0  0  0
   -4.8268   -3.3612   20.6598 C   0  0  0  0  0  0  0  0  0  0  0  0
   -5.1768   -2.6940   21.9691 C   0  0  0  0  0  0  0  0  0  0  0  0
   -0.1001   -0.9596   22.9329 C   0  0  0  0  0  0  0  0  0  0  0  0
   -3.1002   -4.1355   18.9765 C   0  0  0  0  0  0  0  0  0  0  0  0
   -3.3476   -1.6894   19.5479 C   0  0  0  0  0  0  0  0  0  0  0  0
   -4.2350   -4.2957   17.9756 C   0  0  0  0  0  0  0  0  0  0  0  0
   -5.7545   -4.0991   20.0262 C   0  0  0  0  0  0  0  0  0  0  0  0
   -5.5079   -4.6766   18.6839 C   0  0  0  0  0  0  0  0  0  0  0  0
    2.3392   -2.5674   23.8741 H   0  0  0  0  0  0  0  0  0  0  0  0
  1 10  1  0
  1 22  1  0
  2 21  2  0
  3  4  1  0
  3  5  1  0
  3 11  1  0
  4  8  1  0
  4 10  1  0
  4 16  1  0
  5  6  1  0
  5 12  1  0
  6  7  1  0
  6  9  1  0
  7 14  1  0
  7 17  1  0
  7 18  1  0
  8  9  1  0
 10 13  1  0
 11 13  1  0
 12 15  1  0
 14 15  1  0
 14 20  2  0
 17 19  1  0
 19 21  1  0
 20 21  1  0
M  END
> <PUBCHEM_COMPOUND_CID>
6013

> <PUBCHEM_CONFORMER_RMSD>
0.6

> <PUBCHEM_CONFORMER_DIVERSEORDER>
1

> <PUBCHEM_MMFF94_PARTIAL_CHARGES>
11
1 -0.68
10 0.28
14 -0.28
15 0.14
19 0.06
2 -0.57
20 -0.14
21 0.49
48 0.15
49 0.4
7 0.14

> <PUBCHEM_EFFECTIVE_ROTOR_COUNT>
1.8

> <PUBCHEM_PHARMACOPHORE_FEATURES>
7
1 1 acceptor
1 1 donor
1 2 acceptor
5 3 4 10 11 13 rings
6 3 4 5 6 8 9 rings
6 5 6 7 12 14 15 rings
6 7 14 17 19 20 21 rings

> <PUBCHEM_HEAVY_ATOM_COUNT>
21

> <PUBCHEM_ATOM_DEF_STEREO_COUNT>
6

> <PUBCHEM_ATOM_UDEF_STEREO_COUNT>
0

> <PUBCHEM_BOND_DEF_STEREO_COUNT>
0

> <PUBCHEM_BOND_UDEF_STEREO_COUNT>
0

> <PUBCHEM_ISOTOPIC_ATOM_COUNT>
0

> <PUBCHEM_COMPONENT_COUNT>
1

> <PUBCHEM_CACTVS_TAUTO_COUNT>
5

> <PUBCHEM_CONFORMER_ID>
0000177D00000001

> <PUBCHEM_MMFF94_ENERGY>
67.5416

> <PUBCHEM_FEATURE_SELFOVERLAP>
35.618

> <PUBCHEM_SHAPE_FINGERPRINT>
10062212 137 18336825385559829163
10759866 29 17897457309511876188
10967382 1 18412548682291571786
11132069 177 18410018732180467827
11370993 70 18410569557056084199
11578080 2 16735503067342509174
12011746 2 18412547592124142406
12236239 1 18040155136873436768
12251169 10 18410008845387181634
12403259 226 18410006624652160988
12403259 415 18408880746209696412
12403260 363 18340481291412090749
12403814 3 17894914044785590877
12507557 5 18408881845467772304
12633257 1 18341888602346167976
12839892 36 18340758291450253690
13140716 1 18339643467883616216
13214271 11 18272369780793716703
13224815 77 18411987974316295335
13675066 3 18187087269080573787
14178342 30 18338527339117458393
14223421 5 18341052895787930134
14341114 176 18411985737129035682
14787075 74 18339640165090922602
14790565 3 18050014594947639924
15163728 17 14691189929019880809
15196674 1 18411420639180230811
15375358 24 18413110541697833299
15536298 74 18272376330249831326
15788980 27 17167859768361771669
16945 1 18267308633664624303
17349148 13 18260547844245275310
17492 89 18410012108956776131
1813 80 17168144512515476742
18186145 218 18411423903503023558
18522853 276 18412546492037592553
19050596 39 18410858775858764633
19784866 9 18412265021155473810
200 152 18202274819337965375
20715895 44 18116989984517715477
21033648 29 18262779827106925672
21267235 1 18410302427354843602
21421861 104 18042966467372004754
21637258 2 15647319828885568714
22182313 1 18189614934485510503
22854114 111 18409735070690792279
22854114 59 18343022189864506130
23402539 116 18272925046486162621
23557571 272 18059303161493107767
23559900 14 18343023255612643838
26918003 58 18409728456589012017
2748010 2 18410304609229794207
2838139 119 14835541671104639250
296302 2 16343984710473737934
335352 9 18411702045432157758
34934 24 18341610383102269379
350125 39 18410857681354741304
351380 180 18413386540454065762
3545911 37 18411703166439727155
42 15 18260548935156425576
5104073 3 18410294747868572393
59755656 215 18339930311854621398
633830 44 17988931080225984300
69090 78 18413386557386229218
7364860 26 18200601276388112774
9709674 26 18341058445033876271

> <PUBCHEM_SHAPE_MULTIPOLES>
420.43
9.43
2.1
1.06
1.16
0.42
0.43
-0.59
-2.56
-0.22
0.02
0.09
-0.22
0.11

> <PUBCHEM_SHAPE_SELFOVERLAP>
902.625

> <PUBCHEM_SHAPE_VOLUME>
230.1

> <PUBCHEM_COORDINATE_TYPE>
2
5
10

> <Energy>
71.9966

> <minimizedAffinity>
-10.15213

> <CNNscore>
0.7794947624

> <CNNaffinity>
7.2727675438

> <CNN_VS>
5.6690840721

> <CNNaffinity_variance>
0.2138515562

$$$$
6013


 22 25  0  0  0  0  0  0  0  0999 V2000
    1.0960   -2.0807   26.6307 O   0  0  0  0  0  0  0  0  0  0  0  0
   -4.6089   -4.5378   17.7278 O   0  0  0  0  0  0  0  0  0  0  0  0
   -1.8062   -3.1788   24.7017 C   0  0  0  0  0  0  0  0  0  0  0  0
   -0.5568   -2.2818   24.7973 C   0  0  0  0  0  0  0  0  0  0  0  0
   -2.7403   -2.7679   23.5596 C   0  0  0  0  0  0  0  0  0  0  0  0
   -1.9600   -2.8695   22.2110 C   0  0  0  0  0  0  0  0  0  0  0  0
   -2.8494   -2.5065   20.9609 C   0  0  0  0  0  0  0  0  0  0  0  0
    0.2446   -2.4467   23.4995 C   0  0  0  0  0  0  0  0  0  0  0  0
   -0.6077   -2.1055   22.2638 C   0  0  0  0  0  0  0  0  0  0  0  0
    0.1033   -2.9020   26.0455 C   0  0  0  0  0  0  0  0  0  0  0  0
   -2.3423   -3.1964   26.1310 C   0  0  0  0  0  0  0  0  0  0  0  0
   -3.9914   -3.6542   23.5134 C   0  0  0  0  0  0  0  0  0  0  0  0
   -1.0765   -3.1580   27.0058 C   0  0  0  0  0  0  0  0  0  0  0  0
   -4.1729   -3.2811   21.0331 C   0  0  0  0  0  0  0  0  0  0  0  0
   -4.9013   -3.2627   22.3564 C   0  0  0  0  0  0  0  0  0  0  0  0
   -0.8546   -0.7804   25.0347 C   0  0  0  0  0  0  0  0  0  0  0  0
   -2.0699   -2.9049   19.6729 C   0  0  0  0  0  0  0  0  0  0  0  0
   -3.1780   -0.9981   20.9005 C   0  0  0  0  0  0  0  0  0  0  0  0
   -2.9382   -2.9641   18.4247 C   0  0  0  0  0  0  0  0  0  0  0  0
   -4.7109   -3.9399   19.9925 C   0  0  0  0  0  0  0  0  0  0  0  0
   -4.1039   -3.8923   18.6415 C   0  0  0  0  0  0  0  0  0  0  0  0
    1.8176   -1.9442   25.9971 H   0  0  0  0  0  0  0  0  0  0  0  0
  1 10  1  0
  1 22  1  0
  2 21  2  0
  3  4  1  0
  3  5  1  0
  3 11  1  0
  4  8  1  0
  4 10  1  0
  4 16  1  0
  5  6  1  0
  5 12  1  0
  6  7  1  0
  6  9  1  0
  7 14  1  0
  7 17  1  0
  7 18  1  0
  8  9  1  0
 10 13  1  0
 11 13  1  0
 12 15  1  0
 14 15  1  0
 14 20  2  0
 17 19  1  0
 19 21  1  0
 20 21  1  0
M  END
> <PUBCHEM_COMPOUND_CID>
6013

> <PUBCHEM_CONFORMER_RMSD>
0.6

> <PUBCHEM_CONFORMER_DIVERSEORDER>
1

> <PUBCHEM_MMFF94_PARTIAL_CHARGES>
11
1 -0.68
10 0.28
14 -0.28
15 0.14
19 0.06
2 -0.57
20 -0.14
21 0.49
48 0.15
49 0.4
7 0.14

> <PUBCHEM_EFFECTIVE_ROTOR_COUNT>
1.8

> <PUBCHEM_PHARMACOPHORE_FEATURES>
7
1 1 acceptor
1 1 donor
1 2 acceptor
5 3 4 10 11 13 rings
6 3 4 5 6 8 9 rings
6 5 6 7 12 14 15 rings
6 7 14 17 19 20 21 rings

> <PUBCHEM_HEAVY_ATOM_COUNT>
21

> <PUBCHEM_ATOM_DEF_STEREO_COUNT>
6

> <PUBCHEM_ATOM_UDEF_STEREO_COUNT>
0

> <PUBCHEM_BOND_DEF_STEREO_COUNT>
0

> <PUBCHEM_BOND_UDEF_STEREO_COUNT>
0

> <PUBCHEM_ISOTOPIC_ATOM_COUNT>
0

> <PUBCHEM_COMPONENT_COUNT>
1

> <PUBCHEM_CACTVS_TAUTO_COUNT>
5

> <PUBCHEM_CONFORMER_ID>
0000177D00000001

> <PUBCHEM_MMFF94_ENERGY>
67.5416

> <PUBCHEM_FEATURE_SELFOVERLAP>
35.618

> <PUBCHEM_SHAPE_FINGERPRINT>
10062212 137 18336825385559829163
10759866 29 17897457309511876188
10967382 1 18412548682291571786
11132069 177 18410018732180467827
11370993 70 18410569557056084199
11578080 2 16735503067342509174
12011746 2 18412547592124142406
12236239 1 18040155136873436768
12251169 10 18410008845387181634
12403259 226 18410006624652160988
12403259 415 18408880746209696412
12403260 363 18340481291412090749
12403814 3 17894914044785590877
12507557 5 18408881845467772304
12633257 1 18341888602346167976
12839892 36 18340758291450253690
13140716 1 18339643467883616216
13214271 11 18272369780793716703
13224815 77 18411987974316295335
13675066 3 18187087269080573787
14178342 30 18338527339117458393
14223421 5 18341052895787930134
14341114 176 18411985737129035682
14787075 74 18339640165090922602
14790565 3 18050014594947639924
15163728 17 14691189929019880809
15196674 1 18411420639180230811
15375358 24 18413110541697833299
15536298 74 18272376330249831326
15788980 27 17167859768361771669
16945 1 18267308633664624303
17349148 13 18260547844245275310
17492 89 18410012108956776131
1813 80 17168144512515476742
18186145 218 18411423903503023558
18522853 276 18412546492037592553
19050596 39 18410858775858764633
19784866 9 18412265021155473810
200 152 18202274819337965375
20715895 44 18116989984517715477
21033648 29 18262779827106925672
21267235 1 18410302427354843602
21421861 104 18042966467372004754
21637258 2 15647319828885568714
22182313 1 18189614934485510503
22854114 111 18409735070690792279
22854114 59 18343022189864506130
23402539 116 18272925046486162621
23557571 272 18059303161493107767
23559900 14 18343023255612643838
26918003 58 18409728456589012017
2748010 2 18410304609229794207
2838139 119 14835541671104639250
296302 2 16343984710473737934
335352 9 18411702045432157758
34934 24 18341610383102269379
350125 39 18410857681354741304
351380 180 18413386540454065762
3545911 37 18411703166439727155
42 15 18260548935156425576
5104073 3 18410294747868572393
59755656 215 18339930311854621398
633830 44 17988931080225984300
69090 78 18413386557386229218
7364860 26 18200601276388112774
9709674 26 18341058445033876271

> <PUBCHEM_SHAPE_MULTIPOLES>
420.43
9.43
2.1
1.06
1.16
0.42
0.43
-0.59
-2.56
-0.22
0.02
0.09
-0.22
0.11

> <PUBCHEM_SHAPE_SELFOVERLAP>
902.625

> <PUBCHEM_SHAPE_VOLUME>
230.1

> <PUBCHEM_COORDINATE_TYPE>
2
5
10

> <Energy>
71.9966

> <minimizedAffinity>
-7.65588

> <CNNscore>
0.5809747577

> <CNNaffinity>
6.9730052948

> <CNN_VS>
4.0511398315

> <CNNaffinity_variance>
0.1722489744

$$$$
6013


 22 25  0  0  0  0  0  0  0  0999 V2000
   -4.1378   -4.1791   17.0836 O   0  0  0  0  0  0  0  0  0  0  0  0
    0.8242   -1.0366   26.2130 O   0  0  0  0  0  0  0  0  0  0  0  0
   -3.6812   -3.7731   20.6858 C   0  0  0  0  0  0  0  0  0  0  0  0
   -3.0457   -3.9845   19.2979 C   0  0  0  0  0  0  0  0  0  0  0  0
   -2.6984   -4.0390   21.8301 C   0  0  0  0  0  0  0  0  0  0  0  0
   -1.4889   -3.0615   21.6911 C   0  0  0  0  0  0  0  0  0  0  0  0
   -0.4338   -3.2250   22.8511 C   0  0  0  0  0  0  0  0  0  0  0  0
   -1.9077   -2.9680   19.1386 C   0  0  0  0  0  0  0  0  0  0  0  0
   -0.8690   -3.1039   20.2667 C   0  0  0  0  0  0  0  0  0  0  0  0
   -4.2794   -3.7145   18.4127 C   0  0  0  0  0  0  0  0  0  0  0  0
   -4.9738   -4.5820   20.6127 C   0  0  0  0  0  0  0  0  0  0  0  0
   -3.3693   -3.8573   23.1975 C   0  0  0  0  0  0  0  0  0  0  0  0
   -5.4341   -4.4206   19.1529 C   0  0  0  0  0  0  0  0  0  0  0  0
   -1.1571   -3.2131   24.2052 C   0  0  0  0  0  0  0  0  0  0  0  0
   -2.3799   -4.0910   24.3317 C   0  0  0  0  0  0  0  0  0  0  0  0
   -2.5031   -5.4131   19.0452 C   0  0  0  0  0  0  0  0  0  0  0  0
    0.5683   -2.0355   22.7732 C   0  0  0  0  0  0  0  0  0  0  0  0
    0.3526   -4.5501   22.7380 C   0  0  0  0  0  0  0  0  0  0  0  0
    1.4020   -1.8529   24.0329 C   0  0  0  0  0  0  0  0  0  0  0  0
   -0.7495   -2.4923   25.2639 C   0  0  0  0  0  0  0  0  0  0  0  0
    0.5080   -1.7088   25.2360 C   0  0  0  0  0  0  0  0  0  0  0  0
   -3.4040   -3.7122   16.6543 H   0  0  0  0  0  0  0  0  0  0  0  0
  1 10  1  0
  1 22  1  0
  2 21  2  0
  3  4  1  0
  3  5  1  0
  3 11  1  0
  4  8  1  0
  4 10  1  0
  4 16  1  0
  5  6  1  0
  5 12  1  0
  6  7  1  0
  6  9  1  0
  7 14  1  0
  7 17  1  0
  7 18  1  0
  8  9  1  0
 10 13  1  0
 11 13  1  0
 12 15  1  0
 14 15  1  0
 14 20  2  0
 17 19  1  0
 19 21  1  0
 20 21  1  0
M  END
> <PUBCHEM_COMPOUND_CID>
6013

> <PUBCHEM_CONFORMER_RMSD>
0.6

> <PUBCHEM_CONFORMER_DIVERSEORDER>
1

> <PUBCHEM_MMFF94_PARTIAL_CHARGES>
11
1 -0.68
10 0.28
14 -0.28
15 0.14
19 0.06
2 -0.57
20 -0.14
21 0.49
48 0.15
49 0.4
7 0.14

> <PUBCHEM_EFFECTIVE_ROTOR_COUNT>
1.8

> <PUBCHEM_PHARMACOPHORE_FEATURES>
7
1 1 acceptor
1 1 donor
1 2 acceptor
5 3 4 10 11 13 rings
6 3 4 5 6 8 9 rings
6 5 6 7 12 14 15 rings
6 7 14 17 19 20 21 rings

> <PUBCHEM_HEAVY_ATOM_COUNT>
21

> <PUBCHEM_ATOM_DEF_STEREO_COUNT>
6

> <PUBCHEM_ATOM_UDEF_STEREO_COUNT>
0

> <PUBCHEM_BOND_DEF_STEREO_COUNT>
0

> <PUBCHEM_BOND_UDEF_STEREO_COUNT>
0

> <PUBCHEM_ISOTOPIC_ATOM_COUNT>
0

> <PUBCHEM_COMPONENT_COUNT>
1

> <PUBCHEM_CACTVS_TAUTO_COUNT>
5

> <PUBCHEM_CONFORMER_ID>
0000177D00000001

> <PUBCHEM_MMFF94_ENERGY>
67.5416

> <PUBCHEM_FEATURE_SELFOVERLAP>
35.618

> <PUBCHEM_SHAPE_FINGERPRINT>
10062212 137 18336825385559829163
10759866 29 17897457309511876188
10967382 1 18412548682291571786
11132069 177 18410018732180467827
11370993 70 18410569557056084199
11578080 2 16735503067342509174
12011746 2 18412547592124142406
12236239 1 18040155136873436768
12251169 10 18410008845387181634
12403259 226 18410006624652160988
12403259 415 18408880746209696412
12403260 363 18340481291412090749
12403814 3 17894914044785590877
12507557 5 18408881845467772304
12633257 1 18341888602346167976
12839892 36 18340758291450253690
13140716 1 18339643467883616216
13214271 11 18272369780793716703
13224815 77 18411987974316295335
13675066 3 18187087269080573787
14178342 30 18338527339117458393
14223421 5 18341052895787930134
14341114 176 18411985737129035682
14787075 74 18339640165090922602
14790565 3 18050014594947639924
15163728 17 14691189929019880809
15196674 1 18411420639180230811
15375358 24 18413110541697833299
15536298 74 18272376330249831326
15788980 27 17167859768361771669
16945 1 18267308633664624303
17349148 13 18260547844245275310
17492 89 18410012108956776131
1813 80 17168144512515476742
18186145 218 18411423903503023558
18522853 276 18412546492037592553
19050596 39 18410858775858764633
19784866 9 18412265021155473810
200 152 18202274819337965375
20715895 44 18116989984517715477
21033648 29 18262779827106925672
21267235 1 18410302427354843602
21421861 104 18042966467372004754
21637258 2 15647319828885568714
22182313 1 18189614934485510503
22854114 111 18409735070690792279
22854114 59 18343022189864506130
23402539 116 18272925046486162621
23557571 272 18059303161493107767
23559900 14 18343023255612643838
26918003 58 18409728456589012017
2748010 2 18410304609229794207
2838139 119 14835541671104639250
296302 2 16343984710473737934
335352 9 18411702045432157758
34934 24 18341610383102269379
350125 39 18410857681354741304
351380 180 18413386540454065762
3545911 37 18411703166439727155
42 15 18260548935156425576
5104073 3 18410294747868572393
59755656 215 18339930311854621398
633830 44 17988931080225984300
69090 78 18413386557386229218
7364860 26 18200601276388112774
9709674 26 18341058445033876271

> <PUBCHEM_SHAPE_MULTIPOLES>
420.43
9.43
2.1
1.06
1.16
0.42
0.43
-0.59
-2.56
-0.22
0.02
0.09
-0.22
0.11

> <PUBCHEM_SHAPE_SELFOVERLAP>
902.625

> <PUBCHEM_SHAPE_VOLUME>
230.1

> <PUBCHEM_COORDINATE_TYPE>
2
5
10

> <Energy>
71.9966

> <minimizedAffinity>
-9.14684

> <CNNscore>
0.3398407698

> <CNNaffinity>
7.4037613869

> <CNN_VS>
2.5160999298

> <CNNaffinity_variance>
0.5582639575

$$$$
6013


 22 25  0  0  0  0  0  0  0  0999 V2000
    2.7638   -3.4556   22.8174 O   0  0  0  0  0  0  0  0  0  0  0  0
   -7.1996   -4.8948   18.7550 O   0  0  0  0  0  0  0  0  0  0  0  0
   -0.8841   -3.2697   22.7313 C   0  0  0  0  0  0  0  0  0  0  0  0
    0.4496   -3.2499   21.9596 C   0  0  0  0  0  0  0  0  0  0  0  0
   -2.0626   -2.7826   21.8830 C   0  0  0  0  0  0  0  0  0  0  0  0
   -2.2036   -3.7133   20.6372 C   0  0  0  0  0  0  0  0  0  0  0  0
   -3.4212   -3.3214   19.7156 C   0  0  0  0  0  0  0  0  0  0  0  0
    0.3294   -4.2254   20.7817 C   0  0  0  0  0  0  0  0  0  0  0  0
   -0.8597   -3.8666   19.8721 C   0  0  0  0  0  0  0  0  0  0  0  0
    1.3980   -3.7118   23.0846 C   0  0  0  0  0  0  0  0  0  0  0  0
   -0.5538   -2.5426   24.0324 C   0  0  0  0  0  0  0  0  0  0  0  0
   -3.3680   -2.7780   22.6886 C   0  0  0  0  0  0  0  0  0  0  0  0
    0.8995   -2.9522   24.3312 C   0  0  0  0  0  0  0  0  0  0  0  0
   -4.6809   -3.1539   20.5769 C   0  0  0  0  0  0  0  0  0  0  0  0
   -4.5424   -2.3240   21.8316 C   0  0  0  0  0  0  0  0  0  0  0  0
    0.8736   -1.8553   21.4358 C   0  0  0  0  0  0  0  0  0  0  0  0
   -3.6357   -4.4611   18.6762 C   0  0  0  0  0  0  0  0  0  0  0  0
   -3.1751   -1.9958   18.9610 C   0  0  0  0  0  0  0  0  0  0  0  0
   -4.9849   -4.4052   17.9749 C   0  0  0  0  0  0  0  0  0  0  0  0
   -5.8769   -3.6800   20.2621 C   0  0  0  0  0  0  0  0  0  0  0  0
   -6.1006   -4.3995   18.9861 C   0  0  0  0  0  0  0  0  0  0  0  0
    3.0374   -3.9499   22.0290 H   0  0  0  0  0  0  0  0  0  0  0  0
  1 10  1  0
  1 22  1  0
  2 21  2  0
  3  4  1  0
  3  5  1  0
  3 11  1  0
  4  8  1  0
  4 10  1  0
  4 16  1  0
  5  6  1  0
  5 12  1  0
  6  7  1  0
  6  9  1  0
  7 14  1  0
  7 17  1  0
  7 18  1  0
  8  9  1  0
 10 13  1  0
 11 13  1  0
 12 15  1  0
 14 15  1  0
 14 20  2  0
 17 19  1  0
 19 21  1  0
 20 21  1  0
M  END
> <PUBCHEM_COMPOUND_CID>
6013

> <PUBCHEM_CONFORMER_RMSD>
0.6

> <PUBCHEM_CONFORMER_DIVERSEORDER>
1

> <PUBCHEM_MMFF94_PARTIAL_CHARGES>
11
1 -0.68
10 0.28
14 -0.28
15 0.14
19 0.06
2 -0.57
20 -0.14
21 0.49
48 0.15
49 0.4
7 0.14

> <PUBCHEM_EFFECTIVE_ROTOR_COUNT>
1.8

> <PUBCHEM_PHARMACOPHORE_FEATURES>
7
1 1 acceptor
1 1 donor
1 2 acceptor
5 3 4 10 11 13 rings
6 3 4 5 6 8 9 rings
6 5 6 7 12 14 15 rings
6 7 14 17 19 20 21 rings

> <PUBCHEM_HEAVY_ATOM_COUNT>
21

> <PUBCHEM_ATOM_DEF_STEREO_COUNT>
6

> <PUBCHEM_ATOM_UDEF_STEREO_COUNT>
0

> <PUBCHEM_BOND_DEF_STEREO_COUNT>
0

> <PUBCHEM_BOND_UDEF_STEREO_COUNT>
0

> <PUBCHEM_ISOTOPIC_ATOM_COUNT>
0

> <PUBCHEM_COMPONENT_COUNT>
1

> <PUBCHEM_CACTVS_TAUTO_COUNT>
5

> <PUBCHEM_CONFORMER_ID>
0000177D00000001

> <PUBCHEM_MMFF94_ENERGY>
67.5416

> <PUBCHEM_FEATURE_SELFOVERLAP>
35.618

> <PUBCHEM_SHAPE_FINGERPRINT>
10062212 137 18336825385559829163
10759866 29 17897457309511876188
10967382 1 18412548682291571786
11132069 177 18410018732180467827
11370993 70 18410569557056084199
11578080 2 16735503067342509174
12011746 2 18412547592124142406
12236239 1 18040155136873436768
12251169 10 18410008845387181634
12403259 226 18410006624652160988
12403259 415 18408880746209696412
12403260 363 18340481291412090749
12403814 3 17894914044785590877
12507557 5 18408881845467772304
12633257 1 18341888602346167976
12839892 36 18340758291450253690
13140716 1 18339643467883616216
13214271 11 18272369780793716703
13224815 77 18411987974316295335
13675066 3 18187087269080573787
14178342 30 18338527339117458393
14223421 5 18341052895787930134
14341114 176 18411985737129035682
14787075 74 18339640165090922602
14790565 3 18050014594947639924
15163728 17 14691189929019880809
15196674 1 18411420639180230811
15375358 24 18413110541697833299
15536298 74 18272376330249831326
15788980 27 17167859768361771669
16945 1 18267308633664624303
17349148 13 18260547844245275310
17492 89 18410012108956776131
1813 80 17168144512515476742
18186145 218 18411423903503023558
18522853 276 18412546492037592553
19050596 39 18410858775858764633
19784866 9 18412265021155473810
200 152 18202274819337965375
20715895 44 18116989984517715477
21033648 29 18262779827106925672
21267235 1 18410302427354843602
21421861 104 18042966467372004754
21637258 2 15647319828885568714
22182313 1 18189614934485510503
22854114 111 18409735070690792279
22854114 59 18343022189864506130
23402539 116 18272925046486162621
23557571 272 18059303161493107767
23559900 14 18343023255612643838
26918003 58 18409728456589012017
2748010 2 18410304609229794207
2838139 119 14835541671104639250
296302 2 16343984710473737934
335352 9 18411702045432157758
34934 24 18341610383102269379
350125 39 18410857681354741304
351380 180 18413386540454065762
3545911 37 18411703166439727155
42 15 18260548935156425576
5104073 3 18410294747868572393
59755656 215 18339930311854621398
633830 44 17988931080225984300
69090 78 18413386557386229218
7364860 26 18200601276388112774
9709674 26 18341058445033876271

> <PUBCHEM_SHAPE_MULTIPOLES>
420.43
9.43
2.1
1.06
1.16
0.42
0.43
-0.59
-2.56
-0.22
0.02
0.09
-0.22
0.11

> <PUBCHEM_SHAPE_SELFOVERLAP>
902.625

> <PUBCHEM_SHAPE_VOLUME>
230.1

> <PUBCHEM_COORDINATE_TYPE>
2
5
10

> <Energy>
71.9966

> <minimizedAffinity>
-4.21687

> <CNNscore>
0.3049987257

> <CNNaffinity>
6.9000606537

> <CNN_VS>
2.1045095921

> <CNNaffinity_variance>
0.1349165589

$$$$
6013


 22 25  0  0  0  0  0  0  0  0999 V2000
   -6.4597   -4.9915   17.7482 O   0  0  0  0  0  0  0  0  0  0  0  0
    1.8274   -1.8691   24.0266 O   0  0  0  0  0  0  0  0  0  0  0  0
   -4.8175   -3.7658   20.7732 C   0  0  0  0  0  0  0  0  0  0  0  0
   -4.7589   -4.6566   19.5171 C   0  0  0  0  0  0  0  0  0  0  0  0
   -3.7080   -4.0908   21.7778 C   0  0  0  0  0  0  0  0  0  0  0  0
   -2.3249   -3.8729   21.0869 C   0  0  0  0  0  0  0  0  0  0  0  0
   -1.1090   -4.1409   22.0542 C   0  0  0  0  0  0  0  0  0  0  0  0
   -3.4301   -4.3796   18.8019 C   0  0  0  0  0  0  0  0  0  0  0  0
   -2.2280   -4.6267   19.7314 C   0  0  0  0  0  0  0  0  0  0  0  0
   -6.0086   -4.1341   18.7797 C   0  0  0  0  0  0  0  0  0  0  0  0
   -6.2750   -3.8693   21.2156 C   0  0  0  0  0  0  0  0  0  0  0  0
   -3.8149   -3.2147   23.0324 C   0  0  0  0  0  0  0  0  0  0  0  0
   -7.0605   -3.9675   19.8956 C   0  0  0  0  0  0  0  0  0  0  0  0
   -1.3293   -3.3864   23.3729 C   0  0  0  0  0  0  0  0  0  0  0  0
   -2.6907   -3.5188   24.0140 C   0  0  0  0  0  0  0  0  0  0  0  0
   -4.8915   -6.1749   19.7935 C   0  0  0  0  0  0  0  0  0  0  0  0
    0.1896   -3.6323   21.3612 C   0  0  0  0  0  0  0  0  0  0  0  0
   -0.9469   -5.6423   22.3807 C   0  0  0  0  0  0  0  0  0  0  0  0
    1.3703   -3.4794   22.3088 C   0  0  0  0  0  0  0  0  0  0  0  0
   -0.3827   -2.6500   23.9796 C   0  0  0  0  0  0  0  0  0  0  0  0
    1.0039   -2.5823   23.4612 C   0  0  0  0  0  0  0  0  0  0  0  0
   -5.7720   -5.0697   17.0687 H   0  0  0  0  0  0  0  0  0  0  0  0
  1 10  1  0
  1 22  1  0
  2 21  2  0
  3  4  1  0
  3  5  1  0
  3 11  1  0
  4  8  1  0
  4 10  1  0
  4 16  1  0
  5  6  1  0
  5 12  1  0
  6  7  1  0
  6  9  1  0
  7 14  1  0
  7 17  1  0
  7 18  1  0
  8  9  1  0
 10 13  1  0
 11 13  1  0
 12 15  1  0
 14 15  1  0
 14 20  2  0
 17 19  1  0
 19 21  1  0
 20 21  1  0
M  END
> <PUBCHEM_COMPOUND_CID>
6013

> <PUBCHEM_CONFORMER_RMSD>
0.6

> <PUBCHEM_CONFORMER_DIVERSEORDER>
1

> <PUBCHEM_MMFF94_PARTIAL_CHARGES>
11
1 -0.68
10 0.28
14 -0.28
15 0.14
19 0.06
2 -0.57
20 -0.14
21 0.49
48 0.15
49 0.4
7 0.14

> <PUBCHEM_EFFECTIVE_ROTOR_COUNT>
1.8

> <PUBCHEM_PHARMACOPHORE_FEATURES>
7
1 1 acceptor
1 1 donor
1 2 acceptor
5 3 4 10 11 13 rings
6 3 4 5 6 8 9 rings
6 5 6 7 12 14 15 rings
6 7 14 17 19 20 21 rings

> <PUBCHEM_HEAVY_ATOM_COUNT>
21

> <PUBCHEM_ATOM_DEF_STEREO_COUNT>
6

> <PUBCHEM_ATOM_UDEF_STEREO_COUNT>
0

> <PUBCHEM_BOND_DEF_STEREO_COUNT>
0

> <PUBCHEM_BOND_UDEF_STEREO_COUNT>
0

> <PUBCHEM_ISOTOPIC_ATOM_COUNT>
0

> <PUBCHEM_COMPONENT_COUNT>
1

> <PUBCHEM_CACTVS_TAUTO_COUNT>
5

> <PUBCHEM_CONFORMER_ID>
0000177D00000001

> <PUBCHEM_MMFF94_ENERGY>
67.5416

> <PUBCHEM_FEATURE_SELFOVERLAP>
35.618

> <PUBCHEM_SHAPE_FINGERPRINT>
10062212 137 18336825385559829163
10759866 29 17897457309511876188
10967382 1 18412548682291571786
11132069 177 18410018732180467827
11370993 70 18410569557056084199
11578080 2 16735503067342509174
12011746 2 18412547592124142406
12236239 1 18040155136873436768
12251169 10 18410008845387181634
12403259 226 18410006624652160988
12403259 415 18408880746209696412
12403260 363 18340481291412090749
12403814 3 17894914044785590877
12507557 5 18408881845467772304
12633257 1 18341888602346167976
12839892 36 18340758291450253690
13140716 1 18339643467883616216
13214271 11 18272369780793716703
13224815 77 18411987974316295335
13675066 3 18187087269080573787
14178342 30 18338527339117458393
14223421 5 18341052895787930134
14341114 176 18411985737129035682
14787075 74 18339640165090922602
14790565 3 18050014594947639924
15163728 17 14691189929019880809
15196674 1 18411420639180230811
15375358 24 18413110541697833299
15536298 74 18272376330249831326
15788980 27 17167859768361771669
16945 1 18267308633664624303
17349148 13 18260547844245275310
17492 89 18410012108956776131
1813 80 17168144512515476742
18186145 218 18411423903503023558
18522853 276 18412546492037592553
19050596 39 18410858775858764633
19784866 9 18412265021155473810
200 152 18202274819337965375
20715895 44 18116989984517715477
21033648 29 18262779827106925672
21267235 1 18410302427354843602
21421861 104 18042966467372004754
21637258 2 15647319828885568714
22182313 1 18189614934485510503
22854114 111 18409735070690792279
22854114 59 18343022189864506130
23402539 116 18272925046486162621
23557571 272 18059303161493107767
23559900 14 18343023255612643838
26918003 58 18409728456589012017
2748010 2 18410304609229794207
2838139 119 14835541671104639250
296302 2 16343984710473737934
335352 9 18411702045432157758
34934 24 18341610383102269379
350125 39 18410857681354741304
351380 180 18413386540454065762
3545911 37 18411703166439727155
42 15 18260548935156425576
5104073 3 18410294747868572393
59755656 215 18339930311854621398
633830 44 17988931080225984300
69090 78 18413386557386229218
7364860 26 18200601276388112774
9709674 26 18341058445033876271

> <PUBCHEM_SHAPE_MULTIPOLES>
420.43
9.43
2.1
1.06
1.16
0.42
0.43
-0.59
-2.56
-0.22
0.02
0.09
-0.22
0.11

> <PUBCHEM_SHAPE_SELFOVERLAP>
902.625

> <PUBCHEM_SHAPE_VOLUME>
230.1

> <PUBCHEM_COORDINATE_TYPE>
2
5
10

> <Energy>
71.9966

> <minimizedAffinity>
-5.70346

> <CNNscore>
0.2782180309

> <CNNaffinity>
7.0261521339

> <CNN_VS>
1.9548021555

> <CNNaffinity_variance>
0.3063214123

$$$$
6013


 22 25  0  0  0  0  0  0  0  0999 V2000
   -2.7099   -1.9661   27.3443 O   0  0  0  0  0  0  0  0  0  0  0  0
   -3.5593   -4.2174   16.7588 O   0  0  0  0  0  0  0  0  0  0  0  0
   -1.5337   -2.7620   23.9778 C   0  0  0  0  0  0  0  0  0  0  0  0
   -2.6191   -2.9197   25.0604 C   0  0  0  0  0  0  0  0  0  0  0  0
   -1.6894   -3.7713   22.8364 C   0  0  0  0  0  0  0  0  0  0  0  0
   -3.0839   -3.5608   22.1663 C   0  0  0  0  0  0  0  0  0  0  0  0
   -3.3277   -4.5276   20.9450 C   0  0  0  0  0  0  0  0  0  0  0  0
   -3.9798   -2.6354   24.4113 C   0  0  0  0  0  0  0  0  0  0  0  0
   -4.2356   -3.5631   23.2096 C   0  0  0  0  0  0  0  0  0  0  0  0
   -2.1415   -1.8415   26.0544 C   0  0  0  0  0  0  0  0  0  0  0  0
   -0.2336   -2.7386   24.7777 C   0  0  0  0  0  0  0  0  0  0  0  0
   -0.5744   -3.6145   21.7948 C   0  0  0  0  0  0  0  0  0  0  0  0
   -0.6080   -2.0067   26.0789 C   0  0  0  0  0  0  0  0  0  0  0  0
   -2.1148   -4.4795   20.0051 C   0  0  0  0  0  0  0  0  0  0  0  0
   -0.7519   -4.5983   20.6457 C   0  0  0  0  0  0  0  0  0  0  0  0
   -2.6525   -4.3082   25.7460 C   0  0  0  0  0  0  0  0  0  0  0  0
   -4.6041   -4.0514   20.1905 C   0  0  0  0  0  0  0  0  0  0  0  0
   -3.5293   -5.9919   21.3948 C   0  0  0  0  0  0  0  0  0  0  0  0
   -4.7495   -4.6448   18.7969 C   0  0  0  0  0  0  0  0  0  0  0  0
   -2.2085   -4.3619   18.6695 C   0  0  0  0  0  0  0  0  0  0  0  0
   -3.5185   -4.3628   17.9768 C   0  0  0  0  0  0  0  0  0  0  0  0
   -3.6718   -1.8564   27.2858 H   0  0  0  0  0  0  0  0  0  0  0  0
  1 10  1  0
  1 22  1  0
  2 21  2  0
  3  4  1  0
  3  5  1  0
  3 11  1  0
  4  8  1  0
  4 10  1  0
  4 16  1  0
  5  6  1  0
  5 12  1  0
  6  7  1  0
  6  9  1  0
  7 14  1  0
  7 17  1  0
  7 18  1  0
  8  9  1  0
 10 13  1  0
 11 13  1  0
 12 15  1  0
 14 15  1  0
 14 20  2  0
 17 19  1  0
 19 21  1  0
 20 21  1  0
M  END
> <PUBCHEM_COMPOUND_CID>
6013

> <PUBCHEM_CONFORMER_RMSD>
0.6

> <PUBCHEM_CONFORMER_DIVERSEORDER>
1

> <PUBCHEM_MMFF94_PARTIAL_CHARGES>
11
1 -0.68
10 0.28
14 -0.28
15 0.14
19 0.06
2 -0.57
20 -0.14
21 0.49
48 0.15
49 0.4
7 0.14

> <PUBCHEM_EFFECTIVE_ROTOR_COUNT>
1.8

> <PUBCHEM_PHARMACOPHORE_FEATURES>
7
1 1 acceptor
1 1 donor
1 2 acceptor
5 3 4 10 11 13 rings
6 3 4 5 6 8 9 rings
6 5 6 7 12 14 15 rings
6 7 14 17 19 20 21 rings

> <PUBCHEM_HEAVY_ATOM_COUNT>
21

> <PUBCHEM_ATOM_DEF_STEREO_COUNT>
6

> <PUBCHEM_ATOM_UDEF_STEREO_COUNT>
0

> <PUBCHEM_BOND_DEF_STEREO_COUNT>
0

> <PUBCHEM_BOND_UDEF_STEREO_COUNT>
0

> <PUBCHEM_ISOTOPIC_ATOM_COUNT>
0

> <PUBCHEM_COMPONENT_COUNT>
1

> <PUBCHEM_CACTVS_TAUTO_COUNT>
5

> <PUBCHEM_CONFORMER_ID>
0000177D00000001

> <PUBCHEM_MMFF94_ENERGY>
67.5416

> <PUBCHEM_FEATURE_SELFOVERLAP>
35.618

> <PUBCHEM_SHAPE_FINGERPRINT>
10062212 137 18336825385559829163
10759866 29 17897457309511876188
10967382 1 18412548682291571786
11132069 177 18410018732180467827
11370993 70 18410569557056084199
11578080 2 16735503067342509174
12011746 2 18412547592124142406
12236239 1 18040155136873436768
12251169 10 18410008845387181634
12403259 226 18410006624652160988
12403259 415 18408880746209696412
12403260 363 18340481291412090749
12403814 3 17894914044785590877
12507557 5 18408881845467772304
12633257 1 18341888602346167976
12839892 36 18340758291450253690
13140716 1 18339643467883616216
13214271 11 18272369780793716703
13224815 77 18411987974316295335
13675066 3 18187087269080573787
14178342 30 18338527339117458393
14223421 5 18341052895787930134
14341114 176 18411985737129035682
14787075 74 18339640165090922602
14790565 3 18050014594947639924
15163728 17 14691189929019880809
15196674 1 18411420639180230811
15375358 24 18413110541697833299
15536298 74 18272376330249831326
15788980 27 17167859768361771669
16945 1 18267308633664624303
17349148 13 18260547844245275310
17492 89 18410012108956776131
1813 80 17168144512515476742
18186145 218 18411423903503023558
18522853 276 18412546492037592553
19050596 39 18410858775858764633
19784866 9 18412265021155473810
200 152 18202274819337965375
20715895 44 18116989984517715477
21033648 29 18262779827106925672
21267235 1 18410302427354843602
21421861 104 18042966467372004754
21637258 2 15647319828885568714
22182313 1 18189614934485510503
22854114 111 18409735070690792279
22854114 59 18343022189864506130
23402539 116 18272925046486162621
23557571 272 18059303161493107767
23559900 14 18343023255612643838
26918003 58 18409728456589012017
2748010 2 18410304609229794207
2838139 119 14835541671104639250
296302 2 16343984710473737934
335352 9 18411702045432157758
34934 24 18341610383102269379
350125 39 18410857681354741304
351380 180 18413386540454065762
3545911 37 18411703166439727155
42 15 18260548935156425576
5104073 3 18410294747868572393
59755656 215 18339930311854621398
633830 44 17988931080225984300
69090 78 18413386557386229218
7364860 26 18200601276388112774
9709674 26 18341058445033876271

> <PUBCHEM_SHAPE_MULTIPOLES>
420.43
9.43
2.1
1.06
1.16
0.42
0.43
-0.59
-2.56
-0.22
0.02
0.09
-0.22
0.11

> <PUBCHEM_SHAPE_SELFOVERLAP>
902.625

> <PUBCHEM_SHAPE_VOLUME>
230.1

> <PUBCHEM_COORDINATE_TYPE>
2
5
10

> <Energy>
71.9966

> <minimizedAffinity>
-1.02276

> <CNNscore>
0.2052184939

> <CNNaffinity>
6.6015210152

> <CNN_VS>
1.3547542095

> <CNNaffinity_variance>
0.1415707022

$$$$
6013


 22 25  0  0  0  0  0  0  0  0999 V2000
   -3.2665    0.2623   17.8100 O   0  0  0  0  0  0  0  0  0  0  0  0
   -5.5793   -9.5125   21.9266 O   0  0  0  0  0  0  0  0  0  0  0  0
   -2.5694   -3.0430   19.2023 C   0  0  0  0  0  0  0  0  0  0  0  0
   -3.4835   -1.8031   19.1593 C   0  0  0  0  0  0  0  0  0  0  0  0
   -2.8644   -3.9508   20.4000 C   0  0  0  0  0  0  0  0  0  0  0  0
   -4.3454   -4.4371   20.3092 C   0  0  0  0  0  0  0  0  0  0  0  0
   -4.7401   -5.4174   21.4792 C   0  0  0  0  0  0  0  0  0  0  0  0
   -4.9298   -2.2870   18.9921 C   0  0  0  0  0  0  0  0  0  0  0  0
   -5.3344   -3.2535   20.1200 C   0  0  0  0  0  0  0  0  0  0  0  0
   -2.8929   -1.0980   17.9213 C   0  0  0  0  0  0  0  0  0  0  0  0
   -1.1685   -2.4585   19.0396 C   0  0  0  0  0  0  0  0  0  0  0  0
   -1.9150   -5.1550   20.4368 C   0  0  0  0  0  0  0  0  0  0  0  0
   -1.3684   -1.2683   18.0843 C   0  0  0  0  0  0  0  0  0  0  0  0
   -3.6766   -6.5175   21.6048 C   0  0  0  0  0  0  0  0  0  0  0  0
   -2.2333   -6.0717   21.6107 C   0  0  0  0  0  0  0  0  0  0  0  0
   -3.3857   -0.8833   20.4016 C   0  0  0  0  0  0  0  0  0  0  0  0
   -6.1225   -6.0505   21.1425 C   0  0  0  0  0  0  0  0  0  0  0  0
   -4.8409   -4.6889   22.8379 C   0  0  0  0  0  0  0  0  0  0  0  0
   -6.4533   -7.2794   21.9765 C   0  0  0  0  0  0  0  0  0  0  0  0
   -3.9645   -7.8244   21.7292 C   0  0  0  0  0  0  0  0  0  0  0  0
   -5.3602   -8.3073   21.8506 C   0  0  0  0  0  0  0  0  0  0  0  0
   -4.2291    0.3261   17.7095 H   0  0  0  0  0  0  0  0  0  0  0  0
  1 10  1  0
  1 22  1  0
  2 21  2  0
  3  4  1  0
  3  5  1  0
  3 11  1  0
  4  8  1  0
  4 10  1  0
  4 16  1  0
  5  6  1  0
  5 12  1  0
  6  7  1  0
  6  9  1  0
  7 14  1  0
  7 17  1  0
  7 18  1  0
  8  9  1  0
 10 13  1  0
 11 13  1  0
 12 15  1  0
 14 15  1  0
 14 20  2  0
 17 19  1  0
 19 21  1  0
 20 21  1  0
M  END
> <PUBCHEM_COMPOUND_CID>
6013

> <PUBCHEM_CONFORMER_RMSD>
0.6

> <PUBCHEM_CONFORMER_DIVERSEORDER>
1

> <PUBCHEM_MMFF94_PARTIAL_CHARGES>
11
1 -0.68
10 0.28
14 -0.28
15 0.14
19 0.06
2 -0.57
20 -0.14
21 0.49
48 0.15
49 0.4
7 0.14

> <PUBCHEM_EFFECTIVE_ROTOR_COUNT>
1.8

> <PUBCHEM_PHARMACOPHORE_FEATURES>
7
1 1 acceptor
1 1 donor
1 2 acceptor
5 3 4 10 11 13 rings
6 3 4 5 6 8 9 rings
6 5 6 7 12 14 15 rings
6 7 14 17 19 20 21 rings

> <PUBCHEM_HEAVY_ATOM_COUNT>
21

> <PUBCHEM_ATOM_DEF_STEREO_COUNT>
6

> <PUBCHEM_ATOM_UDEF_STEREO_COUNT>
0

> <PUBCHEM_BOND_DEF_STEREO_COUNT>
0

> <PUBCHEM_BOND_UDEF_STEREO_COUNT>
0

> <PUBCHEM_ISOTOPIC_ATOM_COUNT>
0

> <PUBCHEM_COMPONENT_COUNT>
1

> <PUBCHEM_CACTVS_TAUTO_COUNT>
5

> <PUBCHEM_CONFORMER_ID>
0000177D00000001

> <PUBCHEM_MMFF94_ENERGY>
67.5416

> <PUBCHEM_FEATURE_SELFOVERLAP>
35.618

> <PUBCHEM_SHAPE_FINGERPRINT>
10062212 137 18336825385559829163
10759866 29 17897457309511876188
10967382 1 18412548682291571786
11132069 177 18410018732180467827
11370993 70 18410569557056084199
11578080 2 16735503067342509174
12011746 2 18412547592124142406
12236239 1 18040155136873436768
12251169 10 18410008845387181634
12403259 226 18410006624652160988
12403259 415 18408880746209696412
12403260 363 18340481291412090749
12403814 3 17894914044785590877
12507557 5 18408881845467772304
12633257 1 18341888602346167976
12839892 36 18340758291450253690
13140716 1 18339643467883616216
13214271 11 18272369780793716703
13224815 77 18411987974316295335
13675066 3 18187087269080573787
14178342 30 18338527339117458393
14223421 5 18341052895787930134
14341114 176 18411985737129035682
14787075 74 18339640165090922602
14790565 3 18050014594947639924
15163728 17 14691189929019880809
15196674 1 18411420639180230811
15375358 24 18413110541697833299
15536298 74 18272376330249831326
15788980 27 17167859768361771669
16945 1 18267308633664624303
17349148 13 18260547844245275310
17492 89 18410012108956776131
1813 80 17168144512515476742
18186145 218 18411423903503023558
18522853 276 18412546492037592553
19050596 39 18410858775858764633
19784866 9 18412265021155473810
200 152 18202274819337965375
20715895 44 18116989984517715477
21033648 29 18262779827106925672
21267235 1 18410302427354843602
21421861 104 18042966467372004754
21637258 2 15647319828885568714
22182313 1 18189614934485510503
22854114 111 18409735070690792279
22854114 59 18343022189864506130
23402539 116 18272925046486162621
23557571 272 18059303161493107767
23559900 14 18343023255612643838
26918003 58 18409728456589012017
2748010 2 18410304609229794207
2838139 119 14835541671104639250
296302 2 16343984710473737934
335352 9 18411702045432157758
34934 24 18341610383102269379
350125 39 18410857681354741304
351380 180 18413386540454065762
3545911 37 18411703166439727155
42 15 18260548935156425576
5104073 3 18410294747868572393
59755656 215 18339930311854621398
633830 44 17988931080225984300
69090 78 18413386557386229218
7364860 26 18200601276388112774
9709674 26 18341058445033876271

> <PUBCHEM_SHAPE_MULTIPOLES>
420.43
9.43
2.1
1.06
1.16
0.42
0.43
-0.59
-2.56
-0.22
0.02
0.09
-0.22
0.11

> <PUBCHEM_SHAPE_SELFOVERLAP>
902.625

> <PUBCHEM_SHAPE_VOLUME>
230.1

> <PUBCHEM_COORDINATE_TYPE>
2
5
10

> <Energy>
71.9966

> <minimizedAffinity>
18.18239

> <CNNscore>
0.1732103527

> <CNNaffinity>
5.2537026405

> <CNN_VS>
0.9099956751

> <CNNaffinity_variance>
1.3477950096

$$$$
