2999413


 26 27  0  0  0  0  0  0  0  0999 V2000
   -9.8597   -5.7864   23.3440 O   0  0  0  0  0  0  0  0  0  0  0  0
   -4.3023   -4.0737   22.2197 O   0  0  0  0  0  0  0  0  0  0  0  0
   -3.6289   -6.0490   23.2096 O   0  0  0  0  0  0  0  0  0  0  0  0
   -1.5177   -3.8351   21.2936 O   0  0  0  0  0  0  0  0  0  0  0  0
   -1.4749   -6.3136   17.2036 O   0  0  0  0  0  0  0  0  0  0  0  0
   -9.1332   -4.9511   22.4433 C   0  0  0  0  0  0  0  0  0  0  0  0
   -8.7639   -5.7751   21.2014 C   0  0  0  0  0  0  0  0  0  0  0  0
   -7.9391   -4.3331   23.1868 C   0  0  0  0  0  0  0  0  0  0  0  0
   -7.9699   -7.0545   21.5055 C   0  0  0  0  0  0  0  0  0  0  0  0
   -7.1464   -3.3376   22.3363 C   0  0  0  0  0  0  0  0  0  0  0  0
   -7.4080   -7.7062   20.2357 C   0  0  0  0  0  0  0  0  0  0  0  0
   -6.0149   -2.6517   23.1130 C   0  0  0  0  0  0  0  0  0  0  0  0
   -6.1400   -7.0215   19.7078 C   0  0  0  0  0  0  0  0  0  0  0  0
   -4.8505   -3.5908   23.4587 C   0  0  0  0  0  0  0  0  0  0  0  0
   -4.8843   -7.4101   20.5028 C   0  0  0  0  0  0  0  0  0  0  0  0
   -3.6825   -6.5801   20.1068 C   0  0  0  0  0  0  0  0  0  0  0  0
   -3.7634   -2.8342   24.2183 C   0  0  0  0  0  0  0  0  0  0  0  0
   -3.1445   -5.5629   20.9235 C   0  0  0  0  0  0  0  0  0  0  0  0
   -3.6944   -5.2841   22.2632 C   0  0  0  0  0  0  0  0  0  0  0  0
   -3.0871   -6.8079   18.8532 C   0  0  0  0  0  0  0  0  0  0  0  0
   -2.0449   -4.8066   20.4853 C   0  0  0  0  0  0  0  0  0  0  0  0
   -2.0014   -6.0429   18.4324 C   0  0  0  0  0  0  0  0  0  0  0  0
   -1.4729   -5.0399   19.2363 C   0  0  0  0  0  0  0  0  0  0  0  0
  -10.6157   -6.1804   22.8813 H   0  0  0  0  0  0  0  0  0  0  0  0
   -1.8950   -3.6704   22.1353 H   0  0  0  0  0  0  0  0  0  0  0  0
   -1.8442   -6.9936   16.6752 H   0  0  0  0  0  0  0  0  0  0  0  0
  1  6  1  0
  1 24  1  0
  2 14  1  0
  2 19  1  0
  3 19  2  0
  4 21  1  0
  4 25  1  0
  5 22  1  0
  5 26  1  0
  6  7  1  0
  6  8  1  0
  7  9  1  0
  8 10  1  0
  9 11  1  0
 10 12  1  0
 11 13  1  0
 12 14  1  0
 13 15  1  0
 14 17  1  0
 15 16  1  0
 16 18  2  0
 16 20  1  0
 18 19  1  0
 18 21  1  0
 20 22  2  0
 21 23  2  0
 22 23  1  0
M  END
> <PUBCHEM_COMPOUND_CID>
2999413

> <PUBCHEM_CONFORMER_RMSD>
0.6

> <PUBCHEM_CONFORMER_DIVERSEORDER>
1
6
14
27
9
16
11
26
8
2
22
5
20
28
18
17
29
3
24
19
21
13
15
7
23
4
25
12
10

> <PUBCHEM_MMFF94_PARTIAL_CHARGES>
20
1 -0.68
14 0.28
15 0.14
16 -0.14
18 0.09
19 0.63
2 -0.43
20 -0.15
21 0.08
22 0.08
23 -0.15
3 -0.57
4 -0.53
45 0.4
46 0.15
47 0.15
48 0.45
49 0.45
5 -0.53
6 0.28

> <PUBCHEM_EFFECTIVE_ROTOR_COUNT>
2.2

> <PUBCHEM_PHARMACOPHORE_FEATURES>
6
1 1 acceptor
1 1 donor
1 3 acceptor
1 4 donor
1 5 donor
6 16 18 20 21 22 23 rings

> <PUBCHEM_HEAVY_ATOM_COUNT>
23

> <PUBCHEM_ATOM_DEF_STEREO_COUNT>
2

> <PUBCHEM_ATOM_UDEF_STEREO_COUNT>
0

> <PUBCHEM_BOND_DEF_STEREO_COUNT>
0

> <PUBCHEM_BOND_UDEF_STEREO_COUNT>
0

> <PUBCHEM_ISOTOPIC_ATOM_COUNT>
0

> <PUBCHEM_COMPONENT_COUNT>
1

> <PUBCHEM_CACTVS_TAUTO_COUNT>
25

> <PUBCHEM_CONFORMER_ID>
002DC47500000001

> <PUBCHEM_MMFF94_ENERGY>
51.6521

> <PUBCHEM_FEATURE_SELFOVERLAP>
30.446

> <PUBCHEM_SHAPE_FINGERPRINT>
104564 63 18340206271993051459
10498660 4 18187631549186102207
10577160 183 17606693423048979742
10616163 171 18266175029013727061
10759866 29 17750229218859711762
108634 29 18411143511243732574
1100329 8 17185877190433830119
11578080 2 17058915861662947194
116883 192 18412832382636582198
12011746 2 18335696144590423807
12054548 360 18337387261554875763
12156800 1 11695045847065978403
12553582 1 18337941355723699521
12788726 201 18339079272527017530
12954195 1 18196384628153038830
13402501 40 18410292523613913767
13533116 47 17911794988931237615
13941206 138 17823424798885047762
14178342 30 17618481208803059632
14251740 79 18268155262187636390
14251745 187 18265888240930317283
14251751 93 18337386020182837502
14251757 17 18340208496912958262
14251757 5 18336274478600052878
14289585 56 17025448677686211638
14363568 33 17831602116089395611
14790565 3 18338242566191680045
14931854 50 18192983829844991199
15081414 286 18267592488269592273
15210252 30 18041841838786063412
17093844 170 18338788043621724272
17357779 13 18338788026679147463
19591789 44 18410009931708134251
20775438 99 17121094438368206175
21141583 151 18411697703262438637
21634736 98 18410570674064001468
221357 26 18411697699342485711
221490 88 18411139126039522364
22393880 68 18190738627232927852
22907989 373 17973200346140242700
23379529 103 18202007594804787190
23419403 2 17703496796872386008
23559900 14 18341611543049219120
23566358 2 18411982468764321124
238 59 17976219553578124023
2871803 45 18335692832737868381
3014063 31 18410290320121227783
6287921 2 17544481216121896507

> <PUBCHEM_SHAPE_MULTIPOLES>
443.98
8.13
4.23
1.13
0.08
1.63
0.2
-3.4
-2.74
-1.52
0.36
0
0.19
0.73

> <PUBCHEM_SHAPE_SELFOVERLAP>
910.639

> <PUBCHEM_SHAPE_VOLUME>
254.2

> <PUBCHEM_COORDINATE_TYPE>
2
5
10

> <Energy>
43.3336

> <minimizedAffinity>
-6.16681

> <CNNscore>
0.6085346937

> <CNNaffinity>
6.6308636665

> <CNN_VS>
4.0351104736

> <CNNaffinity_variance>
0.2542466819

$$$$
2999413


 26 27  0  0  0  0  0  0  0  0999 V2000
   -9.4339   -4.6890   24.0528 O   0  0  0  0  0  0  0  0  0  0  0  0
   -5.6091   -6.6123   19.9596 O   0  0  0  0  0  0  0  0  0  0  0  0
   -5.8253   -4.5380   18.9670 O   0  0  0  0  0  0  0  0  0  0  0  0
   -3.3240   -7.0074   18.1457 O   0  0  0  0  0  0  0  0  0  0  0  0
    0.3466   -5.0667   20.5192 O   0  0  0  0  0  0  0  0  0  0  0  0
   -8.3828   -5.6421   23.8996 C   0  0  0  0  0  0  0  0  0  0  0  0
   -7.0618   -4.9872   24.3285 C   0  0  0  0  0  0  0  0  0  0  0  0
   -8.4000   -6.1789   22.4601 C   0  0  0  0  0  0  0  0  0  0  0  0
   -6.7253   -3.6916   23.5749 C   0  0  0  0  0  0  0  0  0  0  0  0
   -7.3714   -7.2856   22.2147 C   0  0  0  0  0  0  0  0  0  0  0  0
   -5.2937   -3.2141   23.8493 C   0  0  0  0  0  0  0  0  0  0  0  0
   -7.4586   -7.8845   20.8049 C   0  0  0  0  0  0  0  0  0  0  0  0
   -4.2309   -3.9788   23.0486 C   0  0  0  0  0  0  0  0  0  0  0  0
   -6.9887   -6.9266   19.7008 C   0  0  0  0  0  0  0  0  0  0  0  0
   -4.1423   -3.5115   21.5879 C   0  0  0  0  0  0  0  0  0  0  0  0
   -3.2414   -4.4026   20.7607 C   0  0  0  0  0  0  0  0  0  0  0  0
   -7.0944   -7.5972   18.3332 C   0  0  0  0  0  0  0  0  0  0  0  0
   -3.7293   -5.3163   19.8024 C   0  0  0  0  0  0  0  0  0  0  0  0
   -5.1695   -5.4153   19.5010 C   0  0  0  0  0  0  0  0  0  0  0  0
   -1.8525   -4.3440   20.9736 C   0  0  0  0  0  0  0  0  0  0  0  0
   -2.8422   -6.1382   19.0877 C   0  0  0  0  0  0  0  0  0  0  0  0
   -0.9884   -5.1721   20.2602 C   0  0  0  0  0  0  0  0  0  0  0  0
   -1.4694   -6.0732   19.3178 C   0  0  0  0  0  0  0  0  0  0  0  0
   -9.4293   -4.3455   24.9599 H   0  0  0  0  0  0  0  0  0  0  0  0
   -4.2453   -7.0588   17.9834 H   0  0  0  0  0  0  0  0  0  0  0  0
    0.6529   -4.4535   21.1581 H   0  0  0  0  0  0  0  0  0  0  0  0
  1  6  1  0
  1 24  1  0
  2 14  1  0
  2 19  1  0
  3 19  2  0
  4 21  1  0
  4 25  1  0
  5 22  1  0
  5 26  1  0
  6  7  1  0
  6  8  1  0
  7  9  1  0
  8 10  1  0
  9 11  1  0
 10 12  1  0
 11 13  1  0
 12 14  1  0
 13 15  1  0
 14 17  1  0
 15 16  1  0
 16 18  2  0
 16 20  1  0
 18 19  1  0
 18 21  1  0
 20 22  2  0
 21 23  2  0
 22 23  1  0
M  END
> <PUBCHEM_COMPOUND_CID>
2999413

> <PUBCHEM_CONFORMER_RMSD>
0.6

> <PUBCHEM_CONFORMER_DIVERSEORDER>
1
6
14
27
9
16
11
26
8
2
22
5
20
28
18
17
29
3
24
19
21
13
15
7
23
4
25
12
10

> <PUBCHEM_MMFF94_PARTIAL_CHARGES>
20
1 -0.68
14 0.28
15 0.14
16 -0.14
18 0.09
19 0.63
2 -0.43
20 -0.15
21 0.08
22 0.08
23 -0.15
3 -0.57
4 -0.53
45 0.4
46 0.15
47 0.15
48 0.45
49 0.45
5 -0.53
6 0.28

> <PUBCHEM_EFFECTIVE_ROTOR_COUNT>
2.2

> <PUBCHEM_PHARMACOPHORE_FEATURES>
6
1 1 acceptor
1 1 donor
1 3 acceptor
1 4 donor
1 5 donor
6 16 18 20 21 22 23 rings

> <PUBCHEM_HEAVY_ATOM_COUNT>
23

> <PUBCHEM_ATOM_DEF_STEREO_COUNT>
2

> <PUBCHEM_ATOM_UDEF_STEREO_COUNT>
0

> <PUBCHEM_BOND_DEF_STEREO_COUNT>
0

> <PUBCHEM_BOND_UDEF_STEREO_COUNT>
0

> <PUBCHEM_ISOTOPIC_ATOM_COUNT>
0

> <PUBCHEM_COMPONENT_COUNT>
1

> <PUBCHEM_CACTVS_TAUTO_COUNT>
25

> <PUBCHEM_CONFORMER_ID>
002DC47500000001

> <PUBCHEM_MMFF94_ENERGY>
51.6521

> <PUBCHEM_FEATURE_SELFOVERLAP>
30.446

> <PUBCHEM_SHAPE_FINGERPRINT>
104564 63 18340206271993051459
10498660 4 18187631549186102207
10577160 183 17606693423048979742
10616163 171 18266175029013727061
10759866 29 17750229218859711762
108634 29 18411143511243732574
1100329 8 17185877190433830119
11578080 2 17058915861662947194
116883 192 18412832382636582198
12011746 2 18335696144590423807
12054548 360 18337387261554875763
12156800 1 11695045847065978403
12553582 1 18337941355723699521
12788726 201 18339079272527017530
12954195 1 18196384628153038830
13402501 40 18410292523613913767
13533116 47 17911794988931237615
13941206 138 17823424798885047762
14178342 30 17618481208803059632
14251740 79 18268155262187636390
14251745 187 18265888240930317283
14251751 93 18337386020182837502
14251757 17 18340208496912958262
14251757 5 18336274478600052878
14289585 56 17025448677686211638
14363568 33 17831602116089395611
14790565 3 18338242566191680045
14931854 50 18192983829844991199
15081414 286 18267592488269592273
15210252 30 18041841838786063412
17093844 170 18338788043621724272
17357779 13 18338788026679147463
19591789 44 18410009931708134251
20775438 99 17121094438368206175
21141583 151 18411697703262438637
21634736 98 18410570674064001468
221357 26 18411697699342485711
221490 88 18411139126039522364
22393880 68 18190738627232927852
22907989 373 17973200346140242700
23379529 103 18202007594804787190
23419403 2 17703496796872386008
23559900 14 18341611543049219120
23566358 2 18411982468764321124
238 59 17976219553578124023
2871803 45 18335692832737868381
3014063 31 18410290320121227783
6287921 2 17544481216121896507

> <PUBCHEM_SHAPE_MULTIPOLES>
443.98
8.13
4.23
1.13
0.08
1.63
0.2
-3.4
-2.74
-1.52
0.36
0
0.19
0.73

> <PUBCHEM_SHAPE_SELFOVERLAP>
910.639

> <PUBCHEM_SHAPE_VOLUME>
254.2

> <PUBCHEM_COORDINATE_TYPE>
2
5
10

> <Energy>
43.3336

> <minimizedAffinity>
-6.35114

> <CNNscore>
0.4381296635

> <CNNaffinity>
6.1693191528

> <CNN_VS>
2.7029616833

> <CNNaffinity_variance>
0.2740639746

$$$$
2999413


 26 27  0  0  0  0  0  0  0  0999 V2000
  -11.0353   -5.4009   22.0550 O   0  0  0  0  0  0  0  0  0  0  0  0
   -5.6378   -6.8372   20.0837 O   0  0  0  0  0  0  0  0  0  0  0  0
   -5.6691   -4.8393   18.9250 O   0  0  0  0  0  0  0  0  0  0  0  0
   -2.7718   -6.9353   19.4170 O   0  0  0  0  0  0  0  0  0  0  0  0
   -0.7119   -4.4273   22.9298 O   0  0  0  0  0  0  0  0  0  0  0  0
   -9.9091   -6.1938   22.4288 C   0  0  0  0  0  0  0  0  0  0  0  0
   -8.9833   -5.3438   23.3110 C   0  0  0  0  0  0  0  0  0  0  0  0
   -9.2522   -6.7594   21.1604 C   0  0  0  0  0  0  0  0  0  0  0  0
   -8.5228   -4.0302   22.6613 C   0  0  0  0  0  0  0  0  0  0  0  0
   -8.0886   -7.7095   21.4539 C   0  0  0  0  0  0  0  0  0  0  0  0
   -7.4107   -3.3429   23.4636 C   0  0  0  0  0  0  0  0  0  0  0  0
   -7.4994   -8.3462   20.1884 C   0  0  0  0  0  0  0  0  0  0  0  0
   -6.0244   -3.9622   23.2399 C   0  0  0  0  0  0  0  0  0  0  0  0
   -6.7298   -7.3550   19.3037 C   0  0  0  0  0  0  0  0  0  0  0  0
   -5.3869   -3.5199   21.9141 C   0  0  0  0  0  0  0  0  0  0  0  0
   -4.1194   -4.2884   21.6096 C   0  0  0  0  0  0  0  0  0  0  0  0
   -6.1662   -8.0643   18.0746 C   0  0  0  0  0  0  0  0  0  0  0  0
   -4.0417   -5.2847   20.6134 C   0  0  0  0  0  0  0  0  0  0  0  0
   -5.1968   -5.5994   19.7522 C   0  0  0  0  0  0  0  0  0  0  0  0
   -2.9682   -4.0231   22.3727 C   0  0  0  0  0  0  0  0  0  0  0  0
   -2.8425   -5.9842   20.3995 C   0  0  0  0  0  0  0  0  0  0  0  0
   -1.7895   -4.7321   22.1510 C   0  0  0  0  0  0  0  0  0  0  0  0
   -1.7139   -5.7146   21.1710 C   0  0  0  0  0  0  0  0  0  0  0  0
  -11.4555   -5.0402   22.8513 H   0  0  0  0  0  0  0  0  0  0  0  0
   -3.5250   -7.1242   18.8927 H   0  0  0  0  0  0  0  0  0  0  0  0
   -0.7812   -3.7619   23.5858 H   0  0  0  0  0  0  0  0  0  0  0  0
  1  6  1  0
  1 24  1  0
  2 14  1  0
  2 19  1  0
  3 19  2  0
  4 21  1  0
  4 25  1  0
  5 22  1  0
  5 26  1  0
  6  7  1  0
  6  8  1  0
  7  9  1  0
  8 10  1  0
  9 11  1  0
 10 12  1  0
 11 13  1  0
 12 14  1  0
 13 15  1  0
 14 17  1  0
 15 16  1  0
 16 18  2  0
 16 20  1  0
 18 19  1  0
 18 21  1  0
 20 22  2  0
 21 23  2  0
 22 23  1  0
M  END
> <PUBCHEM_COMPOUND_CID>
2999413

> <PUBCHEM_CONFORMER_RMSD>
0.6

> <PUBCHEM_CONFORMER_DIVERSEORDER>
1
6
14
27
9
16
11
26
8
2
22
5
20
28
18
17
29
3
24
19
21
13
15
7
23
4
25
12
10

> <PUBCHEM_MMFF94_PARTIAL_CHARGES>
20
1 -0.68
14 0.28
15 0.14
16 -0.14
18 0.09
19 0.63
2 -0.43
20 -0.15
21 0.08
22 0.08
23 -0.15
3 -0.57
4 -0.53
45 0.4
46 0.15
47 0.15
48 0.45
49 0.45
5 -0.53
6 0.28

> <PUBCHEM_EFFECTIVE_ROTOR_COUNT>
2.2

> <PUBCHEM_PHARMACOPHORE_FEATURES>
6
1 1 acceptor
1 1 donor
1 3 acceptor
1 4 donor
1 5 donor
6 16 18 20 21 22 23 rings

> <PUBCHEM_HEAVY_ATOM_COUNT>
23

> <PUBCHEM_ATOM_DEF_STEREO_COUNT>
2

> <PUBCHEM_ATOM_UDEF_STEREO_COUNT>
0

> <PUBCHEM_BOND_DEF_STEREO_COUNT>
0

> <PUBCHEM_BOND_UDEF_STEREO_COUNT>
0

> <PUBCHEM_ISOTOPIC_ATOM_COUNT>
0

> <PUBCHEM_COMPONENT_COUNT>
1

> <PUBCHEM_CACTVS_TAUTO_COUNT>
25

> <PUBCHEM_CONFORMER_ID>
002DC47500000001

> <PUBCHEM_MMFF94_ENERGY>
51.6521

> <PUBCHEM_FEATURE_SELFOVERLAP>
30.446

> <PUBCHEM_SHAPE_FINGERPRINT>
104564 63 18340206271993051459
10498660 4 18187631549186102207
10577160 183 17606693423048979742
10616163 171 18266175029013727061
10759866 29 17750229218859711762
108634 29 18411143511243732574
1100329 8 17185877190433830119
11578080 2 17058915861662947194
116883 192 18412832382636582198
12011746 2 18335696144590423807
12054548 360 18337387261554875763
12156800 1 11695045847065978403
12553582 1 18337941355723699521
12788726 201 18339079272527017530
12954195 1 18196384628153038830
13402501 40 18410292523613913767
13533116 47 17911794988931237615
13941206 138 17823424798885047762
14178342 30 17618481208803059632
14251740 79 18268155262187636390
14251745 187 18265888240930317283
14251751 93 18337386020182837502
14251757 17 18340208496912958262
14251757 5 18336274478600052878
14289585 56 17025448677686211638
14363568 33 17831602116089395611
14790565 3 18338242566191680045
14931854 50 18192983829844991199
15081414 286 18267592488269592273
15210252 30 18041841838786063412
17093844 170 18338788043621724272
17357779 13 18338788026679147463
19591789 44 18410009931708134251
20775438 99 17121094438368206175
21141583 151 18411697703262438637
21634736 98 18410570674064001468
221357 26 18411697699342485711
221490 88 18411139126039522364
22393880 68 18190738627232927852
22907989 373 17973200346140242700
23379529 103 18202007594804787190
23419403 2 17703496796872386008
23559900 14 18341611543049219120
23566358 2 18411982468764321124
238 59 17976219553578124023
2871803 45 18335692832737868381
3014063 31 18410290320121227783
6287921 2 17544481216121896507

> <PUBCHEM_SHAPE_MULTIPOLES>
443.98
8.13
4.23
1.13
0.08
1.63
0.2
-3.4
-2.74
-1.52
0.36
0
0.19
0.73

> <PUBCHEM_SHAPE_SELFOVERLAP>
910.639

> <PUBCHEM_SHAPE_VOLUME>
254.2

> <PUBCHEM_COORDINATE_TYPE>
2
5
10

> <Energy>
43.3336

> <minimizedAffinity>
-2.64577

> <CNNscore>
0.3619054854

> <CNNaffinity>
5.9783425331

> <CNN_VS>
2.1635949612

> <CNNaffinity_variance>
0.1938316077

$$$$
2999413


 26 27  0  0  0  0  0  0  0  0999 V2000
   -8.3876   -1.2785   24.2883 O   0  0  0  0  0  0  0  0  0  0  0  0
   -6.5359   -5.7823   20.9166 O   0  0  0  0  0  0  0  0  0  0  0  0
   -6.3634   -4.2540   19.1934 O   0  0  0  0  0  0  0  0  0  0  0  0
   -5.0356   -7.6104   19.1627 O   0  0  0  0  0  0  0  0  0  0  0  0
   -0.4632   -6.5366   20.0643 O   0  0  0  0  0  0  0  0  0  0  0  0
   -7.7539   -2.5511   24.4142 C   0  0  0  0  0  0  0  0  0  0  0  0
   -6.2326   -2.3466   24.3723 C   0  0  0  0  0  0  0  0  0  0  0  0
   -8.3085   -3.4950   23.3362 C   0  0  0  0  0  0  0  0  0  0  0  0
   -5.7277   -1.6174   23.1180 C   0  0  0  0  0  0  0  0  0  0  0  0
   -7.7662   -4.9222   23.4446 C   0  0  0  0  0  0  0  0  0  0  0  0
   -4.1993   -1.6600   22.9960 C   0  0  0  0  0  0  0  0  0  0  0  0
   -8.3961   -5.8828   22.4275 C   0  0  0  0  0  0  0  0  0  0  0  0
   -3.6668   -2.9950   22.4579 C   0  0  0  0  0  0  0  0  0  0  0  0
   -7.9630   -5.6139   20.9793 C   0  0  0  0  0  0  0  0  0  0  0  0
   -3.8251   -3.1235   20.9354 C   0  0  0  0  0  0  0  0  0  0  0  0
   -3.4862   -4.5144   20.4449 C   0  0  0  0  0  0  0  0  0  0  0  0
   -8.6205   -6.6146   20.0319 C   0  0  0  0  0  0  0  0  0  0  0  0
   -4.4609   -5.4391   20.0137 C   0  0  0  0  0  0  0  0  0  0  0  0
   -5.8893   -5.0770   19.9569 C   0  0  0  0  0  0  0  0  0  0  0  0
   -2.1401   -4.9218   20.4447 C   0  0  0  0  0  0  0  0  0  0  0  0
   -4.0842   -6.7270   19.5982 C   0  0  0  0  0  0  0  0  0  0  0  0
   -1.7861   -6.2057   20.0356 C   0  0  0  0  0  0  0  0  0  0  0  0
   -2.7465   -7.1169   19.6129 C   0  0  0  0  0  0  0  0  0  0  0  0
   -8.0422   -0.6769   24.9662 H   0  0  0  0  0  0  0  0  0  0  0  0
   -5.9379   -7.3580   19.1490 H   0  0  0  0  0  0  0  0  0  0  0  0
    0.1705   -5.9094   20.3524 H   0  0  0  0  0  0  0  0  0  0  0  0
  1  6  1  0
  1 24  1  0
  2 14  1  0
  2 19  1  0
  3 19  2  0
  4 21  1  0
  4 25  1  0
  5 22  1  0
  5 26  1  0
  6  7  1  0
  6  8  1  0
  7  9  1  0
  8 10  1  0
  9 11  1  0
 10 12  1  0
 11 13  1  0
 12 14  1  0
 13 15  1  0
 14 17  1  0
 15 16  1  0
 16 18  2  0
 16 20  1  0
 18 19  1  0
 18 21  1  0
 20 22  2  0
 21 23  2  0
 22 23  1  0
M  END
> <PUBCHEM_COMPOUND_CID>
2999413

> <PUBCHEM_CONFORMER_RMSD>
0.6

> <PUBCHEM_CONFORMER_DIVERSEORDER>
1
6
14
27
9
16
11
26
8
2
22
5
20
28
18
17
29
3
24
19
21
13
15
7
23
4
25
12
10

> <PUBCHEM_MMFF94_PARTIAL_CHARGES>
20
1 -0.68
14 0.28
15 0.14
16 -0.14
18 0.09
19 0.63
2 -0.43
20 -0.15
21 0.08
22 0.08
23 -0.15
3 -0.57
4 -0.53
45 0.4
46 0.15
47 0.15
48 0.45
49 0.45
5 -0.53
6 0.28

> <PUBCHEM_EFFECTIVE_ROTOR_COUNT>
2.2

> <PUBCHEM_PHARMACOPHORE_FEATURES>
6
1 1 acceptor
1 1 donor
1 3 acceptor
1 4 donor
1 5 donor
6 16 18 20 21 22 23 rings

> <PUBCHEM_HEAVY_ATOM_COUNT>
23

> <PUBCHEM_ATOM_DEF_STEREO_COUNT>
2

> <PUBCHEM_ATOM_UDEF_STEREO_COUNT>
0

> <PUBCHEM_BOND_DEF_STEREO_COUNT>
0

> <PUBCHEM_BOND_UDEF_STEREO_COUNT>
0

> <PUBCHEM_ISOTOPIC_ATOM_COUNT>
0

> <PUBCHEM_COMPONENT_COUNT>
1

> <PUBCHEM_CACTVS_TAUTO_COUNT>
25

> <PUBCHEM_CONFORMER_ID>
002DC47500000001

> <PUBCHEM_MMFF94_ENERGY>
51.6521

> <PUBCHEM_FEATURE_SELFOVERLAP>
30.446

> <PUBCHEM_SHAPE_FINGERPRINT>
104564 63 18340206271993051459
10498660 4 18187631549186102207
10577160 183 17606693423048979742
10616163 171 18266175029013727061
10759866 29 17750229218859711762
108634 29 18411143511243732574
1100329 8 17185877190433830119
11578080 2 17058915861662947194
116883 192 18412832382636582198
12011746 2 18335696144590423807
12054548 360 18337387261554875763
12156800 1 11695045847065978403
12553582 1 18337941355723699521
12788726 201 18339079272527017530
12954195 1 18196384628153038830
13402501 40 18410292523613913767
13533116 47 17911794988931237615
13941206 138 17823424798885047762
14178342 30 17618481208803059632
14251740 79 18268155262187636390
14251745 187 18265888240930317283
14251751 93 18337386020182837502
14251757 17 18340208496912958262
14251757 5 18336274478600052878
14289585 56 17025448677686211638
14363568 33 17831602116089395611
14790565 3 18338242566191680045
14931854 50 18192983829844991199
15081414 286 18267592488269592273
15210252 30 18041841838786063412
17093844 170 18338788043621724272
17357779 13 18338788026679147463
19591789 44 18410009931708134251
20775438 99 17121094438368206175
21141583 151 18411697703262438637
21634736 98 18410570674064001468
221357 26 18411697699342485711
221490 88 18411139126039522364
22393880 68 18190738627232927852
22907989 373 17973200346140242700
23379529 103 18202007594804787190
23419403 2 17703496796872386008
23559900 14 18341611543049219120
23566358 2 18411982468764321124
238 59 17976219553578124023
2871803 45 18335692832737868381
3014063 31 18410290320121227783
6287921 2 17544481216121896507

> <PUBCHEM_SHAPE_MULTIPOLES>
443.98
8.13
4.23
1.13
0.08
1.63
0.2
-3.4
-2.74
-1.52
0.36
0
0.19
0.73

> <PUBCHEM_SHAPE_SELFOVERLAP>
910.639

> <PUBCHEM_SHAPE_VOLUME>
254.2

> <PUBCHEM_COORDINATE_TYPE>
2
5
10

> <Energy>
43.3336

> <minimizedAffinity>
8.17727

> <CNNscore>
0.2718138099

> <CNNaffinity>
5.5880241394

> <CNN_VS>
1.5189021826

> <CNNaffinity_variance>
0.0188927036

$$$$
2999413


 26 27  0  0  0  0  0  0  0  0999 V2000
   -6.1897   -0.1701   19.7046 O   0  0  0  0  0  0  0  0  0  0  0  0
   -7.4338   -5.8909   20.6026 O   0  0  0  0  0  0  0  0  0  0  0  0
   -5.1540   -6.2322   20.7478 O   0  0  0  0  0  0  0  0  0  0  0  0
   -7.6970   -8.6263   21.6596 O   0  0  0  0  0  0  0  0  0  0  0  0
   -7.5243   -8.0229   26.4008 O   0  0  0  0  0  0  0  0  0  0  0  0
   -7.2449   -0.9964   20.1951 C   0  0  0  0  0  0  0  0  0  0  0  0
   -7.0808   -1.1498   21.7141 C   0  0  0  0  0  0  0  0  0  0  0  0
   -7.2525   -2.3170   19.4098 C   0  0  0  0  0  0  0  0  0  0  0  0
   -5.7167   -1.7068   22.1489 C   0  0  0  0  0  0  0  0  0  0  0  0
   -8.4126   -3.2403   19.7900 C   0  0  0  0  0  0  0  0  0  0  0  0
   -5.6880   -2.0797   23.6365 C   0  0  0  0  0  0  0  0  0  0  0  0
   -8.4716   -4.5134   18.9357 C   0  0  0  0  0  0  0  0  0  0  0  0
   -6.3570   -3.4270   23.9412 C   0  0  0  0  0  0  0  0  0  0  0  0
   -7.3297   -5.4987   19.2227 C   0  0  0  0  0  0  0  0  0  0  0  0
   -5.4611   -4.6242   23.5896 C   0  0  0  0  0  0  0  0  0  0  0  0
   -6.2013   -5.9393   23.7025 C   0  0  0  0  0  0  0  0  0  0  0  0
   -7.4642   -6.7406   18.3447 C   0  0  0  0  0  0  0  0  0  0  0  0
   -6.6105   -6.6929   22.5819 C   0  0  0  0  0  0  0  0  0  0  0  0
   -6.2814   -6.2659   21.2092 C   0  0  0  0  0  0  0  0  0  0  0  0
   -6.5264   -6.4244   24.9819 C   0  0  0  0  0  0  0  0  0  0  0  0
   -7.3217   -7.8922   22.7529 C   0  0  0  0  0  0  0  0  0  0  0  0
   -7.2386   -7.6124   25.1319 C   0  0  0  0  0  0  0  0  0  0  0  0
   -7.6432   -8.3534   24.0279 C   0  0  0  0  0  0  0  0  0  0  0  0
   -6.1787    0.6660   20.1961 H   0  0  0  0  0  0  0  0  0  0  0  0
   -7.4857   -8.3248   20.7980 H   0  0  0  0  0  0  0  0  0  0  0  0
   -7.2436   -7.5105   27.1333 H   0  0  0  0  0  0  0  0  0  0  0  0
  1  6  1  0
  1 24  1  0
  2 14  1  0
  2 19  1  0
  3 19  2  0
  4 21  1  0
  4 25  1  0
  5 22  1  0
  5 26  1  0
  6  7  1  0
  6  8  1  0
  7  9  1  0
  8 10  1  0
  9 11  1  0
 10 12  1  0
 11 13  1  0
 12 14  1  0
 13 15  1  0
 14 17  1  0
 15 16  1  0
 16 18  2  0
 16 20  1  0
 18 19  1  0
 18 21  1  0
 20 22  2  0
 21 23  2  0
 22 23  1  0
M  END
> <PUBCHEM_COMPOUND_CID>
2999413

> <PUBCHEM_CONFORMER_RMSD>
0.6

> <PUBCHEM_CONFORMER_DIVERSEORDER>
1
6
14
27
9
16
11
26
8
2
22
5
20
28
18
17
29
3
24
19
21
13
15
7
23
4
25
12
10

> <PUBCHEM_MMFF94_PARTIAL_CHARGES>
20
1 -0.68
14 0.28
15 0.14
16 -0.14
18 0.09
19 0.63
2 -0.43
20 -0.15
21 0.08
22 0.08
23 -0.15
3 -0.57
4 -0.53
45 0.4
46 0.15
47 0.15
48 0.45
49 0.45
5 -0.53
6 0.28

> <PUBCHEM_EFFECTIVE_ROTOR_COUNT>
2.2

> <PUBCHEM_PHARMACOPHORE_FEATURES>
6
1 1 acceptor
1 1 donor
1 3 acceptor
1 4 donor
1 5 donor
6 16 18 20 21 22 23 rings

> <PUBCHEM_HEAVY_ATOM_COUNT>
23

> <PUBCHEM_ATOM_DEF_STEREO_COUNT>
2

> <PUBCHEM_ATOM_UDEF_STEREO_COUNT>
0

> <PUBCHEM_BOND_DEF_STEREO_COUNT>
0

> <PUBCHEM_BOND_UDEF_STEREO_COUNT>
0

> <PUBCHEM_ISOTOPIC_ATOM_COUNT>
0

> <PUBCHEM_COMPONENT_COUNT>
1

> <PUBCHEM_CACTVS_TAUTO_COUNT>
25

> <PUBCHEM_CONFORMER_ID>
002DC47500000001

> <PUBCHEM_MMFF94_ENERGY>
51.6521

> <PUBCHEM_FEATURE_SELFOVERLAP>
30.446

> <PUBCHEM_SHAPE_FINGERPRINT>
104564 63 18340206271993051459
10498660 4 18187631549186102207
10577160 183 17606693423048979742
10616163 171 18266175029013727061
10759866 29 17750229218859711762
108634 29 18411143511243732574
1100329 8 17185877190433830119
11578080 2 17058915861662947194
116883 192 18412832382636582198
12011746 2 18335696144590423807
12054548 360 18337387261554875763
12156800 1 11695045847065978403
12553582 1 18337941355723699521
12788726 201 18339079272527017530
12954195 1 18196384628153038830
13402501 40 18410292523613913767
13533116 47 17911794988931237615
13941206 138 17823424798885047762
14178342 30 17618481208803059632
14251740 79 18268155262187636390
14251745 187 18265888240930317283
14251751 93 18337386020182837502
14251757 17 18340208496912958262
14251757 5 18336274478600052878
14289585 56 17025448677686211638
14363568 33 17831602116089395611
14790565 3 18338242566191680045
14931854 50 18192983829844991199
15081414 286 18267592488269592273
15210252 30 18041841838786063412
17093844 170 18338788043621724272
17357779 13 18338788026679147463
19591789 44 18410009931708134251
20775438 99 17121094438368206175
21141583 151 18411697703262438637
21634736 98 18410570674064001468
221357 26 18411697699342485711
221490 88 18411139126039522364
22393880 68 18190738627232927852
22907989 373 17973200346140242700
23379529 103 18202007594804787190
23419403 2 17703496796872386008
23559900 14 18341611543049219120
23566358 2 18411982468764321124
238 59 17976219553578124023
2871803 45 18335692832737868381
3014063 31 18410290320121227783
6287921 2 17544481216121896507

> <PUBCHEM_SHAPE_MULTIPOLES>
443.98
8.13
4.23
1.13
0.08
1.63
0.2
-3.4
-2.74
-1.52
0.36
0
0.19
0.73

> <PUBCHEM_SHAPE_SELFOVERLAP>
910.639

> <PUBCHEM_SHAPE_VOLUME>
254.2

> <PUBCHEM_COORDINATE_TYPE>
2
5
10

> <Energy>
43.3336

> <minimizedAffinity>
35.27946

> <CNNscore>
0.1635980755

> <CNNaffinity>
4.9399766922

> <CNN_VS>
0.8081706762

> <CNNaffinity_variance>
1.4331470728

$$$$
2999413


 26 27  0  0  0  0  0  0  0  0999 V2000
   -5.4010   -1.2389   18.3286 O   0  0  0  0  0  0  0  0  0  0  0  0
   -6.8835   -5.6038   22.0476 O   0  0  0  0  0  0  0  0  0  0  0  0
   -4.6277   -5.8139   22.4976 O   0  0  0  0  0  0  0  0  0  0  0  0
   -7.2955   -7.3565   24.3772 O   0  0  0  0  0  0  0  0  0  0  0  0
   -7.3616   -4.3211   28.0724 O   0  0  0  0  0  0  0  0  0  0  0  0
   -6.5085   -1.6778   19.1144 C   0  0  0  0  0  0  0  0  0  0  0  0
   -6.4327   -0.9987   20.4895 C   0  0  0  0  0  0  0  0  0  0  0  0
   -6.5176   -3.2137   19.1524 C   0  0  0  0  0  0  0  0  0  0  0  0
   -5.1139   -1.2377   21.2402 C   0  0  0  0  0  0  0  0  0  0  0  0
   -7.7270   -3.7936   19.8899 C   0  0  0  0  0  0  0  0  0  0  0  0
   -5.1789   -0.7613   22.6967 C   0  0  0  0  0  0  0  0  0  0  0  0
   -7.7820   -5.3261   19.8411 C   0  0  0  0  0  0  0  0  0  0  0  0
   -5.9084   -1.7398   23.6272 C   0  0  0  0  0  0  0  0  0  0  0  0
   -6.6911   -6.0066   20.6802 C   0  0  0  0  0  0  0  0  0  0  0  0
   -5.0353   -2.9399   24.0238 C   0  0  0  0  0  0  0  0  0  0  0  0
   -5.8242   -3.9934   24.7706 C   0  0  0  0  0  0  0  0  0  0  0  0
   -6.8191   -7.5253   20.5899 C   0  0  0  0  0  0  0  0  0  0  0  0
   -6.1967   -5.2282   24.1984 C   0  0  0  0  0  0  0  0  0  0  0  0
   -5.7791   -5.5975   22.8330 C   0  0  0  0  0  0  0  0  0  0  0  0
   -6.2347   -3.7229   26.0883 C   0  0  0  0  0  0  0  0  0  0  0  0
   -6.9560   -6.1527   24.9346 C   0  0  0  0  0  0  0  0  0  0  0  0
   -6.9935   -4.6491   26.8007 C   0  0  0  0  0  0  0  0  0  0  0  0
   -7.3618   -5.8644   26.2361 C   0  0  0  0  0  0  0  0  0  0  0  0
   -5.3888   -0.2694   18.3001 H   0  0  0  0  0  0  0  0  0  0  0  0
   -7.0275   -7.5600   23.5027 H   0  0  0  0  0  0  0  0  0  0  0  0
   -7.1043   -3.4971   28.4369 H   0  0  0  0  0  0  0  0  0  0  0  0
  1  6  1  0
  1 24  1  0
  2 14  1  0
  2 19  1  0
  3 19  2  0
  4 21  1  0
  4 25  1  0
  5 22  1  0
  5 26  1  0
  6  7  1  0
  6  8  1  0
  7  9  1  0
  8 10  1  0
  9 11  1  0
 10 12  1  0
 11 13  1  0
 12 14  1  0
 13 15  1  0
 14 17  1  0
 15 16  1  0
 16 18  2  0
 16 20  1  0
 18 19  1  0
 18 21  1  0
 20 22  2  0
 21 23  2  0
 22 23  1  0
M  END
> <PUBCHEM_COMPOUND_CID>
2999413

> <PUBCHEM_CONFORMER_RMSD>
0.6

> <PUBCHEM_CONFORMER_DIVERSEORDER>
1
6
14
27
9
16
11
26
8
2
22
5
20
28
18
17
29
3
24
19
21
13
15
7
23
4
25
12
10

> <PUBCHEM_MMFF94_PARTIAL_CHARGES>
20
1 -0.68
14 0.28
15 0.14
16 -0.14
18 0.09
19 0.63
2 -0.43
20 -0.15
21 0.08
22 0.08
23 -0.15
3 -0.57
4 -0.53
45 0.4
46 0.15
47 0.15
48 0.45
49 0.45
5 -0.53
6 0.28

> <PUBCHEM_EFFECTIVE_ROTOR_COUNT>
2.2

> <PUBCHEM_PHARMACOPHORE_FEATURES>
6
1 1 acceptor
1 1 donor
1 3 acceptor
1 4 donor
1 5 donor
6 16 18 20 21 22 23 rings

> <PUBCHEM_HEAVY_ATOM_COUNT>
23

> <PUBCHEM_ATOM_DEF_STEREO_COUNT>
2

> <PUBCHEM_ATOM_UDEF_STEREO_COUNT>
0

> <PUBCHEM_BOND_DEF_STEREO_COUNT>
0

> <PUBCHEM_BOND_UDEF_STEREO_COUNT>
0

> <PUBCHEM_ISOTOPIC_ATOM_COUNT>
0

> <PUBCHEM_COMPONENT_COUNT>
1

> <PUBCHEM_CACTVS_TAUTO_COUNT>
25

> <PUBCHEM_CONFORMER_ID>
002DC47500000001

> <PUBCHEM_MMFF94_ENERGY>
51.6521

> <PUBCHEM_FEATURE_SELFOVERLAP>
30.446

> <PUBCHEM_SHAPE_FINGERPRINT>
104564 63 18340206271993051459
10498660 4 18187631549186102207
10577160 183 17606693423048979742
10616163 171 18266175029013727061
10759866 29 17750229218859711762
108634 29 18411143511243732574
1100329 8 17185877190433830119
11578080 2 17058915861662947194
116883 192 18412832382636582198
12011746 2 18335696144590423807
12054548 360 18337387261554875763
12156800 1 11695045847065978403
12553582 1 18337941355723699521
12788726 201 18339079272527017530
12954195 1 18196384628153038830
13402501 40 18410292523613913767
13533116 47 17911794988931237615
13941206 138 17823424798885047762
14178342 30 17618481208803059632
14251740 79 18268155262187636390
14251745 187 18265888240930317283
14251751 93 18337386020182837502
14251757 17 18340208496912958262
14251757 5 18336274478600052878
14289585 56 17025448677686211638
14363568 33 17831602116089395611
14790565 3 18338242566191680045
14931854 50 18192983829844991199
15081414 286 18267592488269592273
15210252 30 18041841838786063412
17093844 170 18338788043621724272
17357779 13 18338788026679147463
19591789 44 18410009931708134251
20775438 99 17121094438368206175
21141583 151 18411697703262438637
21634736 98 18410570674064001468
221357 26 18411697699342485711
221490 88 18411139126039522364
22393880 68 18190738627232927852
22907989 373 17973200346140242700
23379529 103 18202007594804787190
23419403 2 17703496796872386008
23559900 14 18341611543049219120
23566358 2 18411982468764321124
238 59 17976219553578124023
2871803 45 18335692832737868381
3014063 31 18410290320121227783
6287921 2 17544481216121896507

> <PUBCHEM_SHAPE_MULTIPOLES>
443.98
8.13
4.23
1.13
0.08
1.63
0.2
-3.4
-2.74
-1.52
0.36
0
0.19
0.73

> <PUBCHEM_SHAPE_SELFOVERLAP>
910.639

> <PUBCHEM_SHAPE_VOLUME>
254.2

> <PUBCHEM_COORDINATE_TYPE>
2
5
10

> <Energy>
43.3336

> <minimizedAffinity>
47.49856

> <CNNscore>
0.1469635069

> <CNNaffinity>
5.0311298370

> <CNN_VS>
0.7393924594

> <CNNaffinity_variance>
0.3553082943

$$$$
2999413


 26 27  0  0  0  0  0  0  0  0999 V2000
   -0.0834   -4.7119   19.7126 O   0  0  0  0  0  0  0  0  0  0  0  0
   -5.1762   -4.3763   22.7181 O   0  0  0  0  0  0  0  0  0  0  0  0
   -5.5853   -2.4226   21.5558 O   0  0  0  0  0  0  0  0  0  0  0  0
   -7.9939   -4.2179   23.5571 O   0  0  0  0  0  0  0  0  0  0  0  0
  -10.3510   -6.3788   20.0008 O   0  0  0  0  0  0  0  0  0  0  0  0
   -1.0160   -5.5589   20.3830 C   0  0  0  0  0  0  0  0  0  0  0  0
   -2.0513   -6.0521   19.3617 C   0  0  0  0  0  0  0  0  0  0  0  0
   -1.6037   -4.8036   21.5850 C   0  0  0  0  0  0  0  0  0  0  0  0
   -2.7868   -4.9288   18.6154 C   0  0  0  0  0  0  0  0  0  0  0  0
   -2.5458   -5.6591   22.4354 C   0  0  0  0  0  0  0  0  0  0  0  0
   -3.9762   -5.4531   17.8010 C   0  0  0  0  0  0  0  0  0  0  0  0
   -3.0531   -4.9308   23.6869 C   0  0  0  0  0  0  0  0  0  0  0  0
   -5.2232   -5.7312   18.6513 C   0  0  0  0  0  0  0  0  0  0  0  0
   -4.0386   -3.7945   23.3787 C   0  0  0  0  0  0  0  0  0  0  0  0
   -5.9911   -4.4500   19.0102 C   0  0  0  0  0  0  0  0  0  0  0  0
   -7.0961   -4.7120   20.0103 C   0  0  0  0  0  0  0  0  0  0  0  0
   -4.5051   -3.1287   24.6711 C   0  0  0  0  0  0  0  0  0  0  0  0
   -7.0204   -4.3202   21.3638 C   0  0  0  0  0  0  0  0  0  0  0  0
   -5.8642   -3.5639   21.8795 C   0  0  0  0  0  0  0  0  0  0  0  0
   -8.2431   -5.4053   19.5842 C   0  0  0  0  0  0  0  0  0  0  0  0
   -8.0681   -4.6199   22.2503 C   0  0  0  0  0  0  0  0  0  0  0  0
   -9.2691   -5.7000   20.4795 C   0  0  0  0  0  0  0  0  0  0  0  0
   -9.1934   -5.3156   21.8129 C   0  0  0  0  0  0  0  0  0  0  0  0
    0.2921   -5.1824   18.9521 H   0  0  0  0  0  0  0  0  0  0  0  0
   -7.2414   -3.7496   23.8612 H   0  0  0  0  0  0  0  0  0  0  0  0
  -10.3849   -6.6300   19.0988 H   0  0  0  0  0  0  0  0  0  0  0  0
  1  6  1  0
  1 24  1  0
  2 14  1  0
  2 19  1  0
  3 19  2  0
  4 21  1  0
  4 25  1  0
  5 22  1  0
  5 26  1  0
  6  7  1  0
  6  8  1  0
  7  9  1  0
  8 10  1  0
  9 11  1  0
 10 12  1  0
 11 13  1  0
 12 14  1  0
 13 15  1  0
 14 17  1  0
 15 16  1  0
 16 18  2  0
 16 20  1  0
 18 19  1  0
 18 21  1  0
 20 22  2  0
 21 23  2  0
 22 23  1  0
M  END
> <PUBCHEM_COMPOUND_CID>
2999413

> <PUBCHEM_CONFORMER_RMSD>
0.6

> <PUBCHEM_CONFORMER_DIVERSEORDER>
1
6
14
27
9
16
11
26
8
2
22
5
20
28
18
17
29
3
24
19
21
13
15
7
23
4
25
12
10

> <PUBCHEM_MMFF94_PARTIAL_CHARGES>
20
1 -0.68
14 0.28
15 0.14
16 -0.14
18 0.09
19 0.63
2 -0.43
20 -0.15
21 0.08
22 0.08
23 -0.15
3 -0.57
4 -0.53
45 0.4
46 0.15
47 0.15
48 0.45
49 0.45
5 -0.53
6 0.28

> <PUBCHEM_EFFECTIVE_ROTOR_COUNT>
2.2

> <PUBCHEM_PHARMACOPHORE_FEATURES>
6
1 1 acceptor
1 1 donor
1 3 acceptor
1 4 donor
1 5 donor
6 16 18 20 21 22 23 rings

> <PUBCHEM_HEAVY_ATOM_COUNT>
23

> <PUBCHEM_ATOM_DEF_STEREO_COUNT>
2

> <PUBCHEM_ATOM_UDEF_STEREO_COUNT>
0

> <PUBCHEM_BOND_DEF_STEREO_COUNT>
0

> <PUBCHEM_BOND_UDEF_STEREO_COUNT>
0

> <PUBCHEM_ISOTOPIC_ATOM_COUNT>
0

> <PUBCHEM_COMPONENT_COUNT>
1

> <PUBCHEM_CACTVS_TAUTO_COUNT>
25

> <PUBCHEM_CONFORMER_ID>
002DC47500000001

> <PUBCHEM_MMFF94_ENERGY>
51.6521

> <PUBCHEM_FEATURE_SELFOVERLAP>
30.446

> <PUBCHEM_SHAPE_FINGERPRINT>
104564 63 18340206271993051459
10498660 4 18187631549186102207
10577160 183 17606693423048979742
10616163 171 18266175029013727061
10759866 29 17750229218859711762
108634 29 18411143511243732574
1100329 8 17185877190433830119
11578080 2 17058915861662947194
116883 192 18412832382636582198
12011746 2 18335696144590423807
12054548 360 18337387261554875763
12156800 1 11695045847065978403
12553582 1 18337941355723699521
12788726 201 18339079272527017530
12954195 1 18196384628153038830
13402501 40 18410292523613913767
13533116 47 17911794988931237615
13941206 138 17823424798885047762
14178342 30 17618481208803059632
14251740 79 18268155262187636390
14251745 187 18265888240930317283
14251751 93 18337386020182837502
14251757 17 18340208496912958262
14251757 5 18336274478600052878
14289585 56 17025448677686211638
14363568 33 17831602116089395611
14790565 3 18338242566191680045
14931854 50 18192983829844991199
15081414 286 18267592488269592273
15210252 30 18041841838786063412
17093844 170 18338788043621724272
17357779 13 18338788026679147463
19591789 44 18410009931708134251
20775438 99 17121094438368206175
21141583 151 18411697703262438637
21634736 98 18410570674064001468
221357 26 18411697699342485711
221490 88 18411139126039522364
22393880 68 18190738627232927852
22907989 373 17973200346140242700
23379529 103 18202007594804787190
23419403 2 17703496796872386008
23559900 14 18341611543049219120
23566358 2 18411982468764321124
238 59 17976219553578124023
2871803 45 18335692832737868381
3014063 31 18410290320121227783
6287921 2 17544481216121896507

> <PUBCHEM_SHAPE_MULTIPOLES>
443.98
8.13
4.23
1.13
0.08
1.63
0.2
-3.4
-2.74
-1.52
0.36
0
0.19
0.73

> <PUBCHEM_SHAPE_SELFOVERLAP>
910.639

> <PUBCHEM_SHAPE_VOLUME>
254.2

> <PUBCHEM_COORDINATE_TYPE>
2
5
10

> <Energy>
43.3336

> <minimizedAffinity>
-5.53508

> <CNNscore>
0.1333045959

> <CNNaffinity>
5.6198077202

> <CNN_VS>
0.7491462231

> <CNNaffinity_variance>
0.1034822464

$$$$
2999413


 26 27  0  0  0  0  0  0  0  0999 V2000
   -0.9300   -6.4023   23.6226 O   0  0  0  0  0  0  0  0  0  0  0  0
   -5.0219   -5.6513   19.4067 O   0  0  0  0  0  0  0  0  0  0  0  0
   -5.6101   -7.8563   19.7636 O   0  0  0  0  0  0  0  0  0  0  0  0
   -7.5047   -5.4643   17.8353 O   0  0  0  0  0  0  0  0  0  0  0  0
  -10.8364   -4.4428   21.1108 O   0  0  0  0  0  0  0  0  0  0  0  0
   -1.6999   -5.3640   23.0177 C   0  0  0  0  0  0  0  0  0  0  0  0
   -2.9944   -5.1818   23.8234 C   0  0  0  0  0  0  0  0  0  0  0  0
   -1.9054   -5.6945   21.5314 C   0  0  0  0  0  0  0  0  0  0  0  0
   -3.8349   -6.4598   23.9656 C   0  0  0  0  0  0  0  0  0  0  0  0
   -2.6375   -4.5922   20.7621 C   0  0  0  0  0  0  0  0  0  0  0  0
   -5.2250   -6.1797   24.5503 C   0  0  0  0  0  0  0  0  0  0  0  0
   -2.7541   -4.8839   19.2604 C   0  0  0  0  0  0  0  0  0  0  0  0
   -6.2176   -5.6181   23.5233 C   0  0  0  0  0  0  0  0  0  0  0  0
   -3.7189   -6.0320   18.9311 C   0  0  0  0  0  0  0  0  0  0  0  0
   -6.7886   -6.7038   22.5987 C   0  0  0  0  0  0  0  0  0  0  0  0
   -7.6039   -6.1151   21.4680 C   0  0  0  0  0  0  0  0  0  0  0  0
   -3.7890   -6.2528   17.4219 C   0  0  0  0  0  0  0  0  0  0  0  0
   -7.1516   -6.0716   20.1321 C   0  0  0  0  0  0  0  0  0  0  0  0
   -5.8588   -6.6635   19.7407 C   0  0  0  0  0  0  0  0  0  0  0  0
   -8.8606   -5.5556   21.7607 C   0  0  0  0  0  0  0  0  0  0  0  0
   -7.9439   -5.4837   19.1321 C   0  0  0  0  0  0  0  0  0  0  0  0
   -9.6294   -4.9704   20.7569 C   0  0  0  0  0  0  0  0  0  0  0  0
   -9.1828   -4.9261   19.4416 C   0  0  0  0  0  0  0  0  0  0  0  0
   -0.7961   -6.2004   24.5618 H   0  0  0  0  0  0  0  0  0  0  0  0
   -6.6731   -5.8365   17.6167 H   0  0  0  0  0  0  0  0  0  0  0  0
  -11.1214   -4.4817   22.0026 H   0  0  0  0  0  0  0  0  0  0  0  0
  1  6  1  0
  1 24  1  0
  2 14  1  0
  2 19  1  0
  3 19  2  0
  4 21  1  0
  4 25  1  0
  5 22  1  0
  5 26  1  0
  6  7  1  0
  6  8  1  0
  7  9  1  0
  8 10  1  0
  9 11  1  0
 10 12  1  0
 11 13  1  0
 12 14  1  0
 13 15  1  0
 14 17  1  0
 15 16  1  0
 16 18  2  0
 16 20  1  0
 18 19  1  0
 18 21  1  0
 20 22  2  0
 21 23  2  0
 22 23  1  0
M  END
> <PUBCHEM_COMPOUND_CID>
2999413

> <PUBCHEM_CONFORMER_RMSD>
0.6

> <PUBCHEM_CONFORMER_DIVERSEORDER>
1
6
14
27
9
16
11
26
8
2
22
5
20
28
18
17
29
3
24
19
21
13
15
7
23
4
25
12
10

> <PUBCHEM_MMFF94_PARTIAL_CHARGES>
20
1 -0.68
14 0.28
15 0.14
16 -0.14
18 0.09
19 0.63
2 -0.43
20 -0.15
21 0.08
22 0.08
23 -0.15
3 -0.57
4 -0.53
45 0.4
46 0.15
47 0.15
48 0.45
49 0.45
5 -0.53
6 0.28

> <PUBCHEM_EFFECTIVE_ROTOR_COUNT>
2.2

> <PUBCHEM_PHARMACOPHORE_FEATURES>
6
1 1 acceptor
1 1 donor
1 3 acceptor
1 4 donor
1 5 donor
6 16 18 20 21 22 23 rings

> <PUBCHEM_HEAVY_ATOM_COUNT>
23

> <PUBCHEM_ATOM_DEF_STEREO_COUNT>
2

> <PUBCHEM_ATOM_UDEF_STEREO_COUNT>
0

> <PUBCHEM_BOND_DEF_STEREO_COUNT>
0

> <PUBCHEM_BOND_UDEF_STEREO_COUNT>
0

> <PUBCHEM_ISOTOPIC_ATOM_COUNT>
0

> <PUBCHEM_COMPONENT_COUNT>
1

> <PUBCHEM_CACTVS_TAUTO_COUNT>
25

> <PUBCHEM_CONFORMER_ID>
002DC47500000001

> <PUBCHEM_MMFF94_ENERGY>
51.6521

> <PUBCHEM_FEATURE_SELFOVERLAP>
30.446

> <PUBCHEM_SHAPE_FINGERPRINT>
104564 63 18340206271993051459
10498660 4 18187631549186102207
10577160 183 17606693423048979742
10616163 171 18266175029013727061
10759866 29 17750229218859711762
108634 29 18411143511243732574
1100329 8 17185877190433830119
11578080 2 17058915861662947194
116883 192 18412832382636582198
12011746 2 18335696144590423807
12054548 360 18337387261554875763
12156800 1 11695045847065978403
12553582 1 18337941355723699521
12788726 201 18339079272527017530
12954195 1 18196384628153038830
13402501 40 18410292523613913767
13533116 47 17911794988931237615
13941206 138 17823424798885047762
14178342 30 17618481208803059632
14251740 79 18268155262187636390
14251745 187 18265888240930317283
14251751 93 18337386020182837502
14251757 17 18340208496912958262
14251757 5 18336274478600052878
14289585 56 17025448677686211638
14363568 33 17831602116089395611
14790565 3 18338242566191680045
14931854 50 18192983829844991199
15081414 286 18267592488269592273
15210252 30 18041841838786063412
17093844 170 18338788043621724272
17357779 13 18338788026679147463
19591789 44 18410009931708134251
20775438 99 17121094438368206175
21141583 151 18411697703262438637
21634736 98 18410570674064001468
221357 26 18411697699342485711
221490 88 18411139126039522364
22393880 68 18190738627232927852
22907989 373 17973200346140242700
23379529 103 18202007594804787190
23419403 2 17703496796872386008
23559900 14 18341611543049219120
23566358 2 18411982468764321124
238 59 17976219553578124023
2871803 45 18335692832737868381
3014063 31 18410290320121227783
6287921 2 17544481216121896507

> <PUBCHEM_SHAPE_MULTIPOLES>
443.98
8.13
4.23
1.13
0.08
1.63
0.2
-3.4
-2.74
-1.52
0.36
0
0.19
0.73

> <PUBCHEM_SHAPE_SELFOVERLAP>
910.639

> <PUBCHEM_SHAPE_VOLUME>
254.2

> <PUBCHEM_COORDINATE_TYPE>
2
5
10

> <Energy>
43.3336

> <minimizedAffinity>
19.82755

> <CNNscore>
0.1326908469

> <CNNaffinity>
5.1350522041

> <CNN_VS>
0.6813744307

> <CNNaffinity_variance>
0.5853712559

$$$$
2999413


 26 27  0  0  0  0  0  0  0  0999 V2000
   -1.9285   -2.3162   21.0847 O   0  0  0  0  0  0  0  0  0  0  0  0
   -7.1274   -4.2234   23.1861 O   0  0  0  0  0  0  0  0  0  0  0  0
   -7.8562   -4.2562   20.9946 O   0  0  0  0  0  0  0  0  0  0  0  0
   -9.5815   -5.7287   23.8025 O   0  0  0  0  0  0  0  0  0  0  0  0
   -8.3272  -10.2827   23.0539 O   0  0  0  0  0  0  0  0  0  0  0  0
   -2.4655   -3.0102   22.2102 C   0  0  0  0  0  0  0  0  0  0  0  0
   -2.4205   -4.5179   21.9226 C   0  0  0  0  0  0  0  0  0  0  0  0
   -3.8633   -2.4535   22.5210 C   0  0  0  0  0  0  0  0  0  0  0  0
   -3.1481   -4.9375   20.6363 C   0  0  0  0  0  0  0  0  0  0  0  0
   -4.4916   -3.0625   23.7769 C   0  0  0  0  0  0  0  0  0  0  0  0
   -3.2963   -6.4598   20.5219 C   0  0  0  0  0  0  0  0  0  0  0  0
   -5.8440   -2.4339   24.1370 C   0  0  0  0  0  0  0  0  0  0  0  0
   -4.4378   -7.0281   21.3760 C   0  0  0  0  0  0  0  0  0  0  0  0
   -6.9690   -2.7941   23.1561 C   0  0  0  0  0  0  0  0  0  0  0  0
   -5.8178   -6.8123   20.7366 C   0  0  0  0  0  0  0  0  0  0  0  0
   -6.9433   -7.1917   21.6742 C   0  0  0  0  0  0  0  0  0  0  0  0
   -8.2807   -2.1425   23.5874 C   0  0  0  0  0  0  0  0  0  0  0  0
   -7.7659   -6.2418   22.3161 C   0  0  0  0  0  0  0  0  0  0  0  0
   -7.6139   -4.7976   22.0591 C   0  0  0  0  0  0  0  0  0  0  0  0
   -7.1662   -8.5533   21.9467 C   0  0  0  0  0  0  0  0  0  0  0  0
   -8.7756   -6.6574   23.1999 C   0  0  0  0  0  0  0  0  0  0  0  0
   -8.1679   -8.9464   22.8317 C   0  0  0  0  0  0  0  0  0  0  0  0
   -8.9767   -8.0105   23.4652 C   0  0  0  0  0  0  0  0  0  0  0  0
   -1.0454   -2.6626   20.8824 H   0  0  0  0  0  0  0  0  0  0  0  0
   -9.4545   -4.8164   23.6309 H   0  0  0  0  0  0  0  0  0  0  0  0
   -7.7726  -10.8995   22.6180 H   0  0  0  0  0  0  0  0  0  0  0  0
  1  6  1  0
  1 24  1  0
  2 14  1  0
  2 19  1  0
  3 19  2  0
  4 21  1  0
  4 25  1  0
  5 22  1  0
  5 26  1  0
  6  7  1  0
  6  8  1  0
  7  9  1  0
  8 10  1  0
  9 11  1  0
 10 12  1  0
 11 13  1  0
 12 14  1  0
 13 15  1  0
 14 17  1  0
 15 16  1  0
 16 18  2  0
 16 20  1  0
 18 19  1  0
 18 21  1  0
 20 22  2  0
 21 23  2  0
 22 23  1  0
M  END
> <PUBCHEM_COMPOUND_CID>
2999413

> <PUBCHEM_CONFORMER_RMSD>
0.6

> <PUBCHEM_CONFORMER_DIVERSEORDER>
1
6
14
27
9
16
11
26
8
2
22
5
20
28
18
17
29
3
24
19
21
13
15
7
23
4
25
12
10

> <PUBCHEM_MMFF94_PARTIAL_CHARGES>
20
1 -0.68
14 0.28
15 0.14
16 -0.14
18 0.09
19 0.63
2 -0.43
20 -0.15
21 0.08
22 0.08
23 -0.15
3 -0.57
4 -0.53
45 0.4
46 0.15
47 0.15
48 0.45
49 0.45
5 -0.53
6 0.28

> <PUBCHEM_EFFECTIVE_ROTOR_COUNT>
2.2

> <PUBCHEM_PHARMACOPHORE_FEATURES>
6
1 1 acceptor
1 1 donor
1 3 acceptor
1 4 donor
1 5 donor
6 16 18 20 21 22 23 rings

> <PUBCHEM_HEAVY_ATOM_COUNT>
23

> <PUBCHEM_ATOM_DEF_STEREO_COUNT>
2

> <PUBCHEM_ATOM_UDEF_STEREO_COUNT>
0

> <PUBCHEM_BOND_DEF_STEREO_COUNT>
0

> <PUBCHEM_BOND_UDEF_STEREO_COUNT>
0

> <PUBCHEM_ISOTOPIC_ATOM_COUNT>
0

> <PUBCHEM_COMPONENT_COUNT>
1

> <PUBCHEM_CACTVS_TAUTO_COUNT>
25

> <PUBCHEM_CONFORMER_ID>
002DC47500000001

> <PUBCHEM_MMFF94_ENERGY>
51.6521

> <PUBCHEM_FEATURE_SELFOVERLAP>
30.446

> <PUBCHEM_SHAPE_FINGERPRINT>
104564 63 18340206271993051459
10498660 4 18187631549186102207
10577160 183 17606693423048979742
10616163 171 18266175029013727061
10759866 29 17750229218859711762
108634 29 18411143511243732574
1100329 8 17185877190433830119
11578080 2 17058915861662947194
116883 192 18412832382636582198
12011746 2 18335696144590423807
12054548 360 18337387261554875763
12156800 1 11695045847065978403
12553582 1 18337941355723699521
12788726 201 18339079272527017530
12954195 1 18196384628153038830
13402501 40 18410292523613913767
13533116 47 17911794988931237615
13941206 138 17823424798885047762
14178342 30 17618481208803059632
14251740 79 18268155262187636390
14251745 187 18265888240930317283
14251751 93 18337386020182837502
14251757 17 18340208496912958262
14251757 5 18336274478600052878
14289585 56 17025448677686211638
14363568 33 17831602116089395611
14790565 3 18338242566191680045
14931854 50 18192983829844991199
15081414 286 18267592488269592273
15210252 30 18041841838786063412
17093844 170 18338788043621724272
17357779 13 18338788026679147463
19591789 44 18410009931708134251
20775438 99 17121094438368206175
21141583 151 18411697703262438637
21634736 98 18410570674064001468
221357 26 18411697699342485711
221490 88 18411139126039522364
22393880 68 18190738627232927852
22907989 373 17973200346140242700
23379529 103 18202007594804787190
23419403 2 17703496796872386008
23559900 14 18341611543049219120
23566358 2 18411982468764321124
238 59 17976219553578124023
2871803 45 18335692832737868381
3014063 31 18410290320121227783
6287921 2 17544481216121896507

> <PUBCHEM_SHAPE_MULTIPOLES>
443.98
8.13
4.23
1.13
0.08
1.63
0.2
-3.4
-2.74
-1.52
0.36
0
0.19
0.73

> <PUBCHEM_SHAPE_SELFOVERLAP>
910.639

> <PUBCHEM_SHAPE_VOLUME>
254.2

> <PUBCHEM_COORDINATE_TYPE>
2
5
10

> <Energy>
43.3336

> <minimizedAffinity>
11.34368

> <CNNscore>
0.1295095831

> <CNNaffinity>
5.1723556519

> <CNN_VS>
0.6698696017

> <CNNaffinity_variance>
0.3092329800

$$$$
