8571


 22 23  0  0  0  0  0  0  0  0999 V2000
   -5.0776   -2.5914   21.3246 O   0  0  0  0  0  0  0  0  0  0  0  0
   -4.1904   -3.4335   21.2160 C   0  0  0  0  0  0  0  0  0  0  0  0
   -2.7729   -3.1640   18.7274 O   0  0  0  0  0  0  0  0  0  0  0  0
    1.2161   -1.8554   20.9507 O   0  0  0  0  0  0  0  0  0  0  0  0
   -2.7686   -3.0108   21.1596 C   0  0  0  0  0  0  0  0  0  0  0  0
   -2.1345   -2.9017   19.9113 C   0  0  0  0  0  0  0  0  0  0  0  0
   -2.0401   -2.7303   22.3235 C   0  0  0  0  0  0  0  0  0  0  0  0
   -0.8018   -2.5048   19.8198 C   0  0  0  0  0  0  0  0  0  0  0  0
   -0.6992   -2.3485   22.2333 C   0  0  0  0  0  0  0  0  0  0  0  0
   -0.0933   -2.2346   20.9861 C   0  0  0  0  0  0  0  0  0  0  0  0
   -3.6701   -3.4346   18.7289 H   0  0  0  0  0  0  0  0  0  0  0  0
    1.6567   -1.7684   20.1284 H   0  0  0  0  0  0  0  0  0  0  0  0
   -6.4197   -4.3794   19.8081 O   0  0  0  0  0  0  0  0  0  0  0  0
   -5.5110   -8.8801   21.1956 O   0  0  0  0  0  0  0  0  0  0  0  0
   -4.5478   -4.8621   21.2113 C   0  0  0  0  0  0  0  0  0  0  0  0
   -5.6606   -5.2930   20.4833 C   0  0  0  0  0  0  0  0  0  0  0  0
   -3.7577   -5.7751   21.9145 C   0  0  0  0  0  0  0  0  0  0  0  0
   -5.9985   -6.6450   20.4567 C   0  0  0  0  0  0  0  0  0  0  0  0
   -4.1073   -7.1254   21.9053 C   0  0  0  0  0  0  0  0  0  0  0  0
   -5.2178   -7.5484   21.1764 C   0  0  0  0  0  0  0  0  0  0  0  0
   -6.1887   -3.4715   19.8289 H   0  0  0  0  0  0  0  0  0  0  0  0
   -6.2494   -9.2041   20.7184 H   0  0  0  0  0  0  0  0  0  0  0  0
  3  6  1  0
  3 11  1  0
 13 16  1  0
 13 21  1  0
  1  2  2  0
  4 10  1  0
  4 12  1  0
 14 20  1  0
 14 22  1  0
  5  2  1  0
  5  6  2  0
  5  7  1  0
 15  2  1  0
 15 16  2  0
 15 17  1  0
  6  8  1  0
 16 18  1  0
  7  9  2  0
 17 19  2  0
  8 10  2  0
 18 20  2  0
  9 10  1  0
 19 20  1  0
M  END
> <PUBCHEM_COMPOUND_CID>
8571

> <PUBCHEM_CONFORMER_RMSD>
0.6

> <PUBCHEM_CONFORMER_DIVERSEORDER>
3
14
8
5
6
10
13
11
12
7
2
4
9
1

> <PUBCHEM_MMFF94_PARTIAL_CHARGES>
28
1 -0.53
10 0.08
11 -0.15
12 -0.15
13 -0.15
14 -0.15
15 -0.15
16 -0.15
17 0.08
18 0.08
19 0.15
2 -0.53
20 0.15
21 0.15
22 0.15
23 0.15
24 0.15
25 0.45
26 0.45
27 0.45
28 0.45
3 -0.57
4 -0.53
5 -0.53
6 0.09
7 0.09
8 0.4
9 0.08

> <PUBCHEM_EFFECTIVE_ROTOR_COUNT>
2

> <PUBCHEM_PHARMACOPHORE_FEATURES>
7
1 1 donor
1 2 donor
1 3 acceptor
1 4 donor
1 5 donor
6 6 9 11 13 15 17 rings
6 7 10 12 14 16 18 rings

> <PUBCHEM_HEAVY_ATOM_COUNT>
18

> <PUBCHEM_ATOM_DEF_STEREO_COUNT>
0

> <PUBCHEM_ATOM_UDEF_STEREO_COUNT>
0

> <PUBCHEM_BOND_DEF_STEREO_COUNT>
0

> <PUBCHEM_BOND_UDEF_STEREO_COUNT>
0

> <PUBCHEM_ISOTOPIC_ATOM_COUNT>
0

> <PUBCHEM_COMPONENT_COUNT>
1

> <PUBCHEM_CACTVS_TAUTO_COUNT>
72

> <PUBCHEM_CONFORMER_ID>
0000217B00000003

> <PUBCHEM_MMFF94_ENERGY>
59.7646

> <PUBCHEM_FEATURE_SELFOVERLAP>
35.523

> <PUBCHEM_SHAPE_FINGERPRINT>
11471102 20 18409169892103070408
11543360 7 16558473084182650672
11578080 2 11531614863815746903
12236239 1 18131065996288699443
12730499 353 18260275135465842107
13764800 53 16298659508524951853
14115302 16 17274813641062312855
14993402 34 17846215540487606185
15309172 13 17603583049510828995
15342168 16 17968104165179409005
15775835 57 18412826888988243309
16752209 62 16702019734536568467
16945 1 18338804403115108058
1813 80 17908702826610089778
18186145 218 18334579027342918966
19784866 34 18334295413878624880
19862831 5 17703791439638752137
19868273 293 17846494850753190559
20612939 158 18410015399459763708
20645476 183 18131345336920073351
20645477 70 18339644438557177238
20871999 31 17703499013054573895
21486144 27 18040157318289672158
22079108 93 18187935001610251691
22854114 59 17458065950124340569
231179 274 17822006519258234448
23402539 116 18409442626948148612
23402655 69 18343585139818180612
23559900 14 18270131244514800908
23598291 2 17916313731579383754
25 1 18335137605093349618
2748010 2 18049736405846724776
2838139 119 17898835865392311757
3082319 5 17846778520178562597
350125 39 17829344823007393920
4028521 119 18341894112446576825
474 4 18335984259027423912
5374978 207 12973890299285696421
633830 44 18335985259854816367
74978 22 17775280611934871745
76465 3 11743574149888780620
77492 1 18131067091542367739
81228 2 16880770831219455195
8272917 22 18265617572439684195
9981440 41 17624393673978878472

> <PUBCHEM_SHAPE_MULTIPOLES>
341.08
8.1
1.9
1.16
0.73
0.35
-0.07
-4.23
-1.78
-1.35
0.05
0.84
0.24
-0.62

> <PUBCHEM_SHAPE_SELFOVERLAP>
750.848

> <PUBCHEM_SHAPE_VOLUME>
184

> <PUBCHEM_COORDINATE_TYPE>
2
5
10

> <Energy>
46.2868

> <minimizedAffinity>
-7.89750

> <CNNscore>
0.8209907413

> <CNNaffinity>
5.0544338226

> <CNN_VS>
4.1496434212

> <CNNaffinity_variance>
0.2677838802

$$$$
8571


 22 23  0  0  0  0  0  0  0  0999 V2000
   -4.8971   -2.5633   22.5684 O   0  0  0  0  0  0  0  0  0  0  0  0
   -4.1521   -3.3800   22.0336 C   0  0  0  0  0  0  0  0  0  0  0  0
   -6.6455   -3.7133   20.6384 O   0  0  0  0  0  0  0  0  0  0  0  0
   -6.1716   -8.4399   20.5809 O   0  0  0  0  0  0  0  0  0  0  0  0
   -4.6694   -4.7176   21.6511 C   0  0  0  0  0  0  0  0  0  0  0  0
   -5.8959   -4.8106   20.9733 C   0  0  0  0  0  0  0  0  0  0  0  0
   -3.9691   -5.8912   21.9616 C   0  0  0  0  0  0  0  0  0  0  0  0
   -6.4110   -6.0492   20.5960 C   0  0  0  0  0  0  0  0  0  0  0  0
   -4.4932   -7.1343   21.5983 C   0  0  0  0  0  0  0  0  0  0  0  0
   -5.7039   -7.2036   20.9165 C   0  0  0  0  0  0  0  0  0  0  0  0
   -6.3475   -2.8548   20.8672 H   0  0  0  0  0  0  0  0  0  0  0  0
   -6.9837   -8.5248   20.1213 H   0  0  0  0  0  0  0  0  0  0  0  0
   -3.2761   -3.1164   19.3861 O   0  0  0  0  0  0  0  0  0  0  0  0
    1.1197   -1.8843   20.8582 O   0  0  0  0  0  0  0  0  0  0  0  0
   -2.7667   -2.9940   21.7166 C   0  0  0  0  0  0  0  0  0  0  0  0
   -2.3757   -2.8599   20.3813 C   0  0  0  0  0  0  0  0  0  0  0  0
   -1.8643   -2.7425   22.7533 C   0  0  0  0  0  0  0  0  0  0  0  0
   -1.0722   -2.4778   20.0690 C   0  0  0  0  0  0  0  0  0  0  0  0
   -0.5539   -2.3803   22.4413 C   0  0  0  0  0  0  0  0  0  0  0  0
   -0.1710   -2.2475   21.1074 C   0  0  0  0  0  0  0  0  0  0  0  0
   -4.1513   -3.3731   19.6009 H   0  0  0  0  0  0  0  0  0  0  0  0
    1.4160   -1.7845   19.9749 H   0  0  0  0  0  0  0  0  0  0  0  0
  3  6  1  0
  3 11  1  0
 13 16  1  0
 13 21  1  0
  1  2  2  0
  4 10  1  0
  4 12  1  0
 14 20  1  0
 14 22  1  0
  5  2  1  0
  5  6  2  0
  5  7  1  0
 15  2  1  0
 15 16  2  0
 15 17  1  0
  6  8  1  0
 16 18  1  0
  7  9  2  0
 17 19  2  0
  8 10  2  0
 18 20  2  0
  9 10  1  0
 19 20  1  0
M  END
> <PUBCHEM_COMPOUND_CID>
8571

> <PUBCHEM_CONFORMER_RMSD>
0.6

> <PUBCHEM_CONFORMER_DIVERSEORDER>
3
14
8
5
6
10
13
11
12
7
2
4
9
1

> <PUBCHEM_MMFF94_PARTIAL_CHARGES>
28
1 -0.53
10 0.08
11 -0.15
12 -0.15
13 -0.15
14 -0.15
15 -0.15
16 -0.15
17 0.08
18 0.08
19 0.15
2 -0.53
20 0.15
21 0.15
22 0.15
23 0.15
24 0.15
25 0.45
26 0.45
27 0.45
28 0.45
3 -0.57
4 -0.53
5 -0.53
6 0.09
7 0.09
8 0.4
9 0.08

> <PUBCHEM_EFFECTIVE_ROTOR_COUNT>
2

> <PUBCHEM_PHARMACOPHORE_FEATURES>
7
1 1 donor
1 2 donor
1 3 acceptor
1 4 donor
1 5 donor
6 6 9 11 13 15 17 rings
6 7 10 12 14 16 18 rings

> <PUBCHEM_HEAVY_ATOM_COUNT>
18

> <PUBCHEM_ATOM_DEF_STEREO_COUNT>
0

> <PUBCHEM_ATOM_UDEF_STEREO_COUNT>
0

> <PUBCHEM_BOND_DEF_STEREO_COUNT>
0

> <PUBCHEM_BOND_UDEF_STEREO_COUNT>
0

> <PUBCHEM_ISOTOPIC_ATOM_COUNT>
0

> <PUBCHEM_COMPONENT_COUNT>
1

> <PUBCHEM_CACTVS_TAUTO_COUNT>
72

> <PUBCHEM_CONFORMER_ID>
0000217B00000003

> <PUBCHEM_MMFF94_ENERGY>
59.7646

> <PUBCHEM_FEATURE_SELFOVERLAP>
35.523

> <PUBCHEM_SHAPE_FINGERPRINT>
11471102 20 18409169892103070408
11543360 7 16558473084182650672
11578080 2 11531614863815746903
12236239 1 18131065996288699443
12730499 353 18260275135465842107
13764800 53 16298659508524951853
14115302 16 17274813641062312855
14993402 34 17846215540487606185
15309172 13 17603583049510828995
15342168 16 17968104165179409005
15775835 57 18412826888988243309
16752209 62 16702019734536568467
16945 1 18338804403115108058
1813 80 17908702826610089778
18186145 218 18334579027342918966
19784866 34 18334295413878624880
19862831 5 17703791439638752137
19868273 293 17846494850753190559
20612939 158 18410015399459763708
20645476 183 18131345336920073351
20645477 70 18339644438557177238
20871999 31 17703499013054573895
21486144 27 18040157318289672158
22079108 93 18187935001610251691
22854114 59 17458065950124340569
231179 274 17822006519258234448
23402539 116 18409442626948148612
23402655 69 18343585139818180612
23559900 14 18270131244514800908
23598291 2 17916313731579383754
25 1 18335137605093349618
2748010 2 18049736405846724776
2838139 119 17898835865392311757
3082319 5 17846778520178562597
350125 39 17829344823007393920
4028521 119 18341894112446576825
474 4 18335984259027423912
5374978 207 12973890299285696421
633830 44 18335985259854816367
74978 22 17775280611934871745
76465 3 11743574149888780620
77492 1 18131067091542367739
81228 2 16880770831219455195
8272917 22 18265617572439684195
9981440 41 17624393673978878472

> <PUBCHEM_SHAPE_MULTIPOLES>
341.08
8.1
1.9
1.16
0.73
0.35
-0.07
-4.23
-1.78
-1.35
0.05
0.84
0.24
-0.62

> <PUBCHEM_SHAPE_SELFOVERLAP>
750.848

> <PUBCHEM_SHAPE_VOLUME>
184

> <PUBCHEM_COORDINATE_TYPE>
2
5
10

> <Energy>
46.2868

> <minimizedAffinity>
-7.49660

> <CNNscore>
0.8106371164

> <CNNaffinity>
5.2116527557

> <CNN_VS>
4.2247591019

> <CNNaffinity_variance>
0.3227010369

$$$$
8571


 22 23  0  0  0  0  0  0  0  0999 V2000
   -5.0368   -2.2923   21.5104 O   0  0  0  0  0  0  0  0  0  0  0  0
   -4.2337   -3.1790   21.2334 C   0  0  0  0  0  0  0  0  0  0  0  0
   -2.6623   -2.4395   23.5265 O   0  0  0  0  0  0  0  0  0  0  0  0
    1.2584   -1.9503   20.8887 O   0  0  0  0  0  0  0  0  0  0  0  0
   -2.7868   -2.8643   21.1300 C   0  0  0  0  0  0  0  0  0  0  0  0
   -2.0781   -2.5071   22.2887 C   0  0  0  0  0  0  0  0  0  0  0  0
   -2.1138   -2.9025   19.9013 C   0  0  0  0  0  0  0  0  0  0  0  0
   -0.7183   -2.2080   22.2300 C   0  0  0  0  0  0  0  0  0  0  0  0
   -0.7543   -2.5865   19.8394 C   0  0  0  0  0  0  0  0  0  0  0  0
   -0.0679   -2.2471   21.0009 C   0  0  0  0  0  0  0  0  0  0  0  0
   -3.5743   -2.6306   23.6252 H   0  0  0  0  0  0  0  0  0  0  0  0
    1.7524   -1.7174   21.6500 H   0  0  0  0  0  0  0  0  0  0  0  0
   -2.9569   -5.3252   22.5024 O   0  0  0  0  0  0  0  0  0  0  0  0
   -6.0947   -8.4306   20.6267 O   0  0  0  0  0  0  0  0  0  0  0  0
   -4.7125   -4.5625   21.0734 C   0  0  0  0  0  0  0  0  0  0  0  0
   -4.0541   -5.6020   21.7367 C   0  0  0  0  0  0  0  0  0  0  0  0
   -5.8339   -4.8190   20.2803 C   0  0  0  0  0  0  0  0  0  0  0  0
   -4.5087   -6.9132   21.6074 C   0  0  0  0  0  0  0  0  0  0  0  0
   -6.2769   -6.1334   20.1337 C   0  0  0  0  0  0  0  0  0  0  0  0
   -5.6160   -7.1652   20.7987 C   0  0  0  0  0  0  0  0  0  0  0  0
   -2.6549   -4.4421   22.5864 H   0  0  0  0  0  0  0  0  0  0  0  0
   -5.6782   -9.1514   21.0567 H   0  0  0  0  0  0  0  0  0  0  0  0
  3  6  1  0
  3 11  1  0
 13 16  1  0
 13 21  1  0
  1  2  2  0
  4 10  1  0
  4 12  1  0
 14 20  1  0
 14 22  1  0
  5  2  1  0
  5  6  2  0
  5  7  1  0
 15  2  1  0
 15 16  2  0
 15 17  1  0
  6  8  1  0
 16 18  1  0
  7  9  2  0
 17 19  2  0
  8 10  2  0
 18 20  2  0
  9 10  1  0
 19 20  1  0
M  END
> <PUBCHEM_COMPOUND_CID>
8571

> <PUBCHEM_CONFORMER_RMSD>
0.6

> <PUBCHEM_CONFORMER_DIVERSEORDER>
3
14
8
5
6
10
13
11
12
7
2
4
9
1

> <PUBCHEM_MMFF94_PARTIAL_CHARGES>
28
1 -0.53
10 0.08
11 -0.15
12 -0.15
13 -0.15
14 -0.15
15 -0.15
16 -0.15
17 0.08
18 0.08
19 0.15
2 -0.53
20 0.15
21 0.15
22 0.15
23 0.15
24 0.15
25 0.45
26 0.45
27 0.45
28 0.45
3 -0.57
4 -0.53
5 -0.53
6 0.09
7 0.09
8 0.4
9 0.08

> <PUBCHEM_EFFECTIVE_ROTOR_COUNT>
2

> <PUBCHEM_PHARMACOPHORE_FEATURES>
7
1 1 donor
1 2 donor
1 3 acceptor
1 4 donor
1 5 donor
6 6 9 11 13 15 17 rings
6 7 10 12 14 16 18 rings

> <PUBCHEM_HEAVY_ATOM_COUNT>
18

> <PUBCHEM_ATOM_DEF_STEREO_COUNT>
0

> <PUBCHEM_ATOM_UDEF_STEREO_COUNT>
0

> <PUBCHEM_BOND_DEF_STEREO_COUNT>
0

> <PUBCHEM_BOND_UDEF_STEREO_COUNT>
0

> <PUBCHEM_ISOTOPIC_ATOM_COUNT>
0

> <PUBCHEM_COMPONENT_COUNT>
1

> <PUBCHEM_CACTVS_TAUTO_COUNT>
72

> <PUBCHEM_CONFORMER_ID>
0000217B00000003

> <PUBCHEM_MMFF94_ENERGY>
59.7646

> <PUBCHEM_FEATURE_SELFOVERLAP>
35.523

> <PUBCHEM_SHAPE_FINGERPRINT>
11471102 20 18409169892103070408
11543360 7 16558473084182650672
11578080 2 11531614863815746903
12236239 1 18131065996288699443
12730499 353 18260275135465842107
13764800 53 16298659508524951853
14115302 16 17274813641062312855
14993402 34 17846215540487606185
15309172 13 17603583049510828995
15342168 16 17968104165179409005
15775835 57 18412826888988243309
16752209 62 16702019734536568467
16945 1 18338804403115108058
1813 80 17908702826610089778
18186145 218 18334579027342918966
19784866 34 18334295413878624880
19862831 5 17703791439638752137
19868273 293 17846494850753190559
20612939 158 18410015399459763708
20645476 183 18131345336920073351
20645477 70 18339644438557177238
20871999 31 17703499013054573895
21486144 27 18040157318289672158
22079108 93 18187935001610251691
22854114 59 17458065950124340569
231179 274 17822006519258234448
23402539 116 18409442626948148612
23402655 69 18343585139818180612
23559900 14 18270131244514800908
23598291 2 17916313731579383754
25 1 18335137605093349618
2748010 2 18049736405846724776
2838139 119 17898835865392311757
3082319 5 17846778520178562597
350125 39 17829344823007393920
4028521 119 18341894112446576825
474 4 18335984259027423912
5374978 207 12973890299285696421
633830 44 18335985259854816367
74978 22 17775280611934871745
76465 3 11743574149888780620
77492 1 18131067091542367739
81228 2 16880770831219455195
8272917 22 18265617572439684195
9981440 41 17624393673978878472

> <PUBCHEM_SHAPE_MULTIPOLES>
341.08
8.1
1.9
1.16
0.73
0.35
-0.07
-4.23
-1.78
-1.35
0.05
0.84
0.24
-0.62

> <PUBCHEM_SHAPE_SELFOVERLAP>
750.848

> <PUBCHEM_SHAPE_VOLUME>
184

> <PUBCHEM_COORDINATE_TYPE>
2
5
10

> <Energy>
46.2868

> <minimizedAffinity>
-7.30040

> <CNNscore>
0.7990239263

> <CNNaffinity>
5.0805568695

> <CNN_VS>
4.0594863892

> <CNNaffinity_variance>
0.4503392279

$$$$
8571


 22 23  0  0  0  0  0  0  0  0999 V2000
   -5.0715   -2.2314   21.1421 O   0  0  0  0  0  0  0  0  0  0  0  0
   -4.2459   -3.1393   21.0937 C   0  0  0  0  0  0  0  0  0  0  0  0
   -2.8866   -5.2641   22.4766 O   0  0  0  0  0  0  0  0  0  0  0  0
   -5.9108   -8.5178   20.7924 O   0  0  0  0  0  0  0  0  0  0  0  0
   -4.6985   -4.5505   21.0113 C   0  0  0  0  0  0  0  0  0  0  0  0
   -3.9878   -5.5406   21.7091 C   0  0  0  0  0  0  0  0  0  0  0  0
   -5.8108   -4.9204   20.2431 C   0  0  0  0  0  0  0  0  0  0  0  0
   -4.3854   -6.8752   21.6573 C   0  0  0  0  0  0  0  0  0  0  0  0
   -6.1999   -6.2607   20.1774 C   0  0  0  0  0  0  0  0  0  0  0  0
   -5.4895   -7.2242   20.8862 C   0  0  0  0  0  0  0  0  0  0  0  0
   -2.5745   -4.3834   22.5479 H   0  0  0  0  0  0  0  0  0  0  0  0
   -5.4563   -9.1934   21.2562 H   0  0  0  0  0  0  0  0  0  0  0  0
   -2.8654   -2.3059   23.3842 O   0  0  0  0  0  0  0  0  0  0  0  0
    1.2195   -1.9135   20.9007 O   0  0  0  0  0  0  0  0  0  0  0  0
   -2.8115   -2.8089   21.0496 C   0  0  0  0  0  0  0  0  0  0  0  0
   -2.1584   -2.4110   22.2197 C   0  0  0  0  0  0  0  0  0  0  0  0
   -2.1129   -2.9196   19.8446 C   0  0  0  0  0  0  0  0  0  0  0  0
   -0.7971   -2.1129   22.1943 C   0  0  0  0  0  0  0  0  0  0  0  0
   -0.7552   -2.6015   19.8141 C   0  0  0  0  0  0  0  0  0  0  0  0
   -0.1099   -2.2062   20.9849 C   0  0  0  0  0  0  0  0  0  0  0  0
   -3.7805   -2.5073   23.3964 H   0  0  0  0  0  0  0  0  0  0  0  0
    1.6891   -1.6441   21.6654 H   0  0  0  0  0  0  0  0  0  0  0  0
  3  6  1  0
  3 11  1  0
 13 16  1  0
 13 21  1  0
  1  2  2  0
  4 10  1  0
  4 12  1  0
 14 20  1  0
 14 22  1  0
  5  2  1  0
  5  6  2  0
  5  7  1  0
 15  2  1  0
 15 16  2  0
 15 17  1  0
  6  8  1  0
 16 18  1  0
  7  9  2  0
 17 19  2  0
  8 10  2  0
 18 20  2  0
  9 10  1  0
 19 20  1  0
M  END
> <PUBCHEM_COMPOUND_CID>
8571

> <PUBCHEM_CONFORMER_RMSD>
0.6

> <PUBCHEM_CONFORMER_DIVERSEORDER>
3
14
8
5
6
10
13
11
12
7
2
4
9
1

> <PUBCHEM_MMFF94_PARTIAL_CHARGES>
28
1 -0.53
10 0.08
11 -0.15
12 -0.15
13 -0.15
14 -0.15
15 -0.15
16 -0.15
17 0.08
18 0.08
19 0.15
2 -0.53
20 0.15
21 0.15
22 0.15
23 0.15
24 0.15
25 0.45
26 0.45
27 0.45
28 0.45
3 -0.57
4 -0.53
5 -0.53
6 0.09
7 0.09
8 0.4
9 0.08

> <PUBCHEM_EFFECTIVE_ROTOR_COUNT>
2

> <PUBCHEM_PHARMACOPHORE_FEATURES>
7
1 1 donor
1 2 donor
1 3 acceptor
1 4 donor
1 5 donor
6 6 9 11 13 15 17 rings
6 7 10 12 14 16 18 rings

> <PUBCHEM_HEAVY_ATOM_COUNT>
18

> <PUBCHEM_ATOM_DEF_STEREO_COUNT>
0

> <PUBCHEM_ATOM_UDEF_STEREO_COUNT>
0

> <PUBCHEM_BOND_DEF_STEREO_COUNT>
0

> <PUBCHEM_BOND_UDEF_STEREO_COUNT>
0

> <PUBCHEM_ISOTOPIC_ATOM_COUNT>
0

> <PUBCHEM_COMPONENT_COUNT>
1

> <PUBCHEM_CACTVS_TAUTO_COUNT>
72

> <PUBCHEM_CONFORMER_ID>
0000217B00000003

> <PUBCHEM_MMFF94_ENERGY>
59.7646

> <PUBCHEM_FEATURE_SELFOVERLAP>
35.523

> <PUBCHEM_SHAPE_FINGERPRINT>
11471102 20 18409169892103070408
11543360 7 16558473084182650672
11578080 2 11531614863815746903
12236239 1 18131065996288699443
12730499 353 18260275135465842107
13764800 53 16298659508524951853
14115302 16 17274813641062312855
14993402 34 17846215540487606185
15309172 13 17603583049510828995
15342168 16 17968104165179409005
15775835 57 18412826888988243309
16752209 62 16702019734536568467
16945 1 18338804403115108058
1813 80 17908702826610089778
18186145 218 18334579027342918966
19784866 34 18334295413878624880
19862831 5 17703791439638752137
19868273 293 17846494850753190559
20612939 158 18410015399459763708
20645476 183 18131345336920073351
20645477 70 18339644438557177238
20871999 31 17703499013054573895
21486144 27 18040157318289672158
22079108 93 18187935001610251691
22854114 59 17458065950124340569
231179 274 17822006519258234448
23402539 116 18409442626948148612
23402655 69 18343585139818180612
23559900 14 18270131244514800908
23598291 2 17916313731579383754
25 1 18335137605093349618
2748010 2 18049736405846724776
2838139 119 17898835865392311757
3082319 5 17846778520178562597
350125 39 17829344823007393920
4028521 119 18341894112446576825
474 4 18335984259027423912
5374978 207 12973890299285696421
633830 44 18335985259854816367
74978 22 17775280611934871745
76465 3 11743574149888780620
77492 1 18131067091542367739
81228 2 16880770831219455195
8272917 22 18265617572439684195
9981440 41 17624393673978878472

> <PUBCHEM_SHAPE_MULTIPOLES>
341.08
8.1
1.9
1.16
0.73
0.35
-0.07
-4.23
-1.78
-1.35
0.05
0.84
0.24
-0.62

> <PUBCHEM_SHAPE_SELFOVERLAP>
750.848

> <PUBCHEM_SHAPE_VOLUME>
184

> <PUBCHEM_COORDINATE_TYPE>
2
5
10

> <Energy>
46.2868

> <minimizedAffinity>
-7.37226

> <CNNscore>
0.7987183928

> <CNNaffinity>
5.0322670937

> <CNN_VS>
4.0193643570

> <CNNaffinity_variance>
0.4347967803

$$$$
8571


 22 23  0  0  0  0  0  0  0  0999 V2000
   -4.3788   -4.7680   22.4971 O   0  0  0  0  0  0  0  0  0  0  0  0
   -4.3619   -3.6256   22.0466 C   0  0  0  0  0  0  0  0  0  0  0  0
   -7.1085   -4.3327   21.5658 O   0  0  0  0  0  0  0  0  0  0  0  0
   -8.6403   -0.1162   23.1289 O   0  0  0  0  0  0  0  0  0  0  0  0
   -5.4796   -2.6947   22.3421 C   0  0  0  0  0  0  0  0  0  0  0  0
   -6.7983   -3.1013   22.0811 C   0  0  0  0  0  0  0  0  0  0  0  0
   -5.2495   -1.4144   22.8636 C   0  0  0  0  0  0  0  0  0  0  0  0
   -7.8726   -2.2551   22.3486 C   0  0  0  0  0  0  0  0  0  0  0  0
   -6.3251   -0.5594   23.1164 C   0  0  0  0  0  0  0  0  0  0  0  0
   -7.6246   -0.9862   22.8622 C   0  0  0  0  0  0  0  0  0  0  0  0
   -6.4257   -4.9429   21.3668 H   0  0  0  0  0  0  0  0  0  0  0  0
   -9.5282   -0.3697   22.9699 H   0  0  0  0  0  0  0  0  0  0  0  0
   -1.9792   -2.8601   23.3048 O   0  0  0  0  0  0  0  0  0  0  0  0
    0.0740   -1.9291   19.0710 O   0  0  0  0  0  0  0  0  0  0  0  0
   -3.1944   -3.1723   21.2721 C   0  0  0  0  0  0  0  0  0  0  0  0
   -2.0200   -2.8132   21.9399 C   0  0  0  0  0  0  0  0  0  0  0  0
   -3.2642   -3.1285   19.8773 C   0  0  0  0  0  0  0  0  0  0  0  0
   -0.9025   -2.3996   21.2168 C   0  0  0  0  0  0  0  0  0  0  0  0
   -2.1531   -2.6949   19.1541 C   0  0  0  0  0  0  0  0  0  0  0  0
   -0.9848   -2.3392   19.8265 C   0  0  0  0  0  0  0  0  0  0  0  0
   -2.7330   -3.1388   23.7867 H   0  0  0  0  0  0  0  0  0  0  0  0
    0.8770   -1.6815   19.4853 H   0  0  0  0  0  0  0  0  0  0  0  0
  3  6  1  0
  3 11  1  0
 13 16  1  0
 13 21  1  0
  1  2  2  0
  4 10  1  0
  4 12  1  0
 14 20  1  0
 14 22  1  0
  5  2  1  0
  5  6  2  0
  5  7  1  0
 15  2  1  0
 15 16  2  0
 15 17  1  0
  6  8  1  0
 16 18  1  0
  7  9  2  0
 17 19  2  0
  8 10  2  0
 18 20  2  0
  9 10  1  0
 19 20  1  0
M  END
> <PUBCHEM_COMPOUND_CID>
8571

> <PUBCHEM_CONFORMER_RMSD>
0.6

> <PUBCHEM_CONFORMER_DIVERSEORDER>
3
14
8
5
6
10
13
11
12
7
2
4
9
1

> <PUBCHEM_MMFF94_PARTIAL_CHARGES>
28
1 -0.53
10 0.08
11 -0.15
12 -0.15
13 -0.15
14 -0.15
15 -0.15
16 -0.15
17 0.08
18 0.08
19 0.15
2 -0.53
20 0.15
21 0.15
22 0.15
23 0.15
24 0.15
25 0.45
26 0.45
27 0.45
28 0.45
3 -0.57
4 -0.53
5 -0.53
6 0.09
7 0.09
8 0.4
9 0.08

> <PUBCHEM_EFFECTIVE_ROTOR_COUNT>
2

> <PUBCHEM_PHARMACOPHORE_FEATURES>
7
1 1 donor
1 2 donor
1 3 acceptor
1 4 donor
1 5 donor
6 6 9 11 13 15 17 rings
6 7 10 12 14 16 18 rings

> <PUBCHEM_HEAVY_ATOM_COUNT>
18

> <PUBCHEM_ATOM_DEF_STEREO_COUNT>
0

> <PUBCHEM_ATOM_UDEF_STEREO_COUNT>
0

> <PUBCHEM_BOND_DEF_STEREO_COUNT>
0

> <PUBCHEM_BOND_UDEF_STEREO_COUNT>
0

> <PUBCHEM_ISOTOPIC_ATOM_COUNT>
0

> <PUBCHEM_COMPONENT_COUNT>
1

> <PUBCHEM_CACTVS_TAUTO_COUNT>
72

> <PUBCHEM_CONFORMER_ID>
0000217B00000003

> <PUBCHEM_MMFF94_ENERGY>
59.7646

> <PUBCHEM_FEATURE_SELFOVERLAP>
35.523

> <PUBCHEM_SHAPE_FINGERPRINT>
11471102 20 18409169892103070408
11543360 7 16558473084182650672
11578080 2 11531614863815746903
12236239 1 18131065996288699443
12730499 353 18260275135465842107
13764800 53 16298659508524951853
14115302 16 17274813641062312855
14993402 34 17846215540487606185
15309172 13 17603583049510828995
15342168 16 17968104165179409005
15775835 57 18412826888988243309
16752209 62 16702019734536568467
16945 1 18338804403115108058
1813 80 17908702826610089778
18186145 218 18334579027342918966
19784866 34 18334295413878624880
19862831 5 17703791439638752137
19868273 293 17846494850753190559
20612939 158 18410015399459763708
20645476 183 18131345336920073351
20645477 70 18339644438557177238
20871999 31 17703499013054573895
21486144 27 18040157318289672158
22079108 93 18187935001610251691
22854114 59 17458065950124340569
231179 274 17822006519258234448
23402539 116 18409442626948148612
23402655 69 18343585139818180612
23559900 14 18270131244514800908
23598291 2 17916313731579383754
25 1 18335137605093349618
2748010 2 18049736405846724776
2838139 119 17898835865392311757
3082319 5 17846778520178562597
350125 39 17829344823007393920
4028521 119 18341894112446576825
474 4 18335984259027423912
5374978 207 12973890299285696421
633830 44 18335985259854816367
74978 22 17775280611934871745
76465 3 11743574149888780620
77492 1 18131067091542367739
81228 2 16880770831219455195
8272917 22 18265617572439684195
9981440 41 17624393673978878472

> <PUBCHEM_SHAPE_MULTIPOLES>
341.08
8.1
1.9
1.16
0.73
0.35
-0.07
-4.23
-1.78
-1.35
0.05
0.84
0.24
-0.62

> <PUBCHEM_SHAPE_SELFOVERLAP>
750.848

> <PUBCHEM_SHAPE_VOLUME>
184

> <PUBCHEM_COORDINATE_TYPE>
2
5
10

> <Energy>
46.2868

> <minimizedAffinity>
-8.14863

> <CNNscore>
0.7571401596

> <CNNaffinity>
5.9339966774

> <CNN_VS>
4.4928669930

> <CNNaffinity_variance>
0.5539138317

$$$$
8571


 22 23  0  0  0  0  0  0  0  0999 V2000
   -5.1619   -2.1448   20.8458 O   0  0  0  0  0  0  0  0  0  0  0  0
   -4.4422   -2.8656   21.5318 C   0  0  0  0  0  0  0  0  0  0  0  0
   -4.7973   -5.6276   20.8104 O   0  0  0  0  0  0  0  0  0  0  0  0
   -6.7631   -6.6444   25.0140 O   0  0  0  0  0  0  0  0  0  0  0  0
   -5.0488   -3.8519   22.4605 C   0  0  0  0  0  0  0  0  0  0  0  0
   -5.1961   -5.1853   22.0447 C   0  0  0  0  0  0  0  0  0  0  0  0
   -5.4899   -3.4814   23.7382 C   0  0  0  0  0  0  0  0  0  0  0  0
   -5.7584   -6.1390   22.8908 C   0  0  0  0  0  0  0  0  0  0  0  0
   -6.0691   -4.4338   24.5806 C   0  0  0  0  0  0  0  0  0  0  0  0
   -6.1944   -5.7520   24.1539 C   0  0  0  0  0  0  0  0  0  0  0  0
   -4.4123   -5.0296   20.2003 H   0  0  0  0  0  0  0  0  0  0  0  0
   -6.8637   -7.5408   24.7603 H   0  0  0  0  0  0  0  0  0  0  0  0
   -2.8147   -1.7225   23.5043 O   0  0  0  0  0  0  0  0  0  0  0  0
    1.1215   -2.6057   20.9092 O   0  0  0  0  0  0  0  0  0  0  0  0
   -2.9803   -2.7875   21.3726 C   0  0  0  0  0  0  0  0  0  0  0  0
   -2.2044   -2.2218   22.3885 C   0  0  0  0  0  0  0  0  0  0  0  0
   -2.3817   -3.3009   20.2192 C   0  0  0  0  0  0  0  0  0  0  0  0
   -0.8183   -2.1585   22.2571 C   0  0  0  0  0  0  0  0  0  0  0  0
   -0.9965   -3.2190   20.0778 C   0  0  0  0  0  0  0  0  0  0  0  0
   -0.2287   -2.6544   21.0953 C   0  0  0  0  0  0  0  0  0  0  0  0
   -3.7469   -1.7673   23.5882 H   0  0  0  0  0  0  0  0  0  0  0  0
    1.6722   -2.2338   21.5698 H   0  0  0  0  0  0  0  0  0  0  0  0
  3  6  1  0
  3 11  1  0
 13 16  1  0
 13 21  1  0
  1  2  2  0
  4 10  1  0
  4 12  1  0
 14 20  1  0
 14 22  1  0
  5  2  1  0
  5  6  2  0
  5  7  1  0
 15  2  1  0
 15 16  2  0
 15 17  1  0
  6  8  1  0
 16 18  1  0
  7  9  2  0
 17 19  2  0
  8 10  2  0
 18 20  2  0
  9 10  1  0
 19 20  1  0
M  END
> <PUBCHEM_COMPOUND_CID>
8571

> <PUBCHEM_CONFORMER_RMSD>
0.6

> <PUBCHEM_CONFORMER_DIVERSEORDER>
3
14
8
5
6
10
13
11
12
7
2
4
9
1

> <PUBCHEM_MMFF94_PARTIAL_CHARGES>
28
1 -0.53
10 0.08
11 -0.15
12 -0.15
13 -0.15
14 -0.15
15 -0.15
16 -0.15
17 0.08
18 0.08
19 0.15
2 -0.53
20 0.15
21 0.15
22 0.15
23 0.15
24 0.15
25 0.45
26 0.45
27 0.45
28 0.45
3 -0.57
4 -0.53
5 -0.53
6 0.09
7 0.09
8 0.4
9 0.08

> <PUBCHEM_EFFECTIVE_ROTOR_COUNT>
2

> <PUBCHEM_PHARMACOPHORE_FEATURES>
7
1 1 donor
1 2 donor
1 3 acceptor
1 4 donor
1 5 donor
6 6 9 11 13 15 17 rings
6 7 10 12 14 16 18 rings

> <PUBCHEM_HEAVY_ATOM_COUNT>
18

> <PUBCHEM_ATOM_DEF_STEREO_COUNT>
0

> <PUBCHEM_ATOM_UDEF_STEREO_COUNT>
0

> <PUBCHEM_BOND_DEF_STEREO_COUNT>
0

> <PUBCHEM_BOND_UDEF_STEREO_COUNT>
0

> <PUBCHEM_ISOTOPIC_ATOM_COUNT>
0

> <PUBCHEM_COMPONENT_COUNT>
1

> <PUBCHEM_CACTVS_TAUTO_COUNT>
72

> <PUBCHEM_CONFORMER_ID>
0000217B00000003

> <PUBCHEM_MMFF94_ENERGY>
59.7646

> <PUBCHEM_FEATURE_SELFOVERLAP>
35.523

> <PUBCHEM_SHAPE_FINGERPRINT>
11471102 20 18409169892103070408
11543360 7 16558473084182650672
11578080 2 11531614863815746903
12236239 1 18131065996288699443
12730499 353 18260275135465842107
13764800 53 16298659508524951853
14115302 16 17274813641062312855
14993402 34 17846215540487606185
15309172 13 17603583049510828995
15342168 16 17968104165179409005
15775835 57 18412826888988243309
16752209 62 16702019734536568467
16945 1 18338804403115108058
1813 80 17908702826610089778
18186145 218 18334579027342918966
19784866 34 18334295413878624880
19862831 5 17703791439638752137
19868273 293 17846494850753190559
20612939 158 18410015399459763708
20645476 183 18131345336920073351
20645477 70 18339644438557177238
20871999 31 17703499013054573895
21486144 27 18040157318289672158
22079108 93 18187935001610251691
22854114 59 17458065950124340569
231179 274 17822006519258234448
23402539 116 18409442626948148612
23402655 69 18343585139818180612
23559900 14 18270131244514800908
23598291 2 17916313731579383754
25 1 18335137605093349618
2748010 2 18049736405846724776
2838139 119 17898835865392311757
3082319 5 17846778520178562597
350125 39 17829344823007393920
4028521 119 18341894112446576825
474 4 18335984259027423912
5374978 207 12973890299285696421
633830 44 18335985259854816367
74978 22 17775280611934871745
76465 3 11743574149888780620
77492 1 18131067091542367739
81228 2 16880770831219455195
8272917 22 18265617572439684195
9981440 41 17624393673978878472

> <PUBCHEM_SHAPE_MULTIPOLES>
341.08
8.1
1.9
1.16
0.73
0.35
-0.07
-4.23
-1.78
-1.35
0.05
0.84
0.24
-0.62

> <PUBCHEM_SHAPE_SELFOVERLAP>
750.848

> <PUBCHEM_SHAPE_VOLUME>
184

> <PUBCHEM_COORDINATE_TYPE>
2
5
10

> <Energy>
46.2868

> <minimizedAffinity>
-7.63161

> <CNNscore>
0.7508332729

> <CNNaffinity>
5.6690430641

> <CNN_VS>
4.2565059662

> <CNNaffinity_variance>
0.2868840694

$$$$
8571


 22 23  0  0  0  0  0  0  0  0999 V2000
   -3.8859   -5.7598   21.9128 O   0  0  0  0  0  0  0  0  0  0  0  0
   -3.9481   -4.5353   21.8426 C   0  0  0  0  0  0  0  0  0  0  0  0
   -1.6110   -3.5258   23.1820 O   0  0  0  0  0  0  0  0  0  0  0  0
    0.0770   -1.6340   19.1645 O   0  0  0  0  0  0  0  0  0  0  0  0
   -2.8923   -3.7784   21.1244 C   0  0  0  0  0  0  0  0  0  0  0  0
   -1.7774   -3.3105   21.8388 C   0  0  0  0  0  0  0  0  0  0  0  0
   -2.9879   -3.5084   19.7525 C   0  0  0  0  0  0  0  0  0  0  0  0
   -0.7655   -2.5991   21.1971 C   0  0  0  0  0  0  0  0  0  0  0  0
   -1.9817   -2.7808   19.1120 C   0  0  0  0  0  0  0  0  0  0  0  0
   -0.8796   -2.3369   19.8357 C   0  0  0  0  0  0  0  0  0  0  0  0
   -2.2603   -3.9986   23.6646 H   0  0  0  0  0  0  0  0  0  0  0  0
    0.8332   -1.3194   19.6197 H   0  0  0  0  0  0  0  0  0  0  0  0
   -6.4037   -4.4340   20.4987 O   0  0  0  0  0  0  0  0  0  0  0  0
   -8.3636   -1.8941   24.0645 O   0  0  0  0  0  0  0  0  0  0  0  0
   -5.1109   -3.8375   22.4167 C   0  0  0  0  0  0  0  0  0  0  0  0
   -6.3218   -3.8240   21.7185 C   0  0  0  0  0  0  0  0  0  0  0  0
   -4.9989   -3.2171   23.6636 C   0  0  0  0  0  0  0  0  0  0  0  0
   -7.4344   -3.1821   22.2599 C   0  0  0  0  0  0  0  0  0  0  0  0
   -6.1060   -2.5567   24.1965 C   0  0  0  0  0  0  0  0  0  0  0  0
   -7.3109   -2.5479   23.4952 C   0  0  0  0  0  0  0  0  0  0  0  0
   -5.6531   -4.8642   20.1387 H   0  0  0  0  0  0  0  0  0  0  0  0
   -9.1905   -1.8654   23.6248 H   0  0  0  0  0  0  0  0  0  0  0  0
  3  6  1  0
  3 11  1  0
 13 16  1  0
 13 21  1  0
  1  2  2  0
  4 10  1  0
  4 12  1  0
 14 20  1  0
 14 22  1  0
  5  2  1  0
  5  6  2  0
  5  7  1  0
 15  2  1  0
 15 16  2  0
 15 17  1  0
  6  8  1  0
 16 18  1  0
  7  9  2  0
 17 19  2  0
  8 10  2  0
 18 20  2  0
  9 10  1  0
 19 20  1  0
M  END
> <PUBCHEM_COMPOUND_CID>
8571

> <PUBCHEM_CONFORMER_RMSD>
0.6

> <PUBCHEM_CONFORMER_DIVERSEORDER>
3
14
8
5
6
10
13
11
12
7
2
4
9
1

> <PUBCHEM_MMFF94_PARTIAL_CHARGES>
28
1 -0.53
10 0.08
11 -0.15
12 -0.15
13 -0.15
14 -0.15
15 -0.15
16 -0.15
17 0.08
18 0.08
19 0.15
2 -0.53
20 0.15
21 0.15
22 0.15
23 0.15
24 0.15
25 0.45
26 0.45
27 0.45
28 0.45
3 -0.57
4 -0.53
5 -0.53
6 0.09
7 0.09
8 0.4
9 0.08

> <PUBCHEM_EFFECTIVE_ROTOR_COUNT>
2

> <PUBCHEM_PHARMACOPHORE_FEATURES>
7
1 1 donor
1 2 donor
1 3 acceptor
1 4 donor
1 5 donor
6 6 9 11 13 15 17 rings
6 7 10 12 14 16 18 rings

> <PUBCHEM_HEAVY_ATOM_COUNT>
18

> <PUBCHEM_ATOM_DEF_STEREO_COUNT>
0

> <PUBCHEM_ATOM_UDEF_STEREO_COUNT>
0

> <PUBCHEM_BOND_DEF_STEREO_COUNT>
0

> <PUBCHEM_BOND_UDEF_STEREO_COUNT>
0

> <PUBCHEM_ISOTOPIC_ATOM_COUNT>
0

> <PUBCHEM_COMPONENT_COUNT>
1

> <PUBCHEM_CACTVS_TAUTO_COUNT>
72

> <PUBCHEM_CONFORMER_ID>
0000217B00000003

> <PUBCHEM_MMFF94_ENERGY>
59.7646

> <PUBCHEM_FEATURE_SELFOVERLAP>
35.523

> <PUBCHEM_SHAPE_FINGERPRINT>
11471102 20 18409169892103070408
11543360 7 16558473084182650672
11578080 2 11531614863815746903
12236239 1 18131065996288699443
12730499 353 18260275135465842107
13764800 53 16298659508524951853
14115302 16 17274813641062312855
14993402 34 17846215540487606185
15309172 13 17603583049510828995
15342168 16 17968104165179409005
15775835 57 18412826888988243309
16752209 62 16702019734536568467
16945 1 18338804403115108058
1813 80 17908702826610089778
18186145 218 18334579027342918966
19784866 34 18334295413878624880
19862831 5 17703791439638752137
19868273 293 17846494850753190559
20612939 158 18410015399459763708
20645476 183 18131345336920073351
20645477 70 18339644438557177238
20871999 31 17703499013054573895
21486144 27 18040157318289672158
22079108 93 18187935001610251691
22854114 59 17458065950124340569
231179 274 17822006519258234448
23402539 116 18409442626948148612
23402655 69 18343585139818180612
23559900 14 18270131244514800908
23598291 2 17916313731579383754
25 1 18335137605093349618
2748010 2 18049736405846724776
2838139 119 17898835865392311757
3082319 5 17846778520178562597
350125 39 17829344823007393920
4028521 119 18341894112446576825
474 4 18335984259027423912
5374978 207 12973890299285696421
633830 44 18335985259854816367
74978 22 17775280611934871745
76465 3 11743574149888780620
77492 1 18131067091542367739
81228 2 16880770831219455195
8272917 22 18265617572439684195
9981440 41 17624393673978878472

> <PUBCHEM_SHAPE_MULTIPOLES>
341.08
8.1
1.9
1.16
0.73
0.35
-0.07
-4.23
-1.78
-1.35
0.05
0.84
0.24
-0.62

> <PUBCHEM_SHAPE_SELFOVERLAP>
750.848

> <PUBCHEM_SHAPE_VOLUME>
184

> <PUBCHEM_COORDINATE_TYPE>
2
5
10

> <Energy>
46.2868

> <minimizedAffinity>
-7.89993

> <CNNscore>
0.7505311966

> <CNNaffinity>
6.0521278381

> <CNN_VS>
4.5423107147

> <CNNaffinity_variance>
0.6051201224

$$$$
8571


 22 23  0  0  0  0  0  0  0  0999 V2000
   -4.5379   -5.1655   22.0036 O   0  0  0  0  0  0  0  0  0  0  0  0
   -4.3057   -3.9619   22.0795 C   0  0  0  0  0  0  0  0  0  0  0  0
   -5.7364   -4.3796   24.5399 O   0  0  0  0  0  0  0  0  0  0  0  0
   -8.3459   -0.4652   23.8797 O   0  0  0  0  0  0  0  0  0  0  0  0
   -5.3629   -3.0300   22.5454 C   0  0  0  0  0  0  0  0  0  0  0  0
   -6.0253   -3.2937   23.7554 C   0  0  0  0  0  0  0  0  0  0  0  0
   -5.7248   -1.8997   21.8000 C   0  0  0  0  0  0  0  0  0  0  0  0
   -7.0208   -2.4393   24.2253 C   0  0  0  0  0  0  0  0  0  0  0  0
   -6.7344   -1.0518   22.2625 C   0  0  0  0  0  0  0  0  0  0  0  0
   -7.3696   -1.3245   23.4698 C   0  0  0  0  0  0  0  0  0  0  0  0
   -5.0754   -4.9878   24.2730 H   0  0  0  0  0  0  0  0  0  0  0  0
   -8.7952   -0.6175   24.6877 H   0  0  0  0  0  0  0  0  0  0  0  0
   -3.3137   -3.9553   19.4599 O   0  0  0  0  0  0  0  0  0  0  0  0
    0.8342   -2.0466   20.9294 O   0  0  0  0  0  0  0  0  0  0  0  0
   -2.9538   -3.4667   21.7703 C   0  0  0  0  0  0  0  0  0  0  0  0
   -2.5041   -3.4679   20.4467 C   0  0  0  0  0  0  0  0  0  0  0  0
   -2.1439   -2.9784   22.7989 C   0  0  0  0  0  0  0  0  0  0  0  0
   -1.2332   -2.9851   20.1392 C   0  0  0  0  0  0  0  0  0  0  0  0
   -0.8641   -2.5144   22.4947 C   0  0  0  0  0  0  0  0  0  0  0  0
   -0.4224   -2.5177   21.1724 C   0  0  0  0  0  0  0  0  0  0  0  0
   -4.1673   -4.2789   19.6715 H   0  0  0  0  0  0  0  0  0  0  0  0
    1.1679   -2.0322   20.0540 H   0  0  0  0  0  0  0  0  0  0  0  0
  3  6  1  0
  3 11  1  0
 13 16  1  0
 13 21  1  0
  1  2  2  0
  4 10  1  0
  4 12  1  0
 14 20  1  0
 14 22  1  0
  5  2  1  0
  5  6  2  0
  5  7  1  0
 15  2  1  0
 15 16  2  0
 15 17  1  0
  6  8  1  0
 16 18  1  0
  7  9  2  0
 17 19  2  0
  8 10  2  0
 18 20  2  0
  9 10  1  0
 19 20  1  0
M  END
> <PUBCHEM_COMPOUND_CID>
8571

> <PUBCHEM_CONFORMER_RMSD>
0.6

> <PUBCHEM_CONFORMER_DIVERSEORDER>
3
14
8
5
6
10
13
11
12
7
2
4
9
1

> <PUBCHEM_MMFF94_PARTIAL_CHARGES>
28
1 -0.53
10 0.08
11 -0.15
12 -0.15
13 -0.15
14 -0.15
15 -0.15
16 -0.15
17 0.08
18 0.08
19 0.15
2 -0.53
20 0.15
21 0.15
22 0.15
23 0.15
24 0.15
25 0.45
26 0.45
27 0.45
28 0.45
3 -0.57
4 -0.53
5 -0.53
6 0.09
7 0.09
8 0.4
9 0.08

> <PUBCHEM_EFFECTIVE_ROTOR_COUNT>
2

> <PUBCHEM_PHARMACOPHORE_FEATURES>
7
1 1 donor
1 2 donor
1 3 acceptor
1 4 donor
1 5 donor
6 6 9 11 13 15 17 rings
6 7 10 12 14 16 18 rings

> <PUBCHEM_HEAVY_ATOM_COUNT>
18

> <PUBCHEM_ATOM_DEF_STEREO_COUNT>
0

> <PUBCHEM_ATOM_UDEF_STEREO_COUNT>
0

> <PUBCHEM_BOND_DEF_STEREO_COUNT>
0

> <PUBCHEM_BOND_UDEF_STEREO_COUNT>
0

> <PUBCHEM_ISOTOPIC_ATOM_COUNT>
0

> <PUBCHEM_COMPONENT_COUNT>
1

> <PUBCHEM_CACTVS_TAUTO_COUNT>
72

> <PUBCHEM_CONFORMER_ID>
0000217B00000003

> <PUBCHEM_MMFF94_ENERGY>
59.7646

> <PUBCHEM_FEATURE_SELFOVERLAP>
35.523

> <PUBCHEM_SHAPE_FINGERPRINT>
11471102 20 18409169892103070408
11543360 7 16558473084182650672
11578080 2 11531614863815746903
12236239 1 18131065996288699443
12730499 353 18260275135465842107
13764800 53 16298659508524951853
14115302 16 17274813641062312855
14993402 34 17846215540487606185
15309172 13 17603583049510828995
15342168 16 17968104165179409005
15775835 57 18412826888988243309
16752209 62 16702019734536568467
16945 1 18338804403115108058
1813 80 17908702826610089778
18186145 218 18334579027342918966
19784866 34 18334295413878624880
19862831 5 17703791439638752137
19868273 293 17846494850753190559
20612939 158 18410015399459763708
20645476 183 18131345336920073351
20645477 70 18339644438557177238
20871999 31 17703499013054573895
21486144 27 18040157318289672158
22079108 93 18187935001610251691
22854114 59 17458065950124340569
231179 274 17822006519258234448
23402539 116 18409442626948148612
23402655 69 18343585139818180612
23559900 14 18270131244514800908
23598291 2 17916313731579383754
25 1 18335137605093349618
2748010 2 18049736405846724776
2838139 119 17898835865392311757
3082319 5 17846778520178562597
350125 39 17829344823007393920
4028521 119 18341894112446576825
474 4 18335984259027423912
5374978 207 12973890299285696421
633830 44 18335985259854816367
74978 22 17775280611934871745
76465 3 11743574149888780620
77492 1 18131067091542367739
81228 2 16880770831219455195
8272917 22 18265617572439684195
9981440 41 17624393673978878472

> <PUBCHEM_SHAPE_MULTIPOLES>
341.08
8.1
1.9
1.16
0.73
0.35
-0.07
-4.23
-1.78
-1.35
0.05
0.84
0.24
-0.62

> <PUBCHEM_SHAPE_SELFOVERLAP>
750.848

> <PUBCHEM_SHAPE_VOLUME>
184

> <PUBCHEM_COORDINATE_TYPE>
2
5
10

> <Energy>
46.2868

> <minimizedAffinity>
-8.36123

> <CNNscore>
0.7335364819

> <CNNaffinity>
5.6343655586

> <CNN_VS>
4.1330127716

> <CNNaffinity_variance>
0.3285436332

$$$$
8571


 22 23  0  0  0  0  0  0  0  0999 V2000
   -4.6269   -5.1335   21.9451 O   0  0  0  0  0  0  0  0  0  0  0  0
   -4.3540   -3.9502   22.1282 C   0  0  0  0  0  0  0  0  0  0  0  0
   -3.2920   -3.9310   19.4549 O   0  0  0  0  0  0  0  0  0  0  0  0
    0.8253   -2.0735   20.9265 O   0  0  0  0  0  0  0  0  0  0  0  0
   -2.9909   -3.4473   21.8244 C   0  0  0  0  0  0  0  0  0  0  0  0
   -2.5320   -3.4684   20.4972 C   0  0  0  0  0  0  0  0  0  0  0  0
   -2.1460   -2.9635   22.8324 C   0  0  0  0  0  0  0  0  0  0  0  0
   -1.2594   -3.0015   20.1744 C   0  0  0  0  0  0  0  0  0  0  0  0
   -0.8637   -2.5109   22.5115 C   0  0  0  0  0  0  0  0  0  0  0  0
   -0.4330   -2.5289   21.1888 C   0  0  0  0  0  0  0  0  0  0  0  0
   -4.1562   -4.2569   19.6136 H   0  0  0  0  0  0  0  0  0  0  0  0
    1.1488   -2.0709   20.0471 H   0  0  0  0  0  0  0  0  0  0  0  0
   -5.7514   -4.3934   24.5152 O   0  0  0  0  0  0  0  0  0  0  0  0
   -8.3422   -0.4111   23.8542 O   0  0  0  0  0  0  0  0  0  0  0  0
   -5.4079   -3.0286   22.5850 C   0  0  0  0  0  0  0  0  0  0  0  0
   -6.0702   -3.2801   23.7901 C   0  0  0  0  0  0  0  0  0  0  0  0
   -5.7182   -1.9000   21.8220 C   0  0  0  0  0  0  0  0  0  0  0  0
   -7.0570   -2.4055   24.2417 C   0  0  0  0  0  0  0  0  0  0  0  0
   -6.7201   -1.0355   22.2629 C   0  0  0  0  0  0  0  0  0  0  0  0
   -7.3759   -1.2918   23.4661 C   0  0  0  0  0  0  0  0  0  0  0  0
   -5.0873   -4.9785   24.2075 H   0  0  0  0  0  0  0  0  0  0  0  0
   -8.8060   -0.5482   24.6566 H   0  0  0  0  0  0  0  0  0  0  0  0
  3  6  1  0
  3 11  1  0
 13 16  1  0
 13 21  1  0
  1  2  2  0
  4 10  1  0
  4 12  1  0
 14 20  1  0
 14 22  1  0
  5  2  1  0
  5  6  2  0
  5  7  1  0
 15  2  1  0
 15 16  2  0
 15 17  1  0
  6  8  1  0
 16 18  1  0
  7  9  2  0
 17 19  2  0
  8 10  2  0
 18 20  2  0
  9 10  1  0
 19 20  1  0
M  END
> <PUBCHEM_COMPOUND_CID>
8571

> <PUBCHEM_CONFORMER_RMSD>
0.6

> <PUBCHEM_CONFORMER_DIVERSEORDER>
3
14
8
5
6
10
13
11
12
7
2
4
9
1

> <PUBCHEM_MMFF94_PARTIAL_CHARGES>
28
1 -0.53
10 0.08
11 -0.15
12 -0.15
13 -0.15
14 -0.15
15 -0.15
16 -0.15
17 0.08
18 0.08
19 0.15
2 -0.53
20 0.15
21 0.15
22 0.15
23 0.15
24 0.15
25 0.45
26 0.45
27 0.45
28 0.45
3 -0.57
4 -0.53
5 -0.53
6 0.09
7 0.09
8 0.4
9 0.08

> <PUBCHEM_EFFECTIVE_ROTOR_COUNT>
2

> <PUBCHEM_PHARMACOPHORE_FEATURES>
7
1 1 donor
1 2 donor
1 3 acceptor
1 4 donor
1 5 donor
6 6 9 11 13 15 17 rings
6 7 10 12 14 16 18 rings

> <PUBCHEM_HEAVY_ATOM_COUNT>
18

> <PUBCHEM_ATOM_DEF_STEREO_COUNT>
0

> <PUBCHEM_ATOM_UDEF_STEREO_COUNT>
0

> <PUBCHEM_BOND_DEF_STEREO_COUNT>
0

> <PUBCHEM_BOND_UDEF_STEREO_COUNT>
0

> <PUBCHEM_ISOTOPIC_ATOM_COUNT>
0

> <PUBCHEM_COMPONENT_COUNT>
1

> <PUBCHEM_CACTVS_TAUTO_COUNT>
72

> <PUBCHEM_CONFORMER_ID>
0000217B00000003

> <PUBCHEM_MMFF94_ENERGY>
59.7646

> <PUBCHEM_FEATURE_SELFOVERLAP>
35.523

> <PUBCHEM_SHAPE_FINGERPRINT>
11471102 20 18409169892103070408
11543360 7 16558473084182650672
11578080 2 11531614863815746903
12236239 1 18131065996288699443
12730499 353 18260275135465842107
13764800 53 16298659508524951853
14115302 16 17274813641062312855
14993402 34 17846215540487606185
15309172 13 17603583049510828995
15342168 16 17968104165179409005
15775835 57 18412826888988243309
16752209 62 16702019734536568467
16945 1 18338804403115108058
1813 80 17908702826610089778
18186145 218 18334579027342918966
19784866 34 18334295413878624880
19862831 5 17703791439638752137
19868273 293 17846494850753190559
20612939 158 18410015399459763708
20645476 183 18131345336920073351
20645477 70 18339644438557177238
20871999 31 17703499013054573895
21486144 27 18040157318289672158
22079108 93 18187935001610251691
22854114 59 17458065950124340569
231179 274 17822006519258234448
23402539 116 18409442626948148612
23402655 69 18343585139818180612
23559900 14 18270131244514800908
23598291 2 17916313731579383754
25 1 18335137605093349618
2748010 2 18049736405846724776
2838139 119 17898835865392311757
3082319 5 17846778520178562597
350125 39 17829344823007393920
4028521 119 18341894112446576825
474 4 18335984259027423912
5374978 207 12973890299285696421
633830 44 18335985259854816367
74978 22 17775280611934871745
76465 3 11743574149888780620
77492 1 18131067091542367739
81228 2 16880770831219455195
8272917 22 18265617572439684195
9981440 41 17624393673978878472

> <PUBCHEM_SHAPE_MULTIPOLES>
341.08
8.1
1.9
1.16
0.73
0.35
-0.07
-4.23
-1.78
-1.35
0.05
0.84
0.24
-0.62

> <PUBCHEM_SHAPE_SELFOVERLAP>
750.848

> <PUBCHEM_SHAPE_VOLUME>
184

> <PUBCHEM_COORDINATE_TYPE>
2
5
10

> <Energy>
46.2868

> <minimizedAffinity>
-8.37375

> <CNNscore>
0.7317329049

> <CNNaffinity>
5.6098380089

> <CNN_VS>
4.1049032211

> <CNNaffinity_variance>
0.3351092041

$$$$
