448537


 22 23  0  0  0  0  0  0  0  0999 V2000
   -2.0051   -3.5540   22.5897 C   0  0  0  0  0  0  0  0  0  0  0  0
   -2.8348   -2.7617   21.8660 C   0  0  0  0  0  0  0  0  0  0  0  0
    1.2961   -1.3846   26.5992 O   0  0  0  0  0  0  0  0  0  0  0  0
   -1.1332   -2.9760   23.6325 C   0  0  0  0  0  0  0  0  0  0  0  0
    0.1631   -2.5502   23.3126 C   0  0  0  0  0  0  0  0  0  0  0  0
   -1.5919   -2.8551   24.9504 C   0  0  0  0  0  0  0  0  0  0  0  0
    0.9927   -2.0130   24.3002 C   0  0  0  0  0  0  0  0  0  0  0  0
   -0.7628   -2.3179   25.9365 C   0  0  0  0  0  0  0  0  0  0  0  0
    0.5204   -1.9021   25.6039 C   0  0  0  0  0  0  0  0  0  0  0  0
    2.1668   -1.0940   26.4114 H   0  0  0  0  0  0  0  0  0  0  0  0
   -6.1678   -5.0012   17.9217 O   0  0  0  0  0  0  0  0  0  0  0  0
   -3.7090   -3.3395   20.8246 C   0  0  0  0  0  0  0  0  0  0  0  0
   -4.9238   -3.9433   21.1731 C   0  0  0  0  0  0  0  0  0  0  0  0
   -3.3230   -3.2957   19.4785 C   0  0  0  0  0  0  0  0  0  0  0  0
   -5.7395   -4.4976   20.1852 C   0  0  0  0  0  0  0  0  0  0  0  0
   -4.1388   -3.8489   18.4908 C   0  0  0  0  0  0  0  0  0  0  0  0
   -5.3415   -4.4466   18.8541 C   0  0  0  0  0  0  0  0  0  0  0  0
   -6.9735   -5.3989   18.1870 H   0  0  0  0  0  0  0  0  0  0  0  0
   -1.8951   -5.0636   22.4675 C   0  0  0  0  0  0  0  0  0  0  0  0
   -0.8247   -5.5065   21.4785 C   0  0  0  0  0  0  0  0  0  0  0  0
   -3.0020   -1.2630   22.0425 C   0  0  0  0  0  0  0  0  0  0  0  0
   -4.3408   -0.7482   21.5301 C   0  0  0  0  0  0  0  0  0  0  0  0
  3  9  1  0
  3 10  1  0
 11 17  1  0
 11 18  1  0
  1  2  2  0
  1 19  1  0
  1  4  1  0
  2 21  1  0
  2 12  1  0
 19 20  1  0
 21 22  1  0
  4  5  2  0
  4  6  1  0
 12 13  2  0
 12 14  1  0
  5  7  1  0
 13 15  1  0
  6  8  2  0
 14 16  2  0
  7  9  2  0
 15 17  2  0
  8  9  1  0
 16 17  1  0
M  END
> <PUBCHEM_COMPOUND_CID>
448537

> <PUBCHEM_CONFORMER_RMSD>
0.6

> <PUBCHEM_CONFORMER_DIVERSEORDER>
1
3
2

> <PUBCHEM_MMFF94_PARTIAL_CHARGES>
28
1 -0.53
11 -0.15
12 -0.15
13 -0.15
14 -0.15
15 -0.15
16 -0.15
17 -0.15
18 -0.15
19 0.08
2 -0.53
20 0.08
3 -0.17
31 0.15
32 0.15
33 0.15
34 0.15
35 0.15
36 0.15
37 0.15
38 0.15
39 0.45
4 -0.17
40 0.45
5 0.14
6 0.14
7 0.03
8 0.03

> <PUBCHEM_EFFECTIVE_ROTOR_COUNT>
4

> <PUBCHEM_PHARMACOPHORE_FEATURES>
6
1 1 donor
1 10 hydrophobe
1 2 donor
1 9 hydrophobe
6 7 11 13 15 17 19 rings
6 8 12 14 16 18 20 rings

> <PUBCHEM_HEAVY_ATOM_COUNT>
20

> <PUBCHEM_ATOM_DEF_STEREO_COUNT>
0

> <PUBCHEM_ATOM_UDEF_STEREO_COUNT>
0

> <PUBCHEM_BOND_DEF_STEREO_COUNT>
1

> <PUBCHEM_BOND_UDEF_STEREO_COUNT>
0

> <PUBCHEM_ISOTOPIC_ATOM_COUNT>
0

> <PUBCHEM_COMPONENT_COUNT>
1

> <PUBCHEM_CACTVS_TAUTO_COUNT>
3

> <PUBCHEM_CONFORMER_ID>
0006D81900000001

> <PUBCHEM_MMFF94_ENERGY>
60.231

> <PUBCHEM_FEATURE_SELFOVERLAP>
30.447

> <PUBCHEM_SHAPE_FINGERPRINT>
10366900 7 18186514428534874893
104564 63 18339924792832442081
10906281 52 18129397028286092948
11646440 116 18130798871235594657
12592029 89 16950278473467191938
12788726 201 18270697410649816016
13140716 1 18266458895859843337
13533116 47 18340201896197096762
13760787 19 16660644076447957075
14115302 16 18186806919849492430
14341114 176 15647057049052281551
15099037 51 18335139812416525942
15848700 24 18202843262111810220
15848702 151 16988848262958300981
16752209 62 18335696105492573576
16945 1 18410855473013063775
1813 80 18272378572207267076
18186145 218 18338228362096015613
187816 3 18410857663704853992
19141452 34 17131829889222033293
19784866 9 18113613452605694563
200 152 16950282905968490344
20028762 73 18055641861278493167
20600515 1 18340218469921978116
20645477 70 16009301016701038466
21285901 2 17917162606291067244
23175994 123 18333735723499757565
23402539 116 17988639696664490244
23493267 7 17313098635762053785
23557571 272 17489592229515708168
23559900 14 15554438621982335170
266924 87 18194116322357846868
347723 3 18410856551049855057
34934 24 18129105515976021729
3545911 37 15719391732852524422
4072396 5 18261662693185545291
4214541 1 15791727494979709055
465052 167 17240208741576471315
474 4 17917140731779840409
59755656 215 18270402685366324510
633830 44 18342455975941661781
69090 78 17060620005479420895
7226269 152 18410853270196137312
7495541 125 17531535390133293585
77779 3 15719110262139125926
81228 2 18128838385973970688
8272917 22 16660357039657468298
9971528 1 17775283884826915592

> <PUBCHEM_SHAPE_MULTIPOLES>
399.85
10.42
1.74
1.37
0
0
0.06
0
1.28
0
-0.74
0
0
-0.06

> <PUBCHEM_SHAPE_SELFOVERLAP>
850.96

> <PUBCHEM_SHAPE_VOLUME>
224.1

> <PUBCHEM_COORDINATE_TYPE>
2
5
10

> <Energy>
28.3223

> <minimizedAffinity>
-9.91384

> <CNNscore>
0.9838011265

> <CNNaffinity>
8.5280141830

> <CNN_VS>
8.3898696899

> <CNNaffinity_variance>
1.1233917475

$$$$
448537


 22 23  0  0  0  0  0  0  0  0999 V2000
   -2.0033   -3.6373   22.5401 C   0  0  0  0  0  0  0  0  0  0  0  0
   -2.8585   -2.8520   21.8388 C   0  0  0  0  0  0  0  0  0  0  0  0
    1.3428   -1.4495   26.5022 O   0  0  0  0  0  0  0  0  0  0  0  0
   -1.1201   -3.0542   23.5704 C   0  0  0  0  0  0  0  0  0  0  0  0
    0.1585   -2.5950   23.2266 C   0  0  0  0  0  0  0  0  0  0  0  0
   -1.5501   -2.9618   24.9003 C   0  0  0  0  0  0  0  0  0  0  0  0
    0.9991   -2.0529   24.2021 C   0  0  0  0  0  0  0  0  0  0  0  0
   -0.7100   -2.4196   25.8744 C   0  0  0  0  0  0  0  0  0  0  0  0
    0.5554   -1.9705   25.5179 C   0  0  0  0  0  0  0  0  0  0  0  0
    2.2021   -1.1368   26.2984 H   0  0  0  0  0  0  0  0  0  0  0  0
   -6.2302   -5.0348   17.8956 O   0  0  0  0  0  0  0  0  0  0  0  0
   -3.7441   -3.4349   20.8099 C   0  0  0  0  0  0  0  0  0  0  0  0
   -3.3835   -3.3929   19.4571 C   0  0  0  0  0  0  0  0  0  0  0  0
   -4.9586   -4.0268   21.1807 C   0  0  0  0  0  0  0  0  0  0  0  0
   -4.2304   -3.9353   18.4892 C   0  0  0  0  0  0  0  0  0  0  0  0
   -5.8048   -4.5699   20.2131 C   0  0  0  0  0  0  0  0  0  0  0  0
   -5.4325   -4.5182   18.8736 C   0  0  0  0  0  0  0  0  0  0  0  0
   -5.9612   -4.9900   16.9992 H   0  0  0  0  0  0  0  0  0  0  0  0
   -1.8733   -5.1440   22.4040 C   0  0  0  0  0  0  0  0  0  0  0  0
   -0.7453   -5.5645   21.4707 C   0  0  0  0  0  0  0  0  0  0  0  0
   -3.0444   -1.3574   22.0303 C   0  0  0  0  0  0  0  0  0  0  0  0
   -4.3831   -0.8516   21.5084 C   0  0  0  0  0  0  0  0  0  0  0  0
  3  9  1  0
  3 10  1  0
 11 17  1  0
 11 18  1  0
  1  2  2  0
  1 19  1  0
  1  4  1  0
  2 21  1  0
  2 12  1  0
 19 20  1  0
 21 22  1  0
  4  5  2  0
  4  6  1  0
 12 13  2  0
 12 14  1  0
  5  7  1  0
 13 15  1  0
  6  8  2  0
 14 16  2  0
  7  9  2  0
 15 17  2  0
  8  9  1  0
 16 17  1  0
M  END
> <PUBCHEM_COMPOUND_CID>
448537

> <PUBCHEM_CONFORMER_RMSD>
0.6

> <PUBCHEM_CONFORMER_DIVERSEORDER>
1
3
2

> <PUBCHEM_MMFF94_PARTIAL_CHARGES>
28
1 -0.53
11 -0.15
12 -0.15
13 -0.15
14 -0.15
15 -0.15
16 -0.15
17 -0.15
18 -0.15
19 0.08
2 -0.53
20 0.08
3 -0.17
31 0.15
32 0.15
33 0.15
34 0.15
35 0.15
36 0.15
37 0.15
38 0.15
39 0.45
4 -0.17
40 0.45
5 0.14
6 0.14
7 0.03
8 0.03

> <PUBCHEM_EFFECTIVE_ROTOR_COUNT>
4

> <PUBCHEM_PHARMACOPHORE_FEATURES>
6
1 1 donor
1 10 hydrophobe
1 2 donor
1 9 hydrophobe
6 7 11 13 15 17 19 rings
6 8 12 14 16 18 20 rings

> <PUBCHEM_HEAVY_ATOM_COUNT>
20

> <PUBCHEM_ATOM_DEF_STEREO_COUNT>
0

> <PUBCHEM_ATOM_UDEF_STEREO_COUNT>
0

> <PUBCHEM_BOND_DEF_STEREO_COUNT>
1

> <PUBCHEM_BOND_UDEF_STEREO_COUNT>
0

> <PUBCHEM_ISOTOPIC_ATOM_COUNT>
0

> <PUBCHEM_COMPONENT_COUNT>
1

> <PUBCHEM_CACTVS_TAUTO_COUNT>
3

> <PUBCHEM_CONFORMER_ID>
0006D81900000001

> <PUBCHEM_MMFF94_ENERGY>
60.231

> <PUBCHEM_FEATURE_SELFOVERLAP>
30.447

> <PUBCHEM_SHAPE_FINGERPRINT>
10366900 7 18186514428534874893
104564 63 18339924792832442081
10906281 52 18129397028286092948
11646440 116 18130798871235594657
12592029 89 16950278473467191938
12788726 201 18270697410649816016
13140716 1 18266458895859843337
13533116 47 18340201896197096762
13760787 19 16660644076447957075
14115302 16 18186806919849492430
14341114 176 15647057049052281551
15099037 51 18335139812416525942
15848700 24 18202843262111810220
15848702 151 16988848262958300981
16752209 62 18335696105492573576
16945 1 18410855473013063775
1813 80 18272378572207267076
18186145 218 18338228362096015613
187816 3 18410857663704853992
19141452 34 17131829889222033293
19784866 9 18113613452605694563
200 152 16950282905968490344
20028762 73 18055641861278493167
20600515 1 18340218469921978116
20645477 70 16009301016701038466
21285901 2 17917162606291067244
23175994 123 18333735723499757565
23402539 116 17988639696664490244
23493267 7 17313098635762053785
23557571 272 17489592229515708168
23559900 14 15554438621982335170
266924 87 18194116322357846868
347723 3 18410856551049855057
34934 24 18129105515976021729
3545911 37 15719391732852524422
4072396 5 18261662693185545291
4214541 1 15791727494979709055
465052 167 17240208741576471315
474 4 17917140731779840409
59755656 215 18270402685366324510
633830 44 18342455975941661781
69090 78 17060620005479420895
7226269 152 18410853270196137312
7495541 125 17531535390133293585
77779 3 15719110262139125926
81228 2 18128838385973970688
8272917 22 16660357039657468298
9971528 1 17775283884826915592

> <PUBCHEM_SHAPE_MULTIPOLES>
399.85
10.42
1.74
1.37
0
0
0.06
0
1.28
0
-0.74
0
0
-0.06

> <PUBCHEM_SHAPE_SELFOVERLAP>
850.96

> <PUBCHEM_SHAPE_VOLUME>
224.1

> <PUBCHEM_COORDINATE_TYPE>
2
5
10

> <Energy>
28.3223

> <minimizedAffinity>
-9.91923

> <CNNscore>
0.9818379283

> <CNNaffinity>
8.4596986771

> <CNN_VS>
8.3060531616

> <CNNaffinity_variance>
1.0243716240

$$$$
448537


 22 23  0  0  0  0  0  0  0  0999 V2000
   -2.7939   -2.7749   21.8889 C   0  0  0  0  0  0  0  0  0  0  0  0
   -1.9649   -3.5779   22.6015 C   0  0  0  0  0  0  0  0  0  0  0  0
   -6.0983   -4.9397   17.8795 O   0  0  0  0  0  0  0  0  0  0  0  0
   -3.6724   -3.3388   20.8440 C   0  0  0  0  0  0  0  0  0  0  0  0
   -4.9012   -3.9165   21.1908 C   0  0  0  0  0  0  0  0  0  0  0  0
   -3.2816   -3.3072   19.4992 C   0  0  0  0  0  0  0  0  0  0  0  0
   -5.7283   -4.4598   20.2045 C   0  0  0  0  0  0  0  0  0  0  0  0
   -4.1087   -3.8498   18.5143 C   0  0  0  0  0  0  0  0  0  0  0  0
   -5.3230   -4.4207   18.8744 C   0  0  0  0  0  0  0  0  0  0  0  0
   -6.9236   -5.3325   18.0854 H   0  0  0  0  0  0  0  0  0  0  0  0
    1.3437   -1.4050   26.6032 O   0  0  0  0  0  0  0  0  0  0  0  0
   -1.0878   -3.0148   23.6487 C   0  0  0  0  0  0  0  0  0  0  0  0
   -1.5378   -2.9118   24.9710 C   0  0  0  0  0  0  0  0  0  0  0  0
    0.2002   -2.5700   23.3230 C   0  0  0  0  0  0  0  0  0  0  0  0
   -0.7081   -2.3681   25.9530 C   0  0  0  0  0  0  0  0  0  0  0  0
    1.0300   -2.0273   24.3049 C   0  0  0  0  0  0  0  0  0  0  0  0
    0.5669   -1.9305   25.6132 C   0  0  0  0  0  0  0  0  0  0  0  0
    1.0132   -1.3487   27.4781 H   0  0  0  0  0  0  0  0  0  0  0  0
   -2.9584   -1.2781   22.0845 C   0  0  0  0  0  0  0  0  0  0  0  0
   -4.2335   -0.7300   21.4568 C   0  0  0  0  0  0  0  0  0  0  0  0
   -1.8580   -5.0857   22.4598 C   0  0  0  0  0  0  0  0  0  0  0  0
   -0.6967   -5.5205   21.5752 C   0  0  0  0  0  0  0  0  0  0  0  0
  3  9  1  0
  3 10  1  0
 11 17  1  0
 11 18  1  0
  1  2  2  0
  1 19  1  0
  1  4  1  0
  2 21  1  0
  2 12  1  0
 19 20  1  0
 21 22  1  0
  4  5  2  0
  4  6  1  0
 12 13  2  0
 12 14  1  0
  5  7  1  0
 13 15  1  0
  6  8  2  0
 14 16  2  0
  7  9  2  0
 15 17  2  0
  8  9  1  0
 16 17  1  0
M  END
> <PUBCHEM_COMPOUND_CID>
448537

> <PUBCHEM_CONFORMER_RMSD>
0.6

> <PUBCHEM_CONFORMER_DIVERSEORDER>
1
3
2

> <PUBCHEM_MMFF94_PARTIAL_CHARGES>
28
1 -0.53
11 -0.15
12 -0.15
13 -0.15
14 -0.15
15 -0.15
16 -0.15
17 -0.15
18 -0.15
19 0.08
2 -0.53
20 0.08
3 -0.17
31 0.15
32 0.15
33 0.15
34 0.15
35 0.15
36 0.15
37 0.15
38 0.15
39 0.45
4 -0.17
40 0.45
5 0.14
6 0.14
7 0.03
8 0.03

> <PUBCHEM_EFFECTIVE_ROTOR_COUNT>
4

> <PUBCHEM_PHARMACOPHORE_FEATURES>
6
1 1 donor
1 10 hydrophobe
1 2 donor
1 9 hydrophobe
6 7 11 13 15 17 19 rings
6 8 12 14 16 18 20 rings

> <PUBCHEM_HEAVY_ATOM_COUNT>
20

> <PUBCHEM_ATOM_DEF_STEREO_COUNT>
0

> <PUBCHEM_ATOM_UDEF_STEREO_COUNT>
0

> <PUBCHEM_BOND_DEF_STEREO_COUNT>
1

> <PUBCHEM_BOND_UDEF_STEREO_COUNT>
0

> <PUBCHEM_ISOTOPIC_ATOM_COUNT>
0

> <PUBCHEM_COMPONENT_COUNT>
1

> <PUBCHEM_CACTVS_TAUTO_COUNT>
3

> <PUBCHEM_CONFORMER_ID>
0006D81900000001

> <PUBCHEM_MMFF94_ENERGY>
60.231

> <PUBCHEM_FEATURE_SELFOVERLAP>
30.447

> <PUBCHEM_SHAPE_FINGERPRINT>
10366900 7 18186514428534874893
104564 63 18339924792832442081
10906281 52 18129397028286092948
11646440 116 18130798871235594657
12592029 89 16950278473467191938
12788726 201 18270697410649816016
13140716 1 18266458895859843337
13533116 47 18340201896197096762
13760787 19 16660644076447957075
14115302 16 18186806919849492430
14341114 176 15647057049052281551
15099037 51 18335139812416525942
15848700 24 18202843262111810220
15848702 151 16988848262958300981
16752209 62 18335696105492573576
16945 1 18410855473013063775
1813 80 18272378572207267076
18186145 218 18338228362096015613
187816 3 18410857663704853992
19141452 34 17131829889222033293
19784866 9 18113613452605694563
200 152 16950282905968490344
20028762 73 18055641861278493167
20600515 1 18340218469921978116
20645477 70 16009301016701038466
21285901 2 17917162606291067244
23175994 123 18333735723499757565
23402539 116 17988639696664490244
23493267 7 17313098635762053785
23557571 272 17489592229515708168
23559900 14 15554438621982335170
266924 87 18194116322357846868
347723 3 18410856551049855057
34934 24 18129105515976021729
3545911 37 15719391732852524422
4072396 5 18261662693185545291
4214541 1 15791727494979709055
465052 167 17240208741576471315
474 4 17917140731779840409
59755656 215 18270402685366324510
633830 44 18342455975941661781
69090 78 17060620005479420895
7226269 152 18410853270196137312
7495541 125 17531535390133293585
77779 3 15719110262139125926
81228 2 18128838385973970688
8272917 22 16660357039657468298
9971528 1 17775283884826915592

> <PUBCHEM_SHAPE_MULTIPOLES>
399.85
10.42
1.74
1.37
0
0
0.06
0
1.28
0
-0.74
0
0
-0.06

> <PUBCHEM_SHAPE_SELFOVERLAP>
850.96

> <PUBCHEM_SHAPE_VOLUME>
224.1

> <PUBCHEM_COORDINATE_TYPE>
2
5
10

> <Energy>
28.3223

> <minimizedAffinity>
-9.90985

> <CNNscore>
0.9818018675

> <CNNaffinity>
8.5181341171

> <CNN_VS>
8.3631200790

> <CNNaffinity_variance>
1.1382550001

$$$$
448537


 22 23  0  0  0  0  0  0  0  0999 V2000
   -2.0287   -3.6241   22.5378 C   0  0  0  0  0  0  0  0  0  0  0  0
   -2.8725   -2.8312   21.8312 C   0  0  0  0  0  0  0  0  0  0  0  0
    1.3393   -1.4009   26.4615 O   0  0  0  0  0  0  0  0  0  0  0  0
   -1.1502   -3.0495   23.5769 C   0  0  0  0  0  0  0  0  0  0  0  0
   -1.5993   -2.9406   24.8999 C   0  0  0  0  0  0  0  0  0  0  0  0
    0.1357   -2.6024   23.2474 C   0  0  0  0  0  0  0  0  0  0  0  0
   -0.7733   -2.3876   25.8818 C   0  0  0  0  0  0  0  0  0  0  0  0
    0.9607   -2.0505   24.2290 C   0  0  0  0  0  0  0  0  0  0  0  0
    0.5001   -1.9477   25.5356 C   0  0  0  0  0  0  0  0  0  0  0  0
    1.0622   -1.3159   27.3524 H   0  0  0  0  0  0  0  0  0  0  0  0
   -6.2253   -4.9817   17.8542 O   0  0  0  0  0  0  0  0  0  0  0  0
   -3.7534   -3.4057   20.7934 C   0  0  0  0  0  0  0  0  0  0  0  0
   -3.3746   -3.3756   19.4453 C   0  0  0  0  0  0  0  0  0  0  0  0
   -4.9815   -3.9774   21.1510 C   0  0  0  0  0  0  0  0  0  0  0  0
   -4.2170   -3.9097   18.4689 C   0  0  0  0  0  0  0  0  0  0  0  0
   -5.8232   -4.5122   20.1750 C   0  0  0  0  0  0  0  0  0  0  0  0
   -5.4327   -4.4726   18.8402 C   0  0  0  0  0  0  0  0  0  0  0  0
   -5.9440   -4.9453   16.9613 H   0  0  0  0  0  0  0  0  0  0  0  0
   -1.9078   -5.1313   22.3990 C   0  0  0  0  0  0  0  0  0  0  0  0
   -0.8250   -5.5558   21.4154 C   0  0  0  0  0  0  0  0  0  0  0  0
   -3.0499   -1.3359   22.0248 C   0  0  0  0  0  0  0  0  0  0  0  0
   -4.3664   -0.8142   21.4636 C   0  0  0  0  0  0  0  0  0  0  0  0
  3  9  1  0
  3 10  1  0
 11 17  1  0
 11 18  1  0
  1  2  2  0
  1 19  1  0
  1  4  1  0
  2 21  1  0
  2 12  1  0
 19 20  1  0
 21 22  1  0
  4  5  2  0
  4  6  1  0
 12 13  2  0
 12 14  1  0
  5  7  1  0
 13 15  1  0
  6  8  2  0
 14 16  2  0
  7  9  2  0
 15 17  2  0
  8  9  1  0
 16 17  1  0
M  END
> <PUBCHEM_COMPOUND_CID>
448537

> <PUBCHEM_CONFORMER_RMSD>
0.6

> <PUBCHEM_CONFORMER_DIVERSEORDER>
1
3
2

> <PUBCHEM_MMFF94_PARTIAL_CHARGES>
28
1 -0.53
11 -0.15
12 -0.15
13 -0.15
14 -0.15
15 -0.15
16 -0.15
17 -0.15
18 -0.15
19 0.08
2 -0.53
20 0.08
3 -0.17
31 0.15
32 0.15
33 0.15
34 0.15
35 0.15
36 0.15
37 0.15
38 0.15
39 0.45
4 -0.17
40 0.45
5 0.14
6 0.14
7 0.03
8 0.03

> <PUBCHEM_EFFECTIVE_ROTOR_COUNT>
4

> <PUBCHEM_PHARMACOPHORE_FEATURES>
6
1 1 donor
1 10 hydrophobe
1 2 donor
1 9 hydrophobe
6 7 11 13 15 17 19 rings
6 8 12 14 16 18 20 rings

> <PUBCHEM_HEAVY_ATOM_COUNT>
20

> <PUBCHEM_ATOM_DEF_STEREO_COUNT>
0

> <PUBCHEM_ATOM_UDEF_STEREO_COUNT>
0

> <PUBCHEM_BOND_DEF_STEREO_COUNT>
1

> <PUBCHEM_BOND_UDEF_STEREO_COUNT>
0

> <PUBCHEM_ISOTOPIC_ATOM_COUNT>
0

> <PUBCHEM_COMPONENT_COUNT>
1

> <PUBCHEM_CACTVS_TAUTO_COUNT>
3

> <PUBCHEM_CONFORMER_ID>
0006D81900000001

> <PUBCHEM_MMFF94_ENERGY>
60.231

> <PUBCHEM_FEATURE_SELFOVERLAP>
30.447

> <PUBCHEM_SHAPE_FINGERPRINT>
10366900 7 18186514428534874893
104564 63 18339924792832442081
10906281 52 18129397028286092948
11646440 116 18130798871235594657
12592029 89 16950278473467191938
12788726 201 18270697410649816016
13140716 1 18266458895859843337
13533116 47 18340201896197096762
13760787 19 16660644076447957075
14115302 16 18186806919849492430
14341114 176 15647057049052281551
15099037 51 18335139812416525942
15848700 24 18202843262111810220
15848702 151 16988848262958300981
16752209 62 18335696105492573576
16945 1 18410855473013063775
1813 80 18272378572207267076
18186145 218 18338228362096015613
187816 3 18410857663704853992
19141452 34 17131829889222033293
19784866 9 18113613452605694563
200 152 16950282905968490344
20028762 73 18055641861278493167
20600515 1 18340218469921978116
20645477 70 16009301016701038466
21285901 2 17917162606291067244
23175994 123 18333735723499757565
23402539 116 17988639696664490244
23493267 7 17313098635762053785
23557571 272 17489592229515708168
23559900 14 15554438621982335170
266924 87 18194116322357846868
347723 3 18410856551049855057
34934 24 18129105515976021729
3545911 37 15719391732852524422
4072396 5 18261662693185545291
4214541 1 15791727494979709055
465052 167 17240208741576471315
474 4 17917140731779840409
59755656 215 18270402685366324510
633830 44 18342455975941661781
69090 78 17060620005479420895
7226269 152 18410853270196137312
7495541 125 17531535390133293585
77779 3 15719110262139125926
81228 2 18128838385973970688
8272917 22 16660357039657468298
9971528 1 17775283884826915592

> <PUBCHEM_SHAPE_MULTIPOLES>
399.85
10.42
1.74
1.37
0
0
0.06
0
1.28
0
-0.74
0
0
-0.06

> <PUBCHEM_SHAPE_SELFOVERLAP>
850.96

> <PUBCHEM_SHAPE_VOLUME>
224.1

> <PUBCHEM_COORDINATE_TYPE>
2
5
10

> <Energy>
28.3223

> <minimizedAffinity>
-9.91289

> <CNNscore>
0.9808697104

> <CNNaffinity>
8.4559764862

> <CNN_VS>
8.2942113876

> <CNNaffinity_variance>
1.0472568274

$$$$
448537


 22 23  0  0  0  0  0  0  0  0999 V2000
   -2.4742   -4.0077   21.8788 C   0  0  0  0  0  0  0  0  0  0  0  0
   -2.3037   -2.7653   22.3958 C   0  0  0  0  0  0  0  0  0  0  0  0
   -6.3176   -4.9120   17.8674 O   0  0  0  0  0  0  0  0  0  0  0  0
   -3.4728   -4.2502   20.8178 C   0  0  0  0  0  0  0  0  0  0  0  0
   -3.1205   -4.1020   19.4695 C   0  0  0  0  0  0  0  0  0  0  0  0
   -4.7813   -4.6232   21.1505 C   0  0  0  0  0  0  0  0  0  0  0  0
   -4.0669   -4.3207   18.4652 C   0  0  0  0  0  0  0  0  0  0  0  0
   -5.7262   -4.8421   20.1466 C   0  0  0  0  0  0  0  0  0  0  0  0
   -5.3619   -4.6893   18.8147 C   0  0  0  0  0  0  0  0  0  0  0  0
   -6.1076   -4.8183   16.9592 H   0  0  0  0  0  0  0  0  0  0  0  0
    1.5357   -1.8652   26.4122 O   0  0  0  0  0  0  0  0  0  0  0  0
   -1.3032   -2.5215   23.4552 C   0  0  0  0  0  0  0  0  0  0  0  0
    0.0159   -2.1886   23.1222 C   0  0  0  0  0  0  0  0  0  0  0  0
   -1.6661   -2.6315   24.8040 C   0  0  0  0  0  0  0  0  0  0  0  0
    0.9588   -1.9710   24.1282 C   0  0  0  0  0  0  0  0  0  0  0  0
   -0.7238   -2.4130   25.8097 C   0  0  0  0  0  0  0  0  0  0  0  0
    0.5827   -2.0849   25.4617 C   0  0  0  0  0  0  0  0  0  0  0  0
    2.4099   -1.6452   26.1570 H   0  0  0  0  0  0  0  0  0  0  0  0
   -1.6782   -5.2422   22.2638 C   0  0  0  0  0  0  0  0  0  0  0  0
   -0.4644   -5.4724   21.3729 C   0  0  0  0  0  0  0  0  0  0  0  0
   -3.0447   -1.5156   21.9551 C   0  0  0  0  0  0  0  0  0  0  0  0
   -4.0717   -1.7855   20.8630 C   0  0  0  0  0  0  0  0  0  0  0  0
  3  9  1  0
  3 10  1  0
 11 17  1  0
 11 18  1  0
  1  2  2  0
  1 19  1  0
  1  4  1  0
  2 21  1  0
  2 12  1  0
 19 20  1  0
 21 22  1  0
  4  5  2  0
  4  6  1  0
 12 13  2  0
 12 14  1  0
  5  7  1  0
 13 15  1  0
  6  8  2  0
 14 16  2  0
  7  9  2  0
 15 17  2  0
  8  9  1  0
 16 17  1  0
M  END
> <PUBCHEM_COMPOUND_CID>
448537

> <PUBCHEM_CONFORMER_RMSD>
0.6

> <PUBCHEM_CONFORMER_DIVERSEORDER>
1
3
2

> <PUBCHEM_MMFF94_PARTIAL_CHARGES>
28
1 -0.53
11 -0.15
12 -0.15
13 -0.15
14 -0.15
15 -0.15
16 -0.15
17 -0.15
18 -0.15
19 0.08
2 -0.53
20 0.08
3 -0.17
31 0.15
32 0.15
33 0.15
34 0.15
35 0.15
36 0.15
37 0.15
38 0.15
39 0.45
4 -0.17
40 0.45
5 0.14
6 0.14
7 0.03
8 0.03

> <PUBCHEM_EFFECTIVE_ROTOR_COUNT>
4

> <PUBCHEM_PHARMACOPHORE_FEATURES>
6
1 1 donor
1 10 hydrophobe
1 2 donor
1 9 hydrophobe
6 7 11 13 15 17 19 rings
6 8 12 14 16 18 20 rings

> <PUBCHEM_HEAVY_ATOM_COUNT>
20

> <PUBCHEM_ATOM_DEF_STEREO_COUNT>
0

> <PUBCHEM_ATOM_UDEF_STEREO_COUNT>
0

> <PUBCHEM_BOND_DEF_STEREO_COUNT>
1

> <PUBCHEM_BOND_UDEF_STEREO_COUNT>
0

> <PUBCHEM_ISOTOPIC_ATOM_COUNT>
0

> <PUBCHEM_COMPONENT_COUNT>
1

> <PUBCHEM_CACTVS_TAUTO_COUNT>
3

> <PUBCHEM_CONFORMER_ID>
0006D81900000001

> <PUBCHEM_MMFF94_ENERGY>
60.231

> <PUBCHEM_FEATURE_SELFOVERLAP>
30.447

> <PUBCHEM_SHAPE_FINGERPRINT>
10366900 7 18186514428534874893
104564 63 18339924792832442081
10906281 52 18129397028286092948
11646440 116 18130798871235594657
12592029 89 16950278473467191938
12788726 201 18270697410649816016
13140716 1 18266458895859843337
13533116 47 18340201896197096762
13760787 19 16660644076447957075
14115302 16 18186806919849492430
14341114 176 15647057049052281551
15099037 51 18335139812416525942
15848700 24 18202843262111810220
15848702 151 16988848262958300981
16752209 62 18335696105492573576
16945 1 18410855473013063775
1813 80 18272378572207267076
18186145 218 18338228362096015613
187816 3 18410857663704853992
19141452 34 17131829889222033293
19784866 9 18113613452605694563
200 152 16950282905968490344
20028762 73 18055641861278493167
20600515 1 18340218469921978116
20645477 70 16009301016701038466
21285901 2 17917162606291067244
23175994 123 18333735723499757565
23402539 116 17988639696664490244
23493267 7 17313098635762053785
23557571 272 17489592229515708168
23559900 14 15554438621982335170
266924 87 18194116322357846868
347723 3 18410856551049855057
34934 24 18129105515976021729
3545911 37 15719391732852524422
4072396 5 18261662693185545291
4214541 1 15791727494979709055
465052 167 17240208741576471315
474 4 17917140731779840409
59755656 215 18270402685366324510
633830 44 18342455975941661781
69090 78 17060620005479420895
7226269 152 18410853270196137312
7495541 125 17531535390133293585
77779 3 15719110262139125926
81228 2 18128838385973970688
8272917 22 16660357039657468298
9971528 1 17775283884826915592

> <PUBCHEM_SHAPE_MULTIPOLES>
399.85
10.42
1.74
1.37
0
0
0.06
0
1.28
0
-0.74
0
0
-0.06

> <PUBCHEM_SHAPE_SELFOVERLAP>
850.96

> <PUBCHEM_SHAPE_VOLUME>
224.1

> <PUBCHEM_COORDINATE_TYPE>
2
5
10

> <Energy>
28.3223

> <minimizedAffinity>
-9.48490

> <CNNscore>
0.9737475514

> <CNNaffinity>
8.3165950775

> <CNN_VS>
8.0982637405

> <CNNaffinity_variance>
1.0228520632

$$$$
448537


 22 23  0  0  0  0  0  0  0  0999 V2000
   -2.5966   -4.0017   21.8067 C   0  0  0  0  0  0  0  0  0  0  0  0
   -2.5221   -2.8019   22.4350 C   0  0  0  0  0  0  0  0  0  0  0  0
   -6.3322   -4.8211   17.6770 O   0  0  0  0  0  0  0  0  0  0  0  0
   -3.5664   -4.2195   20.7141 C   0  0  0  0  0  0  0  0  0  0  0  0
   -3.2451   -3.8505   19.4009 C   0  0  0  0  0  0  0  0  0  0  0  0
   -4.8173   -4.7899   20.9824 C   0  0  0  0  0  0  0  0  0  0  0  0
   -4.1656   -4.0462   18.3682 C   0  0  0  0  0  0  0  0  0  0  0  0
   -5.7363   -4.9856   19.9501 C   0  0  0  0  0  0  0  0  0  0  0  0
   -5.4034   -4.6128   18.6539 C   0  0  0  0  0  0  0  0  0  0  0  0
   -6.1422   -4.5819   16.7913 H   0  0  0  0  0  0  0  0  0  0  0  0
    1.1487   -1.9427   26.6146 O   0  0  0  0  0  0  0  0  0  0  0  0
   -1.5505   -2.5826   23.5262 C   0  0  0  0  0  0  0  0  0  0  0  0
   -1.8986   -2.8644   24.8533 C   0  0  0  0  0  0  0  0  0  0  0  0
   -0.2740   -2.0806   23.2409 C   0  0  0  0  0  0  0  0  0  0  0  0
   -0.9797   -2.6438   25.8806 C   0  0  0  0  0  0  0  0  0  0  0  0
    0.6450   -1.8610   24.2678 C   0  0  0  0  0  0  0  0  0  0  0  0
    0.2826   -2.1444   25.5808 C   0  0  0  0  0  0  0  0  0  0  0  0
    0.8853   -2.1401   27.4918 H   0  0  0  0  0  0  0  0  0  0  0  0
   -1.7148   -5.2047   22.0912 C   0  0  0  0  0  0  0  0  0  0  0  0
   -0.3078   -5.0614   21.5256 C   0  0  0  0  0  0  0  0  0  0  0  0
   -3.3499   -1.5748   22.0973 C   0  0  0  0  0  0  0  0  0  0  0  0
   -4.8307   -1.7508   22.4075 C   0  0  0  0  0  0  0  0  0  0  0  0
  3  9  1  0
  3 10  1  0
 11 17  1  0
 11 18  1  0
  1  2  2  0
  1 19  1  0
  1  4  1  0
  2 21  1  0
  2 12  1  0
 19 20  1  0
 21 22  1  0
  4  5  2  0
  4  6  1  0
 12 13  2  0
 12 14  1  0
  5  7  1  0
 13 15  1  0
  6  8  2  0
 14 16  2  0
  7  9  2  0
 15 17  2  0
  8  9  1  0
 16 17  1  0
M  END
> <PUBCHEM_COMPOUND_CID>
448537

> <PUBCHEM_CONFORMER_RMSD>
0.6

> <PUBCHEM_CONFORMER_DIVERSEORDER>
1
3
2

> <PUBCHEM_MMFF94_PARTIAL_CHARGES>
28
1 -0.53
11 -0.15
12 -0.15
13 -0.15
14 -0.15
15 -0.15
16 -0.15
17 -0.15
18 -0.15
19 0.08
2 -0.53
20 0.08
3 -0.17
31 0.15
32 0.15
33 0.15
34 0.15
35 0.15
36 0.15
37 0.15
38 0.15
39 0.45
4 -0.17
40 0.45
5 0.14
6 0.14
7 0.03
8 0.03

> <PUBCHEM_EFFECTIVE_ROTOR_COUNT>
4

> <PUBCHEM_PHARMACOPHORE_FEATURES>
6
1 1 donor
1 10 hydrophobe
1 2 donor
1 9 hydrophobe
6 7 11 13 15 17 19 rings
6 8 12 14 16 18 20 rings

> <PUBCHEM_HEAVY_ATOM_COUNT>
20

> <PUBCHEM_ATOM_DEF_STEREO_COUNT>
0

> <PUBCHEM_ATOM_UDEF_STEREO_COUNT>
0

> <PUBCHEM_BOND_DEF_STEREO_COUNT>
1

> <PUBCHEM_BOND_UDEF_STEREO_COUNT>
0

> <PUBCHEM_ISOTOPIC_ATOM_COUNT>
0

> <PUBCHEM_COMPONENT_COUNT>
1

> <PUBCHEM_CACTVS_TAUTO_COUNT>
3

> <PUBCHEM_CONFORMER_ID>
0006D81900000001

> <PUBCHEM_MMFF94_ENERGY>
60.231

> <PUBCHEM_FEATURE_SELFOVERLAP>
30.447

> <PUBCHEM_SHAPE_FINGERPRINT>
10366900 7 18186514428534874893
104564 63 18339924792832442081
10906281 52 18129397028286092948
11646440 116 18130798871235594657
12592029 89 16950278473467191938
12788726 201 18270697410649816016
13140716 1 18266458895859843337
13533116 47 18340201896197096762
13760787 19 16660644076447957075
14115302 16 18186806919849492430
14341114 176 15647057049052281551
15099037 51 18335139812416525942
15848700 24 18202843262111810220
15848702 151 16988848262958300981
16752209 62 18335696105492573576
16945 1 18410855473013063775
1813 80 18272378572207267076
18186145 218 18338228362096015613
187816 3 18410857663704853992
19141452 34 17131829889222033293
19784866 9 18113613452605694563
200 152 16950282905968490344
20028762 73 18055641861278493167
20600515 1 18340218469921978116
20645477 70 16009301016701038466
21285901 2 17917162606291067244
23175994 123 18333735723499757565
23402539 116 17988639696664490244
23493267 7 17313098635762053785
23557571 272 17489592229515708168
23559900 14 15554438621982335170
266924 87 18194116322357846868
347723 3 18410856551049855057
34934 24 18129105515976021729
3545911 37 15719391732852524422
4072396 5 18261662693185545291
4214541 1 15791727494979709055
465052 167 17240208741576471315
474 4 17917140731779840409
59755656 215 18270402685366324510
633830 44 18342455975941661781
69090 78 17060620005479420895
7226269 152 18410853270196137312
7495541 125 17531535390133293585
77779 3 15719110262139125926
81228 2 18128838385973970688
8272917 22 16660357039657468298
9971528 1 17775283884826915592

> <PUBCHEM_SHAPE_MULTIPOLES>
399.85
10.42
1.74
1.37
0
0
0.06
0
1.28
0
-0.74
0
0
-0.06

> <PUBCHEM_SHAPE_SELFOVERLAP>
850.96

> <PUBCHEM_SHAPE_VOLUME>
224.1

> <PUBCHEM_COORDINATE_TYPE>
2
5
10

> <Energy>
28.3223

> <minimizedAffinity>
-9.22823

> <CNNscore>
0.9720657468

> <CNNaffinity>
8.3299789429

> <CNN_VS>
8.0972871780

> <CNNaffinity_variance>
0.9883308411

$$$$
448537


 22 23  0  0  0  0  0  0  0  0999 V2000
   -2.3572   -2.7710   22.3214 C   0  0  0  0  0  0  0  0  0  0  0  0
   -2.5401   -4.0122   21.8059 C   0  0  0  0  0  0  0  0  0  0  0  0
    1.5045   -1.8329   26.3074 O   0  0  0  0  0  0  0  0  0  0  0  0
   -1.3491   -2.5353   23.3749 C   0  0  0  0  0  0  0  0  0  0  0  0
   -1.6786   -2.7289   24.7232 C   0  0  0  0  0  0  0  0  0  0  0  0
   -0.0583   -2.1100   23.0359 C   0  0  0  0  0  0  0  0  0  0  0  0
   -0.7292   -2.4961   25.7216 C   0  0  0  0  0  0  0  0  0  0  0  0
    0.8899   -1.8781   24.0338 C   0  0  0  0  0  0  0  0  0  0  0  0
    0.5472   -2.0727   25.3660 C   0  0  0  0  0  0  0  0  0  0  0  0
    1.3089   -1.9537   27.2157 H   0  0  0  0  0  0  0  0  0  0  0  0
   -6.3770   -4.9539   17.7967 O   0  0  0  0  0  0  0  0  0  0  0  0
   -3.5465   -4.2482   20.7503 C   0  0  0  0  0  0  0  0  0  0  0  0
   -4.7669   -4.8625   21.0582 C   0  0  0  0  0  0  0  0  0  0  0  0
   -3.2818   -3.8666   19.4284 C   0  0  0  0  0  0  0  0  0  0  0  0
   -5.7084   -5.0929   20.0537 C   0  0  0  0  0  0  0  0  0  0  0  0
   -4.2234   -4.0960   18.4244 C   0  0  0  0  0  0  0  0  0  0  0  0
   -5.4300   -4.7090   18.7469 C   0  0  0  0  0  0  0  0  0  0  0  0
   -7.1832   -5.3678   18.0345 H   0  0  0  0  0  0  0  0  0  0  0  0
   -3.0886   -1.5149   21.8822 C   0  0  0  0  0  0  0  0  0  0  0  0
   -4.5787   -1.5505   22.1959 C   0  0  0  0  0  0  0  0  0  0  0  0
   -1.7538   -5.2530   22.1896 C   0  0  0  0  0  0  0  0  0  0  0  0
   -0.3391   -5.2605   21.6250 C   0  0  0  0  0  0  0  0  0  0  0  0
  3  9  1  0
  3 10  1  0
 11 17  1  0
 11 18  1  0
  1  2  2  0
  1 19  1  0
  1  4  1  0
  2 21  1  0
  2 12  1  0
 19 20  1  0
 21 22  1  0
  4  5  2  0
  4  6  1  0
 12 13  2  0
 12 14  1  0
  5  7  1  0
 13 15  1  0
  6  8  2  0
 14 16  2  0
  7  9  2  0
 15 17  2  0
  8  9  1  0
 16 17  1  0
M  END
> <PUBCHEM_COMPOUND_CID>
448537

> <PUBCHEM_CONFORMER_RMSD>
0.6

> <PUBCHEM_CONFORMER_DIVERSEORDER>
1
3
2

> <PUBCHEM_MMFF94_PARTIAL_CHARGES>
28
1 -0.53
11 -0.15
12 -0.15
13 -0.15
14 -0.15
15 -0.15
16 -0.15
17 -0.15
18 -0.15
19 0.08
2 -0.53
20 0.08
3 -0.17
31 0.15
32 0.15
33 0.15
34 0.15
35 0.15
36 0.15
37 0.15
38 0.15
39 0.45
4 -0.17
40 0.45
5 0.14
6 0.14
7 0.03
8 0.03

> <PUBCHEM_EFFECTIVE_ROTOR_COUNT>
4

> <PUBCHEM_PHARMACOPHORE_FEATURES>
6
1 1 donor
1 10 hydrophobe
1 2 donor
1 9 hydrophobe
6 7 11 13 15 17 19 rings
6 8 12 14 16 18 20 rings

> <PUBCHEM_HEAVY_ATOM_COUNT>
20

> <PUBCHEM_ATOM_DEF_STEREO_COUNT>
0

> <PUBCHEM_ATOM_UDEF_STEREO_COUNT>
0

> <PUBCHEM_BOND_DEF_STEREO_COUNT>
1

> <PUBCHEM_BOND_UDEF_STEREO_COUNT>
0

> <PUBCHEM_ISOTOPIC_ATOM_COUNT>
0

> <PUBCHEM_COMPONENT_COUNT>
1

> <PUBCHEM_CACTVS_TAUTO_COUNT>
3

> <PUBCHEM_CONFORMER_ID>
0006D81900000001

> <PUBCHEM_MMFF94_ENERGY>
60.231

> <PUBCHEM_FEATURE_SELFOVERLAP>
30.447

> <PUBCHEM_SHAPE_FINGERPRINT>
10366900 7 18186514428534874893
104564 63 18339924792832442081
10906281 52 18129397028286092948
11646440 116 18130798871235594657
12592029 89 16950278473467191938
12788726 201 18270697410649816016
13140716 1 18266458895859843337
13533116 47 18340201896197096762
13760787 19 16660644076447957075
14115302 16 18186806919849492430
14341114 176 15647057049052281551
15099037 51 18335139812416525942
15848700 24 18202843262111810220
15848702 151 16988848262958300981
16752209 62 18335696105492573576
16945 1 18410855473013063775
1813 80 18272378572207267076
18186145 218 18338228362096015613
187816 3 18410857663704853992
19141452 34 17131829889222033293
19784866 9 18113613452605694563
200 152 16950282905968490344
20028762 73 18055641861278493167
20600515 1 18340218469921978116
20645477 70 16009301016701038466
21285901 2 17917162606291067244
23175994 123 18333735723499757565
23402539 116 17988639696664490244
23493267 7 17313098635762053785
23557571 272 17489592229515708168
23559900 14 15554438621982335170
266924 87 18194116322357846868
347723 3 18410856551049855057
34934 24 18129105515976021729
3545911 37 15719391732852524422
4072396 5 18261662693185545291
4214541 1 15791727494979709055
465052 167 17240208741576471315
474 4 17917140731779840409
59755656 215 18270402685366324510
633830 44 18342455975941661781
69090 78 17060620005479420895
7226269 152 18410853270196137312
7495541 125 17531535390133293585
77779 3 15719110262139125926
81228 2 18128838385973970688
8272917 22 16660357039657468298
9971528 1 17775283884826915592

> <PUBCHEM_SHAPE_MULTIPOLES>
399.85
10.42
1.74
1.37
0
0
0.06
0
1.28
0
-0.74
0
0
-0.06

> <PUBCHEM_SHAPE_SELFOVERLAP>
850.96

> <PUBCHEM_SHAPE_VOLUME>
224.1

> <PUBCHEM_COORDINATE_TYPE>
2
5
10

> <Energy>
28.3223

> <minimizedAffinity>
-9.30752

> <CNNscore>
0.9696806073

> <CNNaffinity>
8.2947559357

> <CNN_VS>
8.0432643890

> <CNNaffinity_variance>
0.9496672153

$$$$
448537


 22 23  0  0  0  0  0  0  0  0999 V2000
   -2.8716   -2.7664   21.6775 C   0  0  0  0  0  0  0  0  0  0  0  0
   -2.0757   -3.5692   22.4271 C   0  0  0  0  0  0  0  0  0  0  0  0
   -6.3738   -4.9398   17.8445 O   0  0  0  0  0  0  0  0  0  0  0  0
   -3.7797   -3.3418   20.6646 C   0  0  0  0  0  0  0  0  0  0  0  0
   -3.3935   -3.3940   19.3185 C   0  0  0  0  0  0  0  0  0  0  0  0
   -5.0365   -3.8336   21.0398 C   0  0  0  0  0  0  0  0  0  0  0  0
   -4.2557   -3.9284   18.3577 C   0  0  0  0  0  0  0  0  0  0  0  0
   -5.8972   -4.3678   20.0794 C   0  0  0  0  0  0  0  0  0  0  0  0
   -5.5005   -4.4107   18.7487 C   0  0  0  0  0  0  0  0  0  0  0  0
   -6.1398   -4.9849   16.9384 H   0  0  0  0  0  0  0  0  0  0  0  0
    1.4099   -1.4091   26.2828 O   0  0  0  0  0  0  0  0  0  0  0  0
   -1.1690   -2.9945   23.4422 C   0  0  0  0  0  0  0  0  0  0  0  0
    0.1330   -2.6121   23.0953 C   0  0  0  0  0  0  0  0  0  0  0  0
   -1.6038   -2.8366   24.7647 C   0  0  0  0  0  0  0  0  0  0  0  0
    0.9881   -2.0806   24.0621 C   0  0  0  0  0  0  0  0  0  0  0  0
   -0.7493   -2.3044   25.7310 C   0  0  0  0  0  0  0  0  0  0  0  0
    0.5416   -1.9313   25.3701 C   0  0  0  0  0  0  0  0  0  0  0  0
    2.2751   -1.1640   26.0195 H   0  0  0  0  0  0  0  0  0  0  0  0
   -2.9680   -1.2558   21.7982 C   0  0  0  0  0  0  0  0  0  0  0  0
   -4.2476   -0.7915   22.4818 C   0  0  0  0  0  0  0  0  0  0  0  0
   -2.0370   -5.0855   22.3609 C   0  0  0  0  0  0  0  0  0  0  0  0
   -0.8843   -5.6162   21.5184 C   0  0  0  0  0  0  0  0  0  0  0  0
  3  9  1  0
  3 10  1  0
 11 17  1  0
 11 18  1  0
  1  2  2  0
  1 19  1  0
  1  4  1  0
  2 21  1  0
  2 12  1  0
 19 20  1  0
 21 22  1  0
  4  5  2  0
  4  6  1  0
 12 13  2  0
 12 14  1  0
  5  7  1  0
 13 15  1  0
  6  8  2  0
 14 16  2  0
  7  9  2  0
 15 17  2  0
  8  9  1  0
 16 17  1  0
M  END
> <PUBCHEM_COMPOUND_CID>
448537

> <PUBCHEM_CONFORMER_RMSD>
0.6

> <PUBCHEM_CONFORMER_DIVERSEORDER>
1
3
2

> <PUBCHEM_MMFF94_PARTIAL_CHARGES>
28
1 -0.53
11 -0.15
12 -0.15
13 -0.15
14 -0.15
15 -0.15
16 -0.15
17 -0.15
18 -0.15
19 0.08
2 -0.53
20 0.08
3 -0.17
31 0.15
32 0.15
33 0.15
34 0.15
35 0.15
36 0.15
37 0.15
38 0.15
39 0.45
4 -0.17
40 0.45
5 0.14
6 0.14
7 0.03
8 0.03

> <PUBCHEM_EFFECTIVE_ROTOR_COUNT>
4

> <PUBCHEM_PHARMACOPHORE_FEATURES>
6
1 1 donor
1 10 hydrophobe
1 2 donor
1 9 hydrophobe
6 7 11 13 15 17 19 rings
6 8 12 14 16 18 20 rings

> <PUBCHEM_HEAVY_ATOM_COUNT>
20

> <PUBCHEM_ATOM_DEF_STEREO_COUNT>
0

> <PUBCHEM_ATOM_UDEF_STEREO_COUNT>
0

> <PUBCHEM_BOND_DEF_STEREO_COUNT>
1

> <PUBCHEM_BOND_UDEF_STEREO_COUNT>
0

> <PUBCHEM_ISOTOPIC_ATOM_COUNT>
0

> <PUBCHEM_COMPONENT_COUNT>
1

> <PUBCHEM_CACTVS_TAUTO_COUNT>
3

> <PUBCHEM_CONFORMER_ID>
0006D81900000001

> <PUBCHEM_MMFF94_ENERGY>
60.231

> <PUBCHEM_FEATURE_SELFOVERLAP>
30.447

> <PUBCHEM_SHAPE_FINGERPRINT>
10366900 7 18186514428534874893
104564 63 18339924792832442081
10906281 52 18129397028286092948
11646440 116 18130798871235594657
12592029 89 16950278473467191938
12788726 201 18270697410649816016
13140716 1 18266458895859843337
13533116 47 18340201896197096762
13760787 19 16660644076447957075
14115302 16 18186806919849492430
14341114 176 15647057049052281551
15099037 51 18335139812416525942
15848700 24 18202843262111810220
15848702 151 16988848262958300981
16752209 62 18335696105492573576
16945 1 18410855473013063775
1813 80 18272378572207267076
18186145 218 18338228362096015613
187816 3 18410857663704853992
19141452 34 17131829889222033293
19784866 9 18113613452605694563
200 152 16950282905968490344
20028762 73 18055641861278493167
20600515 1 18340218469921978116
20645477 70 16009301016701038466
21285901 2 17917162606291067244
23175994 123 18333735723499757565
23402539 116 17988639696664490244
23493267 7 17313098635762053785
23557571 272 17489592229515708168
23559900 14 15554438621982335170
266924 87 18194116322357846868
347723 3 18410856551049855057
34934 24 18129105515976021729
3545911 37 15719391732852524422
4072396 5 18261662693185545291
4214541 1 15791727494979709055
465052 167 17240208741576471315
474 4 17917140731779840409
59755656 215 18270402685366324510
633830 44 18342455975941661781
69090 78 17060620005479420895
7226269 152 18410853270196137312
7495541 125 17531535390133293585
77779 3 15719110262139125926
81228 2 18128838385973970688
8272917 22 16660357039657468298
9971528 1 17775283884826915592

> <PUBCHEM_SHAPE_MULTIPOLES>
399.85
10.42
1.74
1.37
0
0
0.06
0
1.28
0
-0.74
0
0
-0.06

> <PUBCHEM_SHAPE_SELFOVERLAP>
850.96

> <PUBCHEM_SHAPE_VOLUME>
224.1

> <PUBCHEM_COORDINATE_TYPE>
2
5
10

> <Energy>
28.3223

> <minimizedAffinity>
-9.12296

> <CNNscore>
0.9545716047

> <CNNaffinity>
8.2303590775

> <CNN_VS>
7.8564672470

> <CNNaffinity_variance>
0.9110655785

$$$$
448537


 22 23  0  0  0  0  0  0  0  0999 V2000
   -2.3677   -2.7236   22.3820 C   0  0  0  0  0  0  0  0  0  0  0  0
   -2.5590   -3.9760   21.8974 C   0  0  0  0  0  0  0  0  0  0  0  0
    1.4855   -1.7896   26.3771 O   0  0  0  0  0  0  0  0  0  0  0  0
   -1.3521   -2.4673   23.4233 C   0  0  0  0  0  0  0  0  0  0  0  0
   -0.1012   -1.9400   23.0750 C   0  0  0  0  0  0  0  0  0  0  0  0
   -1.6280   -2.7554   24.7661 C   0  0  0  0  0  0  0  0  0  0  0  0
    0.8643   -1.7069   24.0577 C   0  0  0  0  0  0  0  0  0  0  0  0
   -0.6631   -2.5218   25.7474 C   0  0  0  0  0  0  0  0  0  0  0  0
    0.5728   -2.0005   25.3858 C   0  0  0  0  0  0  0  0  0  0  0  0
    2.3294   -1.4391   26.1701 H   0  0  0  0  0  0  0  0  0  0  0  0
   -6.4351   -4.9905   17.9441 O   0  0  0  0  0  0  0  0  0  0  0  0
   -3.5729   -4.2327   20.8539 C   0  0  0  0  0  0  0  0  0  0  0  0
   -4.9101   -4.4583   21.2043 C   0  0  0  0  0  0  0  0  0  0  0  0
   -3.2006   -4.2619   19.5036 C   0  0  0  0  0  0  0  0  0  0  0  0
   -5.8607   -4.7117   20.2141 C   0  0  0  0  0  0  0  0  0  0  0  0
   -4.1511   -4.5144   18.5135 C   0  0  0  0  0  0  0  0  0  0  0  0
   -5.4747   -4.7381   18.8788 C   0  0  0  0  0  0  0  0  0  0  0  0
   -7.3210   -5.1385   18.2108 H   0  0  0  0  0  0  0  0  0  0  0  0
   -3.0967   -1.4752   21.9175 C   0  0  0  0  0  0  0  0  0  0  0  0
   -3.2048   -1.3757   20.4014 C   0  0  0  0  0  0  0  0  0  0  0  0
   -1.7754   -5.2107   22.3057 C   0  0  0  0  0  0  0  0  0  0  0  0
   -0.3706   -5.2464   21.7179 C   0  0  0  0  0  0  0  0  0  0  0  0
  3  9  1  0
  3 10  1  0
 11 17  1  0
 11 18  1  0
  1  2  2  0
  1 19  1  0
  1  4  1  0
  2 21  1  0
  2 12  1  0
 19 20  1  0
 21 22  1  0
  4  5  2  0
  4  6  1  0
 12 13  2  0
 12 14  1  0
  5  7  1  0
 13 15  1  0
  6  8  2  0
 14 16  2  0
  7  9  2  0
 15 17  2  0
  8  9  1  0
 16 17  1  0
M  END
> <PUBCHEM_COMPOUND_CID>
448537

> <PUBCHEM_CONFORMER_RMSD>
0.6

> <PUBCHEM_CONFORMER_DIVERSEORDER>
1
3
2

> <PUBCHEM_MMFF94_PARTIAL_CHARGES>
28
1 -0.53
11 -0.15
12 -0.15
13 -0.15
14 -0.15
15 -0.15
16 -0.15
17 -0.15
18 -0.15
19 0.08
2 -0.53
20 0.08
3 -0.17
31 0.15
32 0.15
33 0.15
34 0.15
35 0.15
36 0.15
37 0.15
38 0.15
39 0.45
4 -0.17
40 0.45
5 0.14
6 0.14
7 0.03
8 0.03

> <PUBCHEM_EFFECTIVE_ROTOR_COUNT>
4

> <PUBCHEM_PHARMACOPHORE_FEATURES>
6
1 1 donor
1 10 hydrophobe
1 2 donor
1 9 hydrophobe
6 7 11 13 15 17 19 rings
6 8 12 14 16 18 20 rings

> <PUBCHEM_HEAVY_ATOM_COUNT>
20

> <PUBCHEM_ATOM_DEF_STEREO_COUNT>
0

> <PUBCHEM_ATOM_UDEF_STEREO_COUNT>
0

> <PUBCHEM_BOND_DEF_STEREO_COUNT>
1

> <PUBCHEM_BOND_UDEF_STEREO_COUNT>
0

> <PUBCHEM_ISOTOPIC_ATOM_COUNT>
0

> <PUBCHEM_COMPONENT_COUNT>
1

> <PUBCHEM_CACTVS_TAUTO_COUNT>
3

> <PUBCHEM_CONFORMER_ID>
0006D81900000001

> <PUBCHEM_MMFF94_ENERGY>
60.231

> <PUBCHEM_FEATURE_SELFOVERLAP>
30.447

> <PUBCHEM_SHAPE_FINGERPRINT>
10366900 7 18186514428534874893
104564 63 18339924792832442081
10906281 52 18129397028286092948
11646440 116 18130798871235594657
12592029 89 16950278473467191938
12788726 201 18270697410649816016
13140716 1 18266458895859843337
13533116 47 18340201896197096762
13760787 19 16660644076447957075
14115302 16 18186806919849492430
14341114 176 15647057049052281551
15099037 51 18335139812416525942
15848700 24 18202843262111810220
15848702 151 16988848262958300981
16752209 62 18335696105492573576
16945 1 18410855473013063775
1813 80 18272378572207267076
18186145 218 18338228362096015613
187816 3 18410857663704853992
19141452 34 17131829889222033293
19784866 9 18113613452605694563
200 152 16950282905968490344
20028762 73 18055641861278493167
20600515 1 18340218469921978116
20645477 70 16009301016701038466
21285901 2 17917162606291067244
23175994 123 18333735723499757565
23402539 116 17988639696664490244
23493267 7 17313098635762053785
23557571 272 17489592229515708168
23559900 14 15554438621982335170
266924 87 18194116322357846868
347723 3 18410856551049855057
34934 24 18129105515976021729
3545911 37 15719391732852524422
4072396 5 18261662693185545291
4214541 1 15791727494979709055
465052 167 17240208741576471315
474 4 17917140731779840409
59755656 215 18270402685366324510
633830 44 18342455975941661781
69090 78 17060620005479420895
7226269 152 18410853270196137312
7495541 125 17531535390133293585
77779 3 15719110262139125926
81228 2 18128838385973970688
8272917 22 16660357039657468298
9971528 1 17775283884826915592

> <PUBCHEM_SHAPE_MULTIPOLES>
399.85
10.42
1.74
1.37
0
0
0.06
0
1.28
0
-0.74
0
0
-0.06

> <PUBCHEM_SHAPE_SELFOVERLAP>
850.96

> <PUBCHEM_SHAPE_VOLUME>
224.1

> <PUBCHEM_COORDINATE_TYPE>
2
5
10

> <Energy>
28.3223

> <minimizedAffinity>
-9.10830

> <CNNscore>
0.9490826726

> <CNNaffinity>
8.3316907883

> <CNN_VS>
7.9074635506

> <CNNaffinity_variance>
1.1688503027

$$$$
