5991


 24 27  0  0  0  0  0  0  0  0999 V2000
   -9.0822   -4.8805   23.1698 O   0  0  0  0  0  0  0  0  0  0  0  0
    1.2657   -2.2673   20.5941 O   0  0  0  0  0  0  0  0  0  0  0  0
   -6.8229   -3.9447   22.8037 C   0  0  0  0  0  0  0  0  0  0  0  0
   -6.0440   -2.8809   23.6113 C   0  0  0  0  0  0  0  0  0  0  0  0
   -4.5389   -2.9178   23.3356 C   0  0  0  0  0  0  0  0  0  0  0  0
   -8.2591   -3.7395   23.3791 C   0  0  0  0  0  0  0  0  0  0  0  0
   -4.2959   -2.6284   21.8238 C   0  0  0  0  0  0  0  0  0  0  0  0
   -6.6118   -3.6539   21.3058 C   0  0  0  0  0  0  0  0  0  0  0  0
   -6.5324   -3.0912   25.0422 C   0  0  0  0  0  0  0  0  0  0  0  0
   -5.1182   -3.5919   20.9289 C   0  0  0  0  0  0  0  0  0  0  0  0
   -7.9987   -3.5420   24.8962 C   0  0  0  0  0  0  0  0  0  0  0  0
   -3.7662   -1.8922   24.1687 C   0  0  0  0  0  0  0  0  0  0  0  0
   -6.3584   -5.4047   23.0835 C   0  0  0  0  0  0  0  0  0  0  0  0
   -2.8025   -2.5675   21.5049 C   0  0  0  0  0  0  0  0  0  0  0  0
   -2.2669   -2.0808   23.9608 C   0  0  0  0  0  0  0  0  0  0  0  0
   -1.8662   -2.2653   22.5183 C   0  0  0  0  0  0  0  0  0  0  0  0
   -2.3326   -2.7169   20.1888 C   0  0  0  0  0  0  0  0  0  0  0  0
   -0.4959   -2.1796   22.2058 C   0  0  0  0  0  0  0  0  0  0  0  0
   -0.9671   -2.6188   19.8891 C   0  0  0  0  0  0  0  0  0  0  0  0
   -0.0592   -2.3554   20.9029 C   0  0  0  0  0  0  0  0  0  0  0  0
   -8.6409   -5.6673   23.5263 H   0  0  0  0  0  0  0  0  0  0  0  0
    1.8929   -2.0899   21.2673 H   0  0  0  0  0  0  0  0  0  0  0  0
   -8.9588   -2.5642   22.8265 C   0  0  0  0  0  0  0  0  0  0  0  0
   -9.5221   -1.5966   22.3857 C   0  0  0  0  0  0  0  0  0  0  0  0
  1  6  1  0
  1 21  1  0
  2 20  1  0
  2 22  1  0
  3  4  1  0
  3  6  1  0
  3  8  1  0
  3 13  1  0
  4  5  1  0
  4  9  1  0
  5  7  1  0
  5 12  1  0
  6 11  1  0
  6 23  1  0
  7 10  1  0
  7 14  1  0
  8 10  1  0
  9 11  1  0
 12 15  1  0
 14 16  2  0
 14 17  1  0
 15 16  1  0
 16 18  1  0
 23 24  3  0
 17 19  2  0
 18 20  2  0
 19 20  1  0
M  END
> <PUBCHEM_COMPOUND_CID>
5991

> <PUBCHEM_CONFORMER_RMSD>
0.6

> <PUBCHEM_CONFORMER_DIVERSEORDER>
1

> <PUBCHEM_MMFF94_PARTIAL_CHARGES>
19
1 -0.68
14 -0.14
15 0.14
16 -0.14
17 -0.2
18 -0.15
19 -0.15
2 -0.53
20 -0.15
21 0.08
22 -0.18
41 0.4
42 0.15
43 0.15
44 0.15
45 0.18
46 0.45
6 0.48
7 0.14

> <PUBCHEM_EFFECTIVE_ROTOR_COUNT>
1.4

> <PUBCHEM_PHARMACOPHORE_FEATURES>
8
1 1 acceptor
1 1 donor
1 2 donor
1 22 hydrophobe
5 3 4 6 9 11 rings
6 14 16 18 19 20 21 rings
6 3 4 5 7 8 10 rings
6 5 7 12 14 15 16 rings

> <PUBCHEM_HEAVY_ATOM_COUNT>
22

> <PUBCHEM_ATOM_DEF_STEREO_COUNT>
5

> <PUBCHEM_ATOM_UDEF_STEREO_COUNT>
0

> <PUBCHEM_BOND_DEF_STEREO_COUNT>
0

> <PUBCHEM_BOND_UDEF_STEREO_COUNT>
0

> <PUBCHEM_ISOTOPIC_ATOM_COUNT>
0

> <PUBCHEM_COMPONENT_COUNT>
1

> <PUBCHEM_CACTVS_TAUTO_COUNT>
9

> <PUBCHEM_CONFORMER_ID>
0000176700000001

> <PUBCHEM_MMFF94_ENERGY>
75.3654

> <PUBCHEM_FEATURE_SELFOVERLAP>
40.689

> <PUBCHEM_SHAPE_FINGERPRINT>
10498660 4 18334565854482978588
10616163 171 18412261769892000550
10906281 52 18268729332496851400
10967382 1 18409163299196382730
11132069 177 18260823830106114581
11315181 36 17846777438100329984
11552529 35 18058445585631877095
11578080 2 16952518088400902894
11796584 16 15123796154675551020
12107183 9 17697047933183828707
12236239 1 17917992754997443209
12403259 415 18260540148118003532
12403814 3 17531241756051219503
12633257 1 18411416168188185458
12644460 14 18260827060354363322
12788726 201 17059505002047033793
128620 24 17385724690407290772
13140716 1 18264499557760559337
13224815 77 18408318891198213202
13675066 3 17749393654488776519
14790565 3 18338806709892665688
15163728 17 15481289097577292713
15183329 4 18408605830407435614
15196674 1 18337388339818468438
15209289 33 18341332270467662817
15209294 21 18059584555192331817
15309172 13 18409451371427638915
15536298 74 18341610425830279326
15788980 27 17749105603943632888
16945 1 18265320738190372627
17349148 13 18114176445825312880
1813 80 17530976782159466655
18186145 218 18409161126111612646
19489759 90 15410896249631894657
19591789 44 18193273216009210722
200 152 17918273168974754922
21033648 29 17968079933063946356
21267235 1 18338240469814837151
21623110 236 18263368155990106261
23402539 116 18410566319162361766
23402655 69 18201721773563375622
23559900 14 18341325700027887232
335352 9 18410007719541319564
34934 24 18335695014618288215
350125 39 18408603674022772468
3545911 37 18408602569419241710
3680242 22 18335416829913620042
4214541 1 18412824715549947695
474 4 18408605889666299408
5104073 3 18339077194179428906
542803 24 17561084709247609168
59755656 215 18335983078396721054
633830 44 18202282537272954908
9709674 26 18410014338397756278

> <PUBCHEM_SHAPE_MULTIPOLES>
441.01
10.64
2.03
1.22
7.18
0.55
-0.05
-1.94
-1.01
0.21
-0.15
-1.94
-0.33
-0.49

> <PUBCHEM_SHAPE_SELFOVERLAP>
961.464

> <PUBCHEM_SHAPE_VOLUME>
238.8

> <PUBCHEM_COORDINATE_TYPE>
2
5
10

> <Energy>
61.5647

> <minimizedAffinity>
-10.14713

> <CNNscore>
0.9256522059

> <CNNaffinity>
8.1206722260

> <CNN_VS>
7.5169181824

> <CNNaffinity_variance>
0.5785916448

$$$$
5991


 24 27  0  0  0  0  0  0  0  0999 V2000
   -8.8389   -0.8635   24.3008 O   0  0  0  0  0  0  0  0  0  0  0  0
    1.4076   -2.3342   20.6417 O   0  0  0  0  0  0  0  0  0  0  0  0
   -6.6766   -1.5471   23.3151 C   0  0  0  0  0  0  0  0  0  0  0  0
   -6.3775   -2.5169   22.1486 C   0  0  0  0  0  0  0  0  0  0  0  0
   -4.9790   -2.3161   21.5598 C   0  0  0  0  0  0  0  0  0  0  0  0
   -8.1674   -1.9069   23.6054 C   0  0  0  0  0  0  0  0  0  0  0  0
   -3.9206   -2.5813   22.6723 C   0  0  0  0  0  0  0  0  0  0  0  0
   -5.6522   -1.8172   24.4333 C   0  0  0  0  0  0  0  0  0  0  0  0
   -7.5883   -2.3573   21.2327 C   0  0  0  0  0  0  0  0  0  0  0  0
   -4.1988   -1.7163   23.9291 C   0  0  0  0  0  0  0  0  0  0  0  0
   -8.7667   -2.0704   22.1833 C   0  0  0  0  0  0  0  0  0  0  0  0
   -4.7025   -3.2484   20.3779 C   0  0  0  0  0  0  0  0  0  0  0  0
   -6.5759   -0.0442   22.9191 C   0  0  0  0  0  0  0  0  0  0  0  0
   -2.4994   -2.4790   22.1199 C   0  0  0  0  0  0  0  0  0  0  0  0
   -3.3598   -2.8973   19.7450 C   0  0  0  0  0  0  0  0  0  0  0  0
   -2.2511   -2.6739   20.7431 C   0  0  0  0  0  0  0  0  0  0  0  0
   -1.3994   -2.2827   22.9725 C   0  0  0  0  0  0  0  0  0  0  0  0
   -0.9333   -2.6099   20.2511 C   0  0  0  0  0  0  0  0  0  0  0  0
   -0.0916   -2.2314   22.4715 C   0  0  0  0  0  0  0  0  0  0  0  0
    0.1294   -2.3909   21.1123 C   0  0  0  0  0  0  0  0  0  0  0  0
   -8.7390   -0.0321   23.8113 H   0  0  0  0  0  0  0  0  0  0  0  0
    1.5747   -2.4399   19.7258 H   0  0  0  0  0  0  0  0  0  0  0  0
   -8.3392   -3.1533   24.3755 C   0  0  0  0  0  0  0  0  0  0  0  0
   -8.4729   -4.1779   24.9922 C   0  0  0  0  0  0  0  0  0  0  0  0
  1  6  1  0
  1 21  1  0
  2 20  1  0
  2 22  1  0
  3  4  1  0
  3  6  1  0
  3  8  1  0
  3 13  1  0
  4  5  1  0
  4  9  1  0
  5  7  1  0
  5 12  1  0
  6 11  1  0
  6 23  1  0
  7 10  1  0
  7 14  1  0
  8 10  1  0
  9 11  1  0
 12 15  1  0
 14 16  2  0
 14 17  1  0
 15 16  1  0
 16 18  1  0
 23 24  3  0
 17 19  2  0
 18 20  2  0
 19 20  1  0
M  END
> <PUBCHEM_COMPOUND_CID>
5991

> <PUBCHEM_CONFORMER_RMSD>
0.6

> <PUBCHEM_CONFORMER_DIVERSEORDER>
1

> <PUBCHEM_MMFF94_PARTIAL_CHARGES>
19
1 -0.68
14 -0.14
15 0.14
16 -0.14
17 -0.2
18 -0.15
19 -0.15
2 -0.53
20 -0.15
21 0.08
22 -0.18
41 0.4
42 0.15
43 0.15
44 0.15
45 0.18
46 0.45
6 0.48
7 0.14

> <PUBCHEM_EFFECTIVE_ROTOR_COUNT>
1.4

> <PUBCHEM_PHARMACOPHORE_FEATURES>
8
1 1 acceptor
1 1 donor
1 2 donor
1 22 hydrophobe
5 3 4 6 9 11 rings
6 14 16 18 19 20 21 rings
6 3 4 5 7 8 10 rings
6 5 7 12 14 15 16 rings

> <PUBCHEM_HEAVY_ATOM_COUNT>
22

> <PUBCHEM_ATOM_DEF_STEREO_COUNT>
5

> <PUBCHEM_ATOM_UDEF_STEREO_COUNT>
0

> <PUBCHEM_BOND_DEF_STEREO_COUNT>
0

> <PUBCHEM_BOND_UDEF_STEREO_COUNT>
0

> <PUBCHEM_ISOTOPIC_ATOM_COUNT>
0

> <PUBCHEM_COMPONENT_COUNT>
1

> <PUBCHEM_CACTVS_TAUTO_COUNT>
9

> <PUBCHEM_CONFORMER_ID>
0000176700000001

> <PUBCHEM_MMFF94_ENERGY>
75.3654

> <PUBCHEM_FEATURE_SELFOVERLAP>
40.689

> <PUBCHEM_SHAPE_FINGERPRINT>
10498660 4 18334565854482978588
10616163 171 18412261769892000550
10906281 52 18268729332496851400
10967382 1 18409163299196382730
11132069 177 18260823830106114581
11315181 36 17846777438100329984
11552529 35 18058445585631877095
11578080 2 16952518088400902894
11796584 16 15123796154675551020
12107183 9 17697047933183828707
12236239 1 17917992754997443209
12403259 415 18260540148118003532
12403814 3 17531241756051219503
12633257 1 18411416168188185458
12644460 14 18260827060354363322
12788726 201 17059505002047033793
128620 24 17385724690407290772
13140716 1 18264499557760559337
13224815 77 18408318891198213202
13675066 3 17749393654488776519
14790565 3 18338806709892665688
15163728 17 15481289097577292713
15183329 4 18408605830407435614
15196674 1 18337388339818468438
15209289 33 18341332270467662817
15209294 21 18059584555192331817
15309172 13 18409451371427638915
15536298 74 18341610425830279326
15788980 27 17749105603943632888
16945 1 18265320738190372627
17349148 13 18114176445825312880
1813 80 17530976782159466655
18186145 218 18409161126111612646
19489759 90 15410896249631894657
19591789 44 18193273216009210722
200 152 17918273168974754922
21033648 29 17968079933063946356
21267235 1 18338240469814837151
21623110 236 18263368155990106261
23402539 116 18410566319162361766
23402655 69 18201721773563375622
23559900 14 18341325700027887232
335352 9 18410007719541319564
34934 24 18335695014618288215
350125 39 18408603674022772468
3545911 37 18408602569419241710
3680242 22 18335416829913620042
4214541 1 18412824715549947695
474 4 18408605889666299408
5104073 3 18339077194179428906
542803 24 17561084709247609168
59755656 215 18335983078396721054
633830 44 18202282537272954908
9709674 26 18410014338397756278

> <PUBCHEM_SHAPE_MULTIPOLES>
441.01
10.64
2.03
1.22
7.18
0.55
-0.05
-1.94
-1.01
0.21
-0.15
-1.94
-0.33
-0.49

> <PUBCHEM_SHAPE_SELFOVERLAP>
961.464

> <PUBCHEM_SHAPE_VOLUME>
238.8

> <PUBCHEM_COORDINATE_TYPE>
2
5
10

> <Energy>
61.5647

> <minimizedAffinity>
-9.87525

> <CNNscore>
0.6451303959

> <CNNaffinity>
7.6930732727

> <CNN_VS>
4.9630355835

> <CNNaffinity_variance>
0.6082642078

$$$$
5991


 24 27  0  0  0  0  0  0  0  0999 V2000
   -8.3915   -5.6351   25.1349 O   0  0  0  0  0  0  0  0  0  0  0  0
    1.1585   -2.3718   20.8119 O   0  0  0  0  0  0  0  0  0  0  0  0
   -6.4690   -4.6247   23.9530 C   0  0  0  0  0  0  0  0  0  0  0  0
   -6.3234   -3.2302   23.3012 C   0  0  0  0  0  0  0  0  0  0  0  0
   -4.8615   -2.8296   23.0881 C   0  0  0  0  0  0  0  0  0  0  0  0
   -8.0169   -4.6861   24.1439 C   0  0  0  0  0  0  0  0  0  0  0  0
   -4.1888   -3.8638   22.1363 C   0  0  0  0  0  0  0  0  0  0  0  0
   -5.8302   -5.6606   23.0087 C   0  0  0  0  0  0  0  0  0  0  0  0
   -7.2093   -2.3377   24.1665 C   0  0  0  0  0  0  0  0  0  0  0  0
   -4.3689   -5.3113   22.6633 C   0  0  0  0  0  0  0  0  0  0  0  0
   -8.3633   -3.2513   24.6230 C   0  0  0  0  0  0  0  0  0  0  0  0
   -4.7205   -1.4311   22.4823 C   0  0  0  0  0  0  0  0  0  0  0  0
   -5.7726   -4.7408   25.3412 C   0  0  0  0  0  0  0  0  0  0  0  0
   -2.7476   -3.4673   21.8179 C   0  0  0  0  0  0  0  0  0  0  0  0
   -3.2486   -1.0336   22.4352 C   0  0  0  0  0  0  0  0  0  0  0  0
   -2.3360   -2.1204   21.9239 C   0  0  0  0  0  0  0  0  0  0  0  0
   -1.8259   -4.4073   21.3259 C   0  0  0  0  0  0  0  0  0  0  0  0
   -1.0144   -1.7618   21.5962 C   0  0  0  0  0  0  0  0  0  0  0  0
   -0.5162   -4.0357   20.9933 C   0  0  0  0  0  0  0  0  0  0  0  0
   -0.1203   -2.7149   21.1363 C   0  0  0  0  0  0  0  0  0  0  0  0
   -7.9161   -5.4468   25.9591 H   0  0  0  0  0  0  0  0  0  0  0  0
    1.4426   -1.4835   20.9026 H   0  0  0  0  0  0  0  0  0  0  0  0
   -8.7565   -5.0012   22.9071 C   0  0  0  0  0  0  0  0  0  0  0  0
   -9.3606   -5.2433   21.8949 C   0  0  0  0  0  0  0  0  0  0  0  0
  1  6  1  0
  1 21  1  0
  2 20  1  0
  2 22  1  0
  3  4  1  0
  3  6  1  0
  3  8  1  0
  3 13  1  0
  4  5  1  0
  4  9  1  0
  5  7  1  0
  5 12  1  0
  6 11  1  0
  6 23  1  0
  7 10  1  0
  7 14  1  0
  8 10  1  0
  9 11  1  0
 12 15  1  0
 14 16  2  0
 14 17  1  0
 15 16  1  0
 16 18  1  0
 23 24  3  0
 17 19  2  0
 18 20  2  0
 19 20  1  0
M  END
> <PUBCHEM_COMPOUND_CID>
5991

> <PUBCHEM_CONFORMER_RMSD>
0.6

> <PUBCHEM_CONFORMER_DIVERSEORDER>
1

> <PUBCHEM_MMFF94_PARTIAL_CHARGES>
19
1 -0.68
14 -0.14
15 0.14
16 -0.14
17 -0.2
18 -0.15
19 -0.15
2 -0.53
20 -0.15
21 0.08
22 -0.18
41 0.4
42 0.15
43 0.15
44 0.15
45 0.18
46 0.45
6 0.48
7 0.14

> <PUBCHEM_EFFECTIVE_ROTOR_COUNT>
1.4

> <PUBCHEM_PHARMACOPHORE_FEATURES>
8
1 1 acceptor
1 1 donor
1 2 donor
1 22 hydrophobe
5 3 4 6 9 11 rings
6 14 16 18 19 20 21 rings
6 3 4 5 7 8 10 rings
6 5 7 12 14 15 16 rings

> <PUBCHEM_HEAVY_ATOM_COUNT>
22

> <PUBCHEM_ATOM_DEF_STEREO_COUNT>
5

> <PUBCHEM_ATOM_UDEF_STEREO_COUNT>
0

> <PUBCHEM_BOND_DEF_STEREO_COUNT>
0

> <PUBCHEM_BOND_UDEF_STEREO_COUNT>
0

> <PUBCHEM_ISOTOPIC_ATOM_COUNT>
0

> <PUBCHEM_COMPONENT_COUNT>
1

> <PUBCHEM_CACTVS_TAUTO_COUNT>
9

> <PUBCHEM_CONFORMER_ID>
0000176700000001

> <PUBCHEM_MMFF94_ENERGY>
75.3654

> <PUBCHEM_FEATURE_SELFOVERLAP>
40.689

> <PUBCHEM_SHAPE_FINGERPRINT>
10498660 4 18334565854482978588
10616163 171 18412261769892000550
10906281 52 18268729332496851400
10967382 1 18409163299196382730
11132069 177 18260823830106114581
11315181 36 17846777438100329984
11552529 35 18058445585631877095
11578080 2 16952518088400902894
11796584 16 15123796154675551020
12107183 9 17697047933183828707
12236239 1 17917992754997443209
12403259 415 18260540148118003532
12403814 3 17531241756051219503
12633257 1 18411416168188185458
12644460 14 18260827060354363322
12788726 201 17059505002047033793
128620 24 17385724690407290772
13140716 1 18264499557760559337
13224815 77 18408318891198213202
13675066 3 17749393654488776519
14790565 3 18338806709892665688
15163728 17 15481289097577292713
15183329 4 18408605830407435614
15196674 1 18337388339818468438
15209289 33 18341332270467662817
15209294 21 18059584555192331817
15309172 13 18409451371427638915
15536298 74 18341610425830279326
15788980 27 17749105603943632888
16945 1 18265320738190372627
17349148 13 18114176445825312880
1813 80 17530976782159466655
18186145 218 18409161126111612646
19489759 90 15410896249631894657
19591789 44 18193273216009210722
200 152 17918273168974754922
21033648 29 17968079933063946356
21267235 1 18338240469814837151
21623110 236 18263368155990106261
23402539 116 18410566319162361766
23402655 69 18201721773563375622
23559900 14 18341325700027887232
335352 9 18410007719541319564
34934 24 18335695014618288215
350125 39 18408603674022772468
3545911 37 18408602569419241710
3680242 22 18335416829913620042
4214541 1 18412824715549947695
474 4 18408605889666299408
5104073 3 18339077194179428906
542803 24 17561084709247609168
59755656 215 18335983078396721054
633830 44 18202282537272954908
9709674 26 18410014338397756278

> <PUBCHEM_SHAPE_MULTIPOLES>
441.01
10.64
2.03
1.22
7.18
0.55
-0.05
-1.94
-1.01
0.21
-0.15
-1.94
-0.33
-0.49

> <PUBCHEM_SHAPE_SELFOVERLAP>
961.464

> <PUBCHEM_SHAPE_VOLUME>
238.8

> <PUBCHEM_COORDINATE_TYPE>
2
5
10

> <Energy>
61.5647

> <minimizedAffinity>
-5.28051

> <CNNscore>
0.3193378448

> <CNNaffinity>
7.2494730949

> <CNN_VS>
2.3150310516

> <CNNaffinity_variance>
0.5193780065

$$$$
5991


 24 27  0  0  0  0  0  0  0  0999 V2000
   -0.0803   -3.2618   21.9523 O   0  0  0  0  0  0  0  0  0  0  0  0
  -10.6174   -1.7850   24.6595 O   0  0  0  0  0  0  0  0  0  0  0  0
   -2.5352   -3.0793   22.1849 C   0  0  0  0  0  0  0  0  0  0  0  0
   -3.6635   -3.8254   21.4359 C   0  0  0  0  0  0  0  0  0  0  0  0
   -5.0012   -3.7673   22.1776 C   0  0  0  0  0  0  0  0  0  0  0  0
   -1.3177   -3.4164   21.2683 C   0  0  0  0  0  0  0  0  0  0  0  0
   -5.4367   -2.2775   22.3162 C   0  0  0  0  0  0  0  0  0  0  0  0
   -2.9422   -1.5986   22.3057 C   0  0  0  0  0  0  0  0  0  0  0  0
   -3.0503   -5.1908   21.1361 C   0  0  0  0  0  0  0  0  0  0  0  0
   -4.3204   -1.4256   22.9746 C   0  0  0  0  0  0  0  0  0  0  0  0
   -1.5505   -4.9107   20.9202 C   0  0  0  0  0  0  0  0  0  0  0  0
   -6.1050   -4.5429   21.4548 C   0  0  0  0  0  0  0  0  0  0  0  0
   -2.2693   -3.6267   23.6185 C   0  0  0  0  0  0  0  0  0  0  0  0
   -6.8107   -2.1615   22.9751 C   0  0  0  0  0  0  0  0  0  0  0  0
   -7.3647   -4.5723   22.3144 C   0  0  0  0  0  0  0  0  0  0  0  0
   -7.7214   -3.2401   22.9255 C   0  0  0  0  0  0  0  0  0  0  0  0
   -7.2375   -0.9577   23.5614 C   0  0  0  0  0  0  0  0  0  0  0  0
   -8.9969   -3.1098   23.5075 C   0  0  0  0  0  0  0  0  0  0  0  0
   -8.5136   -0.8375   24.1280 C   0  0  0  0  0  0  0  0  0  0  0  0
   -9.3814   -1.9181   24.1001 C   0  0  0  0  0  0  0  0  0  0  0  0
   -0.0948   -3.7847   22.7692 H   0  0  0  0  0  0  0  0  0  0  0  0
  -11.2164   -2.5055   24.6494 H   0  0  0  0  0  0  0  0  0  0  0  0
   -1.2613   -2.6102   20.0343 C   0  0  0  0  0  0  0  0  0  0  0  0
   -1.2182   -1.9399   19.0359 C   0  0  0  0  0  0  0  0  0  0  0  0
  1  6  1  0
  1 21  1  0
  2 20  1  0
  2 22  1  0
  3  4  1  0
  3  6  1  0
  3  8  1  0
  3 13  1  0
  4  5  1  0
  4  9  1  0
  5  7  1  0
  5 12  1  0
  6 11  1  0
  6 23  1  0
  7 10  1  0
  7 14  1  0
  8 10  1  0
  9 11  1  0
 12 15  1  0
 14 16  2  0
 14 17  1  0
 15 16  1  0
 16 18  1  0
 23 24  3  0
 17 19  2  0
 18 20  2  0
 19 20  1  0
M  END
> <PUBCHEM_COMPOUND_CID>
5991

> <PUBCHEM_CONFORMER_RMSD>
0.6

> <PUBCHEM_CONFORMER_DIVERSEORDER>
1

> <PUBCHEM_MMFF94_PARTIAL_CHARGES>
19
1 -0.68
14 -0.14
15 0.14
16 -0.14
17 -0.2
18 -0.15
19 -0.15
2 -0.53
20 -0.15
21 0.08
22 -0.18
41 0.4
42 0.15
43 0.15
44 0.15
45 0.18
46 0.45
6 0.48
7 0.14

> <PUBCHEM_EFFECTIVE_ROTOR_COUNT>
1.4

> <PUBCHEM_PHARMACOPHORE_FEATURES>
8
1 1 acceptor
1 1 donor
1 2 donor
1 22 hydrophobe
5 3 4 6 9 11 rings
6 14 16 18 19 20 21 rings
6 3 4 5 7 8 10 rings
6 5 7 12 14 15 16 rings

> <PUBCHEM_HEAVY_ATOM_COUNT>
22

> <PUBCHEM_ATOM_DEF_STEREO_COUNT>
5

> <PUBCHEM_ATOM_UDEF_STEREO_COUNT>
0

> <PUBCHEM_BOND_DEF_STEREO_COUNT>
0

> <PUBCHEM_BOND_UDEF_STEREO_COUNT>
0

> <PUBCHEM_ISOTOPIC_ATOM_COUNT>
0

> <PUBCHEM_COMPONENT_COUNT>
1

> <PUBCHEM_CACTVS_TAUTO_COUNT>
9

> <PUBCHEM_CONFORMER_ID>
0000176700000001

> <PUBCHEM_MMFF94_ENERGY>
75.3654

> <PUBCHEM_FEATURE_SELFOVERLAP>
40.689

> <PUBCHEM_SHAPE_FINGERPRINT>
10498660 4 18334565854482978588
10616163 171 18412261769892000550
10906281 52 18268729332496851400
10967382 1 18409163299196382730
11132069 177 18260823830106114581
11315181 36 17846777438100329984
11552529 35 18058445585631877095
11578080 2 16952518088400902894
11796584 16 15123796154675551020
12107183 9 17697047933183828707
12236239 1 17917992754997443209
12403259 415 18260540148118003532
12403814 3 17531241756051219503
12633257 1 18411416168188185458
12644460 14 18260827060354363322
12788726 201 17059505002047033793
128620 24 17385724690407290772
13140716 1 18264499557760559337
13224815 77 18408318891198213202
13675066 3 17749393654488776519
14790565 3 18338806709892665688
15163728 17 15481289097577292713
15183329 4 18408605830407435614
15196674 1 18337388339818468438
15209289 33 18341332270467662817
15209294 21 18059584555192331817
15309172 13 18409451371427638915
15536298 74 18341610425830279326
15788980 27 17749105603943632888
16945 1 18265320738190372627
17349148 13 18114176445825312880
1813 80 17530976782159466655
18186145 218 18409161126111612646
19489759 90 15410896249631894657
19591789 44 18193273216009210722
200 152 17918273168974754922
21033648 29 17968079933063946356
21267235 1 18338240469814837151
21623110 236 18263368155990106261
23402539 116 18410566319162361766
23402655 69 18201721773563375622
23559900 14 18341325700027887232
335352 9 18410007719541319564
34934 24 18335695014618288215
350125 39 18408603674022772468
3545911 37 18408602569419241710
3680242 22 18335416829913620042
4214541 1 18412824715549947695
474 4 18408605889666299408
5104073 3 18339077194179428906
542803 24 17561084709247609168
59755656 215 18335983078396721054
633830 44 18202282537272954908
9709674 26 18410014338397756278

> <PUBCHEM_SHAPE_MULTIPOLES>
441.01
10.64
2.03
1.22
7.18
0.55
-0.05
-1.94
-1.01
0.21
-0.15
-1.94
-0.33
-0.49

> <PUBCHEM_SHAPE_SELFOVERLAP>
961.464

> <PUBCHEM_SHAPE_VOLUME>
238.8

> <PUBCHEM_COORDINATE_TYPE>
2
5
10

> <Energy>
61.5647

> <minimizedAffinity>
-7.60163

> <CNNscore>
0.2324523032

> <CNNaffinity>
6.9710197449

> <CNN_VS>
1.6204296350

> <CNNaffinity_variance>
0.1358979493

$$$$
5991


 24 27  0  0  0  0  0  0  0  0999 V2000
   -9.1351   -0.3029   24.3690 O   0  0  0  0  0  0  0  0  0  0  0  0
   -3.1723   -8.8845   21.0010 O   0  0  0  0  0  0  0  0  0  0  0  0
   -7.6124   -1.9655   23.3533 C   0  0  0  0  0  0  0  0  0  0  0  0
   -6.2716   -1.7630   22.6104 C   0  0  0  0  0  0  0  0  0  0  0  0
   -5.4346   -3.0429   22.5468 C   0  0  0  0  0  0  0  0  0  0  0  0
   -8.1566   -0.5026   23.3561 C   0  0  0  0  0  0  0  0  0  0  0  0
   -6.2375   -4.1327   21.7750 C   0  0  0  0  0  0  0  0  0  0  0  0
   -8.4274   -3.0229   22.5849 C   0  0  0  0  0  0  0  0  0  0  0  0
   -5.6744   -0.5292   23.2822 C   0  0  0  0  0  0  0  0  0  0  0  0
   -7.6445   -4.3372   22.3947 C   0  0  0  0  0  0  0  0  0  0  0  0
   -6.8892    0.3371   23.6674 C   0  0  0  0  0  0  0  0  0  0  0  0
   -4.0896   -2.8282   21.8485 C   0  0  0  0  0  0  0  0  0  0  0  0
   -7.4446   -2.4567   24.8217 C   0  0  0  0  0  0  0  0  0  0  0  0
   -5.4152   -5.4096   21.6050 C   0  0  0  0  0  0  0  0  0  0  0  0
   -3.2457   -4.0947   21.9505 C   0  0  0  0  0  0  0  0  0  0  0  0
   -4.0042   -5.3631   21.6482 C   0  0  0  0  0  0  0  0  0  0  0  0
   -6.0310   -6.6382   21.3107 C   0  0  0  0  0  0  0  0  0  0  0  0
   -3.2563   -6.5407   21.4574 C   0  0  0  0  0  0  0  0  0  0  0  0
   -5.2747   -7.8013   21.1125 C   0  0  0  0  0  0  0  0  0  0  0  0
   -3.8921   -7.7428   21.1926 C   0  0  0  0  0  0  0  0  0  0  0  0
   -8.7721   -0.5730   25.2270 H   0  0  0  0  0  0  0  0  0  0  0  0
   -2.2369   -8.8627   21.0517 H   0  0  0  0  0  0  0  0  0  0  0  0
   -8.7405   -0.0829   22.0681 C   0  0  0  0  0  0  0  0  0  0  0  0
   -9.2269    0.2682   21.0250 C   0  0  0  0  0  0  0  0  0  0  0  0
  1  6  1  0
  1 21  1  0
  2 20  1  0
  2 22  1  0
  3  4  1  0
  3  6  1  0
  3  8  1  0
  3 13  1  0
  4  5  1  0
  4  9  1  0
  5  7  1  0
  5 12  1  0
  6 11  1  0
  6 23  1  0
  7 10  1  0
  7 14  1  0
  8 10  1  0
  9 11  1  0
 12 15  1  0
 14 16  2  0
 14 17  1  0
 15 16  1  0
 16 18  1  0
 23 24  3  0
 17 19  2  0
 18 20  2  0
 19 20  1  0
M  END
> <PUBCHEM_COMPOUND_CID>
5991

> <PUBCHEM_CONFORMER_RMSD>
0.6

> <PUBCHEM_CONFORMER_DIVERSEORDER>
1

> <PUBCHEM_MMFF94_PARTIAL_CHARGES>
19
1 -0.68
14 -0.14
15 0.14
16 -0.14
17 -0.2
18 -0.15
19 -0.15
2 -0.53
20 -0.15
21 0.08
22 -0.18
41 0.4
42 0.15
43 0.15
44 0.15
45 0.18
46 0.45
6 0.48
7 0.14

> <PUBCHEM_EFFECTIVE_ROTOR_COUNT>
1.4

> <PUBCHEM_PHARMACOPHORE_FEATURES>
8
1 1 acceptor
1 1 donor
1 2 donor
1 22 hydrophobe
5 3 4 6 9 11 rings
6 14 16 18 19 20 21 rings
6 3 4 5 7 8 10 rings
6 5 7 12 14 15 16 rings

> <PUBCHEM_HEAVY_ATOM_COUNT>
22

> <PUBCHEM_ATOM_DEF_STEREO_COUNT>
5

> <PUBCHEM_ATOM_UDEF_STEREO_COUNT>
0

> <PUBCHEM_BOND_DEF_STEREO_COUNT>
0

> <PUBCHEM_BOND_UDEF_STEREO_COUNT>
0

> <PUBCHEM_ISOTOPIC_ATOM_COUNT>
0

> <PUBCHEM_COMPONENT_COUNT>
1

> <PUBCHEM_CACTVS_TAUTO_COUNT>
9

> <PUBCHEM_CONFORMER_ID>
0000176700000001

> <PUBCHEM_MMFF94_ENERGY>
75.3654

> <PUBCHEM_FEATURE_SELFOVERLAP>
40.689

> <PUBCHEM_SHAPE_FINGERPRINT>
10498660 4 18334565854482978588
10616163 171 18412261769892000550
10906281 52 18268729332496851400
10967382 1 18409163299196382730
11132069 177 18260823830106114581
11315181 36 17846777438100329984
11552529 35 18058445585631877095
11578080 2 16952518088400902894
11796584 16 15123796154675551020
12107183 9 17697047933183828707
12236239 1 17917992754997443209
12403259 415 18260540148118003532
12403814 3 17531241756051219503
12633257 1 18411416168188185458
12644460 14 18260827060354363322
12788726 201 17059505002047033793
128620 24 17385724690407290772
13140716 1 18264499557760559337
13224815 77 18408318891198213202
13675066 3 17749393654488776519
14790565 3 18338806709892665688
15163728 17 15481289097577292713
15183329 4 18408605830407435614
15196674 1 18337388339818468438
15209289 33 18341332270467662817
15209294 21 18059584555192331817
15309172 13 18409451371427638915
15536298 74 18341610425830279326
15788980 27 17749105603943632888
16945 1 18265320738190372627
17349148 13 18114176445825312880
1813 80 17530976782159466655
18186145 218 18409161126111612646
19489759 90 15410896249631894657
19591789 44 18193273216009210722
200 152 17918273168974754922
21033648 29 17968079933063946356
21267235 1 18338240469814837151
21623110 236 18263368155990106261
23402539 116 18410566319162361766
23402655 69 18201721773563375622
23559900 14 18341325700027887232
335352 9 18410007719541319564
34934 24 18335695014618288215
350125 39 18408603674022772468
3545911 37 18408602569419241710
3680242 22 18335416829913620042
4214541 1 18412824715549947695
474 4 18408605889666299408
5104073 3 18339077194179428906
542803 24 17561084709247609168
59755656 215 18335983078396721054
633830 44 18202282537272954908
9709674 26 18410014338397756278

> <PUBCHEM_SHAPE_MULTIPOLES>
441.01
10.64
2.03
1.22
7.18
0.55
-0.05
-1.94
-1.01
0.21
-0.15
-1.94
-0.33
-0.49

> <PUBCHEM_SHAPE_SELFOVERLAP>
961.464

> <PUBCHEM_SHAPE_VOLUME>
238.8

> <PUBCHEM_COORDINATE_TYPE>
2
5
10

> <Energy>
61.5647

> <minimizedAffinity>
-5.99402

> <CNNscore>
0.1252815872

> <CNNaffinity>
6.1171283722

> <CNN_VS>
0.7663635612

> <CNNaffinity_variance>
0.2368235141

$$$$
5991


 24 27  0  0  0  0  0  0  0  0999 V2000
   -7.5511    0.6056   24.4837 O   0  0  0  0  0  0  0  0  0  0  0  0
   -3.6074   -8.9477   20.7789 O   0  0  0  0  0  0  0  0  0  0  0  0
   -7.0318   -1.5873   23.4658 C   0  0  0  0  0  0  0  0  0  0  0  0
   -7.6645   -2.2912   22.2432 C   0  0  0  0  0  0  0  0  0  0  0  0
   -6.7719   -3.3962   21.6729 C   0  0  0  0  0  0  0  0  0  0  0  0
   -8.0914   -0.4716   23.7280 C   0  0  0  0  0  0  0  0  0  0  0  0
   -6.5455   -4.4785   22.7710 C   0  0  0  0  0  0  0  0  0  0  0  0
   -6.8266   -2.6425   24.5691 C   0  0  0  0  0  0  0  0  0  0  0  0
   -8.0683   -1.1331   21.3344 C   0  0  0  0  0  0  0  0  0  0  0  0
   -5.9988   -3.8465   24.0774 C   0  0  0  0  0  0  0  0  0  0  0  0
   -8.4487    0.0090   22.2964 C   0  0  0  0  0  0  0  0  0  0  0  0
   -7.3822   -4.0617   20.4371 C   0  0  0  0  0  0  0  0  0  0  0  0
   -5.6531   -0.9291   23.1631 C   0  0  0  0  0  0  0  0  0  0  0  0
   -5.7296   -5.6525   22.2310 C   0  0  0  0  0  0  0  0  0  0  0  0
   -6.3838   -5.0433   19.8319 C   0  0  0  0  0  0  0  0  0  0  0  0
   -5.7014   -5.9274   20.8459 C   0  0  0  0  0  0  0  0  0  0  0  0
   -5.0670   -6.5382   23.0981 C   0  0  0  0  0  0  0  0  0  0  0  0
   -4.9728   -7.0315   20.3635 C   0  0  0  0  0  0  0  0  0  0  0  0
   -4.3538   -7.6397   22.6060 C   0  0  0  0  0  0  0  0  0  0  0  0
   -4.3091   -7.8739   21.2405 C   0  0  0  0  0  0  0  0  0  0  0  0
   -6.7518    0.9384   24.0464 H   0  0  0  0  0  0  0  0  0  0  0  0
   -3.5669   -9.1205   19.8589 H   0  0  0  0  0  0  0  0  0  0  0  0
   -9.3024   -0.9524   24.4196 C   0  0  0  0  0  0  0  0  0  0  0  0
  -10.2836   -1.3583   24.9856 C   0  0  0  0  0  0  0  0  0  0  0  0
  1  6  1  0
  1 21  1  0
  2 20  1  0
  2 22  1  0
  3  4  1  0
  3  6  1  0
  3  8  1  0
  3 13  1  0
  4  5  1  0
  4  9  1  0
  5  7  1  0
  5 12  1  0
  6 11  1  0
  6 23  1  0
  7 10  1  0
  7 14  1  0
  8 10  1  0
  9 11  1  0
 12 15  1  0
 14 16  2  0
 14 17  1  0
 15 16  1  0
 16 18  1  0
 23 24  3  0
 17 19  2  0
 18 20  2  0
 19 20  1  0
M  END
> <PUBCHEM_COMPOUND_CID>
5991

> <PUBCHEM_CONFORMER_RMSD>
0.6

> <PUBCHEM_CONFORMER_DIVERSEORDER>
1

> <PUBCHEM_MMFF94_PARTIAL_CHARGES>
19
1 -0.68
14 -0.14
15 0.14
16 -0.14
17 -0.2
18 -0.15
19 -0.15
2 -0.53
20 -0.15
21 0.08
22 -0.18
41 0.4
42 0.15
43 0.15
44 0.15
45 0.18
46 0.45
6 0.48
7 0.14

> <PUBCHEM_EFFECTIVE_ROTOR_COUNT>
1.4

> <PUBCHEM_PHARMACOPHORE_FEATURES>
8
1 1 acceptor
1 1 donor
1 2 donor
1 22 hydrophobe
5 3 4 6 9 11 rings
6 14 16 18 19 20 21 rings
6 3 4 5 7 8 10 rings
6 5 7 12 14 15 16 rings

> <PUBCHEM_HEAVY_ATOM_COUNT>
22

> <PUBCHEM_ATOM_DEF_STEREO_COUNT>
5

> <PUBCHEM_ATOM_UDEF_STEREO_COUNT>
0

> <PUBCHEM_BOND_DEF_STEREO_COUNT>
0

> <PUBCHEM_BOND_UDEF_STEREO_COUNT>
0

> <PUBCHEM_ISOTOPIC_ATOM_COUNT>
0

> <PUBCHEM_COMPONENT_COUNT>
1

> <PUBCHEM_CACTVS_TAUTO_COUNT>
9

> <PUBCHEM_CONFORMER_ID>
0000176700000001

> <PUBCHEM_MMFF94_ENERGY>
75.3654

> <PUBCHEM_FEATURE_SELFOVERLAP>
40.689

> <PUBCHEM_SHAPE_FINGERPRINT>
10498660 4 18334565854482978588
10616163 171 18412261769892000550
10906281 52 18268729332496851400
10967382 1 18409163299196382730
11132069 177 18260823830106114581
11315181 36 17846777438100329984
11552529 35 18058445585631877095
11578080 2 16952518088400902894
11796584 16 15123796154675551020
12107183 9 17697047933183828707
12236239 1 17917992754997443209
12403259 415 18260540148118003532
12403814 3 17531241756051219503
12633257 1 18411416168188185458
12644460 14 18260827060354363322
12788726 201 17059505002047033793
128620 24 17385724690407290772
13140716 1 18264499557760559337
13224815 77 18408318891198213202
13675066 3 17749393654488776519
14790565 3 18338806709892665688
15163728 17 15481289097577292713
15183329 4 18408605830407435614
15196674 1 18337388339818468438
15209289 33 18341332270467662817
15209294 21 18059584555192331817
15309172 13 18409451371427638915
15536298 74 18341610425830279326
15788980 27 17749105603943632888
16945 1 18265320738190372627
17349148 13 18114176445825312880
1813 80 17530976782159466655
18186145 218 18409161126111612646
19489759 90 15410896249631894657
19591789 44 18193273216009210722
200 152 17918273168974754922
21033648 29 17968079933063946356
21267235 1 18338240469814837151
21623110 236 18263368155990106261
23402539 116 18410566319162361766
23402655 69 18201721773563375622
23559900 14 18341325700027887232
335352 9 18410007719541319564
34934 24 18335695014618288215
350125 39 18408603674022772468
3545911 37 18408602569419241710
3680242 22 18335416829913620042
4214541 1 18412824715549947695
474 4 18408605889666299408
5104073 3 18339077194179428906
542803 24 17561084709247609168
59755656 215 18335983078396721054
633830 44 18202282537272954908
9709674 26 18410014338397756278

> <PUBCHEM_SHAPE_MULTIPOLES>
441.01
10.64
2.03
1.22
7.18
0.55
-0.05
-1.94
-1.01
0.21
-0.15
-1.94
-0.33
-0.49

> <PUBCHEM_SHAPE_SELFOVERLAP>
961.464

> <PUBCHEM_SHAPE_VOLUME>
238.8

> <PUBCHEM_COORDINATE_TYPE>
2
5
10

> <Energy>
61.5647

> <minimizedAffinity>
-4.07409

> <CNNscore>
0.1144787297

> <CNNaffinity>
5.0092334747

> <CNN_VS>
0.5734506845

> <CNNaffinity_variance>
1.1180331707

$$$$
5991


 24 27  0  0  0  0  0  0  0  0999 V2000
   -4.1861   -7.8885   19.5862 O   0  0  0  0  0  0  0  0  0  0  0  0
   -8.6113    0.9812   24.3072 O   0  0  0  0  0  0  0  0  0  0  0  0
   -5.3570   -6.1601   20.9114 C   0  0  0  0  0  0  0  0  0  0  0  0
   -5.8926   -6.2113   22.3609 C   0  0  0  0  0  0  0  0  0  0  0  0
   -6.1317   -4.8189   22.9498 C   0  0  0  0  0  0  0  0  0  0  0  0
   -5.1072   -7.6784   20.6495 C   0  0  0  0  0  0  0  0  0  0  0  0
   -7.1960   -4.0809   22.0832 C   0  0  0  0  0  0  0  0  0  0  0  0
   -6.4124   -5.4552   20.0385 C   0  0  0  0  0  0  0  0  0  0  0  0
   -4.9176   -7.1489   23.0685 C   0  0  0  0  0  0  0  0  0  0  0  0
   -6.7877   -4.0642   20.5871 C   0  0  0  0  0  0  0  0  0  0  0  0
   -4.4929   -8.1637   21.9895 C   0  0  0  0  0  0  0  0  0  0  0  0
   -6.6210   -4.8728   24.3990 C   0  0  0  0  0  0  0  0  0  0  0  0
   -4.0143   -5.3839   20.7689 C   0  0  0  0  0  0  0  0  0  0  0  0
   -7.5395   -2.7139   22.6740 C   0  0  0  0  0  0  0  0  0  0  0  0
   -6.6957   -3.4614   24.9727 C   0  0  0  0  0  0  0  0  0  0  0  0
   -7.3361   -2.4565   24.0478 C   0  0  0  0  0  0  0  0  0  0  0  0
   -8.1485   -1.7160   21.8937 C   0  0  0  0  0  0  0  0  0  0  0  0
   -7.6871   -1.2042   24.5873 C   0  0  0  0  0  0  0  0  0  0  0  0
   -8.5028   -0.4774   22.4453 C   0  0  0  0  0  0  0  0  0  0  0  0
   -8.2640   -0.2306   23.7883 C   0  0  0  0  0  0  0  0  0  0  0  0
   -3.3695   -7.3960   19.7636 H   0  0  0  0  0  0  0  0  0  0  0  0
   -8.4569    1.1646   25.2131 H   0  0  0  0  0  0  0  0  0  0  0  0
   -6.3342   -8.4396   20.3479 C   0  0  0  0  0  0  0  0  0  0  0  0
   -7.3321   -9.0699   20.1136 C   0  0  0  0  0  0  0  0  0  0  0  0
  1  6  1  0
  1 21  1  0
  2 20  1  0
  2 22  1  0
  3  4  1  0
  3  6  1  0
  3  8  1  0
  3 13  1  0
  4  5  1  0
  4  9  1  0
  5  7  1  0
  5 12  1  0
  6 11  1  0
  6 23  1  0
  7 10  1  0
  7 14  1  0
  8 10  1  0
  9 11  1  0
 12 15  1  0
 14 16  2  0
 14 17  1  0
 15 16  1  0
 16 18  1  0
 23 24  3  0
 17 19  2  0
 18 20  2  0
 19 20  1  0
M  END
> <PUBCHEM_COMPOUND_CID>
5991

> <PUBCHEM_CONFORMER_RMSD>
0.6

> <PUBCHEM_CONFORMER_DIVERSEORDER>
1

> <PUBCHEM_MMFF94_PARTIAL_CHARGES>
19
1 -0.68
14 -0.14
15 0.14
16 -0.14
17 -0.2
18 -0.15
19 -0.15
2 -0.53
20 -0.15
21 0.08
22 -0.18
41 0.4
42 0.15
43 0.15
44 0.15
45 0.18
46 0.45
6 0.48
7 0.14

> <PUBCHEM_EFFECTIVE_ROTOR_COUNT>
1.4

> <PUBCHEM_PHARMACOPHORE_FEATURES>
8
1 1 acceptor
1 1 donor
1 2 donor
1 22 hydrophobe
5 3 4 6 9 11 rings
6 14 16 18 19 20 21 rings
6 3 4 5 7 8 10 rings
6 5 7 12 14 15 16 rings

> <PUBCHEM_HEAVY_ATOM_COUNT>
22

> <PUBCHEM_ATOM_DEF_STEREO_COUNT>
5

> <PUBCHEM_ATOM_UDEF_STEREO_COUNT>
0

> <PUBCHEM_BOND_DEF_STEREO_COUNT>
0

> <PUBCHEM_BOND_UDEF_STEREO_COUNT>
0

> <PUBCHEM_ISOTOPIC_ATOM_COUNT>
0

> <PUBCHEM_COMPONENT_COUNT>
1

> <PUBCHEM_CACTVS_TAUTO_COUNT>
9

> <PUBCHEM_CONFORMER_ID>
0000176700000001

> <PUBCHEM_MMFF94_ENERGY>
75.3654

> <PUBCHEM_FEATURE_SELFOVERLAP>
40.689

> <PUBCHEM_SHAPE_FINGERPRINT>
10498660 4 18334565854482978588
10616163 171 18412261769892000550
10906281 52 18268729332496851400
10967382 1 18409163299196382730
11132069 177 18260823830106114581
11315181 36 17846777438100329984
11552529 35 18058445585631877095
11578080 2 16952518088400902894
11796584 16 15123796154675551020
12107183 9 17697047933183828707
12236239 1 17917992754997443209
12403259 415 18260540148118003532
12403814 3 17531241756051219503
12633257 1 18411416168188185458
12644460 14 18260827060354363322
12788726 201 17059505002047033793
128620 24 17385724690407290772
13140716 1 18264499557760559337
13224815 77 18408318891198213202
13675066 3 17749393654488776519
14790565 3 18338806709892665688
15163728 17 15481289097577292713
15183329 4 18408605830407435614
15196674 1 18337388339818468438
15209289 33 18341332270467662817
15209294 21 18059584555192331817
15309172 13 18409451371427638915
15536298 74 18341610425830279326
15788980 27 17749105603943632888
16945 1 18265320738190372627
17349148 13 18114176445825312880
1813 80 17530976782159466655
18186145 218 18409161126111612646
19489759 90 15410896249631894657
19591789 44 18193273216009210722
200 152 17918273168974754922
21033648 29 17968079933063946356
21267235 1 18338240469814837151
21623110 236 18263368155990106261
23402539 116 18410566319162361766
23402655 69 18201721773563375622
23559900 14 18341325700027887232
335352 9 18410007719541319564
34934 24 18335695014618288215
350125 39 18408603674022772468
3545911 37 18408602569419241710
3680242 22 18335416829913620042
4214541 1 18412824715549947695
474 4 18408605889666299408
5104073 3 18339077194179428906
542803 24 17561084709247609168
59755656 215 18335983078396721054
633830 44 18202282537272954908
9709674 26 18410014338397756278

> <PUBCHEM_SHAPE_MULTIPOLES>
441.01
10.64
2.03
1.22
7.18
0.55
-0.05
-1.94
-1.01
0.21
-0.15
-1.94
-0.33
-0.49

> <PUBCHEM_SHAPE_SELFOVERLAP>
961.464

> <PUBCHEM_SHAPE_VOLUME>
238.8

> <PUBCHEM_COORDINATE_TYPE>
2
5
10

> <Energy>
61.5647

> <minimizedAffinity>
-3.77420

> <CNNscore>
0.1111890674

> <CNNaffinity>
5.1436972618

> <CNN_VS>
0.5719228983

> <CNNaffinity_variance>
0.6911273599

$$$$
5991


 24 27  0  0  0  0  0  0  0  0999 V2000
   -0.5983   -2.8925   18.4868 O   0  0  0  0  0  0  0  0  0  0  0  0
   -8.9640   -4.5148   25.4096 O   0  0  0  0  0  0  0  0  0  0  0  0
   -2.2384   -3.0779   20.3280 C   0  0  0  0  0  0  0  0  0  0  0  0
   -2.3570   -2.2680   21.6397 C   0  0  0  0  0  0  0  0  0  0  0  0
   -3.7453   -2.3765   22.2752 C   0  0  0  0  0  0  0  0  0  0  0  0
   -0.7986   -2.6767   19.8784 C   0  0  0  0  0  0  0  0  0  0  0  0
   -4.0268   -3.8698   22.6199 C   0  0  0  0  0  0  0  0  0  0  0  0
   -2.4892   -4.5610   20.6599 C   0  0  0  0  0  0  0  0  0  0  0  0
   -1.8329   -0.8869   21.2548 C   0  0  0  0  0  0  0  0  0  0  0  0
   -3.8365   -4.7780   21.3772 C   0  0  0  0  0  0  0  0  0  0  0  0
   -0.7485   -1.1581   20.1942 C   0  0  0  0  0  0  0  0  0  0  0  0
   -3.8720   -1.5393   23.5502 C   0  0  0  0  0  0  0  0  0  0  0  0
   -3.2597   -2.6473   19.2338 C   0  0  0  0  0  0  0  0  0  0  0  0
   -5.3670   -4.0292   23.3368 C   0  0  0  0  0  0  0  0  0  0  0  0
   -5.3134   -1.5704   24.0484 C   0  0  0  0  0  0  0  0  0  0  0  0
   -5.9354   -2.9446   24.0408 C   0  0  0  0  0  0  0  0  0  0  0  0
   -6.0188   -5.2732   23.3934 C   0  0  0  0  0  0  0  0  0  0  0  0
   -7.1545   -3.1128   24.7251 C   0  0  0  0  0  0  0  0  0  0  0  0
   -7.2265   -5.4300   24.0868 C   0  0  0  0  0  0  0  0  0  0  0  0
   -7.7868   -4.3453   24.7434 C   0  0  0  0  0  0  0  0  0  0  0  0
   -1.2919   -2.4359   17.9856 H   0  0  0  0  0  0  0  0  0  0  0  0
   -9.3564   -3.7921   25.8587 H   0  0  0  0  0  0  0  0  0  0  0  0
    0.2708   -3.3831   20.6087 C   0  0  0  0  0  0  0  0  0  0  0  0
    1.1520   -3.9468   21.2034 C   0  0  0  0  0  0  0  0  0  0  0  0
  1  6  1  0
  1 21  1  0
  2 20  1  0
  2 22  1  0
  3  4  1  0
  3  6  1  0
  3  8  1  0
  3 13  1  0
  4  5  1  0
  4  9  1  0
  5  7  1  0
  5 12  1  0
  6 11  1  0
  6 23  1  0
  7 10  1  0
  7 14  1  0
  8 10  1  0
  9 11  1  0
 12 15  1  0
 14 16  2  0
 14 17  1  0
 15 16  1  0
 16 18  1  0
 23 24  3  0
 17 19  2  0
 18 20  2  0
 19 20  1  0
M  END
> <PUBCHEM_COMPOUND_CID>
5991

> <PUBCHEM_CONFORMER_RMSD>
0.6

> <PUBCHEM_CONFORMER_DIVERSEORDER>
1

> <PUBCHEM_MMFF94_PARTIAL_CHARGES>
19
1 -0.68
14 -0.14
15 0.14
16 -0.14
17 -0.2
18 -0.15
19 -0.15
2 -0.53
20 -0.15
21 0.08
22 -0.18
41 0.4
42 0.15
43 0.15
44 0.15
45 0.18
46 0.45
6 0.48
7 0.14

> <PUBCHEM_EFFECTIVE_ROTOR_COUNT>
1.4

> <PUBCHEM_PHARMACOPHORE_FEATURES>
8
1 1 acceptor
1 1 donor
1 2 donor
1 22 hydrophobe
5 3 4 6 9 11 rings
6 14 16 18 19 20 21 rings
6 3 4 5 7 8 10 rings
6 5 7 12 14 15 16 rings

> <PUBCHEM_HEAVY_ATOM_COUNT>
22

> <PUBCHEM_ATOM_DEF_STEREO_COUNT>
5

> <PUBCHEM_ATOM_UDEF_STEREO_COUNT>
0

> <PUBCHEM_BOND_DEF_STEREO_COUNT>
0

> <PUBCHEM_BOND_UDEF_STEREO_COUNT>
0

> <PUBCHEM_ISOTOPIC_ATOM_COUNT>
0

> <PUBCHEM_COMPONENT_COUNT>
1

> <PUBCHEM_CACTVS_TAUTO_COUNT>
9

> <PUBCHEM_CONFORMER_ID>
0000176700000001

> <PUBCHEM_MMFF94_ENERGY>
75.3654

> <PUBCHEM_FEATURE_SELFOVERLAP>
40.689

> <PUBCHEM_SHAPE_FINGERPRINT>
10498660 4 18334565854482978588
10616163 171 18412261769892000550
10906281 52 18268729332496851400
10967382 1 18409163299196382730
11132069 177 18260823830106114581
11315181 36 17846777438100329984
11552529 35 18058445585631877095
11578080 2 16952518088400902894
11796584 16 15123796154675551020
12107183 9 17697047933183828707
12236239 1 17917992754997443209
12403259 415 18260540148118003532
12403814 3 17531241756051219503
12633257 1 18411416168188185458
12644460 14 18260827060354363322
12788726 201 17059505002047033793
128620 24 17385724690407290772
13140716 1 18264499557760559337
13224815 77 18408318891198213202
13675066 3 17749393654488776519
14790565 3 18338806709892665688
15163728 17 15481289097577292713
15183329 4 18408605830407435614
15196674 1 18337388339818468438
15209289 33 18341332270467662817
15209294 21 18059584555192331817
15309172 13 18409451371427638915
15536298 74 18341610425830279326
15788980 27 17749105603943632888
16945 1 18265320738190372627
17349148 13 18114176445825312880
1813 80 17530976782159466655
18186145 218 18409161126111612646
19489759 90 15410896249631894657
19591789 44 18193273216009210722
200 152 17918273168974754922
21033648 29 17968079933063946356
21267235 1 18338240469814837151
21623110 236 18263368155990106261
23402539 116 18410566319162361766
23402655 69 18201721773563375622
23559900 14 18341325700027887232
335352 9 18410007719541319564
34934 24 18335695014618288215
350125 39 18408603674022772468
3545911 37 18408602569419241710
3680242 22 18335416829913620042
4214541 1 18412824715549947695
474 4 18408605889666299408
5104073 3 18339077194179428906
542803 24 17561084709247609168
59755656 215 18335983078396721054
633830 44 18202282537272954908
9709674 26 18410014338397756278

> <PUBCHEM_SHAPE_MULTIPOLES>
441.01
10.64
2.03
1.22
7.18
0.55
-0.05
-1.94
-1.01
0.21
-0.15
-1.94
-0.33
-0.49

> <PUBCHEM_SHAPE_SELFOVERLAP>
961.464

> <PUBCHEM_SHAPE_VOLUME>
238.8

> <PUBCHEM_COORDINATE_TYPE>
2
5
10

> <Energy>
61.5647

> <minimizedAffinity>
-3.49632

> <CNNscore>
0.1080417261

> <CNNaffinity>
6.3538036346

> <CNN_VS>
0.6864759326

> <CNNaffinity_variance>
0.1688146591

$$$$
5991


 24 27  0  0  0  0  0  0  0  0999 V2000
    5.0939   -1.8675   21.8872 O   0  0  0  0  0  0  0  0  0  0  0  0
   -5.6771   -3.3345   20.3464 O   0  0  0  0  0  0  0  0  0  0  0  0
    2.7817   -2.4994   21.2802 C   0  0  0  0  0  0  0  0  0  0  0  0
    2.2313   -3.8248   20.7049 C   0  0  0  0  0  0  0  0  0  0  0  0
    0.7200   -3.9688   20.9000 C   0  0  0  0  0  0  0  0  0  0  0  0
    4.3110   -2.7031   21.0435 C   0  0  0  0  0  0  0  0  0  0  0  0
    0.0022   -2.8021   20.1571 C   0  0  0  0  0  0  0  0  0  0  0  0
    2.0984   -1.3370   20.5354 C   0  0  0  0  0  0  0  0  0  0  0  0
    3.1521   -4.8840   21.3054 C   0  0  0  0  0  0  0  0  0  0  0  0
    0.5608   -1.4255   20.6026 C   0  0  0  0  0  0  0  0  0  0  0  0
    4.5242   -4.1926   21.4235 C   0  0  0  0  0  0  0  0  0  0  0  0
    0.1857   -5.3007   20.3677 C   0  0  0  0  0  0  0  0  0  0  0  0
    2.5143   -2.3216   22.8042 C   0  0  0  0  0  0  0  0  0  0  0  0
   -1.5171   -2.9415   20.2452 C   0  0  0  0  0  0  0  0  0  0  0  0
   -1.2900   -5.4461   20.7252 C   0  0  0  0  0  0  0  0  0  0  0  0
   -2.1079   -4.2044   20.4709 C   0  0  0  0  0  0  0  0  0  0  0  0
   -2.3634   -1.8436   20.0133 C   0  0  0  0  0  0  0  0  0  0  0  0
   -3.5100   -4.3259   20.5172 C   0  0  0  0  0  0  0  0  0  0  0  0
   -3.7577   -1.9798   20.0518 C   0  0  0  0  0  0  0  0  0  0  0  0
   -4.3191   -3.2210   20.3086 C   0  0  0  0  0  0  0  0  0  0  0  0
    4.8327   -2.0051   22.8112 H   0  0  0  0  0  0  0  0  0  0  0  0
   -6.0731   -4.1661   20.5187 H   0  0  0  0  0  0  0  0  0  0  0  0
    4.7333   -2.4689   19.6497 C   0  0  0  0  0  0  0  0  0  0  0  0
    5.0916   -2.2732   18.5178 C   0  0  0  0  0  0  0  0  0  0  0  0
  1  6  1  0
  1 21  1  0
  2 20  1  0
  2 22  1  0
  3  4  1  0
  3  6  1  0
  3  8  1  0
  3 13  1  0
  4  5  1  0
  4  9  1  0
  5  7  1  0
  5 12  1  0
  6 11  1  0
  6 23  1  0
  7 10  1  0
  7 14  1  0
  8 10  1  0
  9 11  1  0
 12 15  1  0
 14 16  2  0
 14 17  1  0
 15 16  1  0
 16 18  1  0
 23 24  3  0
 17 19  2  0
 18 20  2  0
 19 20  1  0
M  END
> <PUBCHEM_COMPOUND_CID>
5991

> <PUBCHEM_CONFORMER_RMSD>
0.6

> <PUBCHEM_CONFORMER_DIVERSEORDER>
1

> <PUBCHEM_MMFF94_PARTIAL_CHARGES>
19
1 -0.68
14 -0.14
15 0.14
16 -0.14
17 -0.2
18 -0.15
19 -0.15
2 -0.53
20 -0.15
21 0.08
22 -0.18
41 0.4
42 0.15
43 0.15
44 0.15
45 0.18
46 0.45
6 0.48
7 0.14

> <PUBCHEM_EFFECTIVE_ROTOR_COUNT>
1.4

> <PUBCHEM_PHARMACOPHORE_FEATURES>
8
1 1 acceptor
1 1 donor
1 2 donor
1 22 hydrophobe
5 3 4 6 9 11 rings
6 14 16 18 19 20 21 rings
6 3 4 5 7 8 10 rings
6 5 7 12 14 15 16 rings

> <PUBCHEM_HEAVY_ATOM_COUNT>
22

> <PUBCHEM_ATOM_DEF_STEREO_COUNT>
5

> <PUBCHEM_ATOM_UDEF_STEREO_COUNT>
0

> <PUBCHEM_BOND_DEF_STEREO_COUNT>
0

> <PUBCHEM_BOND_UDEF_STEREO_COUNT>
0

> <PUBCHEM_ISOTOPIC_ATOM_COUNT>
0

> <PUBCHEM_COMPONENT_COUNT>
1

> <PUBCHEM_CACTVS_TAUTO_COUNT>
9

> <PUBCHEM_CONFORMER_ID>
0000176700000001

> <PUBCHEM_MMFF94_ENERGY>
75.3654

> <PUBCHEM_FEATURE_SELFOVERLAP>
40.689

> <PUBCHEM_SHAPE_FINGERPRINT>
10498660 4 18334565854482978588
10616163 171 18412261769892000550
10906281 52 18268729332496851400
10967382 1 18409163299196382730
11132069 177 18260823830106114581
11315181 36 17846777438100329984
11552529 35 18058445585631877095
11578080 2 16952518088400902894
11796584 16 15123796154675551020
12107183 9 17697047933183828707
12236239 1 17917992754997443209
12403259 415 18260540148118003532
12403814 3 17531241756051219503
12633257 1 18411416168188185458
12644460 14 18260827060354363322
12788726 201 17059505002047033793
128620 24 17385724690407290772
13140716 1 18264499557760559337
13224815 77 18408318891198213202
13675066 3 17749393654488776519
14790565 3 18338806709892665688
15163728 17 15481289097577292713
15183329 4 18408605830407435614
15196674 1 18337388339818468438
15209289 33 18341332270467662817
15209294 21 18059584555192331817
15309172 13 18409451371427638915
15536298 74 18341610425830279326
15788980 27 17749105603943632888
16945 1 18265320738190372627
17349148 13 18114176445825312880
1813 80 17530976782159466655
18186145 218 18409161126111612646
19489759 90 15410896249631894657
19591789 44 18193273216009210722
200 152 17918273168974754922
21033648 29 17968079933063946356
21267235 1 18338240469814837151
21623110 236 18263368155990106261
23402539 116 18410566319162361766
23402655 69 18201721773563375622
23559900 14 18341325700027887232
335352 9 18410007719541319564
34934 24 18335695014618288215
350125 39 18408603674022772468
3545911 37 18408602569419241710
3680242 22 18335416829913620042
4214541 1 18412824715549947695
474 4 18408605889666299408
5104073 3 18339077194179428906
542803 24 17561084709247609168
59755656 215 18335983078396721054
633830 44 18202282537272954908
9709674 26 18410014338397756278

> <PUBCHEM_SHAPE_MULTIPOLES>
441.01
10.64
2.03
1.22
7.18
0.55
-0.05
-1.94
-1.01
0.21
-0.15
-1.94
-0.33
-0.49

> <PUBCHEM_SHAPE_SELFOVERLAP>
961.464

> <PUBCHEM_SHAPE_VOLUME>
238.8

> <PUBCHEM_COORDINATE_TYPE>
2
5
10

> <Energy>
61.5647

> <minimizedAffinity>
42.25455

> <CNNscore>
0.1060062125

> <CNNaffinity>
4.4028553963

> <CNN_VS>
0.4667300284

> <CNNaffinity_variance>
0.0950148329

$$$$
