5757


 22 25  0  0  0  0  0  0  0  0999 V2000
   26.7271    4.2653   10.7473 O   0  0  0  0  0  0  0  0  0  0  0  0
   19.5020    4.1512    2.5022 O   0  0  0  0  0  0  0  0  0  0  0  0
   24.9463    3.9460    9.0720 C   0  0  0  0  0  0  0  0  0  0  0  0
   23.8018    2.9131    9.0420 C   0  0  0  0  0  0  0  0  0  0  0  0
   22.7289    3.2703    8.0136 C   0  0  0  0  0  0  0  0  0  0  0  0
   23.3799    3.2835    6.5971 C   0  0  0  0  0  0  0  0  0  0  0  0
   25.7896    3.3497   10.2155 C   0  0  0  0  0  0  0  0  0  0  0  0
   25.6280    3.9427    7.6984 C   0  0  0  0  0  0  0  0  0  0  0  0
   23.4122    2.7718   10.5107 C   0  0  0  0  0  0  0  0  0  0  0  0
   24.6247    4.2110    6.5598 C   0  0  0  0  0  0  0  0  0  0  0  0
   24.7452    2.9247   11.2661 C   0  0  0  0  0  0  0  0  0  0  0  0
   21.5606    2.2825    8.0144 C   0  0  0  0  0  0  0  0  0  0  0  0
   24.5086    5.3912    9.4225 C   0  0  0  0  0  0  0  0  0  0  0  0
   22.3385    3.5520    5.5119 C   0  0  0  0  0  0  0  0  0  0  0  0
   20.4638    2.7733    7.0724 C   0  0  0  0  0  0  0  0  0  0  0  0
   20.9740    3.2652    5.7376 C   0  0  0  0  0  0  0  0  0  0  0  0
   22.7209    4.0033    4.2358 C   0  0  0  0  0  0  0  0  0  0  0  0
   20.0328    3.4860    4.7148 C   0  0  0  0  0  0  0  0  0  0  0  0
   21.7794    4.2093    3.2246 C   0  0  0  0  0  0  0  0  0  0  0  0
   20.4410    3.9540    3.4724 C   0  0  0  0  0  0  0  0  0  0  0  0
   27.3663    4.5094   10.0598 H   0  0  0  0  0  0  0  0  0  0  0  0
   18.5993    3.9751    2.6811 H   0  0  0  0  0  0  0  0  0  0  0  0
  1  7  1  0
  1 21  1  0
  2 20  1  0
  2 22  1  0
  3  4  1  0
  3  7  1  0
  3  8  1  0
  3 13  1  0
  4  5  1  0
  4  9  1  0
  5  6  1  0
  5 12  1  0
  6 10  1  0
  6 14  1  0
  7 11  1  0
  8 10  1  0
  9 11  1  0
 12 15  1  0
 14 16  2  0
 14 17  1  0
 15 16  1  0
 16 18  1  0
 17 19  2  0
 18 20  2  0
 19 20  1  0
M  END
> <PUBCHEM_COMPOUND_CID>
5757

> <PUBCHEM_CONFORMER_RMSD>
0.6

> <PUBCHEM_CONFORMER_DIVERSEORDER>
1

> <PUBCHEM_MMFF94_PARTIAL_CHARGES>
16
1 -0.68
14 -0.14
15 0.14
16 -0.14
17 -0.15
18 -0.15
19 -0.15
2 -0.53
20 0.08
40 0.4
41 0.15
42 0.15
43 0.15
44 0.45
6 0.14
7 0.28

> <PUBCHEM_EFFECTIVE_ROTOR_COUNT>
1.4

> <PUBCHEM_PHARMACOPHORE_FEATURES>
7
1 1 acceptor
1 1 donor
1 2 donor
5 3 4 7 9 11 rings
6 14 16 17 18 19 20 rings
6 3 4 5 6 8 10 rings
6 5 6 12 14 15 16 rings

> <PUBCHEM_HEAVY_ATOM_COUNT>
20

> <PUBCHEM_ATOM_DEF_STEREO_COUNT>
5

> <PUBCHEM_ATOM_UDEF_STEREO_COUNT>
0

> <PUBCHEM_BOND_DEF_STEREO_COUNT>
0

> <PUBCHEM_BOND_UDEF_STEREO_COUNT>
0

> <PUBCHEM_ISOTOPIC_ATOM_COUNT>
0

> <PUBCHEM_COMPONENT_COUNT>
1

> <PUBCHEM_CACTVS_TAUTO_COUNT>
9

> <PUBCHEM_CONFORMER_ID>
0000167D00000001

> <PUBCHEM_MMFF94_ENERGY>
68.4596

> <PUBCHEM_FEATURE_SELFOVERLAP>
35.62

> <PUBCHEM_SHAPE_FINGERPRINT>
10 15 18262512710780645640
10411042 1 16969703283687688743
10616163 171 18338239395883154686
10967382 1 18410012100429229070
11132069 177 18409162216832884669
11578080 2 17201347718505248258
12011746 2 18410859841042374310
12107183 9 17690845558000159065
12236239 1 13470690338792453460
12251169 10 18335139816864396069
12403259 415 18410852127603240605
12403814 3 17530960289353343621
12500047 106 18271238421624861530
12592029 89 18334859377112304987
12788726 201 17703518696578858128
128620 24 11818992989152349105
13140716 1 18192429898953651512
13533116 47 17846218813073552003
13544592 145 18272379637759764926
13675066 3 18341893012844745609
14178342 30 18123731313450613666
14341114 176 18409738343777605753
14866123 147 17046555868986690930
15042514 8 18263932206156989787
15196674 1 18410012108982090935
15256400 18 18410857620686823693
15295992 7 17845930826899781123
15536298 74 18413671296627645270
1601671 61 18409168826940819996
16945 1 18266170819592368622
17349148 13 18412820287929204701
17804303 29 18410296916890392117
1813 80 16950285091842931756
18186145 218 17417805158171412875
19141452 34 18413108389914235807
192875 21 13830133918406568194
19591789 44 18192993725128068838
200 152 18131627885965453901
20028762 73 18272929458099065015
20261772 1 18410856577167961319
20510252 161 18341895147623301209
20645477 70 18200878374956666302
21033648 29 18271512131406579929
21267235 1 18337399244825179854
21279426 13 18124035632930519374
21421861 104 17895744090149736410
22854114 59 18412546505207311417
22892500 29 17274814788166584896
23184049 59 18410576175690384255
23402539 116 18342170081765240151
23557571 272 17773880972535682807
23558518 356 17682680979747269074
23559900 14 18413389822146813342
2748010 2 18337666399911122230
3004659 81 18260835844047909814
335352 9 18410013195572088855
34934 24 18411133675799850702
350125 39 18409735045496469133
351380 180 18409730664571278687
3545911 37 18411703192367818988
4214541 1 18409167684326479901
465052 167 17967541176940287083
495365 180 17346587600050392546
5104073 3 18409449150412323065
542803 24 17346883342628774985
59755656 215 18335983048405458773
69090 78 18341891905091661271
77779 3 18409450271409361990
7832392 63 18341046427736201710
9709674 26 18410862087368844367
9999458 23 17967819357476725574

> <PUBCHEM_SHAPE_MULTIPOLES>
399.85
9.72
2.11
0.84
3.73
0.39
0.22
-1.2
1.2
-0.24
-0.15
-0.38
-0.13
0.32

> <PUBCHEM_SHAPE_SELFOVERLAP>
871.414

> <PUBCHEM_SHAPE_VOLUME>
217.1

> <PUBCHEM_COORDINATE_TYPE>
2
5
10

> <Energy>
58.4396

> <minimizedAffinity>
-11.02433

> <CNNscore>
0.9623548985

> <CNNaffinity>
8.2306356430

> <CNN_VS>
7.9207925797

> <CNNaffinity_variance>
1.0273030996

$$$$
5757


 22 25  0  0  0  0  0  0  0  0999 V2000
   27.6692    5.2163    9.4759 O   0  0  0  0  0  0  0  0  0  0  0  0
   19.3515    3.7377    2.4884 O   0  0  0  0  0  0  0  0  0  0  0  0
   25.6424    4.6772    8.1793 C   0  0  0  0  0  0  0  0  0  0  0  0
   24.4108    3.8434    8.5861 C   0  0  0  0  0  0  0  0  0  0  0  0
   23.2403    4.0346    7.6219 C   0  0  0  0  0  0  0  0  0  0  0  0
   23.6779    3.5557    6.2043 C   0  0  0  0  0  0  0  0  0  0  0  0
   26.5802    4.3229    9.3493 C   0  0  0  0  0  0  0  0  0  0  0  0
   26.1149    4.1906    6.8039 C   0  0  0  0  0  0  0  0  0  0  0  0
   24.2258    4.1804   10.0630 C   0  0  0  0  0  0  0  0  0  0  0  0
   24.9883    4.2567    5.7544 C   0  0  0  0  0  0  0  0  0  0  0  0
   25.6624    4.3602   10.5869 C   0  0  0  0  0  0  0  0  0  0  0  0
   21.9941    3.2556    8.0470 C   0  0  0  0  0  0  0  0  0  0  0  0
   25.4024    6.2078    8.1257 C   0  0  0  0  0  0  0  0  0  0  0  0
   22.5215    3.6424    5.2095 C   0  0  0  0  0  0  0  0  0  0  0  0
   20.8255    3.6016    7.1273 C   0  0  0  0  0  0  0  0  0  0  0  0
   21.1826    3.6191    5.6589 C   0  0  0  0  0  0  0  0  0  0  0  0
   22.7575    3.6555    3.8230 C   0  0  0  0  0  0  0  0  0  0  0  0
   20.1295    3.6648    4.7265 C   0  0  0  0  0  0  0  0  0  0  0  0
   21.7042    3.6903    2.9061 C   0  0  0  0  0  0  0  0  0  0  0  0
   20.3972    3.6998    3.3642 C   0  0  0  0  0  0  0  0  0  0  0  0
   28.2230    5.1656    8.6811 H   0  0  0  0  0  0  0  0  0  0  0  0
   18.4713    3.7438    2.8097 H   0  0  0  0  0  0  0  0  0  0  0  0
  1  7  1  0
  1 21  1  0
  2 20  1  0
  2 22  1  0
  3  4  1  0
  3  7  1  0
  3  8  1  0
  3 13  1  0
  4  5  1  0
  4  9  1  0
  5  6  1  0
  5 12  1  0
  6 10  1  0
  6 14  1  0
  7 11  1  0
  8 10  1  0
  9 11  1  0
 12 15  1  0
 14 16  2  0
 14 17  1  0
 15 16  1  0
 16 18  1  0
 17 19  2  0
 18 20  2  0
 19 20  1  0
M  END
> <PUBCHEM_COMPOUND_CID>
5757

> <PUBCHEM_CONFORMER_RMSD>
0.6

> <PUBCHEM_CONFORMER_DIVERSEORDER>
1

> <PUBCHEM_MMFF94_PARTIAL_CHARGES>
16
1 -0.68
14 -0.14
15 0.14
16 -0.14
17 -0.15
18 -0.15
19 -0.15
2 -0.53
20 0.08
40 0.4
41 0.15
42 0.15
43 0.15
44 0.45
6 0.14
7 0.28

> <PUBCHEM_EFFECTIVE_ROTOR_COUNT>
1.4

> <PUBCHEM_PHARMACOPHORE_FEATURES>
7
1 1 acceptor
1 1 donor
1 2 donor
5 3 4 7 9 11 rings
6 14 16 17 18 19 20 rings
6 3 4 5 6 8 10 rings
6 5 6 12 14 15 16 rings

> <PUBCHEM_HEAVY_ATOM_COUNT>
20

> <PUBCHEM_ATOM_DEF_STEREO_COUNT>
5

> <PUBCHEM_ATOM_UDEF_STEREO_COUNT>
0

> <PUBCHEM_BOND_DEF_STEREO_COUNT>
0

> <PUBCHEM_BOND_UDEF_STEREO_COUNT>
0

> <PUBCHEM_ISOTOPIC_ATOM_COUNT>
0

> <PUBCHEM_COMPONENT_COUNT>
1

> <PUBCHEM_CACTVS_TAUTO_COUNT>
9

> <PUBCHEM_CONFORMER_ID>
0000167D00000001

> <PUBCHEM_MMFF94_ENERGY>
68.4596

> <PUBCHEM_FEATURE_SELFOVERLAP>
35.62

> <PUBCHEM_SHAPE_FINGERPRINT>
10 15 18262512710780645640
10411042 1 16969703283687688743
10616163 171 18338239395883154686
10967382 1 18410012100429229070
11132069 177 18409162216832884669
11578080 2 17201347718505248258
12011746 2 18410859841042374310
12107183 9 17690845558000159065
12236239 1 13470690338792453460
12251169 10 18335139816864396069
12403259 415 18410852127603240605
12403814 3 17530960289353343621
12500047 106 18271238421624861530
12592029 89 18334859377112304987
12788726 201 17703518696578858128
128620 24 11818992989152349105
13140716 1 18192429898953651512
13533116 47 17846218813073552003
13544592 145 18272379637759764926
13675066 3 18341893012844745609
14178342 30 18123731313450613666
14341114 176 18409738343777605753
14866123 147 17046555868986690930
15042514 8 18263932206156989787
15196674 1 18410012108982090935
15256400 18 18410857620686823693
15295992 7 17845930826899781123
15536298 74 18413671296627645270
1601671 61 18409168826940819996
16945 1 18266170819592368622
17349148 13 18412820287929204701
17804303 29 18410296916890392117
1813 80 16950285091842931756
18186145 218 17417805158171412875
19141452 34 18413108389914235807
192875 21 13830133918406568194
19591789 44 18192993725128068838
200 152 18131627885965453901
20028762 73 18272929458099065015
20261772 1 18410856577167961319
20510252 161 18341895147623301209
20645477 70 18200878374956666302
21033648 29 18271512131406579929
21267235 1 18337399244825179854
21279426 13 18124035632930519374
21421861 104 17895744090149736410
22854114 59 18412546505207311417
22892500 29 17274814788166584896
23184049 59 18410576175690384255
23402539 116 18342170081765240151
23557571 272 17773880972535682807
23558518 356 17682680979747269074
23559900 14 18413389822146813342
2748010 2 18337666399911122230
3004659 81 18260835844047909814
335352 9 18410013195572088855
34934 24 18411133675799850702
350125 39 18409735045496469133
351380 180 18409730664571278687
3545911 37 18411703192367818988
4214541 1 18409167684326479901
465052 167 17967541176940287083
495365 180 17346587600050392546
5104073 3 18409449150412323065
542803 24 17346883342628774985
59755656 215 18335983048405458773
69090 78 18341891905091661271
77779 3 18409450271409361990
7832392 63 18341046427736201710
9709674 26 18410862087368844367
9999458 23 17967819357476725574

> <PUBCHEM_SHAPE_MULTIPOLES>
399.85
9.72
2.11
0.84
3.73
0.39
0.22
-1.2
1.2
-0.24
-0.15
-0.38
-0.13
0.32

> <PUBCHEM_SHAPE_SELFOVERLAP>
871.414

> <PUBCHEM_SHAPE_VOLUME>
217.1

> <PUBCHEM_COORDINATE_TYPE>
2
5
10

> <Energy>
58.4396

> <minimizedAffinity>
-10.10687

> <CNNscore>
0.9401962757

> <CNNaffinity>
8.2222604752

> <CNN_VS>
7.7305388451

> <CNNaffinity_variance>
1.3780106306

$$$$
5757


 22 25  0  0  0  0  0  0  0  0999 V2000
   25.6918    3.9955   11.8619 O   0  0  0  0  0  0  0  0  0  0  0  0
   20.0938    3.0955    2.4785 O   0  0  0  0  0  0  0  0  0  0  0  0
   24.7120    3.9967    9.5992 C   0  0  0  0  0  0  0  0  0  0  0  0
   25.2488    4.6268    8.2984 C   0  0  0  0  0  0  0  0  0  0  0  0
   24.5126    4.1126    7.0614 C   0  0  0  0  0  0  0  0  0  0  0  0
   23.0073    4.5010    7.1790 C   0  0  0  0  0  0  0  0  0  0  0  0
   25.6758    4.6500   10.6083 C   0  0  0  0  0  0  0  0  0  0  0  0
   23.2417    4.4038    9.7552 C   0  0  0  0  0  0  0  0  0  0  0  0
   26.7584    4.4309    8.4054 C   0  0  0  0  0  0  0  0  0  0  0  0
   22.4041    4.0102    8.5229 C   0  0  0  0  0  0  0  0  0  0  0  0
   27.0481    4.5827    9.9100 C   0  0  0  0  0  0  0  0  0  0  0  0
   25.0744    4.6887    5.7602 C   0  0  0  0  0  0  0  0  0  0  0  0
   24.8252    2.4522    9.6684 C   0  0  0  0  0  0  0  0  0  0  0  0
   22.2302    4.0880    5.9301 C   0  0  0  0  0  0  0  0  0  0  0  0
   24.3943    4.0289    4.5630 C   0  0  0  0  0  0  0  0  0  0  0  0
   22.8934    3.9120    4.6955 C   0  0  0  0  0  0  0  0  0  0  0  0
   20.8295    3.9621    5.9565 C   0  0  0  0  0  0  0  0  0  0  0  0
   22.1569    3.5653    3.5474 C   0  0  0  0  0  0  0  0  0  0  0  0
   20.1074    3.6277    4.8084 C   0  0  0  0  0  0  0  0  0  0  0  0
   20.7765    3.4267    3.6126 C   0  0  0  0  0  0  0  0  0  0  0  0
   24.8143    4.0582   12.2705 H   0  0  0  0  0  0  0  0  0  0  0  0
   20.5570    2.9618    1.6750 H   0  0  0  0  0  0  0  0  0  0  0  0
  1  7  1  0
  1 21  1  0
  2 20  1  0
  2 22  1  0
  3  4  1  0
  3  7  1  0
  3  8  1  0
  3 13  1  0
  4  5  1  0
  4  9  1  0
  5  6  1  0
  5 12  1  0
  6 10  1  0
  6 14  1  0
  7 11  1  0
  8 10  1  0
  9 11  1  0
 12 15  1  0
 14 16  2  0
 14 17  1  0
 15 16  1  0
 16 18  1  0
 17 19  2  0
 18 20  2  0
 19 20  1  0
M  END
> <PUBCHEM_COMPOUND_CID>
5757

> <PUBCHEM_CONFORMER_RMSD>
0.6

> <PUBCHEM_CONFORMER_DIVERSEORDER>
1

> <PUBCHEM_MMFF94_PARTIAL_CHARGES>
16
1 -0.68
14 -0.14
15 0.14
16 -0.14
17 -0.15
18 -0.15
19 -0.15
2 -0.53
20 0.08
40 0.4
41 0.15
42 0.15
43 0.15
44 0.45
6 0.14
7 0.28

> <PUBCHEM_EFFECTIVE_ROTOR_COUNT>
1.4

> <PUBCHEM_PHARMACOPHORE_FEATURES>
7
1 1 acceptor
1 1 donor
1 2 donor
5 3 4 7 9 11 rings
6 14 16 17 18 19 20 rings
6 3 4 5 6 8 10 rings
6 5 6 12 14 15 16 rings

> <PUBCHEM_HEAVY_ATOM_COUNT>
20

> <PUBCHEM_ATOM_DEF_STEREO_COUNT>
5

> <PUBCHEM_ATOM_UDEF_STEREO_COUNT>
0

> <PUBCHEM_BOND_DEF_STEREO_COUNT>
0

> <PUBCHEM_BOND_UDEF_STEREO_COUNT>
0

> <PUBCHEM_ISOTOPIC_ATOM_COUNT>
0

> <PUBCHEM_COMPONENT_COUNT>
1

> <PUBCHEM_CACTVS_TAUTO_COUNT>
9

> <PUBCHEM_CONFORMER_ID>
0000167D00000001

> <PUBCHEM_MMFF94_ENERGY>
68.4596

> <PUBCHEM_FEATURE_SELFOVERLAP>
35.62

> <PUBCHEM_SHAPE_FINGERPRINT>
10 15 18262512710780645640
10411042 1 16969703283687688743
10616163 171 18338239395883154686
10967382 1 18410012100429229070
11132069 177 18409162216832884669
11578080 2 17201347718505248258
12011746 2 18410859841042374310
12107183 9 17690845558000159065
12236239 1 13470690338792453460
12251169 10 18335139816864396069
12403259 415 18410852127603240605
12403814 3 17530960289353343621
12500047 106 18271238421624861530
12592029 89 18334859377112304987
12788726 201 17703518696578858128
128620 24 11818992989152349105
13140716 1 18192429898953651512
13533116 47 17846218813073552003
13544592 145 18272379637759764926
13675066 3 18341893012844745609
14178342 30 18123731313450613666
14341114 176 18409738343777605753
14866123 147 17046555868986690930
15042514 8 18263932206156989787
15196674 1 18410012108982090935
15256400 18 18410857620686823693
15295992 7 17845930826899781123
15536298 74 18413671296627645270
1601671 61 18409168826940819996
16945 1 18266170819592368622
17349148 13 18412820287929204701
17804303 29 18410296916890392117
1813 80 16950285091842931756
18186145 218 17417805158171412875
19141452 34 18413108389914235807
192875 21 13830133918406568194
19591789 44 18192993725128068838
200 152 18131627885965453901
20028762 73 18272929458099065015
20261772 1 18410856577167961319
20510252 161 18341895147623301209
20645477 70 18200878374956666302
21033648 29 18271512131406579929
21267235 1 18337399244825179854
21279426 13 18124035632930519374
21421861 104 17895744090149736410
22854114 59 18412546505207311417
22892500 29 17274814788166584896
23184049 59 18410576175690384255
23402539 116 18342170081765240151
23557571 272 17773880972535682807
23558518 356 17682680979747269074
23559900 14 18413389822146813342
2748010 2 18337666399911122230
3004659 81 18260835844047909814
335352 9 18410013195572088855
34934 24 18411133675799850702
350125 39 18409735045496469133
351380 180 18409730664571278687
3545911 37 18411703192367818988
4214541 1 18409167684326479901
465052 167 17967541176940287083
495365 180 17346587600050392546
5104073 3 18409449150412323065
542803 24 17346883342628774985
59755656 215 18335983048405458773
69090 78 18341891905091661271
77779 3 18409450271409361990
7832392 63 18341046427736201710
9709674 26 18410862087368844367
9999458 23 17967819357476725574

> <PUBCHEM_SHAPE_MULTIPOLES>
399.85
9.72
2.11
0.84
3.73
0.39
0.22
-1.2
1.2
-0.24
-0.15
-0.38
-0.13
0.32

> <PUBCHEM_SHAPE_SELFOVERLAP>
871.414

> <PUBCHEM_SHAPE_VOLUME>
217.1

> <PUBCHEM_COORDINATE_TYPE>
2
5
10

> <Energy>
58.4396

> <minimizedAffinity>
-10.36944

> <CNNscore>
0.8051038980

> <CNNaffinity>
7.8712019920

> <CNN_VS>
6.3371353149

> <CNNaffinity_variance>
0.7641737461

$$$$
5757


 22 25  0  0  0  0  0  0  0  0999 V2000
   20.7894    4.4782    2.8662 O   0  0  0  0  0  0  0  0  0  0  0  0
   28.0187    4.1973   11.1035 O   0  0  0  0  0  0  0  0  0  0  0  0
   22.1177    4.3406    4.9390 C   0  0  0  0  0  0  0  0  0  0  0  0
   21.6585    4.0396    6.3798 C   0  0  0  0  0  0  0  0  0  0  0  0
   22.8324    3.7170    7.3042 C   0  0  0  0  0  0  0  0  0  0  0  0
   23.7744    4.9577    7.3663 C   0  0  0  0  0  0  0  0  0  0  0  0
   20.7416    4.5491    4.2778 C   0  0  0  0  0  0  0  0  0  0  0  0
   23.0120    5.5858    4.9735 C   0  0  0  0  0  0  0  0  0  0  0  0
   20.5498    3.0080    6.1912 C   0  0  0  0  0  0  0  0  0  0  0  0
   24.1971    5.4136    5.9435 C   0  0  0  0  0  0  0  0  0  0  0  0
   19.8667    3.4312    4.8779 C   0  0  0  0  0  0  0  0  0  0  0  0
   22.3841    3.3617    8.7231 C   0  0  0  0  0  0  0  0  0  0  0  0
   22.8792    3.1828    4.2441 C   0  0  0  0  0  0  0  0  0  0  0  0
   24.9268    4.7291    8.3432 C   0  0  0  0  0  0  0  0  0  0  0  0
   23.5857    2.9130    9.5512 C   0  0  0  0  0  0  0  0  0  0  0  0
   24.8046    3.7924    9.3933 C   0  0  0  0  0  0  0  0  0  0  0  0
   26.0975    5.5059    8.2777 C   0  0  0  0  0  0  0  0  0  0  0  0
   25.8627    3.6196   10.3049 C   0  0  0  0  0  0  0  0  0  0  0  0
   27.1374    5.3330    9.1943 C   0  0  0  0  0  0  0  0  0  0  0  0
   27.0151    4.3875   10.1988 C   0  0  0  0  0  0  0  0  0  0  0  0
   21.3471    5.1948    2.5252 H   0  0  0  0  0  0  0  0  0  0  0  0
   27.9250    3.5547   11.7789 H   0  0  0  0  0  0  0  0  0  0  0  0
  1  7  1  0
  1 21  1  0
  2 20  1  0
  2 22  1  0
  3  4  1  0
  3  7  1  0
  3  8  1  0
  3 13  1  0
  4  5  1  0
  4  9  1  0
  5  6  1  0
  5 12  1  0
  6 10  1  0
  6 14  1  0
  7 11  1  0
  8 10  1  0
  9 11  1  0
 12 15  1  0
 14 16  2  0
 14 17  1  0
 15 16  1  0
 16 18  1  0
 17 19  2  0
 18 20  2  0
 19 20  1  0
M  END
> <PUBCHEM_COMPOUND_CID>
5757

> <PUBCHEM_CONFORMER_RMSD>
0.6

> <PUBCHEM_CONFORMER_DIVERSEORDER>
1

> <PUBCHEM_MMFF94_PARTIAL_CHARGES>
16
1 -0.68
14 -0.14
15 0.14
16 -0.14
17 -0.15
18 -0.15
19 -0.15
2 -0.53
20 0.08
40 0.4
41 0.15
42 0.15
43 0.15
44 0.45
6 0.14
7 0.28

> <PUBCHEM_EFFECTIVE_ROTOR_COUNT>
1.4

> <PUBCHEM_PHARMACOPHORE_FEATURES>
7
1 1 acceptor
1 1 donor
1 2 donor
5 3 4 7 9 11 rings
6 14 16 17 18 19 20 rings
6 3 4 5 6 8 10 rings
6 5 6 12 14 15 16 rings

> <PUBCHEM_HEAVY_ATOM_COUNT>
20

> <PUBCHEM_ATOM_DEF_STEREO_COUNT>
5

> <PUBCHEM_ATOM_UDEF_STEREO_COUNT>
0

> <PUBCHEM_BOND_DEF_STEREO_COUNT>
0

> <PUBCHEM_BOND_UDEF_STEREO_COUNT>
0

> <PUBCHEM_ISOTOPIC_ATOM_COUNT>
0

> <PUBCHEM_COMPONENT_COUNT>
1

> <PUBCHEM_CACTVS_TAUTO_COUNT>
9

> <PUBCHEM_CONFORMER_ID>
0000167D00000001

> <PUBCHEM_MMFF94_ENERGY>
68.4596

> <PUBCHEM_FEATURE_SELFOVERLAP>
35.62

> <PUBCHEM_SHAPE_FINGERPRINT>
10 15 18262512710780645640
10411042 1 16969703283687688743
10616163 171 18338239395883154686
10967382 1 18410012100429229070
11132069 177 18409162216832884669
11578080 2 17201347718505248258
12011746 2 18410859841042374310
12107183 9 17690845558000159065
12236239 1 13470690338792453460
12251169 10 18335139816864396069
12403259 415 18410852127603240605
12403814 3 17530960289353343621
12500047 106 18271238421624861530
12592029 89 18334859377112304987
12788726 201 17703518696578858128
128620 24 11818992989152349105
13140716 1 18192429898953651512
13533116 47 17846218813073552003
13544592 145 18272379637759764926
13675066 3 18341893012844745609
14178342 30 18123731313450613666
14341114 176 18409738343777605753
14866123 147 17046555868986690930
15042514 8 18263932206156989787
15196674 1 18410012108982090935
15256400 18 18410857620686823693
15295992 7 17845930826899781123
15536298 74 18413671296627645270
1601671 61 18409168826940819996
16945 1 18266170819592368622
17349148 13 18412820287929204701
17804303 29 18410296916890392117
1813 80 16950285091842931756
18186145 218 17417805158171412875
19141452 34 18413108389914235807
192875 21 13830133918406568194
19591789 44 18192993725128068838
200 152 18131627885965453901
20028762 73 18272929458099065015
20261772 1 18410856577167961319
20510252 161 18341895147623301209
20645477 70 18200878374956666302
21033648 29 18271512131406579929
21267235 1 18337399244825179854
21279426 13 18124035632930519374
21421861 104 17895744090149736410
22854114 59 18412546505207311417
22892500 29 17274814788166584896
23184049 59 18410576175690384255
23402539 116 18342170081765240151
23557571 272 17773880972535682807
23558518 356 17682680979747269074
23559900 14 18413389822146813342
2748010 2 18337666399911122230
3004659 81 18260835844047909814
335352 9 18410013195572088855
34934 24 18411133675799850702
350125 39 18409735045496469133
351380 180 18409730664571278687
3545911 37 18411703192367818988
4214541 1 18409167684326479901
465052 167 17967541176940287083
495365 180 17346587600050392546
5104073 3 18409449150412323065
542803 24 17346883342628774985
59755656 215 18335983048405458773
69090 78 18341891905091661271
77779 3 18409450271409361990
7832392 63 18341046427736201710
9709674 26 18410862087368844367
9999458 23 17967819357476725574

> <PUBCHEM_SHAPE_MULTIPOLES>
399.85
9.72
2.11
0.84
3.73
0.39
0.22
-1.2
1.2
-0.24
-0.15
-0.38
-0.13
0.32

> <PUBCHEM_SHAPE_SELFOVERLAP>
871.414

> <PUBCHEM_SHAPE_VOLUME>
217.1

> <PUBCHEM_COORDINATE_TYPE>
2
5
10

> <Energy>
58.4396

> <minimizedAffinity>
-8.79137

> <CNNscore>
0.6048497558

> <CNNaffinity>
7.6361498833

> <CNN_VS>
4.6187233925

> <CNNaffinity_variance>
0.7896062732

$$$$
5757


 22 25  0  0  0  0  0  0  0  0999 V2000
   22.8183    0.6148   11.1003 O   0  0  0  0  0  0  0  0  0  0  0  0
   22.9170    5.0340    1.0675 O   0  0  0  0  0  0  0  0  0  0  0  0
   23.0597    1.8762    8.9955 C   0  0  0  0  0  0  0  0  0  0  0  0
   23.8529    3.1676    8.7116 C   0  0  0  0  0  0  0  0  0  0  0  0
   24.0147    3.4281    7.2141 C   0  0  0  0  0  0  0  0  0  0  0  0
   22.6002    3.6031    6.5822 C   0  0  0  0  0  0  0  0  0  0  0  0
   23.1342    1.8718   10.5345 C   0  0  0  0  0  0  0  0  0  0  0  0
   21.6491    2.0460    8.4185 C   0  0  0  0  0  0  0  0  0  0  0  0
   25.0965    3.0197    9.5835 C   0  0  0  0  0  0  0  0  0  0  0  0
   21.6819    2.3970    6.9183 C   0  0  0  0  0  0  0  0  0  0  0  0
   24.5868    2.2876   10.8384 C   0  0  0  0  0  0  0  0  0  0  0  0
   24.8482    4.6769    6.9205 C   0  0  0  0  0  0  0  0  0  0  0  0
   23.6950    0.5837    8.4218 C   0  0  0  0  0  0  0  0  0  0  0  0
   22.6966    3.9509    5.0976 C   0  0  0  0  0  0  0  0  0  0  0  0
   25.0913    4.7986    5.4181 C   0  0  0  0  0  0  0  0  0  0  0  0
   23.8619    4.5536    4.5741 C   0  0  0  0  0  0  0  0  0  0  0  0
   21.6000    3.7649    4.2367 C   0  0  0  0  0  0  0  0  0  0  0  0
   23.9204    4.8992    3.2111 C   0  0  0  0  0  0  0  0  0  0  0  0
   21.6655    4.1212    2.8876 C   0  0  0  0  0  0  0  0  0  0  0  0
   22.8271    4.6813    2.3827 C   0  0  0  0  0  0  0  0  0  0  0  0
   21.8994    0.3869   10.8891 H   0  0  0  0  0  0  0  0  0  0  0  0
   23.7079    5.4121    0.7369 H   0  0  0  0  0  0  0  0  0  0  0  0
  1  7  1  0
  1 21  1  0
  2 20  1  0
  2 22  1  0
  3  4  1  0
  3  7  1  0
  3  8  1  0
  3 13  1  0
  4  5  1  0
  4  9  1  0
  5  6  1  0
  5 12  1  0
  6 10  1  0
  6 14  1  0
  7 11  1  0
  8 10  1  0
  9 11  1  0
 12 15  1  0
 14 16  2  0
 14 17  1  0
 15 16  1  0
 16 18  1  0
 17 19  2  0
 18 20  2  0
 19 20  1  0
M  END
> <PUBCHEM_COMPOUND_CID>
5757

> <PUBCHEM_CONFORMER_RMSD>
0.6

> <PUBCHEM_CONFORMER_DIVERSEORDER>
1

> <PUBCHEM_MMFF94_PARTIAL_CHARGES>
16
1 -0.68
14 -0.14
15 0.14
16 -0.14
17 -0.15
18 -0.15
19 -0.15
2 -0.53
20 0.08
40 0.4
41 0.15
42 0.15
43 0.15
44 0.45
6 0.14
7 0.28

> <PUBCHEM_EFFECTIVE_ROTOR_COUNT>
1.4

> <PUBCHEM_PHARMACOPHORE_FEATURES>
7
1 1 acceptor
1 1 donor
1 2 donor
5 3 4 7 9 11 rings
6 14 16 17 18 19 20 rings
6 3 4 5 6 8 10 rings
6 5 6 12 14 15 16 rings

> <PUBCHEM_HEAVY_ATOM_COUNT>
20

> <PUBCHEM_ATOM_DEF_STEREO_COUNT>
5

> <PUBCHEM_ATOM_UDEF_STEREO_COUNT>
0

> <PUBCHEM_BOND_DEF_STEREO_COUNT>
0

> <PUBCHEM_BOND_UDEF_STEREO_COUNT>
0

> <PUBCHEM_ISOTOPIC_ATOM_COUNT>
0

> <PUBCHEM_COMPONENT_COUNT>
1

> <PUBCHEM_CACTVS_TAUTO_COUNT>
9

> <PUBCHEM_CONFORMER_ID>
0000167D00000001

> <PUBCHEM_MMFF94_ENERGY>
68.4596

> <PUBCHEM_FEATURE_SELFOVERLAP>
35.62

> <PUBCHEM_SHAPE_FINGERPRINT>
10 15 18262512710780645640
10411042 1 16969703283687688743
10616163 171 18338239395883154686
10967382 1 18410012100429229070
11132069 177 18409162216832884669
11578080 2 17201347718505248258
12011746 2 18410859841042374310
12107183 9 17690845558000159065
12236239 1 13470690338792453460
12251169 10 18335139816864396069
12403259 415 18410852127603240605
12403814 3 17530960289353343621
12500047 106 18271238421624861530
12592029 89 18334859377112304987
12788726 201 17703518696578858128
128620 24 11818992989152349105
13140716 1 18192429898953651512
13533116 47 17846218813073552003
13544592 145 18272379637759764926
13675066 3 18341893012844745609
14178342 30 18123731313450613666
14341114 176 18409738343777605753
14866123 147 17046555868986690930
15042514 8 18263932206156989787
15196674 1 18410012108982090935
15256400 18 18410857620686823693
15295992 7 17845930826899781123
15536298 74 18413671296627645270
1601671 61 18409168826940819996
16945 1 18266170819592368622
17349148 13 18412820287929204701
17804303 29 18410296916890392117
1813 80 16950285091842931756
18186145 218 17417805158171412875
19141452 34 18413108389914235807
192875 21 13830133918406568194
19591789 44 18192993725128068838
200 152 18131627885965453901
20028762 73 18272929458099065015
20261772 1 18410856577167961319
20510252 161 18341895147623301209
20645477 70 18200878374956666302
21033648 29 18271512131406579929
21267235 1 18337399244825179854
21279426 13 18124035632930519374
21421861 104 17895744090149736410
22854114 59 18412546505207311417
22892500 29 17274814788166584896
23184049 59 18410576175690384255
23402539 116 18342170081765240151
23557571 272 17773880972535682807
23558518 356 17682680979747269074
23559900 14 18413389822146813342
2748010 2 18337666399911122230
3004659 81 18260835844047909814
335352 9 18410013195572088855
34934 24 18411133675799850702
350125 39 18409735045496469133
351380 180 18409730664571278687
3545911 37 18411703192367818988
4214541 1 18409167684326479901
465052 167 17967541176940287083
495365 180 17346587600050392546
5104073 3 18409449150412323065
542803 24 17346883342628774985
59755656 215 18335983048405458773
69090 78 18341891905091661271
77779 3 18409450271409361990
7832392 63 18341046427736201710
9709674 26 18410862087368844367
9999458 23 17967819357476725574

> <PUBCHEM_SHAPE_MULTIPOLES>
399.85
9.72
2.11
0.84
3.73
0.39
0.22
-1.2
1.2
-0.24
-0.15
-0.38
-0.13
0.32

> <PUBCHEM_SHAPE_SELFOVERLAP>
871.414

> <PUBCHEM_SHAPE_VOLUME>
217.1

> <PUBCHEM_COORDINATE_TYPE>
2
5
10

> <Energy>
58.4396

> <minimizedAffinity>
-3.47673

> <CNNscore>
0.5574642420

> <CNNaffinity>
7.4290766716

> <CNN_VS>
4.1414446831

> <CNNaffinity_variance>
1.0758333206

$$$$
5757


 22 25  0  0  0  0  0  0  0  0999 V2000
   19.6701    3.6007    2.7561 O   0  0  0  0  0  0  0  0  0  0  0  0
   25.8417    4.2611   11.7933 O   0  0  0  0  0  0  0  0  0  0  0  0
   21.3329    3.6003    4.5767 C   0  0  0  0  0  0  0  0  0  0  0  0
   22.8059    3.1446    4.5595 C   0  0  0  0  0  0  0  0  0  0  0  0
   23.5722    3.6220    5.7929 C   0  0  0  0  0  0  0  0  0  0  0  0
   22.9096    3.0050    7.0621 C   0  0  0  0  0  0  0  0  0  0  0  0
   20.8816    3.0348    3.2164 C   0  0  0  0  0  0  0  0  0  0  0  0
   20.6518    2.9675    5.7963 C   0  0  0  0  0  0  0  0  0  0  0  0
   23.2895    3.5578    3.1724 C   0  0  0  0  0  0  0  0  0  0  0  0
   21.3879    3.3105    7.1061 C   0  0  0  0  0  0  0  0  0  0  0  0
   22.0573    3.3531    2.2720 C   0  0  0  0  0  0  0  0  0  0  0  0
   25.0488    3.2234    5.7594 C   0  0  0  0  0  0  0  0  0  0  0  0
   21.1282    5.1364    4.6162 C   0  0  0  0  0  0  0  0  0  0  0  0
   23.6827    3.3773    8.3263 C   0  0  0  0  0  0  0  0  0  0  0  0
   25.7838    3.8503    6.9417 C   0  0  0  0  0  0  0  0  0  0  0  0
   25.0482    3.7314    8.2565 C   0  0  0  0  0  0  0  0  0  0  0  0
   23.0825    3.2892    9.5953 C   0  0  0  0  0  0  0  0  0  0  0  0
   25.7540    4.0378    9.4349 C   0  0  0  0  0  0  0  0  0  0  0  0
   23.7955    3.5856   10.7594 C   0  0  0  0  0  0  0  0  0  0  0  0
   25.1252    3.9627   10.6710 C   0  0  0  0  0  0  0  0  0  0  0  0
   18.9552    3.3803    3.3735 H   0  0  0  0  0  0  0  0  0  0  0  0
   26.7407    4.5151   11.7215 H   0  0  0  0  0  0  0  0  0  0  0  0
  1  7  1  0
  1 21  1  0
  2 20  1  0
  2 22  1  0
  3  4  1  0
  3  7  1  0
  3  8  1  0
  3 13  1  0
  4  5  1  0
  4  9  1  0
  5  6  1  0
  5 12  1  0
  6 10  1  0
  6 14  1  0
  7 11  1  0
  8 10  1  0
  9 11  1  0
 12 15  1  0
 14 16  2  0
 14 17  1  0
 15 16  1  0
 16 18  1  0
 17 19  2  0
 18 20  2  0
 19 20  1  0
M  END
> <PUBCHEM_COMPOUND_CID>
5757

> <PUBCHEM_CONFORMER_RMSD>
0.6

> <PUBCHEM_CONFORMER_DIVERSEORDER>
1

> <PUBCHEM_MMFF94_PARTIAL_CHARGES>
16
1 -0.68
14 -0.14
15 0.14
16 -0.14
17 -0.15
18 -0.15
19 -0.15
2 -0.53
20 0.08
40 0.4
41 0.15
42 0.15
43 0.15
44 0.45
6 0.14
7 0.28

> <PUBCHEM_EFFECTIVE_ROTOR_COUNT>
1.4

> <PUBCHEM_PHARMACOPHORE_FEATURES>
7
1 1 acceptor
1 1 donor
1 2 donor
5 3 4 7 9 11 rings
6 14 16 17 18 19 20 rings
6 3 4 5 6 8 10 rings
6 5 6 12 14 15 16 rings

> <PUBCHEM_HEAVY_ATOM_COUNT>
20

> <PUBCHEM_ATOM_DEF_STEREO_COUNT>
5

> <PUBCHEM_ATOM_UDEF_STEREO_COUNT>
0

> <PUBCHEM_BOND_DEF_STEREO_COUNT>
0

> <PUBCHEM_BOND_UDEF_STEREO_COUNT>
0

> <PUBCHEM_ISOTOPIC_ATOM_COUNT>
0

> <PUBCHEM_COMPONENT_COUNT>
1

> <PUBCHEM_CACTVS_TAUTO_COUNT>
9

> <PUBCHEM_CONFORMER_ID>
0000167D00000001

> <PUBCHEM_MMFF94_ENERGY>
68.4596

> <PUBCHEM_FEATURE_SELFOVERLAP>
35.62

> <PUBCHEM_SHAPE_FINGERPRINT>
10 15 18262512710780645640
10411042 1 16969703283687688743
10616163 171 18338239395883154686
10967382 1 18410012100429229070
11132069 177 18409162216832884669
11578080 2 17201347718505248258
12011746 2 18410859841042374310
12107183 9 17690845558000159065
12236239 1 13470690338792453460
12251169 10 18335139816864396069
12403259 415 18410852127603240605
12403814 3 17530960289353343621
12500047 106 18271238421624861530
12592029 89 18334859377112304987
12788726 201 17703518696578858128
128620 24 11818992989152349105
13140716 1 18192429898953651512
13533116 47 17846218813073552003
13544592 145 18272379637759764926
13675066 3 18341893012844745609
14178342 30 18123731313450613666
14341114 176 18409738343777605753
14866123 147 17046555868986690930
15042514 8 18263932206156989787
15196674 1 18410012108982090935
15256400 18 18410857620686823693
15295992 7 17845930826899781123
15536298 74 18413671296627645270
1601671 61 18409168826940819996
16945 1 18266170819592368622
17349148 13 18412820287929204701
17804303 29 18410296916890392117
1813 80 16950285091842931756
18186145 218 17417805158171412875
19141452 34 18413108389914235807
192875 21 13830133918406568194
19591789 44 18192993725128068838
200 152 18131627885965453901
20028762 73 18272929458099065015
20261772 1 18410856577167961319
20510252 161 18341895147623301209
20645477 70 18200878374956666302
21033648 29 18271512131406579929
21267235 1 18337399244825179854
21279426 13 18124035632930519374
21421861 104 17895744090149736410
22854114 59 18412546505207311417
22892500 29 17274814788166584896
23184049 59 18410576175690384255
23402539 116 18342170081765240151
23557571 272 17773880972535682807
23558518 356 17682680979747269074
23559900 14 18413389822146813342
2748010 2 18337666399911122230
3004659 81 18260835844047909814
335352 9 18410013195572088855
34934 24 18411133675799850702
350125 39 18409735045496469133
351380 180 18409730664571278687
3545911 37 18411703192367818988
4214541 1 18409167684326479901
465052 167 17967541176940287083
495365 180 17346587600050392546
5104073 3 18409449150412323065
542803 24 17346883342628774985
59755656 215 18335983048405458773
69090 78 18341891905091661271
77779 3 18409450271409361990
7832392 63 18341046427736201710
9709674 26 18410862087368844367
9999458 23 17967819357476725574

> <PUBCHEM_SHAPE_MULTIPOLES>
399.85
9.72
2.11
0.84
3.73
0.39
0.22
-1.2
1.2
-0.24
-0.15
-0.38
-0.13
0.32

> <PUBCHEM_SHAPE_SELFOVERLAP>
871.414

> <PUBCHEM_SHAPE_VOLUME>
217.1

> <PUBCHEM_COORDINATE_TYPE>
2
5
10

> <Energy>
58.4396

> <minimizedAffinity>
-9.62887

> <CNNscore>
0.5540125370

> <CNNaffinity>
7.2523326874

> <CNN_VS>
4.0178833008

> <CNNaffinity_variance>
0.4145860374

$$$$
5757


 22 25  0  0  0  0  0  0  0  0999 V2000
   23.0012    4.7470    1.7309 O   0  0  0  0  0  0  0  0  0  0  0  0
   24.8504    3.0263   12.3993 O   0  0  0  0  0  0  0  0  0  0  0  0
   23.0471    4.2878    4.1530 C   0  0  0  0  0  0  0  0  0  0  0  0
   21.8976    3.8780    5.0955 C   0  0  0  0  0  0  0  0  0  0  0  0
   22.4096    3.3667    6.4419 C   0  0  0  0  0  0  0  0  0  0  0  0
   23.1995    4.5132    7.1436 C   0  0  0  0  0  0  0  0  0  0  0  0
   22.2235    4.6753    2.9098 C   0  0  0  0  0  0  0  0  0  0  0  0
   23.8109    5.4455    4.8073 C   0  0  0  0  0  0  0  0  0  0  0  0
   21.0352    2.9656    4.2281 C   0  0  0  0  0  0  0  0  0  0  0  0
   24.3109    5.0777    6.2178 C   0  0  0  0  0  0  0  0  0  0  0  0
   21.1464    3.5767    2.8192 C   0  0  0  0  0  0  0  0  0  0  0  0
   21.2800    2.9046    7.3643 C   0  0  0  0  0  0  0  0  0  0  0  0
   24.0413    3.1497    3.8071 C   0  0  0  0  0  0  0  0  0  0  0  0
   23.6672    4.0914    8.5356 C   0  0  0  0  0  0  0  0  0  0  0  0
   21.8640    2.2760    8.6272 C   0  0  0  0  0  0  0  0  0  0  0  0
   22.9991    3.0644    9.2385 C   0  0  0  0  0  0  0  0  0  0  0  0
   24.7114    4.7726    9.1868 C   0  0  0  0  0  0  0  0  0  0  0  0
   23.4215    2.7124   10.5340 C   0  0  0  0  0  0  0  0  0  0  0  0
   25.1156    4.4215   10.4771 C   0  0  0  0  0  0  0  0  0  0  0  0
   24.4712    3.3904   11.1401 C   0  0  0  0  0  0  0  0  0  0  0  0
   23.6662    5.4470    1.8243 H   0  0  0  0  0  0  0  0  0  0  0  0
   24.4073    2.3271   12.8383 H   0  0  0  0  0  0  0  0  0  0  0  0
  1  7  1  0
  1 21  1  0
  2 20  1  0
  2 22  1  0
  3  4  1  0
  3  7  1  0
  3  8  1  0
  3 13  1  0
  4  5  1  0
  4  9  1  0
  5  6  1  0
  5 12  1  0
  6 10  1  0
  6 14  1  0
  7 11  1  0
  8 10  1  0
  9 11  1  0
 12 15  1  0
 14 16  2  0
 14 17  1  0
 15 16  1  0
 16 18  1  0
 17 19  2  0
 18 20  2  0
 19 20  1  0
M  END
> <PUBCHEM_COMPOUND_CID>
5757

> <PUBCHEM_CONFORMER_RMSD>
0.6

> <PUBCHEM_CONFORMER_DIVERSEORDER>
1

> <PUBCHEM_MMFF94_PARTIAL_CHARGES>
16
1 -0.68
14 -0.14
15 0.14
16 -0.14
17 -0.15
18 -0.15
19 -0.15
2 -0.53
20 0.08
40 0.4
41 0.15
42 0.15
43 0.15
44 0.45
6 0.14
7 0.28

> <PUBCHEM_EFFECTIVE_ROTOR_COUNT>
1.4

> <PUBCHEM_PHARMACOPHORE_FEATURES>
7
1 1 acceptor
1 1 donor
1 2 donor
5 3 4 7 9 11 rings
6 14 16 17 18 19 20 rings
6 3 4 5 6 8 10 rings
6 5 6 12 14 15 16 rings

> <PUBCHEM_HEAVY_ATOM_COUNT>
20

> <PUBCHEM_ATOM_DEF_STEREO_COUNT>
5

> <PUBCHEM_ATOM_UDEF_STEREO_COUNT>
0

> <PUBCHEM_BOND_DEF_STEREO_COUNT>
0

> <PUBCHEM_BOND_UDEF_STEREO_COUNT>
0

> <PUBCHEM_ISOTOPIC_ATOM_COUNT>
0

> <PUBCHEM_COMPONENT_COUNT>
1

> <PUBCHEM_CACTVS_TAUTO_COUNT>
9

> <PUBCHEM_CONFORMER_ID>
0000167D00000001

> <PUBCHEM_MMFF94_ENERGY>
68.4596

> <PUBCHEM_FEATURE_SELFOVERLAP>
35.62

> <PUBCHEM_SHAPE_FINGERPRINT>
10 15 18262512710780645640
10411042 1 16969703283687688743
10616163 171 18338239395883154686
10967382 1 18410012100429229070
11132069 177 18409162216832884669
11578080 2 17201347718505248258
12011746 2 18410859841042374310
12107183 9 17690845558000159065
12236239 1 13470690338792453460
12251169 10 18335139816864396069
12403259 415 18410852127603240605
12403814 3 17530960289353343621
12500047 106 18271238421624861530
12592029 89 18334859377112304987
12788726 201 17703518696578858128
128620 24 11818992989152349105
13140716 1 18192429898953651512
13533116 47 17846218813073552003
13544592 145 18272379637759764926
13675066 3 18341893012844745609
14178342 30 18123731313450613666
14341114 176 18409738343777605753
14866123 147 17046555868986690930
15042514 8 18263932206156989787
15196674 1 18410012108982090935
15256400 18 18410857620686823693
15295992 7 17845930826899781123
15536298 74 18413671296627645270
1601671 61 18409168826940819996
16945 1 18266170819592368622
17349148 13 18412820287929204701
17804303 29 18410296916890392117
1813 80 16950285091842931756
18186145 218 17417805158171412875
19141452 34 18413108389914235807
192875 21 13830133918406568194
19591789 44 18192993725128068838
200 152 18131627885965453901
20028762 73 18272929458099065015
20261772 1 18410856577167961319
20510252 161 18341895147623301209
20645477 70 18200878374956666302
21033648 29 18271512131406579929
21267235 1 18337399244825179854
21279426 13 18124035632930519374
21421861 104 17895744090149736410
22854114 59 18412546505207311417
22892500 29 17274814788166584896
23184049 59 18410576175690384255
23402539 116 18342170081765240151
23557571 272 17773880972535682807
23558518 356 17682680979747269074
23559900 14 18413389822146813342
2748010 2 18337666399911122230
3004659 81 18260835844047909814
335352 9 18410013195572088855
34934 24 18411133675799850702
350125 39 18409735045496469133
351380 180 18409730664571278687
3545911 37 18411703192367818988
4214541 1 18409167684326479901
465052 167 17967541176940287083
495365 180 17346587600050392546
5104073 3 18409449150412323065
542803 24 17346883342628774985
59755656 215 18335983048405458773
69090 78 18341891905091661271
77779 3 18409450271409361990
7832392 63 18341046427736201710
9709674 26 18410862087368844367
9999458 23 17967819357476725574

> <PUBCHEM_SHAPE_MULTIPOLES>
399.85
9.72
2.11
0.84
3.73
0.39
0.22
-1.2
1.2
-0.24
-0.15
-0.38
-0.13
0.32

> <PUBCHEM_SHAPE_SELFOVERLAP>
871.414

> <PUBCHEM_SHAPE_VOLUME>
217.1

> <PUBCHEM_COORDINATE_TYPE>
2
5
10

> <Energy>
58.4396

> <minimizedAffinity>
-9.02810

> <CNNscore>
0.5035723448

> <CNNaffinity>
7.3981399536

> <CNN_VS>
3.7254986763

> <CNNaffinity_variance>
0.6438379884

$$$$
5757


 22 25  0  0  0  0  0  0  0  0999 V2000
   25.2685    2.3451   11.5410 O   0  0  0  0  0  0  0  0  0  0  0  0
   22.9138    5.0573    1.1826 O   0  0  0  0  0  0  0  0  0  0  0  0
   24.3774    2.9241    9.3160 C   0  0  0  0  0  0  0  0  0  0  0  0
   22.9136    3.0506    8.8484 C   0  0  0  0  0  0  0  0  0  0  0  0
   22.7986    3.7518    7.4950 C   0  0  0  0  0  0  0  0  0  0  0  0
   23.5557    2.9043    6.4278 C   0  0  0  0  0  0  0  0  0  0  0  0
   24.1441    2.2614   10.6873 C   0  0  0  0  0  0  0  0  0  0  0  0
   25.1296    2.0561    8.2999 C   0  0  0  0  0  0  0  0  0  0  0  0
   22.2033    3.6450   10.0612 C   0  0  0  0  0  0  0  0  0  0  0  0
   25.0166    2.6195    6.8699 C   0  0  0  0  0  0  0  0  0  0  0  0
   22.9302    3.0159   11.2640 C   0  0  0  0  0  0  0  0  0  0  0  0
   21.3470    3.9332    7.0474 C   0  0  0  0  0  0  0  0  0  0  0  0
   25.1235    4.2719    9.4890 C   0  0  0  0  0  0  0  0  0  0  0  0
   23.4066    3.5097    5.0329 C   0  0  0  0  0  0  0  0  0  0  0  0
   21.2974    4.7624    5.7664 C   0  0  0  0  0  0  0  0  0  0  0  0
   22.3125    4.3488    4.7261 C   0  0  0  0  0  0  0  0  0  0  0  0
   24.2995    3.1761    3.9986 C   0  0  0  0  0  0  0  0  0  0  0  0
   22.1719    4.8698    3.4264 C   0  0  0  0  0  0  0  0  0  0  0  0
   24.1444    3.6910    2.7094 C   0  0  0  0  0  0  0  0  0  0  0  0
   23.0844    4.5384    2.4331 C   0  0  0  0  0  0  0  0  0  0  0  0
   26.0105    1.8604   11.1468 H   0  0  0  0  0  0  0  0  0  0  0  0
   22.1930    5.6297    1.0072 H   0  0  0  0  0  0  0  0  0  0  0  0
  1  7  1  0
  1 21  1  0
  2 20  1  0
  2 22  1  0
  3  4  1  0
  3  7  1  0
  3  8  1  0
  3 13  1  0
  4  5  1  0
  4  9  1  0
  5  6  1  0
  5 12  1  0
  6 10  1  0
  6 14  1  0
  7 11  1  0
  8 10  1  0
  9 11  1  0
 12 15  1  0
 14 16  2  0
 14 17  1  0
 15 16  1  0
 16 18  1  0
 17 19  2  0
 18 20  2  0
 19 20  1  0
M  END
> <PUBCHEM_COMPOUND_CID>
5757

> <PUBCHEM_CONFORMER_RMSD>
0.6

> <PUBCHEM_CONFORMER_DIVERSEORDER>
1

> <PUBCHEM_MMFF94_PARTIAL_CHARGES>
16
1 -0.68
14 -0.14
15 0.14
16 -0.14
17 -0.15
18 -0.15
19 -0.15
2 -0.53
20 0.08
40 0.4
41 0.15
42 0.15
43 0.15
44 0.45
6 0.14
7 0.28

> <PUBCHEM_EFFECTIVE_ROTOR_COUNT>
1.4

> <PUBCHEM_PHARMACOPHORE_FEATURES>
7
1 1 acceptor
1 1 donor
1 2 donor
5 3 4 7 9 11 rings
6 14 16 17 18 19 20 rings
6 3 4 5 6 8 10 rings
6 5 6 12 14 15 16 rings

> <PUBCHEM_HEAVY_ATOM_COUNT>
20

> <PUBCHEM_ATOM_DEF_STEREO_COUNT>
5

> <PUBCHEM_ATOM_UDEF_STEREO_COUNT>
0

> <PUBCHEM_BOND_DEF_STEREO_COUNT>
0

> <PUBCHEM_BOND_UDEF_STEREO_COUNT>
0

> <PUBCHEM_ISOTOPIC_ATOM_COUNT>
0

> <PUBCHEM_COMPONENT_COUNT>
1

> <PUBCHEM_CACTVS_TAUTO_COUNT>
9

> <PUBCHEM_CONFORMER_ID>
0000167D00000001

> <PUBCHEM_MMFF94_ENERGY>
68.4596

> <PUBCHEM_FEATURE_SELFOVERLAP>
35.62

> <PUBCHEM_SHAPE_FINGERPRINT>
10 15 18262512710780645640
10411042 1 16969703283687688743
10616163 171 18338239395883154686
10967382 1 18410012100429229070
11132069 177 18409162216832884669
11578080 2 17201347718505248258
12011746 2 18410859841042374310
12107183 9 17690845558000159065
12236239 1 13470690338792453460
12251169 10 18335139816864396069
12403259 415 18410852127603240605
12403814 3 17530960289353343621
12500047 106 18271238421624861530
12592029 89 18334859377112304987
12788726 201 17703518696578858128
128620 24 11818992989152349105
13140716 1 18192429898953651512
13533116 47 17846218813073552003
13544592 145 18272379637759764926
13675066 3 18341893012844745609
14178342 30 18123731313450613666
14341114 176 18409738343777605753
14866123 147 17046555868986690930
15042514 8 18263932206156989787
15196674 1 18410012108982090935
15256400 18 18410857620686823693
15295992 7 17845930826899781123
15536298 74 18413671296627645270
1601671 61 18409168826940819996
16945 1 18266170819592368622
17349148 13 18412820287929204701
17804303 29 18410296916890392117
1813 80 16950285091842931756
18186145 218 17417805158171412875
19141452 34 18413108389914235807
192875 21 13830133918406568194
19591789 44 18192993725128068838
200 152 18131627885965453901
20028762 73 18272929458099065015
20261772 1 18410856577167961319
20510252 161 18341895147623301209
20645477 70 18200878374956666302
21033648 29 18271512131406579929
21267235 1 18337399244825179854
21279426 13 18124035632930519374
21421861 104 17895744090149736410
22854114 59 18412546505207311417
22892500 29 17274814788166584896
23184049 59 18410576175690384255
23402539 116 18342170081765240151
23557571 272 17773880972535682807
23558518 356 17682680979747269074
23559900 14 18413389822146813342
2748010 2 18337666399911122230
3004659 81 18260835844047909814
335352 9 18410013195572088855
34934 24 18411133675799850702
350125 39 18409735045496469133
351380 180 18409730664571278687
3545911 37 18411703192367818988
4214541 1 18409167684326479901
465052 167 17967541176940287083
495365 180 17346587600050392546
5104073 3 18409449150412323065
542803 24 17346883342628774985
59755656 215 18335983048405458773
69090 78 18341891905091661271
77779 3 18409450271409361990
7832392 63 18341046427736201710
9709674 26 18410862087368844367
9999458 23 17967819357476725574

> <PUBCHEM_SHAPE_MULTIPOLES>
399.85
9.72
2.11
0.84
3.73
0.39
0.22
-1.2
1.2
-0.24
-0.15
-0.38
-0.13
0.32

> <PUBCHEM_SHAPE_SELFOVERLAP>
871.414

> <PUBCHEM_SHAPE_VOLUME>
217.1

> <PUBCHEM_COORDINATE_TYPE>
2
5
10

> <Energy>
58.4396

> <minimizedAffinity>
-7.99999

> <CNNscore>
0.3050782979

> <CNNaffinity>
7.1641917229

> <CNN_VS>
2.1856393814

> <CNNaffinity_variance>
0.5036879182

$$$$
5757


 22 25  0  0  0  0  0  0  0  0999 V2000
   24.7262    3.2497    5.2232 O   0  0  0  0  0  0  0  0  0  0  0  0
   16.2020    8.3120    0.5427 O   0  0  0  0  0  0  0  0  0  0  0  0
   22.6850    4.0411    4.0887 C   0  0  0  0  0  0  0  0  0  0  0  0
   21.5489    3.2291    3.4350 C   0  0  0  0  0  0  0  0  0  0  0  0
   20.3176    4.0878    3.1470 C   0  0  0  0  0  0  0  0  0  0  0  0
   20.7179    5.2150    2.1471 C   0  0  0  0  0  0  0  0  0  0  0  0
   23.7089    2.9095    4.3017 C   0  0  0  0  0  0  0  0  0  0  0  0
   23.1229    5.1296    3.1012 C   0  0  0  0  0  0  0  0  0  0  0  0
   21.4147    2.0106    4.3439 C   0  0  0  0  0  0  0  0  0  0  0  0
   21.9411    6.0181    2.6665 C   0  0  0  0  0  0  0  0  0  0  0  0
   22.8573    1.7256    4.8003 C   0  0  0  0  0  0  0  0  0  0  0  0
   19.1634    3.2805    2.5499 C   0  0  0  0  0  0  0  0  0  0  0  0
   22.3181    4.6977    5.4442 C   0  0  0  0  0  0  0  0  0  0  0  0
   19.5077    6.0598    1.7522 C   0  0  0  0  0  0  0  0  0  0  0  0
   17.9238    4.1625    2.4209 C   0  0  0  0  0  0  0  0  0  0  0  0
   18.2006    5.5327    1.8467 C   0  0  0  0  0  0  0  0  0  0  0  0
   19.6686    7.3440    1.2014 C   0  0  0  0  0  0  0  0  0  0  0  0
   17.0998    6.3124    1.4459 C   0  0  0  0  0  0  0  0  0  0  0  0
   18.5693    8.1052    0.7972 C   0  0  0  0  0  0  0  0  0  0  0  0
   17.2919    7.5863    0.9267 C   0  0  0  0  0  0  0  0  0  0  0  0
   25.2398    3.9961    4.8768 H   0  0  0  0  0  0  0  0  0  0  0  0
   15.3423    7.9507    0.6351 H   0  0  0  0  0  0  0  0  0  0  0  0
  1  7  1  0
  1 21  1  0
  2 20  1  0
  2 22  1  0
  3  4  1  0
  3  7  1  0
  3  8  1  0
  3 13  1  0
  4  5  1  0
  4  9  1  0
  5  6  1  0
  5 12  1  0
  6 10  1  0
  6 14  1  0
  7 11  1  0
  8 10  1  0
  9 11  1  0
 12 15  1  0
 14 16  2  0
 14 17  1  0
 15 16  1  0
 16 18  1  0
 17 19  2  0
 18 20  2  0
 19 20  1  0
M  END
> <PUBCHEM_COMPOUND_CID>
5757

> <PUBCHEM_CONFORMER_RMSD>
0.6

> <PUBCHEM_CONFORMER_DIVERSEORDER>
1

> <PUBCHEM_MMFF94_PARTIAL_CHARGES>
16
1 -0.68
14 -0.14
15 0.14
16 -0.14
17 -0.15
18 -0.15
19 -0.15
2 -0.53
20 0.08
40 0.4
41 0.15
42 0.15
43 0.15
44 0.45
6 0.14
7 0.28

> <PUBCHEM_EFFECTIVE_ROTOR_COUNT>
1.4

> <PUBCHEM_PHARMACOPHORE_FEATURES>
7
1 1 acceptor
1 1 donor
1 2 donor
5 3 4 7 9 11 rings
6 14 16 17 18 19 20 rings
6 3 4 5 6 8 10 rings
6 5 6 12 14 15 16 rings

> <PUBCHEM_HEAVY_ATOM_COUNT>
20

> <PUBCHEM_ATOM_DEF_STEREO_COUNT>
5

> <PUBCHEM_ATOM_UDEF_STEREO_COUNT>
0

> <PUBCHEM_BOND_DEF_STEREO_COUNT>
0

> <PUBCHEM_BOND_UDEF_STEREO_COUNT>
0

> <PUBCHEM_ISOTOPIC_ATOM_COUNT>
0

> <PUBCHEM_COMPONENT_COUNT>
1

> <PUBCHEM_CACTVS_TAUTO_COUNT>
9

> <PUBCHEM_CONFORMER_ID>
0000167D00000001

> <PUBCHEM_MMFF94_ENERGY>
68.4596

> <PUBCHEM_FEATURE_SELFOVERLAP>
35.62

> <PUBCHEM_SHAPE_FINGERPRINT>
10 15 18262512710780645640
10411042 1 16969703283687688743
10616163 171 18338239395883154686
10967382 1 18410012100429229070
11132069 177 18409162216832884669
11578080 2 17201347718505248258
12011746 2 18410859841042374310
12107183 9 17690845558000159065
12236239 1 13470690338792453460
12251169 10 18335139816864396069
12403259 415 18410852127603240605
12403814 3 17530960289353343621
12500047 106 18271238421624861530
12592029 89 18334859377112304987
12788726 201 17703518696578858128
128620 24 11818992989152349105
13140716 1 18192429898953651512
13533116 47 17846218813073552003
13544592 145 18272379637759764926
13675066 3 18341893012844745609
14178342 30 18123731313450613666
14341114 176 18409738343777605753
14866123 147 17046555868986690930
15042514 8 18263932206156989787
15196674 1 18410012108982090935
15256400 18 18410857620686823693
15295992 7 17845930826899781123
15536298 74 18413671296627645270
1601671 61 18409168826940819996
16945 1 18266170819592368622
17349148 13 18412820287929204701
17804303 29 18410296916890392117
1813 80 16950285091842931756
18186145 218 17417805158171412875
19141452 34 18413108389914235807
192875 21 13830133918406568194
19591789 44 18192993725128068838
200 152 18131627885965453901
20028762 73 18272929458099065015
20261772 1 18410856577167961319
20510252 161 18341895147623301209
20645477 70 18200878374956666302
21033648 29 18271512131406579929
21267235 1 18337399244825179854
21279426 13 18124035632930519374
21421861 104 17895744090149736410
22854114 59 18412546505207311417
22892500 29 17274814788166584896
23184049 59 18410576175690384255
23402539 116 18342170081765240151
23557571 272 17773880972535682807
23558518 356 17682680979747269074
23559900 14 18413389822146813342
2748010 2 18337666399911122230
3004659 81 18260835844047909814
335352 9 18410013195572088855
34934 24 18411133675799850702
350125 39 18409735045496469133
351380 180 18409730664571278687
3545911 37 18411703192367818988
4214541 1 18409167684326479901
465052 167 17967541176940287083
495365 180 17346587600050392546
5104073 3 18409449150412323065
542803 24 17346883342628774985
59755656 215 18335983048405458773
69090 78 18341891905091661271
77779 3 18409450271409361990
7832392 63 18341046427736201710
9709674 26 18410862087368844367
9999458 23 17967819357476725574

> <PUBCHEM_SHAPE_MULTIPOLES>
399.85
9.72
2.11
0.84
3.73
0.39
0.22
-1.2
1.2
-0.24
-0.15
-0.38
-0.13
0.32

> <PUBCHEM_SHAPE_SELFOVERLAP>
871.414

> <PUBCHEM_SHAPE_VOLUME>
217.1

> <PUBCHEM_COORDINATE_TYPE>
2
5
10

> <Energy>
58.4396

> <minimizedAffinity>
26.39860

> <CNNscore>
0.1977452636

> <CNNaffinity>
4.8655514717

> <CNN_VS>
0.9621397853

> <CNNaffinity_variance>
0.2007553726

$$$$
