2999413


 26 27  0  0  0  0  0  0  0  0999 V2000
   -9.7364   -4.0755    7.4948 O   0  0  0  0  0  0  0  0  0  0  0  0
   -6.0732   -5.6676   11.8683 O   0  0  0  0  0  0  0  0  0  0  0  0
   -5.0914   -3.5905   11.6297 O   0  0  0  0  0  0  0  0  0  0  0  0
   -4.5224   -5.8797   14.3620 O   0  0  0  0  0  0  0  0  0  0  0  0
   -7.3204   -3.7620   17.6116 O   0  0  0  0  0  0  0  0  0  0  0  0
   -9.6892   -4.9571    8.6160 C   0  0  0  0  0  0  0  0  0  0  0  0
  -10.2730   -4.2295    9.8357 C   0  0  0  0  0  0  0  0  0  0  0  0
   -8.2496   -5.4635    8.7942 C   0  0  0  0  0  0  0  0  0  0  0  0
   -9.5800   -2.8997   10.1692 C   0  0  0  0  0  0  0  0  0  0  0  0
   -8.1062   -6.4978    9.9133 C   0  0  0  0  0  0  0  0  0  0  0  0
  -10.0203   -2.3388   11.5272 C   0  0  0  0  0  0  0  0  0  0  0  0
   -6.6873   -7.0712   10.0228 C   0  0  0  0  0  0  0  0  0  0  0  0
   -9.3337   -3.0180   12.7200 C   0  0  0  0  0  0  0  0  0  0  0  0
   -5.6565   -6.0626   10.5495 C   0  0  0  0  0  0  0  0  0  0  0  0
   -7.8989   -2.5155   12.9402 C   0  0  0  0  0  0  0  0  0  0  0  0
   -7.1660   -3.3305   13.9835 C   0  0  0  0  0  0  0  0  0  0  0  0
   -4.2765   -6.7095   10.6405 C   0  0  0  0  0  0  0  0  0  0  0  0
   -6.1463   -4.2527   13.6658 C   0  0  0  0  0  0  0  0  0  0  0  0
   -5.6835   -4.4358   12.2776 C   0  0  0  0  0  0  0  0  0  0  0  0
   -7.5345   -3.1890   15.3334 C   0  0  0  0  0  0  0  0  0  0  0  0
   -5.5246   -5.0019   14.6785 C   0  0  0  0  0  0  0  0  0  0  0  0
   -6.9115   -3.9458   16.3234 C   0  0  0  0  0  0  0  0  0  0  0  0
   -5.9085   -4.8554   16.0099 C   0  0  0  0  0  0  0  0  0  0  0  0
  -10.6429   -3.7516    7.3760 H   0  0  0  0  0  0  0  0  0  0  0  0
   -4.2569   -5.9856   13.4697 H   0  0  0  0  0  0  0  0  0  0  0  0
   -7.9981   -3.1444   17.8044 H   0  0  0  0  0  0  0  0  0  0  0  0
  1  6  1  0
  1 24  1  0
  2 14  1  0
  2 19  1  0
  3 19  2  0
  4 21  1  0
  4 25  1  0
  5 22  1  0
  5 26  1  0
  6  7  1  0
  6  8  1  0
  7  9  1  0
  8 10  1  0
  9 11  1  0
 10 12  1  0
 11 13  1  0
 12 14  1  0
 13 15  1  0
 14 17  1  0
 15 16  1  0
 16 18  2  0
 16 20  1  0
 18 19  1  0
 18 21  1  0
 20 22  2  0
 21 23  2  0
 22 23  1  0
M  END
> <PUBCHEM_COMPOUND_CID>
2999413

> <PUBCHEM_CONFORMER_RMSD>
0.6

> <PUBCHEM_CONFORMER_DIVERSEORDER>
1
6
14
27
9
16
11
26
8
2
22
5
20
28
18
17
29
3
24
19
21
13
15
7
23
4
25
12
10

> <PUBCHEM_MMFF94_PARTIAL_CHARGES>
20
1 -0.68
14 0.28
15 0.14
16 -0.14
18 0.09
19 0.63
2 -0.43
20 -0.15
21 0.08
22 0.08
23 -0.15
3 -0.57
4 -0.53
45 0.4
46 0.15
47 0.15
48 0.45
49 0.45
5 -0.53
6 0.28

> <PUBCHEM_EFFECTIVE_ROTOR_COUNT>
2.2

> <PUBCHEM_PHARMACOPHORE_FEATURES>
6
1 1 acceptor
1 1 donor
1 3 acceptor
1 4 donor
1 5 donor
6 16 18 20 21 22 23 rings

> <PUBCHEM_HEAVY_ATOM_COUNT>
23

> <PUBCHEM_ATOM_DEF_STEREO_COUNT>
2

> <PUBCHEM_ATOM_UDEF_STEREO_COUNT>
0

> <PUBCHEM_BOND_DEF_STEREO_COUNT>
0

> <PUBCHEM_BOND_UDEF_STEREO_COUNT>
0

> <PUBCHEM_ISOTOPIC_ATOM_COUNT>
0

> <PUBCHEM_COMPONENT_COUNT>
1

> <PUBCHEM_CACTVS_TAUTO_COUNT>
25

> <PUBCHEM_CONFORMER_ID>
002DC47500000001

> <PUBCHEM_MMFF94_ENERGY>
51.6521

> <PUBCHEM_FEATURE_SELFOVERLAP>
30.446

> <PUBCHEM_SHAPE_FINGERPRINT>
104564 63 18340206271993051459
10498660 4 18187631549186102207
10577160 183 17606693423048979742
10616163 171 18266175029013727061
10759866 29 17750229218859711762
108634 29 18411143511243732574
1100329 8 17185877190433830119
11578080 2 17058915861662947194
116883 192 18412832382636582198
12011746 2 18335696144590423807
12054548 360 18337387261554875763
12156800 1 11695045847065978403
12553582 1 18337941355723699521
12788726 201 18339079272527017530
12954195 1 18196384628153038830
13402501 40 18410292523613913767
13533116 47 17911794988931237615
13941206 138 17823424798885047762
14178342 30 17618481208803059632
14251740 79 18268155262187636390
14251745 187 18265888240930317283
14251751 93 18337386020182837502
14251757 17 18340208496912958262
14251757 5 18336274478600052878
14289585 56 17025448677686211638
14363568 33 17831602116089395611
14790565 3 18338242566191680045
14931854 50 18192983829844991199
15081414 286 18267592488269592273
15210252 30 18041841838786063412
17093844 170 18338788043621724272
17357779 13 18338788026679147463
19591789 44 18410009931708134251
20775438 99 17121094438368206175
21141583 151 18411697703262438637
21634736 98 18410570674064001468
221357 26 18411697699342485711
221490 88 18411139126039522364
22393880 68 18190738627232927852
22907989 373 17973200346140242700
23379529 103 18202007594804787190
23419403 2 17703496796872386008
23559900 14 18341611543049219120
23566358 2 18411982468764321124
238 59 17976219553578124023
2871803 45 18335692832737868381
3014063 31 18410290320121227783
6287921 2 17544481216121896507

> <PUBCHEM_SHAPE_MULTIPOLES>
443.98
8.13
4.23
1.13
0.08
1.63
0.2
-3.4
-2.74
-1.52
0.36
0
0.19
0.73

> <PUBCHEM_SHAPE_SELFOVERLAP>
910.639

> <PUBCHEM_SHAPE_VOLUME>
254.2

> <PUBCHEM_COORDINATE_TYPE>
2
5
10

> <Energy>
43.3336

> <minimizedAffinity>
-6.83614

> <CNNscore>
0.6224691868

> <CNNaffinity>
6.5630116463

> <CNN_VS>
4.0852723122

> <CNNaffinity_variance>
0.5118200183

$$$$
2999413


 26 27  0  0  0  0  0  0  0  0999 V2000
   -8.7883   -4.7923    7.5263 O   0  0  0  0  0  0  0  0  0  0  0  0
   -8.3647   -3.1932   13.2136 O   0  0  0  0  0  0  0  0  0  0  0  0
   -9.0323   -5.3420   13.7350 O   0  0  0  0  0  0  0  0  0  0  0  0
   -7.6865   -2.9381   16.0673 O   0  0  0  0  0  0  0  0  0  0  0  0
   -3.2346   -4.6664   16.3255 O   0  0  0  0  0  0  0  0  0  0  0  0
   -8.1012   -3.8508    8.3499 C   0  0  0  0  0  0  0  0  0  0  0  0
   -6.7608   -4.4639    8.7806 C   0  0  0  0  0  0  0  0  0  0  0  0
   -9.0216   -3.4326    9.5068 C   0  0  0  0  0  0  0  0  0  0  0  0
   -6.8867   -5.8151    9.5005 C   0  0  0  0  0  0  0  0  0  0  0  0
   -8.4166   -2.3457   10.3987 C   0  0  0  0  0  0  0  0  0  0  0  0
   -5.5626   -6.2635   10.1317 C   0  0  0  0  0  0  0  0  0  0  0  0
   -9.3775   -1.8635   11.4933 C   0  0  0  0  0  0  0  0  0  0  0  0
   -5.2515   -5.5624   11.4610 C   0  0  0  0  0  0  0  0  0  0  0  0
   -9.6296   -2.9060   12.5918 C   0  0  0  0  0  0  0  0  0  0  0  0
   -6.0484   -6.1463   12.6373 C   0  0  0  0  0  0  0  0  0  0  0  0
   -5.8881   -5.3218   13.8962 C   0  0  0  0  0  0  0  0  0  0  0  0
  -10.5831   -2.3490   13.6462 C   0  0  0  0  0  0  0  0  0  0  0  0
   -6.9067   -4.4908   14.4089 C   0  0  0  0  0  0  0  0  0  0  0  0
   -8.2341   -4.4218   13.7702 C   0  0  0  0  0  0  0  0  0  0  0  0
   -4.6573   -5.3579   14.5757 C   0  0  0  0  0  0  0  0  0  0  0  0
   -6.6850   -3.7263   15.5664 C   0  0  0  0  0  0  0  0  0  0  0  0
   -4.4533   -4.5873   15.7183 C   0  0  0  0  0  0  0  0  0  0  0  0
   -5.4561   -3.7673   16.2220 C   0  0  0  0  0  0  0  0  0  0  0  0
   -8.2129   -5.0610    6.7931 H   0  0  0  0  0  0  0  0  0  0  0  0
   -8.5164   -2.9034   15.6339 H   0  0  0  0  0  0  0  0  0  0  0  0
   -2.5703   -5.2245   15.9718 H   0  0  0  0  0  0  0  0  0  0  0  0
  1  6  1  0
  1 24  1  0
  2 14  1  0
  2 19  1  0
  3 19  2  0
  4 21  1  0
  4 25  1  0
  5 22  1  0
  5 26  1  0
  6  7  1  0
  6  8  1  0
  7  9  1  0
  8 10  1  0
  9 11  1  0
 10 12  1  0
 11 13  1  0
 12 14  1  0
 13 15  1  0
 14 17  1  0
 15 16  1  0
 16 18  2  0
 16 20  1  0
 18 19  1  0
 18 21  1  0
 20 22  2  0
 21 23  2  0
 22 23  1  0
M  END
> <PUBCHEM_COMPOUND_CID>
2999413

> <PUBCHEM_CONFORMER_RMSD>
0.6

> <PUBCHEM_CONFORMER_DIVERSEORDER>
1
6
14
27
9
16
11
26
8
2
22
5
20
28
18
17
29
3
24
19
21
13
15
7
23
4
25
12
10

> <PUBCHEM_MMFF94_PARTIAL_CHARGES>
20
1 -0.68
14 0.28
15 0.14
16 -0.14
18 0.09
19 0.63
2 -0.43
20 -0.15
21 0.08
22 0.08
23 -0.15
3 -0.57
4 -0.53
45 0.4
46 0.15
47 0.15
48 0.45
49 0.45
5 -0.53
6 0.28

> <PUBCHEM_EFFECTIVE_ROTOR_COUNT>
2.2

> <PUBCHEM_PHARMACOPHORE_FEATURES>
6
1 1 acceptor
1 1 donor
1 3 acceptor
1 4 donor
1 5 donor
6 16 18 20 21 22 23 rings

> <PUBCHEM_HEAVY_ATOM_COUNT>
23

> <PUBCHEM_ATOM_DEF_STEREO_COUNT>
2

> <PUBCHEM_ATOM_UDEF_STEREO_COUNT>
0

> <PUBCHEM_BOND_DEF_STEREO_COUNT>
0

> <PUBCHEM_BOND_UDEF_STEREO_COUNT>
0

> <PUBCHEM_ISOTOPIC_ATOM_COUNT>
0

> <PUBCHEM_COMPONENT_COUNT>
1

> <PUBCHEM_CACTVS_TAUTO_COUNT>
25

> <PUBCHEM_CONFORMER_ID>
002DC47500000001

> <PUBCHEM_MMFF94_ENERGY>
51.6521

> <PUBCHEM_FEATURE_SELFOVERLAP>
30.446

> <PUBCHEM_SHAPE_FINGERPRINT>
104564 63 18340206271993051459
10498660 4 18187631549186102207
10577160 183 17606693423048979742
10616163 171 18266175029013727061
10759866 29 17750229218859711762
108634 29 18411143511243732574
1100329 8 17185877190433830119
11578080 2 17058915861662947194
116883 192 18412832382636582198
12011746 2 18335696144590423807
12054548 360 18337387261554875763
12156800 1 11695045847065978403
12553582 1 18337941355723699521
12788726 201 18339079272527017530
12954195 1 18196384628153038830
13402501 40 18410292523613913767
13533116 47 17911794988931237615
13941206 138 17823424798885047762
14178342 30 17618481208803059632
14251740 79 18268155262187636390
14251745 187 18265888240930317283
14251751 93 18337386020182837502
14251757 17 18340208496912958262
14251757 5 18336274478600052878
14289585 56 17025448677686211638
14363568 33 17831602116089395611
14790565 3 18338242566191680045
14931854 50 18192983829844991199
15081414 286 18267592488269592273
15210252 30 18041841838786063412
17093844 170 18338788043621724272
17357779 13 18338788026679147463
19591789 44 18410009931708134251
20775438 99 17121094438368206175
21141583 151 18411697703262438637
21634736 98 18410570674064001468
221357 26 18411697699342485711
221490 88 18411139126039522364
22393880 68 18190738627232927852
22907989 373 17973200346140242700
23379529 103 18202007594804787190
23419403 2 17703496796872386008
23559900 14 18341611543049219120
23566358 2 18411982468764321124
238 59 17976219553578124023
2871803 45 18335692832737868381
3014063 31 18410290320121227783
6287921 2 17544481216121896507

> <PUBCHEM_SHAPE_MULTIPOLES>
443.98
8.13
4.23
1.13
0.08
1.63
0.2
-3.4
-2.74
-1.52
0.36
0
0.19
0.73

> <PUBCHEM_SHAPE_SELFOVERLAP>
910.639

> <PUBCHEM_SHAPE_VOLUME>
254.2

> <PUBCHEM_COORDINATE_TYPE>
2
5
10

> <Energy>
43.3336

> <minimizedAffinity>
-7.58119

> <CNNscore>
0.5748695135

> <CNNaffinity>
6.6905407906

> <CNN_VS>
3.8461878300

> <CNNaffinity_variance>
0.5203863978

$$$$
2999413


 26 27  0  0  0  0  0  0  0  0999 V2000
   -9.3549   -4.8922    7.2317 O   0  0  0  0  0  0  0  0  0  0  0  0
   -8.0452   -2.4320   12.4580 O   0  0  0  0  0  0  0  0  0  0  0  0
   -9.5985   -3.8711   13.3805 O   0  0  0  0  0  0  0  0  0  0  0  0
   -7.2228   -1.8805   15.2307 O   0  0  0  0  0  0  0  0  0  0  0  0
   -4.0396   -5.3247   16.1674 O   0  0  0  0  0  0  0  0  0  0  0  0
   -8.2854   -4.2049    7.8801 C   0  0  0  0  0  0  0  0  0  0  0  0
   -7.3565   -5.2431    8.5259 C   0  0  0  0  0  0  0  0  0  0  0  0
   -8.8722   -3.1700    8.8524 C   0  0  0  0  0  0  0  0  0  0  0  0
   -8.0576   -6.1932    9.5086 C   0  0  0  0  0  0  0  0  0  0  0  0
   -7.8070   -2.3047    9.5303 C   0  0  0  0  0  0  0  0  0  0  0  0
   -7.0610   -7.0372   10.3131 C   0  0  0  0  0  0  0  0  0  0  0  0
   -8.4029   -1.2101   10.4251 C   0  0  0  0  0  0  0  0  0  0  0  0
   -6.4172   -6.2749   11.4792 C   0  0  0  0  0  0  0  0  0  0  0  0
   -9.0622   -1.7520   11.7015 C   0  0  0  0  0  0  0  0  0  0  0  0
   -7.3495   -6.1573   12.6944 C   0  0  0  0  0  0  0  0  0  0  0  0
   -6.7863   -5.2362   13.7548 C   0  0  0  0  0  0  0  0  0  0  0  0
   -9.6189   -0.6051   12.5417 C   0  0  0  0  0  0  0  0  0  0  0  0
   -7.2956   -3.9442   14.0039 C   0  0  0  0  0  0  0  0  0  0  0  0
   -8.4683   -3.4282   13.2734 C   0  0  0  0  0  0  0  0  0  0  0  0
   -5.6832   -5.6710   14.5112 C   0  0  0  0  0  0  0  0  0  0  0  0
   -6.7087   -3.1252   14.9828 C   0  0  0  0  0  0  0  0  0  0  0  0
   -5.1097   -4.8421   15.4730 C   0  0  0  0  0  0  0  0  0  0  0  0
   -5.6105   -3.5687   15.7168 C   0  0  0  0  0  0  0  0  0  0  0  0
   -8.9918   -5.5477    6.6158 H   0  0  0  0  0  0  0  0  0  0  0  0
   -7.9611   -1.5729   14.7426 H   0  0  0  0  0  0  0  0  0  0  0  0
   -3.7154   -6.1856   15.9896 H   0  0  0  0  0  0  0  0  0  0  0  0
  1  6  1  0
  1 24  1  0
  2 14  1  0
  2 19  1  0
  3 19  2  0
  4 21  1  0
  4 25  1  0
  5 22  1  0
  5 26  1  0
  6  7  1  0
  6  8  1  0
  7  9  1  0
  8 10  1  0
  9 11  1  0
 10 12  1  0
 11 13  1  0
 12 14  1  0
 13 15  1  0
 14 17  1  0
 15 16  1  0
 16 18  2  0
 16 20  1  0
 18 19  1  0
 18 21  1  0
 20 22  2  0
 21 23  2  0
 22 23  1  0
M  END
> <PUBCHEM_COMPOUND_CID>
2999413

> <PUBCHEM_CONFORMER_RMSD>
0.6

> <PUBCHEM_CONFORMER_DIVERSEORDER>
1
6
14
27
9
16
11
26
8
2
22
5
20
28
18
17
29
3
24
19
21
13
15
7
23
4
25
12
10

> <PUBCHEM_MMFF94_PARTIAL_CHARGES>
20
1 -0.68
14 0.28
15 0.14
16 -0.14
18 0.09
19 0.63
2 -0.43
20 -0.15
21 0.08
22 0.08
23 -0.15
3 -0.57
4 -0.53
45 0.4
46 0.15
47 0.15
48 0.45
49 0.45
5 -0.53
6 0.28

> <PUBCHEM_EFFECTIVE_ROTOR_COUNT>
2.2

> <PUBCHEM_PHARMACOPHORE_FEATURES>
6
1 1 acceptor
1 1 donor
1 3 acceptor
1 4 donor
1 5 donor
6 16 18 20 21 22 23 rings

> <PUBCHEM_HEAVY_ATOM_COUNT>
23

> <PUBCHEM_ATOM_DEF_STEREO_COUNT>
2

> <PUBCHEM_ATOM_UDEF_STEREO_COUNT>
0

> <PUBCHEM_BOND_DEF_STEREO_COUNT>
0

> <PUBCHEM_BOND_UDEF_STEREO_COUNT>
0

> <PUBCHEM_ISOTOPIC_ATOM_COUNT>
0

> <PUBCHEM_COMPONENT_COUNT>
1

> <PUBCHEM_CACTVS_TAUTO_COUNT>
25

> <PUBCHEM_CONFORMER_ID>
002DC47500000001

> <PUBCHEM_MMFF94_ENERGY>
51.6521

> <PUBCHEM_FEATURE_SELFOVERLAP>
30.446

> <PUBCHEM_SHAPE_FINGERPRINT>
104564 63 18340206271993051459
10498660 4 18187631549186102207
10577160 183 17606693423048979742
10616163 171 18266175029013727061
10759866 29 17750229218859711762
108634 29 18411143511243732574
1100329 8 17185877190433830119
11578080 2 17058915861662947194
116883 192 18412832382636582198
12011746 2 18335696144590423807
12054548 360 18337387261554875763
12156800 1 11695045847065978403
12553582 1 18337941355723699521
12788726 201 18339079272527017530
12954195 1 18196384628153038830
13402501 40 18410292523613913767
13533116 47 17911794988931237615
13941206 138 17823424798885047762
14178342 30 17618481208803059632
14251740 79 18268155262187636390
14251745 187 18265888240930317283
14251751 93 18337386020182837502
14251757 17 18340208496912958262
14251757 5 18336274478600052878
14289585 56 17025448677686211638
14363568 33 17831602116089395611
14790565 3 18338242566191680045
14931854 50 18192983829844991199
15081414 286 18267592488269592273
15210252 30 18041841838786063412
17093844 170 18338788043621724272
17357779 13 18338788026679147463
19591789 44 18410009931708134251
20775438 99 17121094438368206175
21141583 151 18411697703262438637
21634736 98 18410570674064001468
221357 26 18411697699342485711
221490 88 18411139126039522364
22393880 68 18190738627232927852
22907989 373 17973200346140242700
23379529 103 18202007594804787190
23419403 2 17703496796872386008
23559900 14 18341611543049219120
23566358 2 18411982468764321124
238 59 17976219553578124023
2871803 45 18335692832737868381
3014063 31 18410290320121227783
6287921 2 17544481216121896507

> <PUBCHEM_SHAPE_MULTIPOLES>
443.98
8.13
4.23
1.13
0.08
1.63
0.2
-3.4
-2.74
-1.52
0.36
0
0.19
0.73

> <PUBCHEM_SHAPE_SELFOVERLAP>
910.639

> <PUBCHEM_SHAPE_VOLUME>
254.2

> <PUBCHEM_COORDINATE_TYPE>
2
5
10

> <Energy>
43.3336

> <minimizedAffinity>
-3.83819

> <CNNscore>
0.5602547526

> <CNNaffinity>
6.5963711739

> <CNN_VS>
3.6956481934

> <CNNaffinity_variance>
0.4495308697

$$$$
2999413


 26 27  0  0  0  0  0  0  0  0999 V2000
   -4.8136   -4.8352   17.1181 O   0  0  0  0  0  0  0  0  0  0  0  0
   -5.6804   -5.3571   11.2822 O   0  0  0  0  0  0  0  0  0  0  0  0
   -6.7836   -7.3313   11.7518 O   0  0  0  0  0  0  0  0  0  0  0  0
   -6.8000   -5.6227    8.5721 O   0  0  0  0  0  0  0  0  0  0  0  0
  -11.1073   -3.5750    8.9274 O   0  0  0  0  0  0  0  0  0  0  0  0
   -4.9055   -4.0224   15.9487 C   0  0  0  0  0  0  0  0  0  0  0  0
   -6.3645   -3.5758   15.7763 C   0  0  0  0  0  0  0  0  0  0  0  0
   -4.3212   -4.7944   14.7556 C   0  0  0  0  0  0  0  0  0  0  0  0
   -7.3747   -4.7311   15.7076 C   0  0  0  0  0  0  0  0  0  0  0  0
   -4.2796   -3.9725   13.4651 C   0  0  0  0  0  0  0  0  0  0  0  0
   -8.7711   -4.2584   15.2843 C   0  0  0  0  0  0  0  0  0  0  0  0
   -3.6070   -4.7140   12.3024 C   0  0  0  0  0  0  0  0  0  0  0  0
   -8.9051   -4.0257   13.7732 C   0  0  0  0  0  0  0  0  0  0  0  0
   -4.4342   -5.8900   11.7638 C   0  0  0  0  0  0  0  0  0  0  0  0
   -9.0733   -5.3345   12.9867 C   0  0  0  0  0  0  0  0  0  0  0  0
   -9.0009   -5.1114   11.4917 C   0  0  0  0  0  0  0  0  0  0  0  0
   -3.7059   -6.5672   10.6052 C   0  0  0  0  0  0  0  0  0  0  0  0
   -7.8917   -5.4931   10.7076 C   0  0  0  0  0  0  0  0  0  0  0  0
   -6.7411   -6.2004   11.2999 C   0  0  0  0  0  0  0  0  0  0  0  0
  -10.0743   -4.4662   10.8518 C   0  0  0  0  0  0  0  0  0  0  0  0
   -7.8725   -5.2306    9.3277 C   0  0  0  0  0  0  0  0  0  0  0  0
  -10.0345   -4.2079    9.4833 C   0  0  0  0  0  0  0  0  0  0  0  0
   -8.9410   -4.5823    8.7116 C   0  0  0  0  0  0  0  0  0  0  0  0
   -5.1809   -4.3540   17.8760 H   0  0  0  0  0  0  0  0  0  0  0  0
   -6.0764   -6.0593    8.9768 H   0  0  0  0  0  0  0  0  0  0  0  0
  -11.8359   -3.3299    9.4631 H   0  0  0  0  0  0  0  0  0  0  0  0
  1  6  1  0
  1 24  1  0
  2 14  1  0
  2 19  1  0
  3 19  2  0
  4 21  1  0
  4 25  1  0
  5 22  1  0
  5 26  1  0
  6  7  1  0
  6  8  1  0
  7  9  1  0
  8 10  1  0
  9 11  1  0
 10 12  1  0
 11 13  1  0
 12 14  1  0
 13 15  1  0
 14 17  1  0
 15 16  1  0
 16 18  2  0
 16 20  1  0
 18 19  1  0
 18 21  1  0
 20 22  2  0
 21 23  2  0
 22 23  1  0
M  END
> <PUBCHEM_COMPOUND_CID>
2999413

> <PUBCHEM_CONFORMER_RMSD>
0.6

> <PUBCHEM_CONFORMER_DIVERSEORDER>
1
6
14
27
9
16
11
26
8
2
22
5
20
28
18
17
29
3
24
19
21
13
15
7
23
4
25
12
10

> <PUBCHEM_MMFF94_PARTIAL_CHARGES>
20
1 -0.68
14 0.28
15 0.14
16 -0.14
18 0.09
19 0.63
2 -0.43
20 -0.15
21 0.08
22 0.08
23 -0.15
3 -0.57
4 -0.53
45 0.4
46 0.15
47 0.15
48 0.45
49 0.45
5 -0.53
6 0.28

> <PUBCHEM_EFFECTIVE_ROTOR_COUNT>
2.2

> <PUBCHEM_PHARMACOPHORE_FEATURES>
6
1 1 acceptor
1 1 donor
1 3 acceptor
1 4 donor
1 5 donor
6 16 18 20 21 22 23 rings

> <PUBCHEM_HEAVY_ATOM_COUNT>
23

> <PUBCHEM_ATOM_DEF_STEREO_COUNT>
2

> <PUBCHEM_ATOM_UDEF_STEREO_COUNT>
0

> <PUBCHEM_BOND_DEF_STEREO_COUNT>
0

> <PUBCHEM_BOND_UDEF_STEREO_COUNT>
0

> <PUBCHEM_ISOTOPIC_ATOM_COUNT>
0

> <PUBCHEM_COMPONENT_COUNT>
1

> <PUBCHEM_CACTVS_TAUTO_COUNT>
25

> <PUBCHEM_CONFORMER_ID>
002DC47500000001

> <PUBCHEM_MMFF94_ENERGY>
51.6521

> <PUBCHEM_FEATURE_SELFOVERLAP>
30.446

> <PUBCHEM_SHAPE_FINGERPRINT>
104564 63 18340206271993051459
10498660 4 18187631549186102207
10577160 183 17606693423048979742
10616163 171 18266175029013727061
10759866 29 17750229218859711762
108634 29 18411143511243732574
1100329 8 17185877190433830119
11578080 2 17058915861662947194
116883 192 18412832382636582198
12011746 2 18335696144590423807
12054548 360 18337387261554875763
12156800 1 11695045847065978403
12553582 1 18337941355723699521
12788726 201 18339079272527017530
12954195 1 18196384628153038830
13402501 40 18410292523613913767
13533116 47 17911794988931237615
13941206 138 17823424798885047762
14178342 30 17618481208803059632
14251740 79 18268155262187636390
14251745 187 18265888240930317283
14251751 93 18337386020182837502
14251757 17 18340208496912958262
14251757 5 18336274478600052878
14289585 56 17025448677686211638
14363568 33 17831602116089395611
14790565 3 18338242566191680045
14931854 50 18192983829844991199
15081414 286 18267592488269592273
15210252 30 18041841838786063412
17093844 170 18338788043621724272
17357779 13 18338788026679147463
19591789 44 18410009931708134251
20775438 99 17121094438368206175
21141583 151 18411697703262438637
21634736 98 18410570674064001468
221357 26 18411697699342485711
221490 88 18411139126039522364
22393880 68 18190738627232927852
22907989 373 17973200346140242700
23379529 103 18202007594804787190
23419403 2 17703496796872386008
23559900 14 18341611543049219120
23566358 2 18411982468764321124
238 59 17976219553578124023
2871803 45 18335692832737868381
3014063 31 18410290320121227783
6287921 2 17544481216121896507

> <PUBCHEM_SHAPE_MULTIPOLES>
443.98
8.13
4.23
1.13
0.08
1.63
0.2
-3.4
-2.74
-1.52
0.36
0
0.19
0.73

> <PUBCHEM_SHAPE_SELFOVERLAP>
910.639

> <PUBCHEM_SHAPE_VOLUME>
254.2

> <PUBCHEM_COORDINATE_TYPE>
2
5
10

> <Energy>
43.3336

> <minimizedAffinity>
-5.02578

> <CNNscore>
0.2261474133

> <CNNaffinity>
5.9495806694

> <CNN_VS>
1.3454822302

> <CNNaffinity_variance>
0.0309760869

$$$$
2999413


 26 27  0  0  0  0  0  0  0  0999 V2000
   -3.5795   -5.5435   16.9483 O   0  0  0  0  0  0  0  0  0  0  0  0
   -6.3070   -4.9778   11.7212 O   0  0  0  0  0  0  0  0  0  0  0  0
   -7.5084   -6.8673   12.2878 O   0  0  0  0  0  0  0  0  0  0  0  0
   -8.2483   -4.6579    9.5309 O   0  0  0  0  0  0  0  0  0  0  0  0
  -11.8390   -2.2318   11.5540 O   0  0  0  0  0  0  0  0  0  0  0  0
   -3.9024   -4.5407   15.9856 C   0  0  0  0  0  0  0  0  0  0  0  0
   -5.2502   -3.9117   16.3672 C   0  0  0  0  0  0  0  0  0  0  0  0
   -3.8540   -5.1616   14.5810 C   0  0  0  0  0  0  0  0  0  0  0  0
   -6.4023   -4.9192   16.4997 C   0  0  0  0  0  0  0  0  0  0  0  0
   -4.0886   -4.1444   13.4615 C   0  0  0  0  0  0  0  0  0  0  0  0
   -7.7662   -4.2294   16.6291 C   0  0  0  0  0  0  0  0  0  0  0  0
   -3.9432   -4.7503   12.0595 C   0  0  0  0  0  0  0  0  0  0  0  0
   -8.3288   -3.7328   15.2903 C   0  0  0  0  0  0  0  0  0  0  0  0
   -5.0750   -5.7195   11.6892 C   0  0  0  0  0  0  0  0  0  0  0  0
   -8.9430   -4.8637   14.4517 C   0  0  0  0  0  0  0  0  0  0  0  0
   -9.3090   -4.4022   13.0578 C   0  0  0  0  0  0  0  0  0  0  0  0
   -4.8659   -6.2694   10.2803 C   0  0  0  0  0  0  0  0  0  0  0  0
   -8.5785   -4.7680   11.9074 C   0  0  0  0  0  0  0  0  0  0  0  0
   -7.4292   -5.6885   11.9895 C   0  0  0  0  0  0  0  0  0  0  0  0
  -10.4110   -3.5431   12.8977 C   0  0  0  0  0  0  0  0  0  0  0  0
   -8.9517   -4.2812   10.6436 C   0  0  0  0  0  0  0  0  0  0  0  0
  -10.7621   -3.0647   11.6372 C   0  0  0  0  0  0  0  0  0  0  0  0
  -10.0411   -3.4236   10.5046 C   0  0  0  0  0  0  0  0  0  0  0  0
   -3.6080   -5.1586   17.8382 H   0  0  0  0  0  0  0  0  0  0  0  0
   -7.5141   -5.2342    9.6136 H   0  0  0  0  0  0  0  0  0  0  0  0
  -12.3133   -2.0005   12.3283 H   0  0  0  0  0  0  0  0  0  0  0  0
  1  6  1  0
  1 24  1  0
  2 14  1  0
  2 19  1  0
  3 19  2  0
  4 21  1  0
  4 25  1  0
  5 22  1  0
  5 26  1  0
  6  7  1  0
  6  8  1  0
  7  9  1  0
  8 10  1  0
  9 11  1  0
 10 12  1  0
 11 13  1  0
 12 14  1  0
 13 15  1  0
 14 17  1  0
 15 16  1  0
 16 18  2  0
 16 20  1  0
 18 19  1  0
 18 21  1  0
 20 22  2  0
 21 23  2  0
 22 23  1  0
M  END
> <PUBCHEM_COMPOUND_CID>
2999413

> <PUBCHEM_CONFORMER_RMSD>
0.6

> <PUBCHEM_CONFORMER_DIVERSEORDER>
1
6
14
27
9
16
11
26
8
2
22
5
20
28
18
17
29
3
24
19
21
13
15
7
23
4
25
12
10

> <PUBCHEM_MMFF94_PARTIAL_CHARGES>
20
1 -0.68
14 0.28
15 0.14
16 -0.14
18 0.09
19 0.63
2 -0.43
20 -0.15
21 0.08
22 0.08
23 -0.15
3 -0.57
4 -0.53
45 0.4
46 0.15
47 0.15
48 0.45
49 0.45
5 -0.53
6 0.28

> <PUBCHEM_EFFECTIVE_ROTOR_COUNT>
2.2

> <PUBCHEM_PHARMACOPHORE_FEATURES>
6
1 1 acceptor
1 1 donor
1 3 acceptor
1 4 donor
1 5 donor
6 16 18 20 21 22 23 rings

> <PUBCHEM_HEAVY_ATOM_COUNT>
23

> <PUBCHEM_ATOM_DEF_STEREO_COUNT>
2

> <PUBCHEM_ATOM_UDEF_STEREO_COUNT>
0

> <PUBCHEM_BOND_DEF_STEREO_COUNT>
0

> <PUBCHEM_BOND_UDEF_STEREO_COUNT>
0

> <PUBCHEM_ISOTOPIC_ATOM_COUNT>
0

> <PUBCHEM_COMPONENT_COUNT>
1

> <PUBCHEM_CACTVS_TAUTO_COUNT>
25

> <PUBCHEM_CONFORMER_ID>
002DC47500000001

> <PUBCHEM_MMFF94_ENERGY>
51.6521

> <PUBCHEM_FEATURE_SELFOVERLAP>
30.446

> <PUBCHEM_SHAPE_FINGERPRINT>
104564 63 18340206271993051459
10498660 4 18187631549186102207
10577160 183 17606693423048979742
10616163 171 18266175029013727061
10759866 29 17750229218859711762
108634 29 18411143511243732574
1100329 8 17185877190433830119
11578080 2 17058915861662947194
116883 192 18412832382636582198
12011746 2 18335696144590423807
12054548 360 18337387261554875763
12156800 1 11695045847065978403
12553582 1 18337941355723699521
12788726 201 18339079272527017530
12954195 1 18196384628153038830
13402501 40 18410292523613913767
13533116 47 17911794988931237615
13941206 138 17823424798885047762
14178342 30 17618481208803059632
14251740 79 18268155262187636390
14251745 187 18265888240930317283
14251751 93 18337386020182837502
14251757 17 18340208496912958262
14251757 5 18336274478600052878
14289585 56 17025448677686211638
14363568 33 17831602116089395611
14790565 3 18338242566191680045
14931854 50 18192983829844991199
15081414 286 18267592488269592273
15210252 30 18041841838786063412
17093844 170 18338788043621724272
17357779 13 18338788026679147463
19591789 44 18410009931708134251
20775438 99 17121094438368206175
21141583 151 18411697703262438637
21634736 98 18410570674064001468
221357 26 18411697699342485711
221490 88 18411139126039522364
22393880 68 18190738627232927852
22907989 373 17973200346140242700
23379529 103 18202007594804787190
23419403 2 17703496796872386008
23559900 14 18341611543049219120
23566358 2 18411982468764321124
238 59 17976219553578124023
2871803 45 18335692832737868381
3014063 31 18410290320121227783
6287921 2 17544481216121896507

> <PUBCHEM_SHAPE_MULTIPOLES>
443.98
8.13
4.23
1.13
0.08
1.63
0.2
-3.4
-2.74
-1.52
0.36
0
0.19
0.73

> <PUBCHEM_SHAPE_SELFOVERLAP>
910.639

> <PUBCHEM_SHAPE_VOLUME>
254.2

> <PUBCHEM_COORDINATE_TYPE>
2
5
10

> <Energy>
43.3336

> <minimizedAffinity>
-5.74020

> <CNNscore>
0.1877654046

> <CNNaffinity>
5.7490983009

> <CNN_VS>
1.0794817209

> <CNNaffinity_variance>
0.0710676759

$$$$
2999413


 26 27  0  0  0  0  0  0  0  0999 V2000
   -8.7569   -3.6656   17.7478 O   0  0  0  0  0  0  0  0  0  0  0  0
   -6.5018   -5.1141   12.4659 O   0  0  0  0  0  0  0  0  0  0  0  0
   -5.5587   -3.0059   12.4331 O   0  0  0  0  0  0  0  0  0  0  0  0
   -4.7591   -5.6985   10.1659 O   0  0  0  0  0  0  0  0  0  0  0  0
   -0.6537   -7.0880   12.1878 O   0  0  0  0  0  0  0  0  0  0  0  0
   -8.3783   -4.8201   16.9991 C   0  0  0  0  0  0  0  0  0  0  0  0
   -6.9182   -5.1612   17.3303 C   0  0  0  0  0  0  0  0  0  0  0  0
   -8.6603   -4.5657   15.5104 C   0  0  0  0  0  0  0  0  0  0  0  0
   -5.9292   -4.0123   17.0816 C   0  0  0  0  0  0  0  0  0  0  0  0
   -8.3818   -5.7830   14.6252 C   0  0  0  0  0  0  0  0  0  0  0  0
   -4.4687   -4.4703   17.1807 C   0  0  0  0  0  0  0  0  0  0  0  0
   -8.7566   -5.5547   13.1550 C   0  0  0  0  0  0  0  0  0  0  0  0
   -3.9702   -5.1973   15.9243 C   0  0  0  0  0  0  0  0  0  0  0  0
   -7.8311   -4.5659   12.4320 C   0  0  0  0  0  0  0  0  0  0  0  0
   -3.6245   -4.2313   14.7811 C   0  0  0  0  0  0  0  0  0  0  0  0
   -3.3300   -4.9628   13.4895 C   0  0  0  0  0  0  0  0  0  0  0  0
   -8.2605   -4.4014   10.9760 C   0  0  0  0  0  0  0  0  0  0  0  0
   -4.2181   -4.9804   12.3931 C   0  0  0  0  0  0  0  0  0  0  0  0
   -5.4827   -4.2221   12.4185 C   0  0  0  0  0  0  0  0  0  0  0  0
   -2.1291   -5.6868   13.3813 C   0  0  0  0  0  0  0  0  0  0  0  0
   -3.8997   -5.7040   11.2319 C   0  0  0  0  0  0  0  0  0  0  0  0
   -1.8335   -6.4045   12.2243 C   0  0  0  0  0  0  0  0  0  0  0  0
   -2.7093   -6.4231   11.1454 C   0  0  0  0  0  0  0  0  0  0  0  0
   -8.5816   -3.8190   18.6893 H   0  0  0  0  0  0  0  0  0  0  0  0
   -5.5622   -5.2182   10.2140 H   0  0  0  0  0  0  0  0  0  0  0  0
   -0.0755   -7.0641   12.9247 H   0  0  0  0  0  0  0  0  0  0  0  0
  1  6  1  0
  1 24  1  0
  2 14  1  0
  2 19  1  0
  3 19  2  0
  4 21  1  0
  4 25  1  0
  5 22  1  0
  5 26  1  0
  6  7  1  0
  6  8  1  0
  7  9  1  0
  8 10  1  0
  9 11  1  0
 10 12  1  0
 11 13  1  0
 12 14  1  0
 13 15  1  0
 14 17  1  0
 15 16  1  0
 16 18  2  0
 16 20  1  0
 18 19  1  0
 18 21  1  0
 20 22  2  0
 21 23  2  0
 22 23  1  0
M  END
> <PUBCHEM_COMPOUND_CID>
2999413

> <PUBCHEM_CONFORMER_RMSD>
0.6

> <PUBCHEM_CONFORMER_DIVERSEORDER>
1
6
14
27
9
16
11
26
8
2
22
5
20
28
18
17
29
3
24
19
21
13
15
7
23
4
25
12
10

> <PUBCHEM_MMFF94_PARTIAL_CHARGES>
20
1 -0.68
14 0.28
15 0.14
16 -0.14
18 0.09
19 0.63
2 -0.43
20 -0.15
21 0.08
22 0.08
23 -0.15
3 -0.57
4 -0.53
45 0.4
46 0.15
47 0.15
48 0.45
49 0.45
5 -0.53
6 0.28

> <PUBCHEM_EFFECTIVE_ROTOR_COUNT>
2.2

> <PUBCHEM_PHARMACOPHORE_FEATURES>
6
1 1 acceptor
1 1 donor
1 3 acceptor
1 4 donor
1 5 donor
6 16 18 20 21 22 23 rings

> <PUBCHEM_HEAVY_ATOM_COUNT>
23

> <PUBCHEM_ATOM_DEF_STEREO_COUNT>
2

> <PUBCHEM_ATOM_UDEF_STEREO_COUNT>
0

> <PUBCHEM_BOND_DEF_STEREO_COUNT>
0

> <PUBCHEM_BOND_UDEF_STEREO_COUNT>
0

> <PUBCHEM_ISOTOPIC_ATOM_COUNT>
0

> <PUBCHEM_COMPONENT_COUNT>
1

> <PUBCHEM_CACTVS_TAUTO_COUNT>
25

> <PUBCHEM_CONFORMER_ID>
002DC47500000001

> <PUBCHEM_MMFF94_ENERGY>
51.6521

> <PUBCHEM_FEATURE_SELFOVERLAP>
30.446

> <PUBCHEM_SHAPE_FINGERPRINT>
104564 63 18340206271993051459
10498660 4 18187631549186102207
10577160 183 17606693423048979742
10616163 171 18266175029013727061
10759866 29 17750229218859711762
108634 29 18411143511243732574
1100329 8 17185877190433830119
11578080 2 17058915861662947194
116883 192 18412832382636582198
12011746 2 18335696144590423807
12054548 360 18337387261554875763
12156800 1 11695045847065978403
12553582 1 18337941355723699521
12788726 201 18339079272527017530
12954195 1 18196384628153038830
13402501 40 18410292523613913767
13533116 47 17911794988931237615
13941206 138 17823424798885047762
14178342 30 17618481208803059632
14251740 79 18268155262187636390
14251745 187 18265888240930317283
14251751 93 18337386020182837502
14251757 17 18340208496912958262
14251757 5 18336274478600052878
14289585 56 17025448677686211638
14363568 33 17831602116089395611
14790565 3 18338242566191680045
14931854 50 18192983829844991199
15081414 286 18267592488269592273
15210252 30 18041841838786063412
17093844 170 18338788043621724272
17357779 13 18338788026679147463
19591789 44 18410009931708134251
20775438 99 17121094438368206175
21141583 151 18411697703262438637
21634736 98 18410570674064001468
221357 26 18411697699342485711
221490 88 18411139126039522364
22393880 68 18190738627232927852
22907989 373 17973200346140242700
23379529 103 18202007594804787190
23419403 2 17703496796872386008
23559900 14 18341611543049219120
23566358 2 18411982468764321124
238 59 17976219553578124023
2871803 45 18335692832737868381
3014063 31 18410290320121227783
6287921 2 17544481216121896507

> <PUBCHEM_SHAPE_MULTIPOLES>
443.98
8.13
4.23
1.13
0.08
1.63
0.2
-3.4
-2.74
-1.52
0.36
0
0.19
0.73

> <PUBCHEM_SHAPE_SELFOVERLAP>
910.639

> <PUBCHEM_SHAPE_VOLUME>
254.2

> <PUBCHEM_COORDINATE_TYPE>
2
5
10

> <Energy>
43.3336

> <minimizedAffinity>
16.65243

> <CNNscore>
0.1511443257

> <CNNaffinity>
3.8009681702

> <CNN_VS>
0.5744947791

> <CNNaffinity_variance>
2.1729266644

$$$$
2999413


 26 27  0  0  0  0  0  0  0  0999 V2000
   -4.1778   -3.7235   15.9018 O   0  0  0  0  0  0  0  0  0  0  0  0
   -8.9132   -3.8739   12.3471 O   0  0  0  0  0  0  0  0  0  0  0  0
   -7.8201   -2.3167   11.0373 O   0  0  0  0  0  0  0  0  0  0  0  0
  -10.7848   -4.1454   10.0906 O   0  0  0  0  0  0  0  0  0  0  0  0
   -8.6990   -7.4078    7.2837 O   0  0  0  0  0  0  0  0  0  0  0  0
   -5.2457   -4.5977   15.5383 C   0  0  0  0  0  0  0  0  0  0  0  0
   -4.7767   -5.4874   14.3780 C   0  0  0  0  0  0  0  0  0  0  0  0
   -6.4997   -3.7602   15.2439 C   0  0  0  0  0  0  0  0  0  0  0  0
   -4.2764   -4.7119   13.1499 C   0  0  0  0  0  0  0  0  0  0  0  0
   -7.7364   -4.6091   14.9392 C   0  0  0  0  0  0  0  0  0  0  0  0
   -4.0605   -5.6229   11.9349 C   0  0  0  0  0  0  0  0  0  0  0  0
   -9.0063   -3.7710   14.7417 C   0  0  0  0  0  0  0  0  0  0  0  0
   -5.3605   -5.9823   11.2026 C   0  0  0  0  0  0  0  0  0  0  0  0
   -9.0037   -2.9489   13.4449 C   0  0  0  0  0  0  0  0  0  0  0  0
   -5.8648   -4.8448   10.3018 C   0  0  0  0  0  0  0  0  0  0  0  0
   -7.2433   -5.1296    9.7461 C   0  0  0  0  0  0  0  0  0  0  0  0
  -10.3009   -2.1541   13.3154 C   0  0  0  0  0  0  0  0  0  0  0  0
   -8.4076   -4.4719   10.1964 C   0  0  0  0  0  0  0  0  0  0  0  0
   -8.3411   -3.4044   11.2118 C   0  0  0  0  0  0  0  0  0  0  0  0
   -7.3815   -6.1172    8.7544 C   0  0  0  0  0  0  0  0  0  0  0  0
   -9.6634   -4.8033    9.6611 C   0  0  0  0  0  0  0  0  0  0  0  0
   -8.6361   -6.4374    8.2401 C   0  0  0  0  0  0  0  0  0  0  0  0
   -9.7829   -5.7908    8.6853 C   0  0  0  0  0  0  0  0  0  0  0  0
   -3.3822   -4.2456   16.0893 H   0  0  0  0  0  0  0  0  0  0  0  0
  -10.7151   -3.4798   10.7464 H   0  0  0  0  0  0  0  0  0  0  0  0
   -7.9154   -7.8332    6.9957 H   0  0  0  0  0  0  0  0  0  0  0  0
  1  6  1  0
  1 24  1  0
  2 14  1  0
  2 19  1  0
  3 19  2  0
  4 21  1  0
  4 25  1  0
  5 22  1  0
  5 26  1  0
  6  7  1  0
  6  8  1  0
  7  9  1  0
  8 10  1  0
  9 11  1  0
 10 12  1  0
 11 13  1  0
 12 14  1  0
 13 15  1  0
 14 17  1  0
 15 16  1  0
 16 18  2  0
 16 20  1  0
 18 19  1  0
 18 21  1  0
 20 22  2  0
 21 23  2  0
 22 23  1  0
M  END
> <PUBCHEM_COMPOUND_CID>
2999413

> <PUBCHEM_CONFORMER_RMSD>
0.6

> <PUBCHEM_CONFORMER_DIVERSEORDER>
1
6
14
27
9
16
11
26
8
2
22
5
20
28
18
17
29
3
24
19
21
13
15
7
23
4
25
12
10

> <PUBCHEM_MMFF94_PARTIAL_CHARGES>
20
1 -0.68
14 0.28
15 0.14
16 -0.14
18 0.09
19 0.63
2 -0.43
20 -0.15
21 0.08
22 0.08
23 -0.15
3 -0.57
4 -0.53
45 0.4
46 0.15
47 0.15
48 0.45
49 0.45
5 -0.53
6 0.28

> <PUBCHEM_EFFECTIVE_ROTOR_COUNT>
2.2

> <PUBCHEM_PHARMACOPHORE_FEATURES>
6
1 1 acceptor
1 1 donor
1 3 acceptor
1 4 donor
1 5 donor
6 16 18 20 21 22 23 rings

> <PUBCHEM_HEAVY_ATOM_COUNT>
23

> <PUBCHEM_ATOM_DEF_STEREO_COUNT>
2

> <PUBCHEM_ATOM_UDEF_STEREO_COUNT>
0

> <PUBCHEM_BOND_DEF_STEREO_COUNT>
0

> <PUBCHEM_BOND_UDEF_STEREO_COUNT>
0

> <PUBCHEM_ISOTOPIC_ATOM_COUNT>
0

> <PUBCHEM_COMPONENT_COUNT>
1

> <PUBCHEM_CACTVS_TAUTO_COUNT>
25

> <PUBCHEM_CONFORMER_ID>
002DC47500000001

> <PUBCHEM_MMFF94_ENERGY>
51.6521

> <PUBCHEM_FEATURE_SELFOVERLAP>
30.446

> <PUBCHEM_SHAPE_FINGERPRINT>
104564 63 18340206271993051459
10498660 4 18187631549186102207
10577160 183 17606693423048979742
10616163 171 18266175029013727061
10759866 29 17750229218859711762
108634 29 18411143511243732574
1100329 8 17185877190433830119
11578080 2 17058915861662947194
116883 192 18412832382636582198
12011746 2 18335696144590423807
12054548 360 18337387261554875763
12156800 1 11695045847065978403
12553582 1 18337941355723699521
12788726 201 18339079272527017530
12954195 1 18196384628153038830
13402501 40 18410292523613913767
13533116 47 17911794988931237615
13941206 138 17823424798885047762
14178342 30 17618481208803059632
14251740 79 18268155262187636390
14251745 187 18265888240930317283
14251751 93 18337386020182837502
14251757 17 18340208496912958262
14251757 5 18336274478600052878
14289585 56 17025448677686211638
14363568 33 17831602116089395611
14790565 3 18338242566191680045
14931854 50 18192983829844991199
15081414 286 18267592488269592273
15210252 30 18041841838786063412
17093844 170 18338788043621724272
17357779 13 18338788026679147463
19591789 44 18410009931708134251
20775438 99 17121094438368206175
21141583 151 18411697703262438637
21634736 98 18410570674064001468
221357 26 18411697699342485711
221490 88 18411139126039522364
22393880 68 18190738627232927852
22907989 373 17973200346140242700
23379529 103 18202007594804787190
23419403 2 17703496796872386008
23559900 14 18341611543049219120
23566358 2 18411982468764321124
238 59 17976219553578124023
2871803 45 18335692832737868381
3014063 31 18410290320121227783
6287921 2 17544481216121896507

> <PUBCHEM_SHAPE_MULTIPOLES>
443.98
8.13
4.23
1.13
0.08
1.63
0.2
-3.4
-2.74
-1.52
0.36
0
0.19
0.73

> <PUBCHEM_SHAPE_SELFOVERLAP>
910.639

> <PUBCHEM_SHAPE_VOLUME>
254.2

> <PUBCHEM_COORDINATE_TYPE>
2
5
10

> <Energy>
43.3336

> <minimizedAffinity>
-7.45407

> <CNNscore>
0.1463513225

> <CNNaffinity>
6.0236067772

> <CNN_VS>
0.8815628290

> <CNNaffinity_variance>
0.1253665686

$$$$
2999413


 26 27  0  0  0  0  0  0  0  0999 V2000
  -11.5123   -4.2440    8.7842 O   0  0  0  0  0  0  0  0  0  0  0  0
   -7.7552   -3.7933   13.3409 O   0  0  0  0  0  0  0  0  0  0  0  0
   -8.2274   -6.0104   13.7841 O   0  0  0  0  0  0  0  0  0  0  0  0
   -5.5481   -4.0982   15.2656 O   0  0  0  0  0  0  0  0  0  0  0  0
   -1.9558   -5.7912   12.6008 O   0  0  0  0  0  0  0  0  0  0  0  0
  -10.3839   -3.4755    9.2000 C   0  0  0  0  0  0  0  0  0  0  0  0
   -9.1107   -4.1458    8.6636 C   0  0  0  0  0  0  0  0  0  0  0  0
  -10.4298   -3.3046   10.7262 C   0  0  0  0  0  0  0  0  0  0  0  0
   -8.9446   -5.6138    9.0844 C   0  0  0  0  0  0  0  0  0  0  0  0
   -9.3140   -2.4079   11.2684 C   0  0  0  0  0  0  0  0  0  0  0  0
   -7.5530   -6.1624    8.7449 C   0  0  0  0  0  0  0  0  0  0  0  0
   -9.4218   -2.1623   12.7791 C   0  0  0  0  0  0  0  0  0  0  0  0
   -6.4677   -5.7337    9.7417 C   0  0  0  0  0  0  0  0  0  0  0  0
   -9.1100   -3.4039   13.6267 C   0  0  0  0  0  0  0  0  0  0  0  0
   -6.5072   -6.5474   11.0440 C   0  0  0  0  0  0  0  0  0  0  0  0
   -5.5720   -5.9857   12.0928 C   0  0  0  0  0  0  0  0  0  0  0  0
   -9.2269   -3.0771   15.1135 C   0  0  0  0  0  0  0  0  0  0  0  0
   -6.0219   -5.2840   13.2313 C   0  0  0  0  0  0  0  0  0  0  0  0
   -7.4604   -5.1060   13.5034 C   0  0  0  0  0  0  0  0  0  0  0  0
   -4.1855   -6.1406   11.9148 C   0  0  0  0  0  0  0  0  0  0  0  0
   -5.1008   -4.7603   14.1536 C   0  0  0  0  0  0  0  0  0  0  0  0
   -3.2867   -5.6082   12.8366 C   0  0  0  0  0  0  0  0  0  0  0  0
   -3.7301   -4.9155   13.9568 C   0  0  0  0  0  0  0  0  0  0  0  0
  -11.4900   -4.3561    7.8210 H   0  0  0  0  0  0  0  0  0  0  0  0
   -6.4678   -3.9885   15.4071 H   0  0  0  0  0  0  0  0  0  0  0  0
   -1.6750   -6.2609   11.8401 H   0  0  0  0  0  0  0  0  0  0  0  0
  1  6  1  0
  1 24  1  0
  2 14  1  0
  2 19  1  0
  3 19  2  0
  4 21  1  0
  4 25  1  0
  5 22  1  0
  5 26  1  0
  6  7  1  0
  6  8  1  0
  7  9  1  0
  8 10  1  0
  9 11  1  0
 10 12  1  0
 11 13  1  0
 12 14  1  0
 13 15  1  0
 14 17  1  0
 15 16  1  0
 16 18  2  0
 16 20  1  0
 18 19  1  0
 18 21  1  0
 20 22  2  0
 21 23  2  0
 22 23  1  0
M  END
> <PUBCHEM_COMPOUND_CID>
2999413

> <PUBCHEM_CONFORMER_RMSD>
0.6

> <PUBCHEM_CONFORMER_DIVERSEORDER>
1
6
14
27
9
16
11
26
8
2
22
5
20
28
18
17
29
3
24
19
21
13
15
7
23
4
25
12
10

> <PUBCHEM_MMFF94_PARTIAL_CHARGES>
20
1 -0.68
14 0.28
15 0.14
16 -0.14
18 0.09
19 0.63
2 -0.43
20 -0.15
21 0.08
22 0.08
23 -0.15
3 -0.57
4 -0.53
45 0.4
46 0.15
47 0.15
48 0.45
49 0.45
5 -0.53
6 0.28

> <PUBCHEM_EFFECTIVE_ROTOR_COUNT>
2.2

> <PUBCHEM_PHARMACOPHORE_FEATURES>
6
1 1 acceptor
1 1 donor
1 3 acceptor
1 4 donor
1 5 donor
6 16 18 20 21 22 23 rings

> <PUBCHEM_HEAVY_ATOM_COUNT>
23

> <PUBCHEM_ATOM_DEF_STEREO_COUNT>
2

> <PUBCHEM_ATOM_UDEF_STEREO_COUNT>
0

> <PUBCHEM_BOND_DEF_STEREO_COUNT>
0

> <PUBCHEM_BOND_UDEF_STEREO_COUNT>
0

> <PUBCHEM_ISOTOPIC_ATOM_COUNT>
0

> <PUBCHEM_COMPONENT_COUNT>
1

> <PUBCHEM_CACTVS_TAUTO_COUNT>
25

> <PUBCHEM_CONFORMER_ID>
002DC47500000001

> <PUBCHEM_MMFF94_ENERGY>
51.6521

> <PUBCHEM_FEATURE_SELFOVERLAP>
30.446

> <PUBCHEM_SHAPE_FINGERPRINT>
104564 63 18340206271993051459
10498660 4 18187631549186102207
10577160 183 17606693423048979742
10616163 171 18266175029013727061
10759866 29 17750229218859711762
108634 29 18411143511243732574
1100329 8 17185877190433830119
11578080 2 17058915861662947194
116883 192 18412832382636582198
12011746 2 18335696144590423807
12054548 360 18337387261554875763
12156800 1 11695045847065978403
12553582 1 18337941355723699521
12788726 201 18339079272527017530
12954195 1 18196384628153038830
13402501 40 18410292523613913767
13533116 47 17911794988931237615
13941206 138 17823424798885047762
14178342 30 17618481208803059632
14251740 79 18268155262187636390
14251745 187 18265888240930317283
14251751 93 18337386020182837502
14251757 17 18340208496912958262
14251757 5 18336274478600052878
14289585 56 17025448677686211638
14363568 33 17831602116089395611
14790565 3 18338242566191680045
14931854 50 18192983829844991199
15081414 286 18267592488269592273
15210252 30 18041841838786063412
17093844 170 18338788043621724272
17357779 13 18338788026679147463
19591789 44 18410009931708134251
20775438 99 17121094438368206175
21141583 151 18411697703262438637
21634736 98 18410570674064001468
221357 26 18411697699342485711
221490 88 18411139126039522364
22393880 68 18190738627232927852
22907989 373 17973200346140242700
23379529 103 18202007594804787190
23419403 2 17703496796872386008
23559900 14 18341611543049219120
23566358 2 18411982468764321124
238 59 17976219553578124023
2871803 45 18335692832737868381
3014063 31 18410290320121227783
6287921 2 17544481216121896507

> <PUBCHEM_SHAPE_MULTIPOLES>
443.98
8.13
4.23
1.13
0.08
1.63
0.2
-3.4
-2.74
-1.52
0.36
0
0.19
0.73

> <PUBCHEM_SHAPE_SELFOVERLAP>
910.639

> <PUBCHEM_SHAPE_VOLUME>
254.2

> <PUBCHEM_COORDINATE_TYPE>
2
5
10

> <Energy>
43.3336

> <minimizedAffinity>
-2.89825

> <CNNscore>
0.1181430891

> <CNNaffinity>
5.7583656311

> <CNN_VS>
0.6803110838

> <CNNaffinity_variance>
0.0345988311

$$$$
2999413


 26 27  0  0  0  0  0  0  0  0999 V2000
   -4.6433   -4.6339   13.3494 O   0  0  0  0  0  0  0  0  0  0  0  0
   -9.1021   -4.8953    9.4593 O   0  0  0  0  0  0  0  0  0  0  0  0
   -9.9634   -6.6024   10.7551 O   0  0  0  0  0  0  0  0  0  0  0  0
  -11.7159   -4.8904    8.1042 O   0  0  0  0  0  0  0  0  0  0  0  0
  -14.3862   -1.9963   10.8184 O   0  0  0  0  0  0  0  0  0  0  0  0
   -5.3216   -3.8061   12.4053 C   0  0  0  0  0  0  0  0  0  0  0  0
   -6.4540   -3.0639   13.1297 C   0  0  0  0  0  0  0  0  0  0  0  0
   -5.7718   -4.6685   11.2161 C   0  0  0  0  0  0  0  0  0  0  0  0
   -7.4512   -3.9831   13.8512 C   0  0  0  0  0  0  0  0  0  0  0  0
   -6.4253   -3.8580   10.0941 C   0  0  0  0  0  0  0  0  0  0  0  0
   -8.6921   -3.2254   14.3400 C   0  0  0  0  0  0  0  0  0  0  0  0
   -6.7846   -4.7093    8.8694 C   0  0  0  0  0  0  0  0  0  0  0  0
   -9.7169   -2.9522   13.2307 C   0  0  0  0  0  0  0  0  0  0  0  0
   -7.9471   -5.6813    9.1170 C   0  0  0  0  0  0  0  0  0  0  0  0
  -10.5640   -4.1879   12.8916 C   0  0  0  0  0  0  0  0  0  0  0  0
  -11.4250   -3.9672   11.6669 C   0  0  0  0  0  0  0  0  0  0  0  0
   -8.2512   -6.4814    7.8526 C   0  0  0  0  0  0  0  0  0  0  0  0
  -11.1543   -4.5618   10.4162 C   0  0  0  0  0  0  0  0  0  0  0  0
  -10.0300   -5.4998   10.2405 C   0  0  0  0  0  0  0  0  0  0  0  0
  -12.5321   -3.1054   11.7653 C   0  0  0  0  0  0  0  0  0  0  0  0
  -11.9753   -4.2928    9.3086 C   0  0  0  0  0  0  0  0  0  0  0  0
  -13.3311   -2.8449   10.6541 C   0  0  0  0  0  0  0  0  0  0  0  0
  -13.0631   -3.4293    9.4219 C   0  0  0  0  0  0  0  0  0  0  0  0
   -4.3559   -4.0959   14.1036 H   0  0  0  0  0  0  0  0  0  0  0  0
  -10.9869   -5.4726    8.0175 H   0  0  0  0  0  0  0  0  0  0  0  0
  -14.5517   -1.6114   11.6565 H   0  0  0  0  0  0  0  0  0  0  0  0
  1  6  1  0
  1 24  1  0
  2 14  1  0
  2 19  1  0
  3 19  2  0
  4 21  1  0
  4 25  1  0
  5 22  1  0
  5 26  1  0
  6  7  1  0
  6  8  1  0
  7  9  1  0
  8 10  1  0
  9 11  1  0
 10 12  1  0
 11 13  1  0
 12 14  1  0
 13 15  1  0
 14 17  1  0
 15 16  1  0
 16 18  2  0
 16 20  1  0
 18 19  1  0
 18 21  1  0
 20 22  2  0
 21 23  2  0
 22 23  1  0
M  END
> <PUBCHEM_COMPOUND_CID>
2999413

> <PUBCHEM_CONFORMER_RMSD>
0.6

> <PUBCHEM_CONFORMER_DIVERSEORDER>
1
6
14
27
9
16
11
26
8
2
22
5
20
28
18
17
29
3
24
19
21
13
15
7
23
4
25
12
10

> <PUBCHEM_MMFF94_PARTIAL_CHARGES>
20
1 -0.68
14 0.28
15 0.14
16 -0.14
18 0.09
19 0.63
2 -0.43
20 -0.15
21 0.08
22 0.08
23 -0.15
3 -0.57
4 -0.53
45 0.4
46 0.15
47 0.15
48 0.45
49 0.45
5 -0.53
6 0.28

> <PUBCHEM_EFFECTIVE_ROTOR_COUNT>
2.2

> <PUBCHEM_PHARMACOPHORE_FEATURES>
6
1 1 acceptor
1 1 donor
1 3 acceptor
1 4 donor
1 5 donor
6 16 18 20 21 22 23 rings

> <PUBCHEM_HEAVY_ATOM_COUNT>
23

> <PUBCHEM_ATOM_DEF_STEREO_COUNT>
2

> <PUBCHEM_ATOM_UDEF_STEREO_COUNT>
0

> <PUBCHEM_BOND_DEF_STEREO_COUNT>
0

> <PUBCHEM_BOND_UDEF_STEREO_COUNT>
0

> <PUBCHEM_ISOTOPIC_ATOM_COUNT>
0

> <PUBCHEM_COMPONENT_COUNT>
1

> <PUBCHEM_CACTVS_TAUTO_COUNT>
25

> <PUBCHEM_CONFORMER_ID>
002DC47500000001

> <PUBCHEM_MMFF94_ENERGY>
51.6521

> <PUBCHEM_FEATURE_SELFOVERLAP>
30.446

> <PUBCHEM_SHAPE_FINGERPRINT>
104564 63 18340206271993051459
10498660 4 18187631549186102207
10577160 183 17606693423048979742
10616163 171 18266175029013727061
10759866 29 17750229218859711762
108634 29 18411143511243732574
1100329 8 17185877190433830119
11578080 2 17058915861662947194
116883 192 18412832382636582198
12011746 2 18335696144590423807
12054548 360 18337387261554875763
12156800 1 11695045847065978403
12553582 1 18337941355723699521
12788726 201 18339079272527017530
12954195 1 18196384628153038830
13402501 40 18410292523613913767
13533116 47 17911794988931237615
13941206 138 17823424798885047762
14178342 30 17618481208803059632
14251740 79 18268155262187636390
14251745 187 18265888240930317283
14251751 93 18337386020182837502
14251757 17 18340208496912958262
14251757 5 18336274478600052878
14289585 56 17025448677686211638
14363568 33 17831602116089395611
14790565 3 18338242566191680045
14931854 50 18192983829844991199
15081414 286 18267592488269592273
15210252 30 18041841838786063412
17093844 170 18338788043621724272
17357779 13 18338788026679147463
19591789 44 18410009931708134251
20775438 99 17121094438368206175
21141583 151 18411697703262438637
21634736 98 18410570674064001468
221357 26 18411697699342485711
221490 88 18411139126039522364
22393880 68 18190738627232927852
22907989 373 17973200346140242700
23379529 103 18202007594804787190
23419403 2 17703496796872386008
23559900 14 18341611543049219120
23566358 2 18411982468764321124
238 59 17976219553578124023
2871803 45 18335692832737868381
3014063 31 18410290320121227783
6287921 2 17544481216121896507

> <PUBCHEM_SHAPE_MULTIPOLES>
443.98
8.13
4.23
1.13
0.08
1.63
0.2
-3.4
-2.74
-1.52
0.36
0
0.19
0.73

> <PUBCHEM_SHAPE_SELFOVERLAP>
910.639

> <PUBCHEM_SHAPE_VOLUME>
254.2

> <PUBCHEM_COORDINATE_TYPE>
2
5
10

> <Energy>
43.3336

> <minimizedAffinity>
10.44461

> <CNNscore>
0.1177141666

> <CNNaffinity>
5.6400909424

> <CNN_VS>
0.6639186144

> <CNNaffinity_variance>
0.0027984118

$$$$
