448537


 22 23  0  0  0  0  0  0  0  0999 V2000
   23.3158    3.4710    6.5832 C   0  0  0  0  0  0  0  0  0  0  0  0
   23.9643    4.5797    7.0192 C   0  0  0  0  0  0  0  0  0  0  0  0
   19.4897    3.7937    2.4678 O   0  0  0  0  0  0  0  0  0  0  0  0
   22.3041    3.5644    5.5111 C   0  0  0  0  0  0  0  0  0  0  0  0
   20.9453    3.6865    5.8314 C   0  0  0  0  0  0  0  0  0  0  0  0
   22.6935    3.5246    4.1662 C   0  0  0  0  0  0  0  0  0  0  0  0
   19.9862    3.7643    4.8183 C   0  0  0  0  0  0  0  0  0  0  0  0
   21.7349    3.6028    3.1546 C   0  0  0  0  0  0  0  0  0  0  0  0
   20.3916    3.7218    3.4883 C   0  0  0  0  0  0  0  0  0  0  0  0
   18.5753    3.8745    2.6555 H   0  0  0  0  0  0  0  0  0  0  0  0
   27.8117    4.2633   11.1155 O   0  0  0  0  0  0  0  0  0  0  0  0
   24.9783    4.4867    8.0898 C   0  0  0  0  0  0  0  0  0  0  0  0
   24.6020    4.5950    9.4345 C   0  0  0  0  0  0  0  0  0  0  0  0
   26.3282    4.2986    7.7655 C   0  0  0  0  0  0  0  0  0  0  0  0
   25.5668    4.5178   10.4404 C   0  0  0  0  0  0  0  0  0  0  0  0
   27.2926    4.2205    8.7710 C   0  0  0  0  0  0  0  0  0  0  0  0
   26.9022    4.3318   10.1017 C   0  0  0  0  0  0  0  0  0  0  0  0
   27.5283    4.3405   12.0052 H   0  0  0  0  0  0  0  0  0  0  0  0
   23.5566    2.0550    7.0759 C   0  0  0  0  0  0  0  0  0  0  0  0
   22.5237    1.5935    8.0959 C   0  0  0  0  0  0  0  0  0  0  0  0
   23.7800    5.9838    6.4717 C   0  0  0  0  0  0  0  0  0  0  0  0
   24.7512    6.9907    7.0743 C   0  0  0  0  0  0  0  0  0  0  0  0
  3  9  1  0
  3 10  1  0
 11 17  1  0
 11 18  1  0
  1  2  2  0
  1 19  1  0
  1  4  1  0
  2 21  1  0
  2 12  1  0
 19 20  1  0
 21 22  1  0
  4  5  2  0
  4  6  1  0
 12 13  2  0
 12 14  1  0
  5  7  1  0
 13 15  1  0
  6  8  2  0
 14 16  2  0
  7  9  2  0
 15 17  2  0
  8  9  1  0
 16 17  1  0
M  END
> <PUBCHEM_COMPOUND_CID>
448537

> <PUBCHEM_CONFORMER_RMSD>
0.6

> <PUBCHEM_CONFORMER_DIVERSEORDER>
1
3
2

> <PUBCHEM_MMFF94_PARTIAL_CHARGES>
28
1 -0.53
11 -0.15
12 -0.15
13 -0.15
14 -0.15
15 -0.15
16 -0.15
17 -0.15
18 -0.15
19 0.08
2 -0.53
20 0.08
3 -0.17
31 0.15
32 0.15
33 0.15
34 0.15
35 0.15
36 0.15
37 0.15
38 0.15
39 0.45
4 -0.17
40 0.45
5 0.14
6 0.14
7 0.03
8 0.03

> <PUBCHEM_EFFECTIVE_ROTOR_COUNT>
4

> <PUBCHEM_PHARMACOPHORE_FEATURES>
6
1 1 donor
1 10 hydrophobe
1 2 donor
1 9 hydrophobe
6 7 11 13 15 17 19 rings
6 8 12 14 16 18 20 rings

> <PUBCHEM_HEAVY_ATOM_COUNT>
20

> <PUBCHEM_ATOM_DEF_STEREO_COUNT>
0

> <PUBCHEM_ATOM_UDEF_STEREO_COUNT>
0

> <PUBCHEM_BOND_DEF_STEREO_COUNT>
1

> <PUBCHEM_BOND_UDEF_STEREO_COUNT>
0

> <PUBCHEM_ISOTOPIC_ATOM_COUNT>
0

> <PUBCHEM_COMPONENT_COUNT>
1

> <PUBCHEM_CACTVS_TAUTO_COUNT>
3

> <PUBCHEM_CONFORMER_ID>
0006D81900000001

> <PUBCHEM_MMFF94_ENERGY>
60.231

> <PUBCHEM_FEATURE_SELFOVERLAP>
30.447

> <PUBCHEM_SHAPE_FINGERPRINT>
10366900 7 18186514428534874893
104564 63 18339924792832442081
10906281 52 18129397028286092948
11646440 116 18130798871235594657
12592029 89 16950278473467191938
12788726 201 18270697410649816016
13140716 1 18266458895859843337
13533116 47 18340201896197096762
13760787 19 16660644076447957075
14115302 16 18186806919849492430
14341114 176 15647057049052281551
15099037 51 18335139812416525942
15848700 24 18202843262111810220
15848702 151 16988848262958300981
16752209 62 18335696105492573576
16945 1 18410855473013063775
1813 80 18272378572207267076
18186145 218 18338228362096015613
187816 3 18410857663704853992
19141452 34 17131829889222033293
19784866 9 18113613452605694563
200 152 16950282905968490344
20028762 73 18055641861278493167
20600515 1 18340218469921978116
20645477 70 16009301016701038466
21285901 2 17917162606291067244
23175994 123 18333735723499757565
23402539 116 17988639696664490244
23493267 7 17313098635762053785
23557571 272 17489592229515708168
23559900 14 15554438621982335170
266924 87 18194116322357846868
347723 3 18410856551049855057
34934 24 18129105515976021729
3545911 37 15719391732852524422
4072396 5 18261662693185545291
4214541 1 15791727494979709055
465052 167 17240208741576471315
474 4 17917140731779840409
59755656 215 18270402685366324510
633830 44 18342455975941661781
69090 78 17060620005479420895
7226269 152 18410853270196137312
7495541 125 17531535390133293585
77779 3 15719110262139125926
81228 2 18128838385973970688
8272917 22 16660357039657468298
9971528 1 17775283884826915592

> <PUBCHEM_SHAPE_MULTIPOLES>
399.85
10.42
1.74
1.37
0
0
0.06
0
1.28
0
-0.74
0
0
-0.06

> <PUBCHEM_SHAPE_SELFOVERLAP>
850.96

> <PUBCHEM_SHAPE_VOLUME>
224.1

> <PUBCHEM_COORDINATE_TYPE>
2
5
10

> <Energy>
28.3223

> <minimizedAffinity>
-8.72902

> <CNNscore>
0.8939359188

> <CNNaffinity>
8.0963773727

> <CNN_VS>
7.2376427650

> <CNNaffinity_variance>
0.8429921269

$$$$
448537


 22 23  0  0  0  0  0  0  0  0999 V2000
   23.3279    3.4622    6.5542 C   0  0  0  0  0  0  0  0  0  0  0  0
   23.9353    4.5865    7.0090 C   0  0  0  0  0  0  0  0  0  0  0  0
   19.4737    3.7711    2.4639 O   0  0  0  0  0  0  0  0  0  0  0  0
   22.3242    3.5346    5.4730 C   0  0  0  0  0  0  0  0  0  0  0  0
   22.7277    3.4969    4.1315 C   0  0  0  0  0  0  0  0  0  0  0  0
   20.9621    3.6485    5.7792 C   0  0  0  0  0  0  0  0  0  0  0  0
   21.7803    3.5760    3.1076 C   0  0  0  0  0  0  0  0  0  0  0  0
   20.0160    3.7270    4.7558 C   0  0  0  0  0  0  0  0  0  0  0  0
   20.4321    3.6902    3.4309 C   0  0  0  0  0  0  0  0  0  0  0  0
   19.7177    3.7493    1.5595 H   0  0  0  0  0  0  0  0  0  0  0  0
   27.7839    4.2747   11.1045 O   0  0  0  0  0  0  0  0  0  0  0  0
   24.9412    4.5145    8.0888 C   0  0  0  0  0  0  0  0  0  0  0  0
   26.2985    4.3513    7.7841 C   0  0  0  0  0  0  0  0  0  0  0  0
   24.5417    4.5996    9.4289 C   0  0  0  0  0  0  0  0  0  0  0  0
   27.2421    4.2724    8.8096 C   0  0  0  0  0  0  0  0  0  0  0  0
   25.4852    4.5217   10.4541 C   0  0  0  0  0  0  0  0  0  0  0  0
   26.8292    4.3577   10.1343 C   0  0  0  0  0  0  0  0  0  0  0  0
   28.6838    4.1644   10.8682 H   0  0  0  0  0  0  0  0  0  0  0  0
   23.6103    2.0493    7.0335 C   0  0  0  0  0  0  0  0  0  0  0  0
   22.5709    1.5343    8.0208 C   0  0  0  0  0  0  0  0  0  0  0  0
   23.7102    5.9899    6.4754 C   0  0  0  0  0  0  0  0  0  0  0  0
   24.6521    7.0186    7.0876 C   0  0  0  0  0  0  0  0  0  0  0  0
  3  9  1  0
  3 10  1  0
 11 17  1  0
 11 18  1  0
  1  2  2  0
  1 19  1  0
  1  4  1  0
  2 21  1  0
  2 12  1  0
 19 20  1  0
 21 22  1  0
  4  5  2  0
  4  6  1  0
 12 13  2  0
 12 14  1  0
  5  7  1  0
 13 15  1  0
  6  8  2  0
 14 16  2  0
  7  9  2  0
 15 17  2  0
  8  9  1  0
 16 17  1  0
M  END
> <PUBCHEM_COMPOUND_CID>
448537

> <PUBCHEM_CONFORMER_RMSD>
0.6

> <PUBCHEM_CONFORMER_DIVERSEORDER>
1
3
2

> <PUBCHEM_MMFF94_PARTIAL_CHARGES>
28
1 -0.53
11 -0.15
12 -0.15
13 -0.15
14 -0.15
15 -0.15
16 -0.15
17 -0.15
18 -0.15
19 0.08
2 -0.53
20 0.08
3 -0.17
31 0.15
32 0.15
33 0.15
34 0.15
35 0.15
36 0.15
37 0.15
38 0.15
39 0.45
4 -0.17
40 0.45
5 0.14
6 0.14
7 0.03
8 0.03

> <PUBCHEM_EFFECTIVE_ROTOR_COUNT>
4

> <PUBCHEM_PHARMACOPHORE_FEATURES>
6
1 1 donor
1 10 hydrophobe
1 2 donor
1 9 hydrophobe
6 7 11 13 15 17 19 rings
6 8 12 14 16 18 20 rings

> <PUBCHEM_HEAVY_ATOM_COUNT>
20

> <PUBCHEM_ATOM_DEF_STEREO_COUNT>
0

> <PUBCHEM_ATOM_UDEF_STEREO_COUNT>
0

> <PUBCHEM_BOND_DEF_STEREO_COUNT>
1

> <PUBCHEM_BOND_UDEF_STEREO_COUNT>
0

> <PUBCHEM_ISOTOPIC_ATOM_COUNT>
0

> <PUBCHEM_COMPONENT_COUNT>
1

> <PUBCHEM_CACTVS_TAUTO_COUNT>
3

> <PUBCHEM_CONFORMER_ID>
0006D81900000001

> <PUBCHEM_MMFF94_ENERGY>
60.231

> <PUBCHEM_FEATURE_SELFOVERLAP>
30.447

> <PUBCHEM_SHAPE_FINGERPRINT>
10366900 7 18186514428534874893
104564 63 18339924792832442081
10906281 52 18129397028286092948
11646440 116 18130798871235594657
12592029 89 16950278473467191938
12788726 201 18270697410649816016
13140716 1 18266458895859843337
13533116 47 18340201896197096762
13760787 19 16660644076447957075
14115302 16 18186806919849492430
14341114 176 15647057049052281551
15099037 51 18335139812416525942
15848700 24 18202843262111810220
15848702 151 16988848262958300981
16752209 62 18335696105492573576
16945 1 18410855473013063775
1813 80 18272378572207267076
18186145 218 18338228362096015613
187816 3 18410857663704853992
19141452 34 17131829889222033293
19784866 9 18113613452605694563
200 152 16950282905968490344
20028762 73 18055641861278493167
20600515 1 18340218469921978116
20645477 70 16009301016701038466
21285901 2 17917162606291067244
23175994 123 18333735723499757565
23402539 116 17988639696664490244
23493267 7 17313098635762053785
23557571 272 17489592229515708168
23559900 14 15554438621982335170
266924 87 18194116322357846868
347723 3 18410856551049855057
34934 24 18129105515976021729
3545911 37 15719391732852524422
4072396 5 18261662693185545291
4214541 1 15791727494979709055
465052 167 17240208741576471315
474 4 17917140731779840409
59755656 215 18270402685366324510
633830 44 18342455975941661781
69090 78 17060620005479420895
7226269 152 18410853270196137312
7495541 125 17531535390133293585
77779 3 15719110262139125926
81228 2 18128838385973970688
8272917 22 16660357039657468298
9971528 1 17775283884826915592

> <PUBCHEM_SHAPE_MULTIPOLES>
399.85
10.42
1.74
1.37
0
0
0.06
0
1.28
0
-0.74
0
0
-0.06

> <PUBCHEM_SHAPE_SELFOVERLAP>
850.96

> <PUBCHEM_SHAPE_VOLUME>
224.1

> <PUBCHEM_COORDINATE_TYPE>
2
5
10

> <Energy>
28.3223

> <minimizedAffinity>
-8.77668

> <CNNscore>
0.8931335807

> <CNNaffinity>
8.0971765518

> <CNN_VS>
7.2318601608

> <CNNaffinity_variance>
0.8601192832

$$$$
448537


 22 23  0  0  0  0  0  0  0  0999 V2000
   23.9495    4.5725    7.0054 C   0  0  0  0  0  0  0  0  0  0  0  0
   23.3480    3.4483    6.5426 C   0  0  0  0  0  0  0  0  0  0  0  0
   27.7865    4.2557   11.1112 O   0  0  0  0  0  0  0  0  0  0  0  0
   24.9656    4.4961    8.0746 C   0  0  0  0  0  0  0  0  0  0  0  0
   26.3192    4.3307    7.7517 C   0  0  0  0  0  0  0  0  0  0  0  0
   24.5841    4.5812    9.4197 C   0  0  0  0  0  0  0  0  0  0  0  0
   27.2802    4.2476    8.7625 C   0  0  0  0  0  0  0  0  0  0  0  0
   25.5449    4.4987   10.4291 C   0  0  0  0  0  0  0  0  0  0  0  0
   26.8825    4.3328   10.0928 C   0  0  0  0  0  0  0  0  0  0  0  0
   28.6972    4.1440   10.9217 H   0  0  0  0  0  0  0  0  0  0  0  0
   19.5056    3.7690    2.4420 O   0  0  0  0  0  0  0  0  0  0  0  0
   22.3335    3.5237    5.4713 C   0  0  0  0  0  0  0  0  0  0  0  0
   22.7201    3.5013    4.1253 C   0  0  0  0  0  0  0  0  0  0  0  0
   20.9745    3.6281    5.7957 C   0  0  0  0  0  0  0  0  0  0  0  0
   21.7570    3.5846    3.1183 C   0  0  0  0  0  0  0  0  0  0  0  0
   20.0117    3.7105    4.7891 C   0  0  0  0  0  0  0  0  0  0  0  0
   20.4128    3.6888    3.4570 C   0  0  0  0  0  0  0  0  0  0  0  0
   19.7962    3.7525    1.5515 H   0  0  0  0  0  0  0  0  0  0  0  0
   23.7094    5.9800    6.4887 C   0  0  0  0  0  0  0  0  0  0  0  0
   24.6957    6.9978    7.0469 C   0  0  0  0  0  0  0  0  0  0  0  0
   23.6455    2.0329    7.0047 C   0  0  0  0  0  0  0  0  0  0  0  0
   22.5777    1.4729    7.9354 C   0  0  0  0  0  0  0  0  0  0  0  0
  3  9  1  0
  3 10  1  0
 11 17  1  0
 11 18  1  0
  1  2  2  0
  1 19  1  0
  1  4  1  0
  2 21  1  0
  2 12  1  0
 19 20  1  0
 21 22  1  0
  4  5  2  0
  4  6  1  0
 12 13  2  0
 12 14  1  0
  5  7  1  0
 13 15  1  0
  6  8  2  0
 14 16  2  0
  7  9  2  0
 15 17  2  0
  8  9  1  0
 16 17  1  0
M  END
> <PUBCHEM_COMPOUND_CID>
448537

> <PUBCHEM_CONFORMER_RMSD>
0.6

> <PUBCHEM_CONFORMER_DIVERSEORDER>
1
3
2

> <PUBCHEM_MMFF94_PARTIAL_CHARGES>
28
1 -0.53
11 -0.15
12 -0.15
13 -0.15
14 -0.15
15 -0.15
16 -0.15
17 -0.15
18 -0.15
19 0.08
2 -0.53
20 0.08
3 -0.17
31 0.15
32 0.15
33 0.15
34 0.15
35 0.15
36 0.15
37 0.15
38 0.15
39 0.45
4 -0.17
40 0.45
5 0.14
6 0.14
7 0.03
8 0.03

> <PUBCHEM_EFFECTIVE_ROTOR_COUNT>
4

> <PUBCHEM_PHARMACOPHORE_FEATURES>
6
1 1 donor
1 10 hydrophobe
1 2 donor
1 9 hydrophobe
6 7 11 13 15 17 19 rings
6 8 12 14 16 18 20 rings

> <PUBCHEM_HEAVY_ATOM_COUNT>
20

> <PUBCHEM_ATOM_DEF_STEREO_COUNT>
0

> <PUBCHEM_ATOM_UDEF_STEREO_COUNT>
0

> <PUBCHEM_BOND_DEF_STEREO_COUNT>
1

> <PUBCHEM_BOND_UDEF_STEREO_COUNT>
0

> <PUBCHEM_ISOTOPIC_ATOM_COUNT>
0

> <PUBCHEM_COMPONENT_COUNT>
1

> <PUBCHEM_CACTVS_TAUTO_COUNT>
3

> <PUBCHEM_CONFORMER_ID>
0006D81900000001

> <PUBCHEM_MMFF94_ENERGY>
60.231

> <PUBCHEM_FEATURE_SELFOVERLAP>
30.447

> <PUBCHEM_SHAPE_FINGERPRINT>
10366900 7 18186514428534874893
104564 63 18339924792832442081
10906281 52 18129397028286092948
11646440 116 18130798871235594657
12592029 89 16950278473467191938
12788726 201 18270697410649816016
13140716 1 18266458895859843337
13533116 47 18340201896197096762
13760787 19 16660644076447957075
14115302 16 18186806919849492430
14341114 176 15647057049052281551
15099037 51 18335139812416525942
15848700 24 18202843262111810220
15848702 151 16988848262958300981
16752209 62 18335696105492573576
16945 1 18410855473013063775
1813 80 18272378572207267076
18186145 218 18338228362096015613
187816 3 18410857663704853992
19141452 34 17131829889222033293
19784866 9 18113613452605694563
200 152 16950282905968490344
20028762 73 18055641861278493167
20600515 1 18340218469921978116
20645477 70 16009301016701038466
21285901 2 17917162606291067244
23175994 123 18333735723499757565
23402539 116 17988639696664490244
23493267 7 17313098635762053785
23557571 272 17489592229515708168
23559900 14 15554438621982335170
266924 87 18194116322357846868
347723 3 18410856551049855057
34934 24 18129105515976021729
3545911 37 15719391732852524422
4072396 5 18261662693185545291
4214541 1 15791727494979709055
465052 167 17240208741576471315
474 4 17917140731779840409
59755656 215 18270402685366324510
633830 44 18342455975941661781
69090 78 17060620005479420895
7226269 152 18410853270196137312
7495541 125 17531535390133293585
77779 3 15719110262139125926
81228 2 18128838385973970688
8272917 22 16660357039657468298
9971528 1 17775283884826915592

> <PUBCHEM_SHAPE_MULTIPOLES>
399.85
10.42
1.74
1.37
0
0
0.06
0
1.28
0
-0.74
0
0
-0.06

> <PUBCHEM_SHAPE_SELFOVERLAP>
850.96

> <PUBCHEM_SHAPE_VOLUME>
224.1

> <PUBCHEM_COORDINATE_TYPE>
2
5
10

> <Energy>
28.3223

> <minimizedAffinity>
-8.74934

> <CNNscore>
0.8928251266

> <CNNaffinity>
8.0963344574

> <CNN_VS>
7.2286109924

> <CNNaffinity_variance>
0.8678320050

$$$$
448537


 22 23  0  0  0  0  0  0  0  0999 V2000
   23.9224    4.5561    7.0257 C   0  0  0  0  0  0  0  0  0  0  0  0
   23.3071    3.4395    6.5625 C   0  0  0  0  0  0  0  0  0  0  0  0
   27.8018    4.2430   11.0918 O   0  0  0  0  0  0  0  0  0  0  0  0
   24.9311    4.4677    8.1011 C   0  0  0  0  0  0  0  0  0  0  0  0
   24.5464    4.5987    9.4423 C   0  0  0  0  0  0  0  0  0  0  0  0
   26.2806    4.2593    7.7891 C   0  0  0  0  0  0  0  0  0  0  0  0
   25.5010    4.5259   10.4600 C   0  0  0  0  0  0  0  0  0  0  0  0
   27.2337    4.1861    8.8063 C   0  0  0  0  0  0  0  0  0  0  0  0
   26.8368    4.3198   10.1310 C   0  0  0  0  0  0  0  0  0  0  0  0
   27.5706    4.3286   11.9957 H   0  0  0  0  0  0  0  0  0  0  0  0
   19.4937    3.8051    2.4386 O   0  0  0  0  0  0  0  0  0  0  0  0
   22.3000    3.5269    5.4851 C   0  0  0  0  0  0  0  0  0  0  0  0
   22.6932    3.4857    4.1414 C   0  0  0  0  0  0  0  0  0  0  0  0
   20.9417    3.6617    5.8013 C   0  0  0  0  0  0  0  0  0  0  0  0
   21.7373    3.5805    3.1286 C   0  0  0  0  0  0  0  0  0  0  0  0
   19.9861    3.7554    4.7887 C   0  0  0  0  0  0  0  0  0  0  0  0
   20.3937    3.7147    3.4592 C   0  0  0  0  0  0  0  0  0  0  0  0
   19.7886    3.7755    1.5498 H   0  0  0  0  0  0  0  0  0  0  0  0
   23.7060    5.9655    6.5039 C   0  0  0  0  0  0  0  0  0  0  0  0
   24.6873    6.9751    7.0852 C   0  0  0  0  0  0  0  0  0  0  0  0
   23.5811    2.0212    7.0301 C   0  0  0  0  0  0  0  0  0  0  0  0
   22.4388    1.4320    7.8475 C   0  0  0  0  0  0  0  0  0  0  0  0
  3  9  1  0
  3 10  1  0
 11 17  1  0
 11 18  1  0
  1  2  2  0
  1 19  1  0
  1  4  1  0
  2 21  1  0
  2 12  1  0
 19 20  1  0
 21 22  1  0
  4  5  2  0
  4  6  1  0
 12 13  2  0
 12 14  1  0
  5  7  1  0
 13 15  1  0
  6  8  2  0
 14 16  2  0
  7  9  2  0
 15 17  2  0
  8  9  1  0
 16 17  1  0
M  END
> <PUBCHEM_COMPOUND_CID>
448537

> <PUBCHEM_CONFORMER_RMSD>
0.6

> <PUBCHEM_CONFORMER_DIVERSEORDER>
1
3
2

> <PUBCHEM_MMFF94_PARTIAL_CHARGES>
28
1 -0.53
11 -0.15
12 -0.15
13 -0.15
14 -0.15
15 -0.15
16 -0.15
17 -0.15
18 -0.15
19 0.08
2 -0.53
20 0.08
3 -0.17
31 0.15
32 0.15
33 0.15
34 0.15
35 0.15
36 0.15
37 0.15
38 0.15
39 0.45
4 -0.17
40 0.45
5 0.14
6 0.14
7 0.03
8 0.03

> <PUBCHEM_EFFECTIVE_ROTOR_COUNT>
4

> <PUBCHEM_PHARMACOPHORE_FEATURES>
6
1 1 donor
1 10 hydrophobe
1 2 donor
1 9 hydrophobe
6 7 11 13 15 17 19 rings
6 8 12 14 16 18 20 rings

> <PUBCHEM_HEAVY_ATOM_COUNT>
20

> <PUBCHEM_ATOM_DEF_STEREO_COUNT>
0

> <PUBCHEM_ATOM_UDEF_STEREO_COUNT>
0

> <PUBCHEM_BOND_DEF_STEREO_COUNT>
1

> <PUBCHEM_BOND_UDEF_STEREO_COUNT>
0

> <PUBCHEM_ISOTOPIC_ATOM_COUNT>
0

> <PUBCHEM_COMPONENT_COUNT>
1

> <PUBCHEM_CACTVS_TAUTO_COUNT>
3

> <PUBCHEM_CONFORMER_ID>
0006D81900000001

> <PUBCHEM_MMFF94_ENERGY>
60.231

> <PUBCHEM_FEATURE_SELFOVERLAP>
30.447

> <PUBCHEM_SHAPE_FINGERPRINT>
10366900 7 18186514428534874893
104564 63 18339924792832442081
10906281 52 18129397028286092948
11646440 116 18130798871235594657
12592029 89 16950278473467191938
12788726 201 18270697410649816016
13140716 1 18266458895859843337
13533116 47 18340201896197096762
13760787 19 16660644076447957075
14115302 16 18186806919849492430
14341114 176 15647057049052281551
15099037 51 18335139812416525942
15848700 24 18202843262111810220
15848702 151 16988848262958300981
16752209 62 18335696105492573576
16945 1 18410855473013063775
1813 80 18272378572207267076
18186145 218 18338228362096015613
187816 3 18410857663704853992
19141452 34 17131829889222033293
19784866 9 18113613452605694563
200 152 16950282905968490344
20028762 73 18055641861278493167
20600515 1 18340218469921978116
20645477 70 16009301016701038466
21285901 2 17917162606291067244
23175994 123 18333735723499757565
23402539 116 17988639696664490244
23493267 7 17313098635762053785
23557571 272 17489592229515708168
23559900 14 15554438621982335170
266924 87 18194116322357846868
347723 3 18410856551049855057
34934 24 18129105515976021729
3545911 37 15719391732852524422
4072396 5 18261662693185545291
4214541 1 15791727494979709055
465052 167 17240208741576471315
474 4 17917140731779840409
59755656 215 18270402685366324510
633830 44 18342455975941661781
69090 78 17060620005479420895
7226269 152 18410853270196137312
7495541 125 17531535390133293585
77779 3 15719110262139125926
81228 2 18128838385973970688
8272917 22 16660357039657468298
9971528 1 17775283884826915592

> <PUBCHEM_SHAPE_MULTIPOLES>
399.85
10.42
1.74
1.37
0
0
0.06
0
1.28
0
-0.74
0
0
-0.06

> <PUBCHEM_SHAPE_SELFOVERLAP>
850.96

> <PUBCHEM_SHAPE_VOLUME>
224.1

> <PUBCHEM_COORDINATE_TYPE>
2
5
10

> <Energy>
28.3223

> <minimizedAffinity>
-8.76336

> <CNNscore>
0.8889781833

> <CNNaffinity>
8.1225843430

> <CNN_VS>
7.2208003998

> <CNNaffinity_variance>
0.9075317383

$$$$
448537


 22 23  0  0  0  0  0  0  0  0999 V2000
   23.6096    3.6104    7.3995 C   0  0  0  0  0  0  0  0  0  0  0  0
   23.5211    4.4165    6.3122 C   0  0  0  0  0  0  0  0  0  0  0  0
   27.7060    4.3081   11.1960 O   0  0  0  0  0  0  0  0  0  0  0  0
   24.6940    3.7940    8.3854 C   0  0  0  0  0  0  0  0  0  0  0  0
   25.9570    3.2307    8.1588 C   0  0  0  0  0  0  0  0  0  0  0  0
   24.4671    4.5262    9.5578 C   0  0  0  0  0  0  0  0  0  0  0  0
   26.9806    3.3946    9.0955 C   0  0  0  0  0  0  0  0  0  0  0  0
   25.4903    4.6900   10.4930 C   0  0  0  0  0  0  0  0  0  0  0  0
   26.7364    4.1239   10.2546 C   0  0  0  0  0  0  0  0  0  0  0  0
   28.5584    3.9407   11.0686 H   0  0  0  0  0  0  0  0  0  0  0  0
   19.3994    3.7605    2.5355 O   0  0  0  0  0  0  0  0  0  0  0  0
   22.4352    4.2351    5.3269 C   0  0  0  0  0  0  0  0  0  0  0  0
   22.7231    4.1698    3.9578 C   0  0  0  0  0  0  0  0  0  0  0  0
   21.1052    4.1366    5.7563 C   0  0  0  0  0  0  0  0  0  0  0  0
   21.6911    4.0099    3.0317 C   0  0  0  0  0  0  0  0  0  0  0  0
   20.0735    3.9759    4.8306 C   0  0  0  0  0  0  0  0  0  0  0  0
   20.3766    3.9147    3.4741 C   0  0  0  0  0  0  0  0  0  0  0  0
   19.6244    3.7215    1.6269 H   0  0  0  0  0  0  0  0  0  0  0  0
   22.6377    2.5002    7.7582 C   0  0  0  0  0  0  0  0  0  0  0  0
   23.2651    1.1136    7.6957 C   0  0  0  0  0  0  0  0  0  0  0  0
   24.4472    5.5770    5.9949 C   0  0  0  0  0  0  0  0  0  0  0  0
   24.1115    6.8391    6.7789 C   0  0  0  0  0  0  0  0  0  0  0  0
  3  9  1  0
  3 10  1  0
 11 17  1  0
 11 18  1  0
  1  2  2  0
  1 19  1  0
  1  4  1  0
  2 21  1  0
  2 12  1  0
 19 20  1  0
 21 22  1  0
  4  5  2  0
  4  6  1  0
 12 13  2  0
 12 14  1  0
  5  7  1  0
 13 15  1  0
  6  8  2  0
 14 16  2  0
  7  9  2  0
 15 17  2  0
  8  9  1  0
 16 17  1  0
M  END
> <PUBCHEM_COMPOUND_CID>
448537

> <PUBCHEM_CONFORMER_RMSD>
0.6

> <PUBCHEM_CONFORMER_DIVERSEORDER>
1
3
2

> <PUBCHEM_MMFF94_PARTIAL_CHARGES>
28
1 -0.53
11 -0.15
12 -0.15
13 -0.15
14 -0.15
15 -0.15
16 -0.15
17 -0.15
18 -0.15
19 0.08
2 -0.53
20 0.08
3 -0.17
31 0.15
32 0.15
33 0.15
34 0.15
35 0.15
36 0.15
37 0.15
38 0.15
39 0.45
4 -0.17
40 0.45
5 0.14
6 0.14
7 0.03
8 0.03

> <PUBCHEM_EFFECTIVE_ROTOR_COUNT>
4

> <PUBCHEM_PHARMACOPHORE_FEATURES>
6
1 1 donor
1 10 hydrophobe
1 2 donor
1 9 hydrophobe
6 7 11 13 15 17 19 rings
6 8 12 14 16 18 20 rings

> <PUBCHEM_HEAVY_ATOM_COUNT>
20

> <PUBCHEM_ATOM_DEF_STEREO_COUNT>
0

> <PUBCHEM_ATOM_UDEF_STEREO_COUNT>
0

> <PUBCHEM_BOND_DEF_STEREO_COUNT>
1

> <PUBCHEM_BOND_UDEF_STEREO_COUNT>
0

> <PUBCHEM_ISOTOPIC_ATOM_COUNT>
0

> <PUBCHEM_COMPONENT_COUNT>
1

> <PUBCHEM_CACTVS_TAUTO_COUNT>
3

> <PUBCHEM_CONFORMER_ID>
0006D81900000001

> <PUBCHEM_MMFF94_ENERGY>
60.231

> <PUBCHEM_FEATURE_SELFOVERLAP>
30.447

> <PUBCHEM_SHAPE_FINGERPRINT>
10366900 7 18186514428534874893
104564 63 18339924792832442081
10906281 52 18129397028286092948
11646440 116 18130798871235594657
12592029 89 16950278473467191938
12788726 201 18270697410649816016
13140716 1 18266458895859843337
13533116 47 18340201896197096762
13760787 19 16660644076447957075
14115302 16 18186806919849492430
14341114 176 15647057049052281551
15099037 51 18335139812416525942
15848700 24 18202843262111810220
15848702 151 16988848262958300981
16752209 62 18335696105492573576
16945 1 18410855473013063775
1813 80 18272378572207267076
18186145 218 18338228362096015613
187816 3 18410857663704853992
19141452 34 17131829889222033293
19784866 9 18113613452605694563
200 152 16950282905968490344
20028762 73 18055641861278493167
20600515 1 18340218469921978116
20645477 70 16009301016701038466
21285901 2 17917162606291067244
23175994 123 18333735723499757565
23402539 116 17988639696664490244
23493267 7 17313098635762053785
23557571 272 17489592229515708168
23559900 14 15554438621982335170
266924 87 18194116322357846868
347723 3 18410856551049855057
34934 24 18129105515976021729
3545911 37 15719391732852524422
4072396 5 18261662693185545291
4214541 1 15791727494979709055
465052 167 17240208741576471315
474 4 17917140731779840409
59755656 215 18270402685366324510
633830 44 18342455975941661781
69090 78 17060620005479420895
7226269 152 18410853270196137312
7495541 125 17531535390133293585
77779 3 15719110262139125926
81228 2 18128838385973970688
8272917 22 16660357039657468298
9971528 1 17775283884826915592

> <PUBCHEM_SHAPE_MULTIPOLES>
399.85
10.42
1.74
1.37
0
0
0.06
0
1.28
0
-0.74
0
0
-0.06

> <PUBCHEM_SHAPE_SELFOVERLAP>
850.96

> <PUBCHEM_SHAPE_VOLUME>
224.1

> <PUBCHEM_COORDINATE_TYPE>
2
5
10

> <Energy>
28.3223

> <minimizedAffinity>
-8.16305

> <CNNscore>
0.8867307305

> <CNNaffinity>
8.0090684891

> <CNN_VS>
7.1018872261

> <CNNaffinity_variance>
0.7442372441

$$$$
448537


 22 23  0  0  0  0  0  0  0  0999 V2000
   23.3115    3.4085    6.5039 C   0  0  0  0  0  0  0  0  0  0  0  0
   23.9095    4.5281    6.9822 C   0  0  0  0  0  0  0  0  0  0  0  0
   19.4197    3.7761    2.4543 O   0  0  0  0  0  0  0  0  0  0  0  0
   22.2978    3.4963    5.4332 C   0  0  0  0  0  0  0  0  0  0  0  0
   22.6879    3.4664    4.0875 C   0  0  0  0  0  0  0  0  0  0  0  0
   20.9397    3.6173    5.7538 C   0  0  0  0  0  0  0  0  0  0  0  0
   21.7310    3.5600    3.0737 C   0  0  0  0  0  0  0  0  0  0  0  0
   19.9841    3.7103    4.7404 C   0  0  0  0  0  0  0  0  0  0  0  0
   20.3870    3.6810    3.4112 C   0  0  0  0  0  0  0  0  0  0  0  0
   19.6547    3.7597    1.5475 H   0  0  0  0  0  0  0  0  0  0  0  0
   27.7633    4.2325   11.0740 O   0  0  0  0  0  0  0  0  0  0  0  0
   24.9254    4.4408    8.0514 C   0  0  0  0  0  0  0  0  0  0  0  0
   24.5455    4.5056    9.3979 C   0  0  0  0  0  0  0  0  0  0  0  0
   26.2806    4.3018    7.7242 C   0  0  0  0  0  0  0  0  0  0  0  0
   25.5119    4.4341   10.4027 C   0  0  0  0  0  0  0  0  0  0  0  0
   27.2466    4.2294    8.7286 C   0  0  0  0  0  0  0  0  0  0  0  0
   26.8525    4.2972   10.0612 C   0  0  0  0  0  0  0  0  0  0  0  0
   27.4774    4.2799   11.9650 H   0  0  0  0  0  0  0  0  0  0  0  0
   23.6147    1.9874    6.9446 C   0  0  0  0  0  0  0  0  0  0  0  0
   22.5555    1.4118    7.8757 C   0  0  0  0  0  0  0  0  0  0  0  0
   23.6634    5.9419    6.4864 C   0  0  0  0  0  0  0  0  0  0  0  0
   24.5774    6.9703    7.1399 C   0  0  0  0  0  0  0  0  0  0  0  0
  3  9  1  0
  3 10  1  0
 11 17  1  0
 11 18  1  0
  1  2  2  0
  1 19  1  0
  1  4  1  0
  2 21  1  0
  2 12  1  0
 19 20  1  0
 21 22  1  0
  4  5  2  0
  4  6  1  0
 12 13  2  0
 12 14  1  0
  5  7  1  0
 13 15  1  0
  6  8  2  0
 14 16  2  0
  7  9  2  0
 15 17  2  0
  8  9  1  0
 16 17  1  0
M  END
> <PUBCHEM_COMPOUND_CID>
448537

> <PUBCHEM_CONFORMER_RMSD>
0.6

> <PUBCHEM_CONFORMER_DIVERSEORDER>
1
3
2

> <PUBCHEM_MMFF94_PARTIAL_CHARGES>
28
1 -0.53
11 -0.15
12 -0.15
13 -0.15
14 -0.15
15 -0.15
16 -0.15
17 -0.15
18 -0.15
19 0.08
2 -0.53
20 0.08
3 -0.17
31 0.15
32 0.15
33 0.15
34 0.15
35 0.15
36 0.15
37 0.15
38 0.15
39 0.45
4 -0.17
40 0.45
5 0.14
6 0.14
7 0.03
8 0.03

> <PUBCHEM_EFFECTIVE_ROTOR_COUNT>
4

> <PUBCHEM_PHARMACOPHORE_FEATURES>
6
1 1 donor
1 10 hydrophobe
1 2 donor
1 9 hydrophobe
6 7 11 13 15 17 19 rings
6 8 12 14 16 18 20 rings

> <PUBCHEM_HEAVY_ATOM_COUNT>
20

> <PUBCHEM_ATOM_DEF_STEREO_COUNT>
0

> <PUBCHEM_ATOM_UDEF_STEREO_COUNT>
0

> <PUBCHEM_BOND_DEF_STEREO_COUNT>
1

> <PUBCHEM_BOND_UDEF_STEREO_COUNT>
0

> <PUBCHEM_ISOTOPIC_ATOM_COUNT>
0

> <PUBCHEM_COMPONENT_COUNT>
1

> <PUBCHEM_CACTVS_TAUTO_COUNT>
3

> <PUBCHEM_CONFORMER_ID>
0006D81900000001

> <PUBCHEM_MMFF94_ENERGY>
60.231

> <PUBCHEM_FEATURE_SELFOVERLAP>
30.447

> <PUBCHEM_SHAPE_FINGERPRINT>
10366900 7 18186514428534874893
104564 63 18339924792832442081
10906281 52 18129397028286092948
11646440 116 18130798871235594657
12592029 89 16950278473467191938
12788726 201 18270697410649816016
13140716 1 18266458895859843337
13533116 47 18340201896197096762
13760787 19 16660644076447957075
14115302 16 18186806919849492430
14341114 176 15647057049052281551
15099037 51 18335139812416525942
15848700 24 18202843262111810220
15848702 151 16988848262958300981
16752209 62 18335696105492573576
16945 1 18410855473013063775
1813 80 18272378572207267076
18186145 218 18338228362096015613
187816 3 18410857663704853992
19141452 34 17131829889222033293
19784866 9 18113613452605694563
200 152 16950282905968490344
20028762 73 18055641861278493167
20600515 1 18340218469921978116
20645477 70 16009301016701038466
21285901 2 17917162606291067244
23175994 123 18333735723499757565
23402539 116 17988639696664490244
23493267 7 17313098635762053785
23557571 272 17489592229515708168
23559900 14 15554438621982335170
266924 87 18194116322357846868
347723 3 18410856551049855057
34934 24 18129105515976021729
3545911 37 15719391732852524422
4072396 5 18261662693185545291
4214541 1 15791727494979709055
465052 167 17240208741576471315
474 4 17917140731779840409
59755656 215 18270402685366324510
633830 44 18342455975941661781
69090 78 17060620005479420895
7226269 152 18410853270196137312
7495541 125 17531535390133293585
77779 3 15719110262139125926
81228 2 18128838385973970688
8272917 22 16660357039657468298
9971528 1 17775283884826915592

> <PUBCHEM_SHAPE_MULTIPOLES>
399.85
10.42
1.74
1.37
0
0
0.06
0
1.28
0
-0.74
0
0
-0.06

> <PUBCHEM_SHAPE_SELFOVERLAP>
850.96

> <PUBCHEM_SHAPE_VOLUME>
224.1

> <PUBCHEM_COORDINATE_TYPE>
2
5
10

> <Energy>
28.3223

> <minimizedAffinity>
-8.74643

> <CNNscore>
0.8826982975

> <CNNaffinity>
8.0854387283

> <CNN_VS>
7.1370029449

> <CNNaffinity_variance>
0.8953924179

$$$$
448537


 22 23  0  0  0  0  0  0  0  0999 V2000
   23.4184    3.7552    7.5629 C   0  0  0  0  0  0  0  0  0  0  0  0
   23.5992    3.9375    6.2310 C   0  0  0  0  0  0  0  0  0  0  0  0
   27.7888    4.1425   11.0886 O   0  0  0  0  0  0  0  0  0  0  0  0
   24.5568    3.8621    8.4980 C   0  0  0  0  0  0  0  0  0  0  0  0
   24.6225    4.9223    9.4120 C   0  0  0  0  0  0  0  0  0  0  0  0
   25.5830    2.9091    8.4742 C   0  0  0  0  0  0  0  0  0  0  0  0
   25.7041    5.0305   10.2899 C   0  0  0  0  0  0  0  0  0  0  0  0
   26.6631    3.0175    9.3519 C   0  0  0  0  0  0  0  0  0  0  0  0
   26.7146    4.0754   10.2508 C   0  0  0  0  0  0  0  0  0  0  0  0
   27.8568    4.8422   11.7080 H   0  0  0  0  0  0  0  0  0  0  0  0
   19.2767    3.5758    2.6440 O   0  0  0  0  0  0  0  0  0  0  0  0
   22.4605    3.8333    5.2955 C   0  0  0  0  0  0  0  0  0  0  0  0
   22.6791    3.8066    3.9122 C   0  0  0  0  0  0  0  0  0  0  0  0
   21.1500    3.7699    5.7869 C   0  0  0  0  0  0  0  0  0  0  0  0
   21.5978    3.7198    3.0337 C   0  0  0  0  0  0  0  0  0  0  0  0
   20.0692    3.6822    4.9087 C   0  0  0  0  0  0  0  0  0  0  0  0
   20.3036    3.6587    3.5375 C   0  0  0  0  0  0  0  0  0  0  0  0
   19.4557    3.5611    1.7245 H   0  0  0  0  0  0  0  0  0  0  0  0
   22.0905    3.4764    8.2446 C   0  0  0  0  0  0  0  0  0  0  0  0
   22.0158    2.0855    8.8611 C   0  0  0  0  0  0  0  0  0  0  0  0
   24.9128    4.2941    5.5584 C   0  0  0  0  0  0  0  0  0  0  0  0
   25.4587    5.6470    5.9964 C   0  0  0  0  0  0  0  0  0  0  0  0
  3  9  1  0
  3 10  1  0
 11 17  1  0
 11 18  1  0
  1  2  2  0
  1 19  1  0
  1  4  1  0
  2 21  1  0
  2 12  1  0
 19 20  1  0
 21 22  1  0
  4  5  2  0
  4  6  1  0
 12 13  2  0
 12 14  1  0
  5  7  1  0
 13 15  1  0
  6  8  2  0
 14 16  2  0
  7  9  2  0
 15 17  2  0
  8  9  1  0
 16 17  1  0
M  END
> <PUBCHEM_COMPOUND_CID>
448537

> <PUBCHEM_CONFORMER_RMSD>
0.6

> <PUBCHEM_CONFORMER_DIVERSEORDER>
1
3
2

> <PUBCHEM_MMFF94_PARTIAL_CHARGES>
28
1 -0.53
11 -0.15
12 -0.15
13 -0.15
14 -0.15
15 -0.15
16 -0.15
17 -0.15
18 -0.15
19 0.08
2 -0.53
20 0.08
3 -0.17
31 0.15
32 0.15
33 0.15
34 0.15
35 0.15
36 0.15
37 0.15
38 0.15
39 0.45
4 -0.17
40 0.45
5 0.14
6 0.14
7 0.03
8 0.03

> <PUBCHEM_EFFECTIVE_ROTOR_COUNT>
4

> <PUBCHEM_PHARMACOPHORE_FEATURES>
6
1 1 donor
1 10 hydrophobe
1 2 donor
1 9 hydrophobe
6 7 11 13 15 17 19 rings
6 8 12 14 16 18 20 rings

> <PUBCHEM_HEAVY_ATOM_COUNT>
20

> <PUBCHEM_ATOM_DEF_STEREO_COUNT>
0

> <PUBCHEM_ATOM_UDEF_STEREO_COUNT>
0

> <PUBCHEM_BOND_DEF_STEREO_COUNT>
1

> <PUBCHEM_BOND_UDEF_STEREO_COUNT>
0

> <PUBCHEM_ISOTOPIC_ATOM_COUNT>
0

> <PUBCHEM_COMPONENT_COUNT>
1

> <PUBCHEM_CACTVS_TAUTO_COUNT>
3

> <PUBCHEM_CONFORMER_ID>
0006D81900000001

> <PUBCHEM_MMFF94_ENERGY>
60.231

> <PUBCHEM_FEATURE_SELFOVERLAP>
30.447

> <PUBCHEM_SHAPE_FINGERPRINT>
10366900 7 18186514428534874893
104564 63 18339924792832442081
10906281 52 18129397028286092948
11646440 116 18130798871235594657
12592029 89 16950278473467191938
12788726 201 18270697410649816016
13140716 1 18266458895859843337
13533116 47 18340201896197096762
13760787 19 16660644076447957075
14115302 16 18186806919849492430
14341114 176 15647057049052281551
15099037 51 18335139812416525942
15848700 24 18202843262111810220
15848702 151 16988848262958300981
16752209 62 18335696105492573576
16945 1 18410855473013063775
1813 80 18272378572207267076
18186145 218 18338228362096015613
187816 3 18410857663704853992
19141452 34 17131829889222033293
19784866 9 18113613452605694563
200 152 16950282905968490344
20028762 73 18055641861278493167
20600515 1 18340218469921978116
20645477 70 16009301016701038466
21285901 2 17917162606291067244
23175994 123 18333735723499757565
23402539 116 17988639696664490244
23493267 7 17313098635762053785
23557571 272 17489592229515708168
23559900 14 15554438621982335170
266924 87 18194116322357846868
347723 3 18410856551049855057
34934 24 18129105515976021729
3545911 37 15719391732852524422
4072396 5 18261662693185545291
4214541 1 15791727494979709055
465052 167 17240208741576471315
474 4 17917140731779840409
59755656 215 18270402685366324510
633830 44 18342455975941661781
69090 78 17060620005479420895
7226269 152 18410853270196137312
7495541 125 17531535390133293585
77779 3 15719110262139125926
81228 2 18128838385973970688
8272917 22 16660357039657468298
9971528 1 17775283884826915592

> <PUBCHEM_SHAPE_MULTIPOLES>
399.85
10.42
1.74
1.37
0
0
0.06
0
1.28
0
-0.74
0
0
-0.06

> <PUBCHEM_SHAPE_SELFOVERLAP>
850.96

> <PUBCHEM_SHAPE_VOLUME>
224.1

> <PUBCHEM_COORDINATE_TYPE>
2
5
10

> <Energy>
28.3223

> <minimizedAffinity>
-8.25347

> <CNNscore>
0.8791677356

> <CNNaffinity>
8.0352668762

> <CNN_VS>
7.0643472672

> <CNNaffinity_variance>
0.7727620602

$$$$
448537


 22 23  0  0  0  0  0  0  0  0999 V2000
   23.4372    4.4361    6.3111 C   0  0  0  0  0  0  0  0  0  0  0  0
   23.4738    3.6612    7.4237 C   0  0  0  0  0  0  0  0  0  0  0  0
   19.2729    3.9116    2.5607 O   0  0  0  0  0  0  0  0  0  0  0  0
   22.3351    4.3016    5.3369 C   0  0  0  0  0  0  0  0  0  0  0  0
   21.0956    3.7867    5.7399 C   0  0  0  0  0  0  0  0  0  0  0  0
   22.5218    4.6807    4.0014 C   0  0  0  0  0  0  0  0  0  0  0  0
   20.0555    3.6490    4.8171 C   0  0  0  0  0  0  0  0  0  0  0  0
   21.4821    4.5433    3.0801 C   0  0  0  0  0  0  0  0  0  0  0  0
   20.2598    4.0295    3.4948 C   0  0  0  0  0  0  0  0  0  0  0  0
   18.4357    3.5692    2.8046 H   0  0  0  0  0  0  0  0  0  0  0  0
   27.6612    4.2229   11.1429 O   0  0  0  0  0  0  0  0  0  0  0  0
   24.5745    3.7970    8.3998 C   0  0  0  0  0  0  0  0  0  0  0  0
   24.3883    4.5242    9.5823 C   0  0  0  0  0  0  0  0  0  0  0  0
   25.8186    3.2056    8.1438 C   0  0  0  0  0  0  0  0  0  0  0  0
   25.4362    4.6582   10.4947 C   0  0  0  0  0  0  0  0  0  0  0  0
   26.8658    3.3388    9.0563 C   0  0  0  0  0  0  0  0  0  0  0  0
   26.6647    4.0660   10.2252 C   0  0  0  0  0  0  0  0  0  0  0  0
   27.5054    4.7164   11.9240 H   0  0  0  0  0  0  0  0  0  0  0  0
   24.4409    5.5182    5.9541 C   0  0  0  0  0  0  0  0  0  0  0  0
   24.2407    6.8037    6.7463 C   0  0  0  0  0  0  0  0  0  0  0  0
   22.4282    2.6342    7.8200 C   0  0  0  0  0  0  0  0  0  0  0  0
   22.9543    1.2051    7.7883 C   0  0  0  0  0  0  0  0  0  0  0  0
  3  9  1  0
  3 10  1  0
 11 17  1  0
 11 18  1  0
  1  2  2  0
  1 19  1  0
  1  4  1  0
  2 21  1  0
  2 12  1  0
 19 20  1  0
 21 22  1  0
  4  5  2  0
  4  6  1  0
 12 13  2  0
 12 14  1  0
  5  7  1  0
 13 15  1  0
  6  8  2  0
 14 16  2  0
  7  9  2  0
 15 17  2  0
  8  9  1  0
 16 17  1  0
M  END
> <PUBCHEM_COMPOUND_CID>
448537

> <PUBCHEM_CONFORMER_RMSD>
0.6

> <PUBCHEM_CONFORMER_DIVERSEORDER>
1
3
2

> <PUBCHEM_MMFF94_PARTIAL_CHARGES>
28
1 -0.53
11 -0.15
12 -0.15
13 -0.15
14 -0.15
15 -0.15
16 -0.15
17 -0.15
18 -0.15
19 0.08
2 -0.53
20 0.08
3 -0.17
31 0.15
32 0.15
33 0.15
34 0.15
35 0.15
36 0.15
37 0.15
38 0.15
39 0.45
4 -0.17
40 0.45
5 0.14
6 0.14
7 0.03
8 0.03

> <PUBCHEM_EFFECTIVE_ROTOR_COUNT>
4

> <PUBCHEM_PHARMACOPHORE_FEATURES>
6
1 1 donor
1 10 hydrophobe
1 2 donor
1 9 hydrophobe
6 7 11 13 15 17 19 rings
6 8 12 14 16 18 20 rings

> <PUBCHEM_HEAVY_ATOM_COUNT>
20

> <PUBCHEM_ATOM_DEF_STEREO_COUNT>
0

> <PUBCHEM_ATOM_UDEF_STEREO_COUNT>
0

> <PUBCHEM_BOND_DEF_STEREO_COUNT>
1

> <PUBCHEM_BOND_UDEF_STEREO_COUNT>
0

> <PUBCHEM_ISOTOPIC_ATOM_COUNT>
0

> <PUBCHEM_COMPONENT_COUNT>
1

> <PUBCHEM_CACTVS_TAUTO_COUNT>
3

> <PUBCHEM_CONFORMER_ID>
0006D81900000001

> <PUBCHEM_MMFF94_ENERGY>
60.231

> <PUBCHEM_FEATURE_SELFOVERLAP>
30.447

> <PUBCHEM_SHAPE_FINGERPRINT>
10366900 7 18186514428534874893
104564 63 18339924792832442081
10906281 52 18129397028286092948
11646440 116 18130798871235594657
12592029 89 16950278473467191938
12788726 201 18270697410649816016
13140716 1 18266458895859843337
13533116 47 18340201896197096762
13760787 19 16660644076447957075
14115302 16 18186806919849492430
14341114 176 15647057049052281551
15099037 51 18335139812416525942
15848700 24 18202843262111810220
15848702 151 16988848262958300981
16752209 62 18335696105492573576
16945 1 18410855473013063775
1813 80 18272378572207267076
18186145 218 18338228362096015613
187816 3 18410857663704853992
19141452 34 17131829889222033293
19784866 9 18113613452605694563
200 152 16950282905968490344
20028762 73 18055641861278493167
20600515 1 18340218469921978116
20645477 70 16009301016701038466
21285901 2 17917162606291067244
23175994 123 18333735723499757565
23402539 116 17988639696664490244
23493267 7 17313098635762053785
23557571 272 17489592229515708168
23559900 14 15554438621982335170
266924 87 18194116322357846868
347723 3 18410856551049855057
34934 24 18129105515976021729
3545911 37 15719391732852524422
4072396 5 18261662693185545291
4214541 1 15791727494979709055
465052 167 17240208741576471315
474 4 17917140731779840409
59755656 215 18270402685366324510
633830 44 18342455975941661781
69090 78 17060620005479420895
7226269 152 18410853270196137312
7495541 125 17531535390133293585
77779 3 15719110262139125926
81228 2 18128838385973970688
8272917 22 16660357039657468298
9971528 1 17775283884826915592

> <PUBCHEM_SHAPE_MULTIPOLES>
399.85
10.42
1.74
1.37
0
0
0.06
0
1.28
0
-0.74
0
0
-0.06

> <PUBCHEM_SHAPE_SELFOVERLAP>
850.96

> <PUBCHEM_SHAPE_VOLUME>
224.1

> <PUBCHEM_COORDINATE_TYPE>
2
5
10

> <Energy>
28.3223

> <minimizedAffinity>
-8.50962

> <CNNscore>
0.8556893468

> <CNNaffinity>
8.1204042435

> <CNN_VS>
6.9485435486

> <CNNaffinity_variance>
0.8219236732

$$$$
448537


 22 23  0  0  0  0  0  0  0  0999 V2000
   24.2127    3.9841    6.5747 C   0  0  0  0  0  0  0  0  0  0  0  0
   23.1403    3.2323    6.2216 C   0  0  0  0  0  0  0  0  0  0  0  0
   25.9347    4.2370   11.9274 O   0  0  0  0  0  0  0  0  0  0  0  0
   24.6515    4.0532    7.9834 C   0  0  0  0  0  0  0  0  0  0  0  0
   24.0517    4.9618    8.8658 C   0  0  0  0  0  0  0  0  0  0  0  0
   25.6749    3.2167    8.4470 C   0  0  0  0  0  0  0  0  0  0  0  0
   24.4730    5.0358   10.1959 C   0  0  0  0  0  0  0  0  0  0  0  0
   26.0949    3.2907    9.7761 C   0  0  0  0  0  0  0  0  0  0  0  0
   25.4917    4.1980   10.6380 C   0  0  0  0  0  0  0  0  0  0  0  0
   25.5509    4.8364   12.5367 H   0  0  0  0  0  0  0  0  0  0  0  0
   21.5013    2.9913    0.8422 O   0  0  0  0  0  0  0  0  0  0  0  0
   22.7025    3.1606    4.8123 C   0  0  0  0  0  0  0  0  0  0  0  0
   23.6427    3.0213    3.7836 C   0  0  0  0  0  0  0  0  0  0  0  0
   21.3404    3.2414    4.4941 C   0  0  0  0  0  0  0  0  0  0  0  0
   23.2227    2.9658    2.4535 C   0  0  0  0  0  0  0  0  0  0  0  0
   20.9206    3.1851    3.1645 C   0  0  0  0  0  0  0  0  0  0  0  0
   21.8676    3.0483    2.1545 C   0  0  0  0  0  0  0  0  0  0  0  0
   22.1546    2.8989    0.1770 H   0  0  0  0  0  0  0  0  0  0  0  0
   25.0884    4.7777    5.6213 C   0  0  0  0  0  0  0  0  0  0  0  0
   26.2555    5.4675    6.3157 C   0  0  0  0  0  0  0  0  0  0  0  0
   22.3127    2.3762    7.1635 C   0  0  0  0  0  0  0  0  0  0  0  0
   20.8770    2.8645    7.3066 C   0  0  0  0  0  0  0  0  0  0  0  0
  3  9  1  0
  3 10  1  0
 11 17  1  0
 11 18  1  0
  1  2  2  0
  1 19  1  0
  1  4  1  0
  2 21  1  0
  2 12  1  0
 19 20  1  0
 21 22  1  0
  4  5  2  0
  4  6  1  0
 12 13  2  0
 12 14  1  0
  5  7  1  0
 13 15  1  0
  6  8  2  0
 14 16  2  0
  7  9  2  0
 15 17  2  0
  8  9  1  0
 16 17  1  0
M  END
> <PUBCHEM_COMPOUND_CID>
448537

> <PUBCHEM_CONFORMER_RMSD>
0.6

> <PUBCHEM_CONFORMER_DIVERSEORDER>
1
3
2

> <PUBCHEM_MMFF94_PARTIAL_CHARGES>
28
1 -0.53
11 -0.15
12 -0.15
13 -0.15
14 -0.15
15 -0.15
16 -0.15
17 -0.15
18 -0.15
19 0.08
2 -0.53
20 0.08
3 -0.17
31 0.15
32 0.15
33 0.15
34 0.15
35 0.15
36 0.15
37 0.15
38 0.15
39 0.45
4 -0.17
40 0.45
5 0.14
6 0.14
7 0.03
8 0.03

> <PUBCHEM_EFFECTIVE_ROTOR_COUNT>
4

> <PUBCHEM_PHARMACOPHORE_FEATURES>
6
1 1 donor
1 10 hydrophobe
1 2 donor
1 9 hydrophobe
6 7 11 13 15 17 19 rings
6 8 12 14 16 18 20 rings

> <PUBCHEM_HEAVY_ATOM_COUNT>
20

> <PUBCHEM_ATOM_DEF_STEREO_COUNT>
0

> <PUBCHEM_ATOM_UDEF_STEREO_COUNT>
0

> <PUBCHEM_BOND_DEF_STEREO_COUNT>
1

> <PUBCHEM_BOND_UDEF_STEREO_COUNT>
0

> <PUBCHEM_ISOTOPIC_ATOM_COUNT>
0

> <PUBCHEM_COMPONENT_COUNT>
1

> <PUBCHEM_CACTVS_TAUTO_COUNT>
3

> <PUBCHEM_CONFORMER_ID>
0006D81900000001

> <PUBCHEM_MMFF94_ENERGY>
60.231

> <PUBCHEM_FEATURE_SELFOVERLAP>
30.447

> <PUBCHEM_SHAPE_FINGERPRINT>
10366900 7 18186514428534874893
104564 63 18339924792832442081
10906281 52 18129397028286092948
11646440 116 18130798871235594657
12592029 89 16950278473467191938
12788726 201 18270697410649816016
13140716 1 18266458895859843337
13533116 47 18340201896197096762
13760787 19 16660644076447957075
14115302 16 18186806919849492430
14341114 176 15647057049052281551
15099037 51 18335139812416525942
15848700 24 18202843262111810220
15848702 151 16988848262958300981
16752209 62 18335696105492573576
16945 1 18410855473013063775
1813 80 18272378572207267076
18186145 218 18338228362096015613
187816 3 18410857663704853992
19141452 34 17131829889222033293
19784866 9 18113613452605694563
200 152 16950282905968490344
20028762 73 18055641861278493167
20600515 1 18340218469921978116
20645477 70 16009301016701038466
21285901 2 17917162606291067244
23175994 123 18333735723499757565
23402539 116 17988639696664490244
23493267 7 17313098635762053785
23557571 272 17489592229515708168
23559900 14 15554438621982335170
266924 87 18194116322357846868
347723 3 18410856551049855057
34934 24 18129105515976021729
3545911 37 15719391732852524422
4072396 5 18261662693185545291
4214541 1 15791727494979709055
465052 167 17240208741576471315
474 4 17917140731779840409
59755656 215 18270402685366324510
633830 44 18342455975941661781
69090 78 17060620005479420895
7226269 152 18410853270196137312
7495541 125 17531535390133293585
77779 3 15719110262139125926
81228 2 18128838385973970688
8272917 22 16660357039657468298
9971528 1 17775283884826915592

> <PUBCHEM_SHAPE_MULTIPOLES>
399.85
10.42
1.74
1.37
0
0
0.06
0
1.28
0
-0.74
0
0
-0.06

> <PUBCHEM_SHAPE_SELFOVERLAP>
850.96

> <PUBCHEM_SHAPE_VOLUME>
224.1

> <PUBCHEM_COORDINATE_TYPE>
2
5
10

> <Energy>
28.3223

> <minimizedAffinity>
-7.79946

> <CNNscore>
0.8200882077

> <CNNaffinity>
7.7278723717

> <CNN_VS>
6.3375368118

> <CNNaffinity_variance>
0.7209337354

$$$$
