6013


 22 25  0  0  0  0  0  0  0  0999 V2000
  -10.2133   -5.7471   22.4096 O   0  0  0  0  0  0  0  0  0  0  0  0
   -0.3244   -3.9459   18.3096 O   0  0  0  0  0  0  0  0  0  0  0  0
   -6.6853   -4.7980   22.4509 C   0  0  0  0  0  0  0  0  0  0  0  0
   -7.7997   -5.6819   21.8581 C   0  0  0  0  0  0  0  0  0  0  0  0
   -5.2832   -5.2919   22.0823 C   0  0  0  0  0  0  0  0  0  0  0  0
   -5.1401   -5.2835   20.5275 C   0  0  0  0  0  0  0  0  0  0  0  0
   -3.7102   -5.7371   20.0425 C   0  0  0  0  0  0  0  0  0  0  0  0
   -7.7004   -5.6068   20.3290 C   0  0  0  0  0  0  0  0  0  0  0  0
   -6.3081   -6.0375   19.8330 C   0  0  0  0  0  0  0  0  0  0  0  0
   -9.0300   -4.9726   22.4595 C   0  0  0  0  0  0  0  0  0  0  0  0
   -7.0691   -4.6809   23.9239 C   0  0  0  0  0  0  0  0  0  0  0  0
   -4.1962   -4.4151   22.7169 C   0  0  0  0  0  0  0  0  0  0  0  0
   -8.6080   -4.6531   23.9085 C   0  0  0  0  0  0  0  0  0  0  0  0
   -2.6371   -4.9637   20.8216 C   0  0  0  0  0  0  0  0  0  0  0  0
   -2.8044   -4.8906   22.3212 C   0  0  0  0  0  0  0  0  0  0  0  0
   -7.7585   -7.1637   22.3075 C   0  0  0  0  0  0  0  0  0  0  0  0
   -3.5883   -5.4285   18.5209 C   0  0  0  0  0  0  0  0  0  0  0  0
   -3.4727   -7.2471   20.2674 C   0  0  0  0  0  0  0  0  0  0  0  0
   -2.1584   -5.4607   18.0016 C   0  0  0  0  0  0  0  0  0  0  0  0
   -1.5702   -4.3820   20.2472 C   0  0  0  0  0  0  0  0  0  0  0  0
   -1.2907   -4.5233   18.7988 C   0  0  0  0  0  0  0  0  0  0  0  0
  -10.4440   -5.9259   21.4846 H   0  0  0  0  0  0  0  0  0  0  0  0
  1 10  1  0
  1 22  1  0
  2 21  2  0
  3  4  1  0
  3  5  1  0
  3 11  1  0
  4  8  1  0
  4 10  1  0
  4 16  1  0
  5  6  1  0
  5 12  1  0
  6  7  1  0
  6  9  1  0
  7 14  1  0
  7 17  1  0
  7 18  1  0
  8  9  1  0
 10 13  1  0
 11 13  1  0
 12 15  1  0
 14 15  1  0
 14 20  2  0
 17 19  1  0
 19 21  1  0
 20 21  1  0
M  END
> <PUBCHEM_COMPOUND_CID>
6013

> <PUBCHEM_CONFORMER_RMSD>
0.6

> <PUBCHEM_CONFORMER_DIVERSEORDER>
1

> <PUBCHEM_MMFF94_PARTIAL_CHARGES>
11
1 -0.68
10 0.28
14 -0.28
15 0.14
19 0.06
2 -0.57
20 -0.14
21 0.49
48 0.15
49 0.4
7 0.14

> <PUBCHEM_EFFECTIVE_ROTOR_COUNT>
1.8

> <PUBCHEM_PHARMACOPHORE_FEATURES>
7
1 1 acceptor
1 1 donor
1 2 acceptor
5 3 4 10 11 13 rings
6 3 4 5 6 8 9 rings
6 5 6 7 12 14 15 rings
6 7 14 17 19 20 21 rings

> <PUBCHEM_HEAVY_ATOM_COUNT>
21

> <PUBCHEM_ATOM_DEF_STEREO_COUNT>
6

> <PUBCHEM_ATOM_UDEF_STEREO_COUNT>
0

> <PUBCHEM_BOND_DEF_STEREO_COUNT>
0

> <PUBCHEM_BOND_UDEF_STEREO_COUNT>
0

> <PUBCHEM_ISOTOPIC_ATOM_COUNT>
0

> <PUBCHEM_COMPONENT_COUNT>
1

> <PUBCHEM_CACTVS_TAUTO_COUNT>
5

> <PUBCHEM_CONFORMER_ID>
0000177D00000001

> <PUBCHEM_MMFF94_ENERGY>
67.5416

> <PUBCHEM_FEATURE_SELFOVERLAP>
35.618

> <PUBCHEM_SHAPE_FINGERPRINT>
10062212 137 18336825385559829163
10759866 29 17897457309511876188
10967382 1 18412548682291571786
11132069 177 18410018732180467827
11370993 70 18410569557056084199
11578080 2 16735503067342509174
12011746 2 18412547592124142406
12236239 1 18040155136873436768
12251169 10 18410008845387181634
12403259 226 18410006624652160988
12403259 415 18408880746209696412
12403260 363 18340481291412090749
12403814 3 17894914044785590877
12507557 5 18408881845467772304
12633257 1 18341888602346167976
12839892 36 18340758291450253690
13140716 1 18339643467883616216
13214271 11 18272369780793716703
13224815 77 18411987974316295335
13675066 3 18187087269080573787
14178342 30 18338527339117458393
14223421 5 18341052895787930134
14341114 176 18411985737129035682
14787075 74 18339640165090922602
14790565 3 18050014594947639924
15163728 17 14691189929019880809
15196674 1 18411420639180230811
15375358 24 18413110541697833299
15536298 74 18272376330249831326
15788980 27 17167859768361771669
16945 1 18267308633664624303
17349148 13 18260547844245275310
17492 89 18410012108956776131
1813 80 17168144512515476742
18186145 218 18411423903503023558
18522853 276 18412546492037592553
19050596 39 18410858775858764633
19784866 9 18412265021155473810
200 152 18202274819337965375
20715895 44 18116989984517715477
21033648 29 18262779827106925672
21267235 1 18410302427354843602
21421861 104 18042966467372004754
21637258 2 15647319828885568714
22182313 1 18189614934485510503
22854114 111 18409735070690792279
22854114 59 18343022189864506130
23402539 116 18272925046486162621
23557571 272 18059303161493107767
23559900 14 18343023255612643838
26918003 58 18409728456589012017
2748010 2 18410304609229794207
2838139 119 14835541671104639250
296302 2 16343984710473737934
335352 9 18411702045432157758
34934 24 18341610383102269379
350125 39 18410857681354741304
351380 180 18413386540454065762
3545911 37 18411703166439727155
42 15 18260548935156425576
5104073 3 18410294747868572393
59755656 215 18339930311854621398
633830 44 17988931080225984300
69090 78 18413386557386229218
7364860 26 18200601276388112774
9709674 26 18341058445033876271

> <PUBCHEM_SHAPE_MULTIPOLES>
420.43
9.43
2.1
1.06
1.16
0.42
0.43
-0.59
-2.56
-0.22
0.02
0.09
-0.22
0.11

> <PUBCHEM_SHAPE_SELFOVERLAP>
902.625

> <PUBCHEM_SHAPE_VOLUME>
230.1

> <PUBCHEM_COORDINATE_TYPE>
2
5
10

> <Energy>
71.9966

> <minimizedAffinity>
-10.61126

> <CNNscore>
0.9285525084

> <CNNaffinity>
8.0450162888

> <CNN_VS>
7.4702200890

> <CNNaffinity_variance>
0.6564318538

$$$$
6013


 22 25  0  0  0  0  0  0  0  0999 V2000
   -1.1763   -7.0700   18.5087 O   0  0  0  0  0  0  0  0  0  0  0  0
   -9.7739   -4.6318   24.6715 O   0  0  0  0  0  0  0  0  0  0  0  0
   -3.1439   -5.1495   20.9149 C   0  0  0  0  0  0  0  0  0  0  0  0
   -3.1135   -6.0395   19.6572 C   0  0  0  0  0  0  0  0  0  0  0  0
   -4.4919   -4.4484   21.1077 C   0  0  0  0  0  0  0  0  0  0  0  0
   -5.6067   -5.5326   21.2478 C   0  0  0  0  0  0  0  0  0  0  0  0
   -7.0353   -4.9127   21.4942 C   0  0  0  0  0  0  0  0  0  0  0  0
   -4.1585   -7.1484   19.8367 C   0  0  0  0  0  0  0  0  0  0  0  0
   -5.5611   -6.5654   20.0875 C   0  0  0  0  0  0  0  0  0  0  0  0
   -1.6488   -6.5178   19.7229 C   0  0  0  0  0  0  0  0  0  0  0  0
   -1.8786   -4.3053   20.7846 C   0  0  0  0  0  0  0  0  0  0  0  0
   -4.4793   -3.5417   22.3449 C   0  0  0  0  0  0  0  0  0  0  0  0
   -0.8601   -5.2564   20.1309 C   0  0  0  0  0  0  0  0  0  0  0  0
   -6.9554   -3.8789   22.6263 C   0  0  0  0  0  0  0  0  0  0  0  0
   -5.8316   -2.8721   22.5509 C   0  0  0  0  0  0  0  0  0  0  0  0
   -3.3769   -5.2902   18.3275 C   0  0  0  0  0  0  0  0  0  0  0  0
   -8.0064   -6.0631   21.8925 C   0  0  0  0  0  0  0  0  0  0  0  0
   -7.5863   -4.2058   20.2357 C   0  0  0  0  0  0  0  0  0  0  0  0
   -9.3063   -5.5789   22.5180 C   0  0  0  0  0  0  0  0  0  0  0  0
   -7.8308   -3.8161   23.6441 C   0  0  0  0  0  0  0  0  0  0  0  0
   -9.0196   -4.6987   23.7055 C   0  0  0  0  0  0  0  0  0  0  0  0
   -1.6964   -7.8584   18.2880 H   0  0  0  0  0  0  0  0  0  0  0  0
  1 10  1  0
  1 22  1  0
  2 21  2  0
  3  4  1  0
  3  5  1  0
  3 11  1  0
  4  8  1  0
  4 10  1  0
  4 16  1  0
  5  6  1  0
  5 12  1  0
  6  7  1  0
  6  9  1  0
  7 14  1  0
  7 17  1  0
  7 18  1  0
  8  9  1  0
 10 13  1  0
 11 13  1  0
 12 15  1  0
 14 15  1  0
 14 20  2  0
 17 19  1  0
 19 21  1  0
 20 21  1  0
M  END
> <PUBCHEM_COMPOUND_CID>
6013

> <PUBCHEM_CONFORMER_RMSD>
0.6

> <PUBCHEM_CONFORMER_DIVERSEORDER>
1

> <PUBCHEM_MMFF94_PARTIAL_CHARGES>
11
1 -0.68
10 0.28
14 -0.28
15 0.14
19 0.06
2 -0.57
20 -0.14
21 0.49
48 0.15
49 0.4
7 0.14

> <PUBCHEM_EFFECTIVE_ROTOR_COUNT>
1.8

> <PUBCHEM_PHARMACOPHORE_FEATURES>
7
1 1 acceptor
1 1 donor
1 2 acceptor
5 3 4 10 11 13 rings
6 3 4 5 6 8 9 rings
6 5 6 7 12 14 15 rings
6 7 14 17 19 20 21 rings

> <PUBCHEM_HEAVY_ATOM_COUNT>
21

> <PUBCHEM_ATOM_DEF_STEREO_COUNT>
6

> <PUBCHEM_ATOM_UDEF_STEREO_COUNT>
0

> <PUBCHEM_BOND_DEF_STEREO_COUNT>
0

> <PUBCHEM_BOND_UDEF_STEREO_COUNT>
0

> <PUBCHEM_ISOTOPIC_ATOM_COUNT>
0

> <PUBCHEM_COMPONENT_COUNT>
1

> <PUBCHEM_CACTVS_TAUTO_COUNT>
5

> <PUBCHEM_CONFORMER_ID>
0000177D00000001

> <PUBCHEM_MMFF94_ENERGY>
67.5416

> <PUBCHEM_FEATURE_SELFOVERLAP>
35.618

> <PUBCHEM_SHAPE_FINGERPRINT>
10062212 137 18336825385559829163
10759866 29 17897457309511876188
10967382 1 18412548682291571786
11132069 177 18410018732180467827
11370993 70 18410569557056084199
11578080 2 16735503067342509174
12011746 2 18412547592124142406
12236239 1 18040155136873436768
12251169 10 18410008845387181634
12403259 226 18410006624652160988
12403259 415 18408880746209696412
12403260 363 18340481291412090749
12403814 3 17894914044785590877
12507557 5 18408881845467772304
12633257 1 18341888602346167976
12839892 36 18340758291450253690
13140716 1 18339643467883616216
13214271 11 18272369780793716703
13224815 77 18411987974316295335
13675066 3 18187087269080573787
14178342 30 18338527339117458393
14223421 5 18341052895787930134
14341114 176 18411985737129035682
14787075 74 18339640165090922602
14790565 3 18050014594947639924
15163728 17 14691189929019880809
15196674 1 18411420639180230811
15375358 24 18413110541697833299
15536298 74 18272376330249831326
15788980 27 17167859768361771669
16945 1 18267308633664624303
17349148 13 18260547844245275310
17492 89 18410012108956776131
1813 80 17168144512515476742
18186145 218 18411423903503023558
18522853 276 18412546492037592553
19050596 39 18410858775858764633
19784866 9 18412265021155473810
200 152 18202274819337965375
20715895 44 18116989984517715477
21033648 29 18262779827106925672
21267235 1 18410302427354843602
21421861 104 18042966467372004754
21637258 2 15647319828885568714
22182313 1 18189614934485510503
22854114 111 18409735070690792279
22854114 59 18343022189864506130
23402539 116 18272925046486162621
23557571 272 18059303161493107767
23559900 14 18343023255612643838
26918003 58 18409728456589012017
2748010 2 18410304609229794207
2838139 119 14835541671104639250
296302 2 16343984710473737934
335352 9 18411702045432157758
34934 24 18341610383102269379
350125 39 18410857681354741304
351380 180 18413386540454065762
3545911 37 18411703166439727155
42 15 18260548935156425576
5104073 3 18410294747868572393
59755656 215 18339930311854621398
633830 44 17988931080225984300
69090 78 18413386557386229218
7364860 26 18200601276388112774
9709674 26 18341058445033876271

> <PUBCHEM_SHAPE_MULTIPOLES>
420.43
9.43
2.1
1.06
1.16
0.42
0.43
-0.59
-2.56
-0.22
0.02
0.09
-0.22
0.11

> <PUBCHEM_SHAPE_SELFOVERLAP>
902.625

> <PUBCHEM_SHAPE_VOLUME>
230.1

> <PUBCHEM_COORDINATE_TYPE>
2
5
10

> <Energy>
71.9966

> <minimizedAffinity>
-7.07861

> <CNNscore>
0.7064248323

> <CNNaffinity>
7.5015487671

> <CNN_VS>
5.2992801666

> <CNNaffinity_variance>
0.4617907703

$$$$
6013


 22 25  0  0  0  0  0  0  0  0999 V2000
    0.3701   -4.8754   20.0710 O   0  0  0  0  0  0  0  0  0  0  0  0
  -10.1450   -5.7501   22.6226 O   0  0  0  0  0  0  0  0  0  0  0  0
   -3.2361   -4.8802   19.4844 C   0  0  0  0  0  0  0  0  0  0  0  0
   -2.0321   -5.4469   20.2615 C   0  0  0  0  0  0  0  0  0  0  0  0
   -4.5010   -5.7259   19.6597 C   0  0  0  0  0  0  0  0  0  0  0  0
   -4.8719   -5.7669   21.1758 C   0  0  0  0  0  0  0  0  0  0  0  0
   -6.1911   -6.5819   21.4609 C   0  0  0  0  0  0  0  0  0  0  0  0
   -2.3747   -5.4119   21.7565 C   0  0  0  0  0  0  0  0  0  0  0  0
   -3.6656   -6.1949   22.0572 C   0  0  0  0  0  0  0  0  0  0  0  0
   -0.9523   -4.4364   19.8241 C   0  0  0  0  0  0  0  0  0  0  0  0
   -2.6803   -4.6558   18.0804 C   0  0  0  0  0  0  0  0  0  0  0  0
   -5.6708   -5.1586   18.8455 C   0  0  0  0  0  0  0  0  0  0  0  0
   -1.2215   -4.2272   18.3197 C   0  0  0  0  0  0  0  0  0  0  0  0
   -7.2992   -6.1096   20.5092 C   0  0  0  0  0  0  0  0  0  0  0  0
   -6.9346   -5.9840   19.0486 C   0  0  0  0  0  0  0  0  0  0  0  0
   -1.6201   -6.8845   19.8583 C   0  0  0  0  0  0  0  0  0  0  0  0
   -6.6146   -6.3273   22.9378 C   0  0  0  0  0  0  0  0  0  0  0  0
   -5.9925   -8.0997   21.2518 C   0  0  0  0  0  0  0  0  0  0  0  0
   -8.0482   -6.7357   23.2433 C   0  0  0  0  0  0  0  0  0  0  0  0
   -8.5538   -5.8311   20.9027 C   0  0  0  0  0  0  0  0  0  0  0  0
   -9.0002   -6.0515   22.2985 C   0  0  0  0  0  0  0  0  0  0  0  0
    0.4985   -4.9947   21.0250 H   0  0  0  0  0  0  0  0  0  0  0  0
  1 10  1  0
  1 22  1  0
  2 21  2  0
  3  4  1  0
  3  5  1  0
  3 11  1  0
  4  8  1  0
  4 10  1  0
  4 16  1  0
  5  6  1  0
  5 12  1  0
  6  7  1  0
  6  9  1  0
  7 14  1  0
  7 17  1  0
  7 18  1  0
  8  9  1  0
 10 13  1  0
 11 13  1  0
 12 15  1  0
 14 15  1  0
 14 20  2  0
 17 19  1  0
 19 21  1  0
 20 21  1  0
M  END
> <PUBCHEM_COMPOUND_CID>
6013

> <PUBCHEM_CONFORMER_RMSD>
0.6

> <PUBCHEM_CONFORMER_DIVERSEORDER>
1

> <PUBCHEM_MMFF94_PARTIAL_CHARGES>
11
1 -0.68
10 0.28
14 -0.28
15 0.14
19 0.06
2 -0.57
20 -0.14
21 0.49
48 0.15
49 0.4
7 0.14

> <PUBCHEM_EFFECTIVE_ROTOR_COUNT>
1.8

> <PUBCHEM_PHARMACOPHORE_FEATURES>
7
1 1 acceptor
1 1 donor
1 2 acceptor
5 3 4 10 11 13 rings
6 3 4 5 6 8 9 rings
6 5 6 7 12 14 15 rings
6 7 14 17 19 20 21 rings

> <PUBCHEM_HEAVY_ATOM_COUNT>
21

> <PUBCHEM_ATOM_DEF_STEREO_COUNT>
6

> <PUBCHEM_ATOM_UDEF_STEREO_COUNT>
0

> <PUBCHEM_BOND_DEF_STEREO_COUNT>
0

> <PUBCHEM_BOND_UDEF_STEREO_COUNT>
0

> <PUBCHEM_ISOTOPIC_ATOM_COUNT>
0

> <PUBCHEM_COMPONENT_COUNT>
1

> <PUBCHEM_CACTVS_TAUTO_COUNT>
5

> <PUBCHEM_CONFORMER_ID>
0000177D00000001

> <PUBCHEM_MMFF94_ENERGY>
67.5416

> <PUBCHEM_FEATURE_SELFOVERLAP>
35.618

> <PUBCHEM_SHAPE_FINGERPRINT>
10062212 137 18336825385559829163
10759866 29 17897457309511876188
10967382 1 18412548682291571786
11132069 177 18410018732180467827
11370993 70 18410569557056084199
11578080 2 16735503067342509174
12011746 2 18412547592124142406
12236239 1 18040155136873436768
12251169 10 18410008845387181634
12403259 226 18410006624652160988
12403259 415 18408880746209696412
12403260 363 18340481291412090749
12403814 3 17894914044785590877
12507557 5 18408881845467772304
12633257 1 18341888602346167976
12839892 36 18340758291450253690
13140716 1 18339643467883616216
13214271 11 18272369780793716703
13224815 77 18411987974316295335
13675066 3 18187087269080573787
14178342 30 18338527339117458393
14223421 5 18341052895787930134
14341114 176 18411985737129035682
14787075 74 18339640165090922602
14790565 3 18050014594947639924
15163728 17 14691189929019880809
15196674 1 18411420639180230811
15375358 24 18413110541697833299
15536298 74 18272376330249831326
15788980 27 17167859768361771669
16945 1 18267308633664624303
17349148 13 18260547844245275310
17492 89 18410012108956776131
1813 80 17168144512515476742
18186145 218 18411423903503023558
18522853 276 18412546492037592553
19050596 39 18410858775858764633
19784866 9 18412265021155473810
200 152 18202274819337965375
20715895 44 18116989984517715477
21033648 29 18262779827106925672
21267235 1 18410302427354843602
21421861 104 18042966467372004754
21637258 2 15647319828885568714
22182313 1 18189614934485510503
22854114 111 18409735070690792279
22854114 59 18343022189864506130
23402539 116 18272925046486162621
23557571 272 18059303161493107767
23559900 14 18343023255612643838
26918003 58 18409728456589012017
2748010 2 18410304609229794207
2838139 119 14835541671104639250
296302 2 16343984710473737934
335352 9 18411702045432157758
34934 24 18341610383102269379
350125 39 18410857681354741304
351380 180 18413386540454065762
3545911 37 18411703166439727155
42 15 18260548935156425576
5104073 3 18410294747868572393
59755656 215 18339930311854621398
633830 44 17988931080225984300
69090 78 18413386557386229218
7364860 26 18200601276388112774
9709674 26 18341058445033876271

> <PUBCHEM_SHAPE_MULTIPOLES>
420.43
9.43
2.1
1.06
1.16
0.42
0.43
-0.59
-2.56
-0.22
0.02
0.09
-0.22
0.11

> <PUBCHEM_SHAPE_SELFOVERLAP>
902.625

> <PUBCHEM_SHAPE_VOLUME>
230.1

> <PUBCHEM_COORDINATE_TYPE>
2
5
10

> <Energy>
71.9966

> <minimizedAffinity>
-9.34905

> <CNNscore>
0.6574722528

> <CNNaffinity>
7.1809291840

> <CNN_VS>
4.7212615013

> <CNNaffinity_variance>
0.1173260435

$$$$
6013


 22 25  0  0  0  0  0  0  0  0999 V2000
   -0.6899   -4.6260   21.5913 O   0  0  0  0  0  0  0  0  0  0  0  0
  -11.4997   -5.3942   20.9580 O   0  0  0  0  0  0  0  0  0  0  0  0
   -3.9189   -5.3213   20.0293 C   0  0  0  0  0  0  0  0  0  0  0  0
   -3.0523   -5.3116   21.3036 C   0  0  0  0  0  0  0  0  0  0  0  0
   -5.2122   -6.1230   20.2029 C   0  0  0  0  0  0  0  0  0  0  0  0
   -6.0472   -5.4860   21.3583 C   0  0  0  0  0  0  0  0  0  0  0  0
   -7.4255   -6.2153   21.5910 C   0  0  0  0  0  0  0  0  0  0  0  0
   -3.8501   -4.6147   22.4133 C   0  0  0  0  0  0  0  0  0  0  0  0
   -5.2050   -5.3056   22.6518 C   0  0  0  0  0  0  0  0  0  0  0  0
   -1.8431   -4.5107   20.7793 C   0  0  0  0  0  0  0  0  0  0  0  0
   -2.9358   -5.7240   18.9330 C   0  0  0  0  0  0  0  0  0  0  0  0
   -6.0346   -6.1459   18.9082 C   0  0  0  0  0  0  0  0  0  0  0  0
   -1.6101   -5.0688   19.3602 C   0  0  0  0  0  0  0  0  0  0  0  0
   -8.1502   -6.3790   20.2475 C   0  0  0  0  0  0  0  0  0  0  0  0
   -7.3348   -6.9167   19.0951 C   0  0  0  0  0  0  0  0  0  0  0  0
   -2.6017   -6.7112   21.7906 C   0  0  0  0  0  0  0  0  0  0  0  0
   -8.2838   -5.3445   22.5554 C   0  0  0  0  0  0  0  0  0  0  0  0
   -7.2424   -7.6180   22.2124 C   0  0  0  0  0  0  0  0  0  0  0  0
   -9.7578   -5.7219   22.5740 C   0  0  0  0  0  0  0  0  0  0  0  0
   -9.4502   -6.0940   20.0601 C   0  0  0  0  0  0  0  0  0  0  0  0
  -10.3268   -5.6791   21.1806 C   0  0  0  0  0  0  0  0  0  0  0  0
   -0.8771   -4.2652   22.4720 H   0  0  0  0  0  0  0  0  0  0  0  0
  1 10  1  0
  1 22  1  0
  2 21  2  0
  3  4  1  0
  3  5  1  0
  3 11  1  0
  4  8  1  0
  4 10  1  0
  4 16  1  0
  5  6  1  0
  5 12  1  0
  6  7  1  0
  6  9  1  0
  7 14  1  0
  7 17  1  0
  7 18  1  0
  8  9  1  0
 10 13  1  0
 11 13  1  0
 12 15  1  0
 14 15  1  0
 14 20  2  0
 17 19  1  0
 19 21  1  0
 20 21  1  0
M  END
> <PUBCHEM_COMPOUND_CID>
6013

> <PUBCHEM_CONFORMER_RMSD>
0.6

> <PUBCHEM_CONFORMER_DIVERSEORDER>
1

> <PUBCHEM_MMFF94_PARTIAL_CHARGES>
11
1 -0.68
10 0.28
14 -0.28
15 0.14
19 0.06
2 -0.57
20 -0.14
21 0.49
48 0.15
49 0.4
7 0.14

> <PUBCHEM_EFFECTIVE_ROTOR_COUNT>
1.8

> <PUBCHEM_PHARMACOPHORE_FEATURES>
7
1 1 acceptor
1 1 donor
1 2 acceptor
5 3 4 10 11 13 rings
6 3 4 5 6 8 9 rings
6 5 6 7 12 14 15 rings
6 7 14 17 19 20 21 rings

> <PUBCHEM_HEAVY_ATOM_COUNT>
21

> <PUBCHEM_ATOM_DEF_STEREO_COUNT>
6

> <PUBCHEM_ATOM_UDEF_STEREO_COUNT>
0

> <PUBCHEM_BOND_DEF_STEREO_COUNT>
0

> <PUBCHEM_BOND_UDEF_STEREO_COUNT>
0

> <PUBCHEM_ISOTOPIC_ATOM_COUNT>
0

> <PUBCHEM_COMPONENT_COUNT>
1

> <PUBCHEM_CACTVS_TAUTO_COUNT>
5

> <PUBCHEM_CONFORMER_ID>
0000177D00000001

> <PUBCHEM_MMFF94_ENERGY>
67.5416

> <PUBCHEM_FEATURE_SELFOVERLAP>
35.618

> <PUBCHEM_SHAPE_FINGERPRINT>
10062212 137 18336825385559829163
10759866 29 17897457309511876188
10967382 1 18412548682291571786
11132069 177 18410018732180467827
11370993 70 18410569557056084199
11578080 2 16735503067342509174
12011746 2 18412547592124142406
12236239 1 18040155136873436768
12251169 10 18410008845387181634
12403259 226 18410006624652160988
12403259 415 18408880746209696412
12403260 363 18340481291412090749
12403814 3 17894914044785590877
12507557 5 18408881845467772304
12633257 1 18341888602346167976
12839892 36 18340758291450253690
13140716 1 18339643467883616216
13214271 11 18272369780793716703
13224815 77 18411987974316295335
13675066 3 18187087269080573787
14178342 30 18338527339117458393
14223421 5 18341052895787930134
14341114 176 18411985737129035682
14787075 74 18339640165090922602
14790565 3 18050014594947639924
15163728 17 14691189929019880809
15196674 1 18411420639180230811
15375358 24 18413110541697833299
15536298 74 18272376330249831326
15788980 27 17167859768361771669
16945 1 18267308633664624303
17349148 13 18260547844245275310
17492 89 18410012108956776131
1813 80 17168144512515476742
18186145 218 18411423903503023558
18522853 276 18412546492037592553
19050596 39 18410858775858764633
19784866 9 18412265021155473810
200 152 18202274819337965375
20715895 44 18116989984517715477
21033648 29 18262779827106925672
21267235 1 18410302427354843602
21421861 104 18042966467372004754
21637258 2 15647319828885568714
22182313 1 18189614934485510503
22854114 111 18409735070690792279
22854114 59 18343022189864506130
23402539 116 18272925046486162621
23557571 272 18059303161493107767
23559900 14 18343023255612643838
26918003 58 18409728456589012017
2748010 2 18410304609229794207
2838139 119 14835541671104639250
296302 2 16343984710473737934
335352 9 18411702045432157758
34934 24 18341610383102269379
350125 39 18410857681354741304
351380 180 18413386540454065762
3545911 37 18411703166439727155
42 15 18260548935156425576
5104073 3 18410294747868572393
59755656 215 18339930311854621398
633830 44 17988931080225984300
69090 78 18413386557386229218
7364860 26 18200601276388112774
9709674 26 18341058445033876271

> <PUBCHEM_SHAPE_MULTIPOLES>
420.43
9.43
2.1
1.06
1.16
0.42
0.43
-0.59
-2.56
-0.22
0.02
0.09
-0.22
0.11

> <PUBCHEM_SHAPE_SELFOVERLAP>
902.625

> <PUBCHEM_SHAPE_VOLUME>
230.1

> <PUBCHEM_COORDINATE_TYPE>
2
5
10

> <Energy>
71.9966

> <minimizedAffinity>
-8.89913

> <CNNscore>
0.6049278975

> <CNNaffinity>
7.0006766319

> <CNN_VS>
4.2349047661

> <CNNaffinity_variance>
0.0730024502

$$$$
6013


 22 25  0  0  0  0  0  0  0  0999 V2000
  -10.5108   -6.4323   20.0101 O   0  0  0  0  0  0  0  0  0  0  0  0
   -0.0082   -3.7615   19.3736 O   0  0  0  0  0  0  0  0  0  0  0  0
   -7.2465   -5.3380   21.2332 C   0  0  0  0  0  0  0  0  0  0  0  0
   -8.0564   -6.2010   20.2462 C   0  0  0  0  0  0  0  0  0  0  0  0
   -5.7657   -5.7265   21.2773 C   0  0  0  0  0  0  0  0  0  0  0  0
   -5.1555   -5.5434   19.8518 C   0  0  0  0  0  0  0  0  0  0  0  0
   -3.6158   -5.8780   19.7979 C   0  0  0  0  0  0  0  0  0  0  0  0
   -7.5007   -5.9562   18.8373 C   0  0  0  0  0  0  0  0  0  0  0  0
   -5.9950   -6.2686   18.7635 C   0  0  0  0  0  0  0  0  0  0  0  0
   -9.4615   -5.6162   20.4952 C   0  0  0  0  0  0  0  0  0  0  0  0
   -8.0696   -5.3983   22.5176 C   0  0  0  0  0  0  0  0  0  0  0  0
   -4.9941   -4.8764   22.2946 C   0  0  0  0  0  0  0  0  0  0  0  0
   -9.5277   -5.4372   22.0259 C   0  0  0  0  0  0  0  0  0  0  0  0
   -2.8937   -5.1468   20.9384 C   0  0  0  0  0  0  0  0  0  0  0  0
   -3.5162   -5.2442   22.3114 C   0  0  0  0  0  0  0  0  0  0  0  0
   -8.0424   -7.7194   20.5518 C   0  0  0  0  0  0  0  0  0  0  0  0
   -3.0586   -5.4013   18.4240 C   0  0  0  0  0  0  0  0  0  0  0  0
   -3.3449   -7.3915   19.9498 C   0  0  0  0  0  0  0  0  0  0  0  0
   -1.5403   -5.3137   18.3754 C   0  0  0  0  0  0  0  0  0  0  0  0
   -1.7496   -4.4597   20.7795 C   0  0  0  0  0  0  0  0  0  0  0  0
   -1.0311   -4.4308   19.4837 C   0  0  0  0  0  0  0  0  0  0  0  0
  -10.4337   -6.5198   19.0471 H   0  0  0  0  0  0  0  0  0  0  0  0
  1 10  1  0
  1 22  1  0
  2 21  2  0
  3  4  1  0
  3  5  1  0
  3 11  1  0
  4  8  1  0
  4 10  1  0
  4 16  1  0
  5  6  1  0
  5 12  1  0
  6  7  1  0
  6  9  1  0
  7 14  1  0
  7 17  1  0
  7 18  1  0
  8  9  1  0
 10 13  1  0
 11 13  1  0
 12 15  1  0
 14 15  1  0
 14 20  2  0
 17 19  1  0
 19 21  1  0
 20 21  1  0
M  END
> <PUBCHEM_COMPOUND_CID>
6013

> <PUBCHEM_CONFORMER_RMSD>
0.6

> <PUBCHEM_CONFORMER_DIVERSEORDER>
1

> <PUBCHEM_MMFF94_PARTIAL_CHARGES>
11
1 -0.68
10 0.28
14 -0.28
15 0.14
19 0.06
2 -0.57
20 -0.14
21 0.49
48 0.15
49 0.4
7 0.14

> <PUBCHEM_EFFECTIVE_ROTOR_COUNT>
1.8

> <PUBCHEM_PHARMACOPHORE_FEATURES>
7
1 1 acceptor
1 1 donor
1 2 acceptor
5 3 4 10 11 13 rings
6 3 4 5 6 8 9 rings
6 5 6 7 12 14 15 rings
6 7 14 17 19 20 21 rings

> <PUBCHEM_HEAVY_ATOM_COUNT>
21

> <PUBCHEM_ATOM_DEF_STEREO_COUNT>
6

> <PUBCHEM_ATOM_UDEF_STEREO_COUNT>
0

> <PUBCHEM_BOND_DEF_STEREO_COUNT>
0

> <PUBCHEM_BOND_UDEF_STEREO_COUNT>
0

> <PUBCHEM_ISOTOPIC_ATOM_COUNT>
0

> <PUBCHEM_COMPONENT_COUNT>
1

> <PUBCHEM_CACTVS_TAUTO_COUNT>
5

> <PUBCHEM_CONFORMER_ID>
0000177D00000001

> <PUBCHEM_MMFF94_ENERGY>
67.5416

> <PUBCHEM_FEATURE_SELFOVERLAP>
35.618

> <PUBCHEM_SHAPE_FINGERPRINT>
10062212 137 18336825385559829163
10759866 29 17897457309511876188
10967382 1 18412548682291571786
11132069 177 18410018732180467827
11370993 70 18410569557056084199
11578080 2 16735503067342509174
12011746 2 18412547592124142406
12236239 1 18040155136873436768
12251169 10 18410008845387181634
12403259 226 18410006624652160988
12403259 415 18408880746209696412
12403260 363 18340481291412090749
12403814 3 17894914044785590877
12507557 5 18408881845467772304
12633257 1 18341888602346167976
12839892 36 18340758291450253690
13140716 1 18339643467883616216
13214271 11 18272369780793716703
13224815 77 18411987974316295335
13675066 3 18187087269080573787
14178342 30 18338527339117458393
14223421 5 18341052895787930134
14341114 176 18411985737129035682
14787075 74 18339640165090922602
14790565 3 18050014594947639924
15163728 17 14691189929019880809
15196674 1 18411420639180230811
15375358 24 18413110541697833299
15536298 74 18272376330249831326
15788980 27 17167859768361771669
16945 1 18267308633664624303
17349148 13 18260547844245275310
17492 89 18410012108956776131
1813 80 17168144512515476742
18186145 218 18411423903503023558
18522853 276 18412546492037592553
19050596 39 18410858775858764633
19784866 9 18412265021155473810
200 152 18202274819337965375
20715895 44 18116989984517715477
21033648 29 18262779827106925672
21267235 1 18410302427354843602
21421861 104 18042966467372004754
21637258 2 15647319828885568714
22182313 1 18189614934485510503
22854114 111 18409735070690792279
22854114 59 18343022189864506130
23402539 116 18272925046486162621
23557571 272 18059303161493107767
23559900 14 18343023255612643838
26918003 58 18409728456589012017
2748010 2 18410304609229794207
2838139 119 14835541671104639250
296302 2 16343984710473737934
335352 9 18411702045432157758
34934 24 18341610383102269379
350125 39 18410857681354741304
351380 180 18413386540454065762
3545911 37 18411703166439727155
42 15 18260548935156425576
5104073 3 18410294747868572393
59755656 215 18339930311854621398
633830 44 17988931080225984300
69090 78 18413386557386229218
7364860 26 18200601276388112774
9709674 26 18341058445033876271

> <PUBCHEM_SHAPE_MULTIPOLES>
420.43
9.43
2.1
1.06
1.16
0.42
0.43
-0.59
-2.56
-0.22
0.02
0.09
-0.22
0.11

> <PUBCHEM_SHAPE_SELFOVERLAP>
902.625

> <PUBCHEM_SHAPE_VOLUME>
230.1

> <PUBCHEM_COORDINATE_TYPE>
2
5
10

> <Energy>
71.9966

> <minimizedAffinity>
-7.66801

> <CNNscore>
0.5984265804

> <CNNaffinity>
7.1768794060

> <CNN_VS>
4.2948355675

> <CNNaffinity_variance>
0.2378410697

$$$$
6013


 22 25  0  0  0  0  0  0  0  0999 V2000
  -10.2181   -5.8075   23.5604 O   0  0  0  0  0  0  0  0  0  0  0  0
   -0.0051   -6.0197   19.8872 O   0  0  0  0  0  0  0  0  0  0  0  0
   -7.5444   -5.7184   21.0718 C   0  0  0  0  0  0  0  0  0  0  0  0
   -8.0214   -5.3830   22.4982 C   0  0  0  0  0  0  0  0  0  0  0  0
   -6.2444   -4.9987   20.7011 C   0  0  0  0  0  0  0  0  0  0  0  0
   -5.1282   -5.4287   21.7046 C   0  0  0  0  0  0  0  0  0  0  0  0
   -3.7309   -4.7729   21.3832 C   0  0  0  0  0  0  0  0  0  0  0  0
   -6.9543   -5.8784   23.4829 C   0  0  0  0  0  0  0  0  0  0  0  0
   -5.5783   -5.2570   23.1821 C   0  0  0  0  0  0  0  0  0  0  0  0
   -9.3385   -6.1851   22.5181 C   0  0  0  0  0  0  0  0  0  0  0  0
   -8.7893   -5.4921   20.2175 C   0  0  0  0  0  0  0  0  0  0  0  0
   -5.8154   -5.3224   19.2644 C   0  0  0  0  0  0  0  0  0  0  0  0
   -9.9512   -5.9352   21.1246 C   0  0  0  0  0  0  0  0  0  0  0  0
   -3.4076   -4.9630   19.8945 C   0  0  0  0  0  0  0  0  0  0  0  0
   -4.5054   -4.6304   18.9115 C   0  0  0  0  0  0  0  0  0  0  0  0
   -8.3013   -3.8806   22.7506 C   0  0  0  0  0  0  0  0  0  0  0  0
   -2.6483   -5.4740   22.2559 C   0  0  0  0  0  0  0  0  0  0  0  0
   -3.7163   -3.2585   21.6887 C   0  0  0  0  0  0  0  0  0  0  0  0
   -1.2232   -5.2147   21.7901 C   0  0  0  0  0  0  0  0  0  0  0  0
   -2.2150   -5.3800   19.4361 C   0  0  0  0  0  0  0  0  0  0  0  0
   -1.0658   -5.6047   20.3443 C   0  0  0  0  0  0  0  0  0  0  0  0
   -9.7971   -5.9798   24.4171 H   0  0  0  0  0  0  0  0  0  0  0  0
  1 10  1  0
  1 22  1  0
  2 21  2  0
  3  4  1  0
  3  5  1  0
  3 11  1  0
  4  8  1  0
  4 10  1  0
  4 16  1  0
  5  6  1  0
  5 12  1  0
  6  7  1  0
  6  9  1  0
  7 14  1  0
  7 17  1  0
  7 18  1  0
  8  9  1  0
 10 13  1  0
 11 13  1  0
 12 15  1  0
 14 15  1  0
 14 20  2  0
 17 19  1  0
 19 21  1  0
 20 21  1  0
M  END
> <PUBCHEM_COMPOUND_CID>
6013

> <PUBCHEM_CONFORMER_RMSD>
0.6

> <PUBCHEM_CONFORMER_DIVERSEORDER>
1

> <PUBCHEM_MMFF94_PARTIAL_CHARGES>
11
1 -0.68
10 0.28
14 -0.28
15 0.14
19 0.06
2 -0.57
20 -0.14
21 0.49
48 0.15
49 0.4
7 0.14

> <PUBCHEM_EFFECTIVE_ROTOR_COUNT>
1.8

> <PUBCHEM_PHARMACOPHORE_FEATURES>
7
1 1 acceptor
1 1 donor
1 2 acceptor
5 3 4 10 11 13 rings
6 3 4 5 6 8 9 rings
6 5 6 7 12 14 15 rings
6 7 14 17 19 20 21 rings

> <PUBCHEM_HEAVY_ATOM_COUNT>
21

> <PUBCHEM_ATOM_DEF_STEREO_COUNT>
6

> <PUBCHEM_ATOM_UDEF_STEREO_COUNT>
0

> <PUBCHEM_BOND_DEF_STEREO_COUNT>
0

> <PUBCHEM_BOND_UDEF_STEREO_COUNT>
0

> <PUBCHEM_ISOTOPIC_ATOM_COUNT>
0

> <PUBCHEM_COMPONENT_COUNT>
1

> <PUBCHEM_CACTVS_TAUTO_COUNT>
5

> <PUBCHEM_CONFORMER_ID>
0000177D00000001

> <PUBCHEM_MMFF94_ENERGY>
67.5416

> <PUBCHEM_FEATURE_SELFOVERLAP>
35.618

> <PUBCHEM_SHAPE_FINGERPRINT>
10062212 137 18336825385559829163
10759866 29 17897457309511876188
10967382 1 18412548682291571786
11132069 177 18410018732180467827
11370993 70 18410569557056084199
11578080 2 16735503067342509174
12011746 2 18412547592124142406
12236239 1 18040155136873436768
12251169 10 18410008845387181634
12403259 226 18410006624652160988
12403259 415 18408880746209696412
12403260 363 18340481291412090749
12403814 3 17894914044785590877
12507557 5 18408881845467772304
12633257 1 18341888602346167976
12839892 36 18340758291450253690
13140716 1 18339643467883616216
13214271 11 18272369780793716703
13224815 77 18411987974316295335
13675066 3 18187087269080573787
14178342 30 18338527339117458393
14223421 5 18341052895787930134
14341114 176 18411985737129035682
14787075 74 18339640165090922602
14790565 3 18050014594947639924
15163728 17 14691189929019880809
15196674 1 18411420639180230811
15375358 24 18413110541697833299
15536298 74 18272376330249831326
15788980 27 17167859768361771669
16945 1 18267308633664624303
17349148 13 18260547844245275310
17492 89 18410012108956776131
1813 80 17168144512515476742
18186145 218 18411423903503023558
18522853 276 18412546492037592553
19050596 39 18410858775858764633
19784866 9 18412265021155473810
200 152 18202274819337965375
20715895 44 18116989984517715477
21033648 29 18262779827106925672
21267235 1 18410302427354843602
21421861 104 18042966467372004754
21637258 2 15647319828885568714
22182313 1 18189614934485510503
22854114 111 18409735070690792279
22854114 59 18343022189864506130
23402539 116 18272925046486162621
23557571 272 18059303161493107767
23559900 14 18343023255612643838
26918003 58 18409728456589012017
2748010 2 18410304609229794207
2838139 119 14835541671104639250
296302 2 16343984710473737934
335352 9 18411702045432157758
34934 24 18341610383102269379
350125 39 18410857681354741304
351380 180 18413386540454065762
3545911 37 18411703166439727155
42 15 18260548935156425576
5104073 3 18410294747868572393
59755656 215 18339930311854621398
633830 44 17988931080225984300
69090 78 18413386557386229218
7364860 26 18200601276388112774
9709674 26 18341058445033876271

> <PUBCHEM_SHAPE_MULTIPOLES>
420.43
9.43
2.1
1.06
1.16
0.42
0.43
-0.59
-2.56
-0.22
0.02
0.09
-0.22
0.11

> <PUBCHEM_SHAPE_SELFOVERLAP>
902.625

> <PUBCHEM_SHAPE_VOLUME>
230.1

> <PUBCHEM_COORDINATE_TYPE>
2
5
10

> <Energy>
71.9966

> <minimizedAffinity>
-8.42159

> <CNNscore>
0.3799466193

> <CNNaffinity>
7.5641388893

> <CNN_VS>
2.8739690781

> <CNNaffinity_variance>
0.5452725291

$$$$
6013


 22 25  0  0  0  0  0  0  0  0999 V2000
   -9.6804   -4.9600   23.1305 O   0  0  0  0  0  0  0  0  0  0  0  0
    0.7273   -5.3511   20.0693 O   0  0  0  0  0  0  0  0  0  0  0  0
   -6.5700   -6.5108   22.0033 C   0  0  0  0  0  0  0  0  0  0  0  0
   -7.5062   -5.2868   21.9903 C   0  0  0  0  0  0  0  0  0  0  0  0
   -5.4960   -6.4424   20.9136 C   0  0  0  0  0  0  0  0  0  0  0  0
   -4.6315   -5.1620   21.1398 C   0  0  0  0  0  0  0  0  0  0  0  0
   -3.4636   -5.0193   20.0903 C   0  0  0  0  0  0  0  0  0  0  0  0
   -6.6615   -4.0417   22.2900 C   0  0  0  0  0  0  0  0  0  0  0  0
   -5.5085   -3.8870   21.2817 C   0  0  0  0  0  0  0  0  0  0  0  0
   -8.4725   -5.6972   23.1201 C   0  0  0  0  0  0  0  0  0  0  0  0
   -7.5328   -7.6954   22.0252 C   0  0  0  0  0  0  0  0  0  0  0  0
   -4.6043   -7.6904   20.9275 C   0  0  0  0  0  0  0  0  0  0  0  0
   -8.7143   -7.2015   22.8791 C   0  0  0  0  0  0  0  0  0  0  0  0
   -2.6936   -6.3443   19.9994 C   0  0  0  0  0  0  0  0  0  0  0  0
   -3.5179   -7.6029   19.8636 C   0  0  0  0  0  0  0  0  0  0  0  0
   -8.2822   -5.0795   20.6659 C   0  0  0  0  0  0  0  0  0  0  0  0
   -2.5118   -3.8831   20.5681 C   0  0  0  0  0  0  0  0  0  0  0  0
   -3.9897   -4.6713   18.6799 C   0  0  0  0  0  0  0  0  0  0  0  0
   -1.1591   -3.8831   19.8712 C   0  0  0  0  0  0  0  0  0  0  0  0
   -1.3525   -6.4317   20.0123 C   0  0  0  0  0  0  0  0  0  0  0  0
   -0.4926   -5.2248   20.0219 C   0  0  0  0  0  0  0  0  0  0  0  0
   -9.4857   -4.0223   23.2842 H   0  0  0  0  0  0  0  0  0  0  0  0
  1 10  1  0
  1 22  1  0
  2 21  2  0
  3  4  1  0
  3  5  1  0
  3 11  1  0
  4  8  1  0
  4 10  1  0
  4 16  1  0
  5  6  1  0
  5 12  1  0
  6  7  1  0
  6  9  1  0
  7 14  1  0
  7 17  1  0
  7 18  1  0
  8  9  1  0
 10 13  1  0
 11 13  1  0
 12 15  1  0
 14 15  1  0
 14 20  2  0
 17 19  1  0
 19 21  1  0
 20 21  1  0
M  END
> <PUBCHEM_COMPOUND_CID>
6013

> <PUBCHEM_CONFORMER_RMSD>
0.6

> <PUBCHEM_CONFORMER_DIVERSEORDER>
1

> <PUBCHEM_MMFF94_PARTIAL_CHARGES>
11
1 -0.68
10 0.28
14 -0.28
15 0.14
19 0.06
2 -0.57
20 -0.14
21 0.49
48 0.15
49 0.4
7 0.14

> <PUBCHEM_EFFECTIVE_ROTOR_COUNT>
1.8

> <PUBCHEM_PHARMACOPHORE_FEATURES>
7
1 1 acceptor
1 1 donor
1 2 acceptor
5 3 4 10 11 13 rings
6 3 4 5 6 8 9 rings
6 5 6 7 12 14 15 rings
6 7 14 17 19 20 21 rings

> <PUBCHEM_HEAVY_ATOM_COUNT>
21

> <PUBCHEM_ATOM_DEF_STEREO_COUNT>
6

> <PUBCHEM_ATOM_UDEF_STEREO_COUNT>
0

> <PUBCHEM_BOND_DEF_STEREO_COUNT>
0

> <PUBCHEM_BOND_UDEF_STEREO_COUNT>
0

> <PUBCHEM_ISOTOPIC_ATOM_COUNT>
0

> <PUBCHEM_COMPONENT_COUNT>
1

> <PUBCHEM_CACTVS_TAUTO_COUNT>
5

> <PUBCHEM_CONFORMER_ID>
0000177D00000001

> <PUBCHEM_MMFF94_ENERGY>
67.5416

> <PUBCHEM_FEATURE_SELFOVERLAP>
35.618

> <PUBCHEM_SHAPE_FINGERPRINT>
10062212 137 18336825385559829163
10759866 29 17897457309511876188
10967382 1 18412548682291571786
11132069 177 18410018732180467827
11370993 70 18410569557056084199
11578080 2 16735503067342509174
12011746 2 18412547592124142406
12236239 1 18040155136873436768
12251169 10 18410008845387181634
12403259 226 18410006624652160988
12403259 415 18408880746209696412
12403260 363 18340481291412090749
12403814 3 17894914044785590877
12507557 5 18408881845467772304
12633257 1 18341888602346167976
12839892 36 18340758291450253690
13140716 1 18339643467883616216
13214271 11 18272369780793716703
13224815 77 18411987974316295335
13675066 3 18187087269080573787
14178342 30 18338527339117458393
14223421 5 18341052895787930134
14341114 176 18411985737129035682
14787075 74 18339640165090922602
14790565 3 18050014594947639924
15163728 17 14691189929019880809
15196674 1 18411420639180230811
15375358 24 18413110541697833299
15536298 74 18272376330249831326
15788980 27 17167859768361771669
16945 1 18267308633664624303
17349148 13 18260547844245275310
17492 89 18410012108956776131
1813 80 17168144512515476742
18186145 218 18411423903503023558
18522853 276 18412546492037592553
19050596 39 18410858775858764633
19784866 9 18412265021155473810
200 152 18202274819337965375
20715895 44 18116989984517715477
21033648 29 18262779827106925672
21267235 1 18410302427354843602
21421861 104 18042966467372004754
21637258 2 15647319828885568714
22182313 1 18189614934485510503
22854114 111 18409735070690792279
22854114 59 18343022189864506130
23402539 116 18272925046486162621
23557571 272 18059303161493107767
23559900 14 18343023255612643838
26918003 58 18409728456589012017
2748010 2 18410304609229794207
2838139 119 14835541671104639250
296302 2 16343984710473737934
335352 9 18411702045432157758
34934 24 18341610383102269379
350125 39 18410857681354741304
351380 180 18413386540454065762
3545911 37 18411703166439727155
42 15 18260548935156425576
5104073 3 18410294747868572393
59755656 215 18339930311854621398
633830 44 17988931080225984300
69090 78 18413386557386229218
7364860 26 18200601276388112774
9709674 26 18341058445033876271

> <PUBCHEM_SHAPE_MULTIPOLES>
420.43
9.43
2.1
1.06
1.16
0.42
0.43
-0.59
-2.56
-0.22
0.02
0.09
-0.22
0.11

> <PUBCHEM_SHAPE_SELFOVERLAP>
902.625

> <PUBCHEM_SHAPE_VOLUME>
230.1

> <PUBCHEM_COORDINATE_TYPE>
2
5
10

> <Energy>
71.9966

> <minimizedAffinity>
-5.44265

> <CNNscore>
0.2206671834

> <CNNaffinity>
6.8005981445

> <CNN_VS>
1.5006688833

> <CNNaffinity_variance>
0.2279411703

$$$$
6013


 22 25  0  0  0  0  0  0  0  0999 V2000
   -9.2752   -3.2370   20.3631 O   0  0  0  0  0  0  0  0  0  0  0  0
    1.2899   -5.6791   19.8569 O   0  0  0  0  0  0  0  0  0  0  0  0
   -5.7653   -3.1788   21.3762 C   0  0  0  0  0  0  0  0  0  0  0  0
   -6.9395   -3.9606   20.7560 C   0  0  0  0  0  0  0  0  0  0  0  0
   -4.5854   -4.0828   21.7453 C   0  0  0  0  0  0  0  0  0  0  0  0
   -4.0727   -4.7927   20.4525 C   0  0  0  0  0  0  0  0  0  0  0  0
   -2.8249   -5.7193   20.7175 C   0  0  0  0  0  0  0  0  0  0  0  0
   -6.4489   -4.5913   19.4463 C   0  0  0  0  0  0  0  0  0  0  0  0
   -5.2242   -5.4944   19.6801 C   0  0  0  0  0  0  0  0  0  0  0  0
   -7.9449   -2.8048   20.5775 C   0  0  0  0  0  0  0  0  0  0  0  0
   -6.4306   -2.3423   22.4664 C   0  0  0  0  0  0  0  0  0  0  0  0
   -3.4488   -3.2827   22.3940 C   0  0  0  0  0  0  0  0  0  0  0  0
   -7.8054   -1.9824   21.8751 C   0  0  0  0  0  0  0  0  0  0  0  0
   -1.7729   -4.9422   21.5213 C   0  0  0  0  0  0  0  0  0  0  0  0
   -2.2650   -4.1805   22.7294 C   0  0  0  0  0  0  0  0  0  0  0  0
   -7.5384   -5.0602   21.6677 C   0  0  0  0  0  0  0  0  0  0  0  0
   -2.2329   -6.1487   19.3426 C   0  0  0  0  0  0  0  0  0  0  0  0
   -3.2019   -6.9861   21.5176 C   0  0  0  0  0  0  0  0  0  0  0  0
   -0.8272   -6.7239   19.4333 C   0  0  0  0  0  0  0  0  0  0  0  0
   -0.4632   -4.9271   21.2198 C   0  0  0  0  0  0  0  0  0  0  0  0
    0.0934   -5.7506   20.1206 C   0  0  0  0  0  0  0  0  0  0  0  0
   -9.3204   -3.7487   19.5404 H   0  0  0  0  0  0  0  0  0  0  0  0
  1 10  1  0
  1 22  1  0
  2 21  2  0
  3  4  1  0
  3  5  1  0
  3 11  1  0
  4  8  1  0
  4 10  1  0
  4 16  1  0
  5  6  1  0
  5 12  1  0
  6  7  1  0
  6  9  1  0
  7 14  1  0
  7 17  1  0
  7 18  1  0
  8  9  1  0
 10 13  1  0
 11 13  1  0
 12 15  1  0
 14 15  1  0
 14 20  2  0
 17 19  1  0
 19 21  1  0
 20 21  1  0
M  END
> <PUBCHEM_COMPOUND_CID>
6013

> <PUBCHEM_CONFORMER_RMSD>
0.6

> <PUBCHEM_CONFORMER_DIVERSEORDER>
1

> <PUBCHEM_MMFF94_PARTIAL_CHARGES>
11
1 -0.68
10 0.28
14 -0.28
15 0.14
19 0.06
2 -0.57
20 -0.14
21 0.49
48 0.15
49 0.4
7 0.14

> <PUBCHEM_EFFECTIVE_ROTOR_COUNT>
1.8

> <PUBCHEM_PHARMACOPHORE_FEATURES>
7
1 1 acceptor
1 1 donor
1 2 acceptor
5 3 4 10 11 13 rings
6 3 4 5 6 8 9 rings
6 5 6 7 12 14 15 rings
6 7 14 17 19 20 21 rings

> <PUBCHEM_HEAVY_ATOM_COUNT>
21

> <PUBCHEM_ATOM_DEF_STEREO_COUNT>
6

> <PUBCHEM_ATOM_UDEF_STEREO_COUNT>
0

> <PUBCHEM_BOND_DEF_STEREO_COUNT>
0

> <PUBCHEM_BOND_UDEF_STEREO_COUNT>
0

> <PUBCHEM_ISOTOPIC_ATOM_COUNT>
0

> <PUBCHEM_COMPONENT_COUNT>
1

> <PUBCHEM_CACTVS_TAUTO_COUNT>
5

> <PUBCHEM_CONFORMER_ID>
0000177D00000001

> <PUBCHEM_MMFF94_ENERGY>
67.5416

> <PUBCHEM_FEATURE_SELFOVERLAP>
35.618

> <PUBCHEM_SHAPE_FINGERPRINT>
10062212 137 18336825385559829163
10759866 29 17897457309511876188
10967382 1 18412548682291571786
11132069 177 18410018732180467827
11370993 70 18410569557056084199
11578080 2 16735503067342509174
12011746 2 18412547592124142406
12236239 1 18040155136873436768
12251169 10 18410008845387181634
12403259 226 18410006624652160988
12403259 415 18408880746209696412
12403260 363 18340481291412090749
12403814 3 17894914044785590877
12507557 5 18408881845467772304
12633257 1 18341888602346167976
12839892 36 18340758291450253690
13140716 1 18339643467883616216
13214271 11 18272369780793716703
13224815 77 18411987974316295335
13675066 3 18187087269080573787
14178342 30 18338527339117458393
14223421 5 18341052895787930134
14341114 176 18411985737129035682
14787075 74 18339640165090922602
14790565 3 18050014594947639924
15163728 17 14691189929019880809
15196674 1 18411420639180230811
15375358 24 18413110541697833299
15536298 74 18272376330249831326
15788980 27 17167859768361771669
16945 1 18267308633664624303
17349148 13 18260547844245275310
17492 89 18410012108956776131
1813 80 17168144512515476742
18186145 218 18411423903503023558
18522853 276 18412546492037592553
19050596 39 18410858775858764633
19784866 9 18412265021155473810
200 152 18202274819337965375
20715895 44 18116989984517715477
21033648 29 18262779827106925672
21267235 1 18410302427354843602
21421861 104 18042966467372004754
21637258 2 15647319828885568714
22182313 1 18189614934485510503
22854114 111 18409735070690792279
22854114 59 18343022189864506130
23402539 116 18272925046486162621
23557571 272 18059303161493107767
23559900 14 18343023255612643838
26918003 58 18409728456589012017
2748010 2 18410304609229794207
2838139 119 14835541671104639250
296302 2 16343984710473737934
335352 9 18411702045432157758
34934 24 18341610383102269379
350125 39 18410857681354741304
351380 180 18413386540454065762
3545911 37 18411703166439727155
42 15 18260548935156425576
5104073 3 18410294747868572393
59755656 215 18339930311854621398
633830 44 17988931080225984300
69090 78 18413386557386229218
7364860 26 18200601276388112774
9709674 26 18341058445033876271

> <PUBCHEM_SHAPE_MULTIPOLES>
420.43
9.43
2.1
1.06
1.16
0.42
0.43
-0.59
-2.56
-0.22
0.02
0.09
-0.22
0.11

> <PUBCHEM_SHAPE_SELFOVERLAP>
902.625

> <PUBCHEM_SHAPE_VOLUME>
230.1

> <PUBCHEM_COORDINATE_TYPE>
2
5
10

> <Energy>
71.9966

> <minimizedAffinity>
5.86495

> <CNNscore>
0.1876729280

> <CNNaffinity>
6.0968976021

> <CNN_VS>
1.1442226171

> <CNNaffinity_variance>
0.1542403549

$$$$
6013


 22 25  0  0  0  0  0  0  0  0999 V2000
   -9.2858   -0.8342   18.6866 O   0  0  0  0  0  0  0  0  0  0  0  0
   -5.7780  -10.2759   22.7353 O   0  0  0  0  0  0  0  0  0  0  0  0
   -7.1554   -3.0577   20.6530 C   0  0  0  0  0  0  0  0  0  0  0  0
   -8.5530   -2.7416   20.0860 C   0  0  0  0  0  0  0  0  0  0  0  0
   -7.1901   -4.1408   21.7353 C   0  0  0  0  0  0  0  0  0  0  0  0
   -7.7756   -5.4498   21.1175 C   0  0  0  0  0  0  0  0  0  0  0  0
   -7.8148   -6.6461   22.1438 C   0  0  0  0  0  0  0  0  0  0  0  0
   -9.0890   -4.0118   19.4128 C   0  0  0  0  0  0  0  0  0  0  0  0
   -9.1280   -5.1965   20.3952 C   0  0  0  0  0  0  0  0  0  0  0  0
   -8.1785   -1.6055   19.1126 C   0  0  0  0  0  0  0  0  0  0  0  0
   -6.5906   -1.6815   20.9961 C   0  0  0  0  0  0  0  0  0  0  0  0
   -5.7913   -4.4065   22.3062 C   0  0  0  0  0  0  0  0  0  0  0  0
   -7.1529   -0.7618   19.8974 C   0  0  0  0  0  0  0  0  0  0  0  0
   -6.4468   -6.7776   22.8279 C   0  0  0  0  0  0  0  0  0  0  0  0
   -5.8260   -5.5069   23.3587 C   0  0  0  0  0  0  0  0  0  0  0  0
   -9.5777   -2.2387   21.1330 C   0  0  0  0  0  0  0  0  0  0  0  0
   -8.1459   -7.9516   21.3619 C   0  0  0  0  0  0  0  0  0  0  0  0
   -8.8824   -6.4353   23.2406 C   0  0  0  0  0  0  0  0  0  0  0  0
   -7.8504   -9.2245   22.1414 C   0  0  0  0  0  0  0  0  0  0  0  0
   -5.8025   -7.9457   22.9919 C   0  0  0  0  0  0  0  0  0  0  0  0
   -6.4164   -9.2364   22.6004 C   0  0  0  0  0  0  0  0  0  0  0  0
   -9.9051   -1.3994   18.1988 H   0  0  0  0  0  0  0  0  0  0  0  0
  1 10  1  0
  1 22  1  0
  2 21  2  0
  3  4  1  0
  3  5  1  0
  3 11  1  0
  4  8  1  0
  4 10  1  0
  4 16  1  0
  5  6  1  0
  5 12  1  0
  6  7  1  0
  6  9  1  0
  7 14  1  0
  7 17  1  0
  7 18  1  0
  8  9  1  0
 10 13  1  0
 11 13  1  0
 12 15  1  0
 14 15  1  0
 14 20  2  0
 17 19  1  0
 19 21  1  0
 20 21  1  0
M  END
> <PUBCHEM_COMPOUND_CID>
6013

> <PUBCHEM_CONFORMER_RMSD>
0.6

> <PUBCHEM_CONFORMER_DIVERSEORDER>
1

> <PUBCHEM_MMFF94_PARTIAL_CHARGES>
11
1 -0.68
10 0.28
14 -0.28
15 0.14
19 0.06
2 -0.57
20 -0.14
21 0.49
48 0.15
49 0.4
7 0.14

> <PUBCHEM_EFFECTIVE_ROTOR_COUNT>
1.8

> <PUBCHEM_PHARMACOPHORE_FEATURES>
7
1 1 acceptor
1 1 donor
1 2 acceptor
5 3 4 10 11 13 rings
6 3 4 5 6 8 9 rings
6 5 6 7 12 14 15 rings
6 7 14 17 19 20 21 rings

> <PUBCHEM_HEAVY_ATOM_COUNT>
21

> <PUBCHEM_ATOM_DEF_STEREO_COUNT>
6

> <PUBCHEM_ATOM_UDEF_STEREO_COUNT>
0

> <PUBCHEM_BOND_DEF_STEREO_COUNT>
0

> <PUBCHEM_BOND_UDEF_STEREO_COUNT>
0

> <PUBCHEM_ISOTOPIC_ATOM_COUNT>
0

> <PUBCHEM_COMPONENT_COUNT>
1

> <PUBCHEM_CACTVS_TAUTO_COUNT>
5

> <PUBCHEM_CONFORMER_ID>
0000177D00000001

> <PUBCHEM_MMFF94_ENERGY>
67.5416

> <PUBCHEM_FEATURE_SELFOVERLAP>
35.618

> <PUBCHEM_SHAPE_FINGERPRINT>
10062212 137 18336825385559829163
10759866 29 17897457309511876188
10967382 1 18412548682291571786
11132069 177 18410018732180467827
11370993 70 18410569557056084199
11578080 2 16735503067342509174
12011746 2 18412547592124142406
12236239 1 18040155136873436768
12251169 10 18410008845387181634
12403259 226 18410006624652160988
12403259 415 18408880746209696412
12403260 363 18340481291412090749
12403814 3 17894914044785590877
12507557 5 18408881845467772304
12633257 1 18341888602346167976
12839892 36 18340758291450253690
13140716 1 18339643467883616216
13214271 11 18272369780793716703
13224815 77 18411987974316295335
13675066 3 18187087269080573787
14178342 30 18338527339117458393
14223421 5 18341052895787930134
14341114 176 18411985737129035682
14787075 74 18339640165090922602
14790565 3 18050014594947639924
15163728 17 14691189929019880809
15196674 1 18411420639180230811
15375358 24 18413110541697833299
15536298 74 18272376330249831326
15788980 27 17167859768361771669
16945 1 18267308633664624303
17349148 13 18260547844245275310
17492 89 18410012108956776131
1813 80 17168144512515476742
18186145 218 18411423903503023558
18522853 276 18412546492037592553
19050596 39 18410858775858764633
19784866 9 18412265021155473810
200 152 18202274819337965375
20715895 44 18116989984517715477
21033648 29 18262779827106925672
21267235 1 18410302427354843602
21421861 104 18042966467372004754
21637258 2 15647319828885568714
22182313 1 18189614934485510503
22854114 111 18409735070690792279
22854114 59 18343022189864506130
23402539 116 18272925046486162621
23557571 272 18059303161493107767
23559900 14 18343023255612643838
26918003 58 18409728456589012017
2748010 2 18410304609229794207
2838139 119 14835541671104639250
296302 2 16343984710473737934
335352 9 18411702045432157758
34934 24 18341610383102269379
350125 39 18410857681354741304
351380 180 18413386540454065762
3545911 37 18411703166439727155
42 15 18260548935156425576
5104073 3 18410294747868572393
59755656 215 18339930311854621398
633830 44 17988931080225984300
69090 78 18413386557386229218
7364860 26 18200601276388112774
9709674 26 18341058445033876271

> <PUBCHEM_SHAPE_MULTIPOLES>
420.43
9.43
2.1
1.06
1.16
0.42
0.43
-0.59
-2.56
-0.22
0.02
0.09
-0.22
0.11

> <PUBCHEM_SHAPE_SELFOVERLAP>
902.625

> <PUBCHEM_SHAPE_VOLUME>
230.1

> <PUBCHEM_COORDINATE_TYPE>
2
5
10

> <Energy>
71.9966

> <minimizedAffinity>
44.98597

> <CNNscore>
0.1779253632

> <CNNaffinity>
5.9369544983

> <CNN_VS>
1.0563347340

> <CNNaffinity_variance>
0.9087184072

$$$$
