2999413


 26 27  0  0  0  0  0  0  0  0999 V2000
   26.7622    2.2003    3.2907 O   0  0  0  0  0  0  0  0  0  0  0  0
   22.0143    5.5296    4.4971 O   0  0  0  0  0  0  0  0  0  0  0  0
   20.7852    3.9848    3.2979 O   0  0  0  0  0  0  0  0  0  0  0  0
   19.4163    6.5817    5.3984 O   0  0  0  0  0  0  0  0  0  0  0  0
   18.3711    3.8877    9.2092 O   0  0  0  0  0  0  0  0  0  0  0  0
   26.3033    3.1407    4.2612 C   0  0  0  0  0  0  0  0  0  0  0  0
   25.6261    2.3724    5.4053 C   0  0  0  0  0  0  0  0  0  0  0  0
   25.4125    4.1821    3.5666 C   0  0  0  0  0  0  0  0  0  0  0  0
   24.4755    1.4582    4.9580 C   0  0  0  0  0  0  0  0  0  0  0  0
   24.9454    5.2995    4.5026 C   0  0  0  0  0  0  0  0  0  0  0  0
   23.6711    0.9124    6.1445 C   0  0  0  0  0  0  0  0  0  0  0  0
   24.1374    6.3873    3.7829 C   0  0  0  0  0  0  0  0  0  0  0  0
   22.6700    1.9233    6.7200 C   0  0  0  0  0  0  0  0  0  0  0  0
   22.7495    5.9182    3.3235 C   0  0  0  0  0  0  0  0  0  0  0  0
   21.3966    2.0434    5.8692 C   0  0  0  0  0  0  0  0  0  0  0  0
   20.5117    3.1813    6.3296 C   0  0  0  0  0  0  0  0  0  0  0  0
   22.0055    7.0563    2.6289 C   0  0  0  0  0  0  0  0  0  0  0  0
   20.3737    4.3895    5.6139 C   0  0  0  0  0  0  0  0  0  0  0  0
   21.0492    4.5950    4.3191 C   0  0  0  0  0  0  0  0  0  0  0  0
   19.8140    3.0466    7.5434 C   0  0  0  0  0  0  0  0  0  0  0  0
   19.5593    5.4208    6.1103 C   0  0  0  0  0  0  0  0  0  0  0  0
   19.0163    4.0831    8.0235 C   0  0  0  0  0  0  0  0  0  0  0  0
   18.8822    5.2737    7.3192 C   0  0  0  0  0  0  0  0  0  0  0  0
   27.3257    1.5392    3.7222 H   0  0  0  0  0  0  0  0  0  0  0  0
   19.8674    6.6906    4.5843 H   0  0  0  0  0  0  0  0  0  0  0  0
   18.4733    3.0785    9.6704 H   0  0  0  0  0  0  0  0  0  0  0  0
  1  6  1  0
  1 24  1  0
  2 14  1  0
  2 19  1  0
  3 19  2  0
  4 21  1  0
  4 25  1  0
  5 22  1  0
  5 26  1  0
  6  7  1  0
  6  8  1  0
  7  9  1  0
  8 10  1  0
  9 11  1  0
 10 12  1  0
 11 13  1  0
 12 14  1  0
 13 15  1  0
 14 17  1  0
 15 16  1  0
 16 18  2  0
 16 20  1  0
 18 19  1  0
 18 21  1  0
 20 22  2  0
 21 23  2  0
 22 23  1  0
M  END
> <PUBCHEM_COMPOUND_CID>
2999413

> <PUBCHEM_CONFORMER_RMSD>
0.6

> <PUBCHEM_CONFORMER_DIVERSEORDER>
1
6
14
27
9
16
11
26
8
2
22
5
20
28
18
17
29
3
24
19
21
13
15
7
23
4
25
12
10

> <PUBCHEM_MMFF94_PARTIAL_CHARGES>
20
1 -0.68
14 0.28
15 0.14
16 -0.14
18 0.09
19 0.63
2 -0.43
20 -0.15
21 0.08
22 0.08
23 -0.15
3 -0.57
4 -0.53
45 0.4
46 0.15
47 0.15
48 0.45
49 0.45
5 -0.53
6 0.28

> <PUBCHEM_EFFECTIVE_ROTOR_COUNT>
2.2

> <PUBCHEM_PHARMACOPHORE_FEATURES>
6
1 1 acceptor
1 1 donor
1 3 acceptor
1 4 donor
1 5 donor
6 16 18 20 21 22 23 rings

> <PUBCHEM_HEAVY_ATOM_COUNT>
23

> <PUBCHEM_ATOM_DEF_STEREO_COUNT>
2

> <PUBCHEM_ATOM_UDEF_STEREO_COUNT>
0

> <PUBCHEM_BOND_DEF_STEREO_COUNT>
0

> <PUBCHEM_BOND_UDEF_STEREO_COUNT>
0

> <PUBCHEM_ISOTOPIC_ATOM_COUNT>
0

> <PUBCHEM_COMPONENT_COUNT>
1

> <PUBCHEM_CACTVS_TAUTO_COUNT>
25

> <PUBCHEM_CONFORMER_ID>
002DC47500000001

> <PUBCHEM_MMFF94_ENERGY>
51.6521

> <PUBCHEM_FEATURE_SELFOVERLAP>
30.446

> <PUBCHEM_SHAPE_FINGERPRINT>
104564 63 18340206271993051459
10498660 4 18187631549186102207
10577160 183 17606693423048979742
10616163 171 18266175029013727061
10759866 29 17750229218859711762
108634 29 18411143511243732574
1100329 8 17185877190433830119
11578080 2 17058915861662947194
116883 192 18412832382636582198
12011746 2 18335696144590423807
12054548 360 18337387261554875763
12156800 1 11695045847065978403
12553582 1 18337941355723699521
12788726 201 18339079272527017530
12954195 1 18196384628153038830
13402501 40 18410292523613913767
13533116 47 17911794988931237615
13941206 138 17823424798885047762
14178342 30 17618481208803059632
14251740 79 18268155262187636390
14251745 187 18265888240930317283
14251751 93 18337386020182837502
14251757 17 18340208496912958262
14251757 5 18336274478600052878
14289585 56 17025448677686211638
14363568 33 17831602116089395611
14790565 3 18338242566191680045
14931854 50 18192983829844991199
15081414 286 18267592488269592273
15210252 30 18041841838786063412
17093844 170 18338788043621724272
17357779 13 18338788026679147463
19591789 44 18410009931708134251
20775438 99 17121094438368206175
21141583 151 18411697703262438637
21634736 98 18410570674064001468
221357 26 18411697699342485711
221490 88 18411139126039522364
22393880 68 18190738627232927852
22907989 373 17973200346140242700
23379529 103 18202007594804787190
23419403 2 17703496796872386008
23559900 14 18341611543049219120
23566358 2 18411982468764321124
238 59 17976219553578124023
2871803 45 18335692832737868381
3014063 31 18410290320121227783
6287921 2 17544481216121896507

> <PUBCHEM_SHAPE_MULTIPOLES>
443.98
8.13
4.23
1.13
0.08
1.63
0.2
-3.4
-2.74
-1.52
0.36
0
0.19
0.73

> <PUBCHEM_SHAPE_SELFOVERLAP>
910.639

> <PUBCHEM_SHAPE_VOLUME>
254.2

> <PUBCHEM_COORDINATE_TYPE>
2
5
10

> <Energy>
43.3336

> <minimizedAffinity>
-7.51206

> <CNNscore>
0.6731449366

> <CNNaffinity>
6.7554259300

> <CNN_VS>
4.5473809242

> <CNNaffinity_variance>
0.2171217352

$$$$
2999413


 26 27  0  0  0  0  0  0  0  0999 V2000
   26.4112    3.5175    2.6952 O   0  0  0  0  0  0  0  0  0  0  0  0
   21.7838    2.5215    6.2556 O   0  0  0  0  0  0  0  0  0  0  0  0
   22.6452    4.1702    7.6247 O   0  0  0  0  0  0  0  0  0  0  0  0
   19.3522    2.7184    7.9040 O   0  0  0  0  0  0  0  0  0  0  0  0
   16.8777    6.2542    5.8430 O   0  0  0  0  0  0  0  0  0  0  0  0
   25.0762    3.0161    2.6399 C   0  0  0  0  0  0  0  0  0  0  0  0
   24.1300    4.1789    2.3076 C   0  0  0  0  0  0  0  0  0  0  0  0
   24.7622    2.2831    3.9532 C   0  0  0  0  0  0  0  0  0  0  0  0
   24.2184    5.3633    3.2819 C   0  0  0  0  0  0  0  0  0  0  0  0
   23.3837    1.6180    3.9603 C   0  0  0  0  0  0  0  0  0  0  0  0
   23.0908    6.3802    3.0652 C   0  0  0  0  0  0  0  0  0  0  0  0
   23.1148    0.8070    5.2346 C   0  0  0  0  0  0  0  0  0  0  0  0
   21.7528    5.9487    3.6808 C   0  0  0  0  0  0  0  0  0  0  0  0
   22.9240    1.6755    6.4862 C   0  0  0  0  0  0  0  0  0  0  0  0
   21.7037    6.1681    5.2004 C   0  0  0  0  0  0  0  0  0  0  0  0
   20.4673    5.5563    5.8225 C   0  0  0  0  0  0  0  0  0  0  0  0
   22.6502    0.7992    7.7062 C   0  0  0  0  0  0  0  0  0  0  0  0
   20.4977    4.3823    6.6047 C   0  0  0  0  0  0  0  0  0  0  0  0
   21.7684    3.7030    6.9190 C   0  0  0  0  0  0  0  0  0  0  0  0
   19.2212    6.1649    5.5888 C   0  0  0  0  0  0  0  0  0  0  0  0
   19.3098    3.8469    7.1297 C   0  0  0  0  0  0  0  0  0  0  0  0
   18.0525    5.6155    6.1118 C   0  0  0  0  0  0  0  0  0  0  0  0
   18.0826    4.4581    6.8806 C   0  0  0  0  0  0  0  0  0  0  0  0
   26.6167    3.9818    1.8688 H   0  0  0  0  0  0  0  0  0  0  0  0
   20.1724    2.2998    8.0774 H   0  0  0  0  0  0  0  0  0  0  0  0
   16.8765    7.0334    5.3227 H   0  0  0  0  0  0  0  0  0  0  0  0
  1  6  1  0
  1 24  1  0
  2 14  1  0
  2 19  1  0
  3 19  2  0
  4 21  1  0
  4 25  1  0
  5 22  1  0
  5 26  1  0
  6  7  1  0
  6  8  1  0
  7  9  1  0
  8 10  1  0
  9 11  1  0
 10 12  1  0
 11 13  1  0
 12 14  1  0
 13 15  1  0
 14 17  1  0
 15 16  1  0
 16 18  2  0
 16 20  1  0
 18 19  1  0
 18 21  1  0
 20 22  2  0
 21 23  2  0
 22 23  1  0
M  END
> <PUBCHEM_COMPOUND_CID>
2999413

> <PUBCHEM_CONFORMER_RMSD>
0.6

> <PUBCHEM_CONFORMER_DIVERSEORDER>
1
6
14
27
9
16
11
26
8
2
22
5
20
28
18
17
29
3
24
19
21
13
15
7
23
4
25
12
10

> <PUBCHEM_MMFF94_PARTIAL_CHARGES>
20
1 -0.68
14 0.28
15 0.14
16 -0.14
18 0.09
19 0.63
2 -0.43
20 -0.15
21 0.08
22 0.08
23 -0.15
3 -0.57
4 -0.53
45 0.4
46 0.15
47 0.15
48 0.45
49 0.45
5 -0.53
6 0.28

> <PUBCHEM_EFFECTIVE_ROTOR_COUNT>
2.2

> <PUBCHEM_PHARMACOPHORE_FEATURES>
6
1 1 acceptor
1 1 donor
1 3 acceptor
1 4 donor
1 5 donor
6 16 18 20 21 22 23 rings

> <PUBCHEM_HEAVY_ATOM_COUNT>
23

> <PUBCHEM_ATOM_DEF_STEREO_COUNT>
2

> <PUBCHEM_ATOM_UDEF_STEREO_COUNT>
0

> <PUBCHEM_BOND_DEF_STEREO_COUNT>
0

> <PUBCHEM_BOND_UDEF_STEREO_COUNT>
0

> <PUBCHEM_ISOTOPIC_ATOM_COUNT>
0

> <PUBCHEM_COMPONENT_COUNT>
1

> <PUBCHEM_CACTVS_TAUTO_COUNT>
25

> <PUBCHEM_CONFORMER_ID>
002DC47500000001

> <PUBCHEM_MMFF94_ENERGY>
51.6521

> <PUBCHEM_FEATURE_SELFOVERLAP>
30.446

> <PUBCHEM_SHAPE_FINGERPRINT>
104564 63 18340206271993051459
10498660 4 18187631549186102207
10577160 183 17606693423048979742
10616163 171 18266175029013727061
10759866 29 17750229218859711762
108634 29 18411143511243732574
1100329 8 17185877190433830119
11578080 2 17058915861662947194
116883 192 18412832382636582198
12011746 2 18335696144590423807
12054548 360 18337387261554875763
12156800 1 11695045847065978403
12553582 1 18337941355723699521
12788726 201 18339079272527017530
12954195 1 18196384628153038830
13402501 40 18410292523613913767
13533116 47 17911794988931237615
13941206 138 17823424798885047762
14178342 30 17618481208803059632
14251740 79 18268155262187636390
14251745 187 18265888240930317283
14251751 93 18337386020182837502
14251757 17 18340208496912958262
14251757 5 18336274478600052878
14289585 56 17025448677686211638
14363568 33 17831602116089395611
14790565 3 18338242566191680045
14931854 50 18192983829844991199
15081414 286 18267592488269592273
15210252 30 18041841838786063412
17093844 170 18338788043621724272
17357779 13 18338788026679147463
19591789 44 18410009931708134251
20775438 99 17121094438368206175
21141583 151 18411697703262438637
21634736 98 18410570674064001468
221357 26 18411697699342485711
221490 88 18411139126039522364
22393880 68 18190738627232927852
22907989 373 17973200346140242700
23379529 103 18202007594804787190
23419403 2 17703496796872386008
23559900 14 18341611543049219120
23566358 2 18411982468764321124
238 59 17976219553578124023
2871803 45 18335692832737868381
3014063 31 18410290320121227783
6287921 2 17544481216121896507

> <PUBCHEM_SHAPE_MULTIPOLES>
443.98
8.13
4.23
1.13
0.08
1.63
0.2
-3.4
-2.74
-1.52
0.36
0
0.19
0.73

> <PUBCHEM_SHAPE_SELFOVERLAP>
910.639

> <PUBCHEM_SHAPE_VOLUME>
254.2

> <PUBCHEM_COORDINATE_TYPE>
2
5
10

> <Energy>
43.3336

> <minimizedAffinity>
-7.83750

> <CNNscore>
0.6286180615

> <CNNaffinity>
6.2606792450

> <CNN_VS>
3.9355759621

> <CNNaffinity_variance>
0.2456657737

$$$$
2999413


 26 27  0  0  0  0  0  0  0  0999 V2000
   18.8848    4.6404    7.0024 O   0  0  0  0  0  0  0  0  0  0  0  0
   24.4222    2.8343    5.9266 O   0  0  0  0  0  0  0  0  0  0  0  0
   23.4848    1.0482    4.8014 O   0  0  0  0  0  0  0  0  0  0  0  0
   26.9676    1.9923    4.7100 O   0  0  0  0  0  0  0  0  0  0  0  0
   26.9628    4.1826    0.4585 O   0  0  0  0  0  0  0  0  0  0  0  0
   20.2052    5.1695    6.8867 C   0  0  0  0  0  0  0  0  0  0  0  0
   20.4323    5.6046    5.4317 C   0  0  0  0  0  0  0  0  0  0  0  0
   21.2080    4.1320    7.4145 C   0  0  0  0  0  0  0  0  0  0  0  0
   20.2077    4.4914    4.3972 C   0  0  0  0  0  0  0  0  0  0  0  0
   22.6522    4.6389    7.4282 C   0  0  0  0  0  0  0  0  0  0  0  0
   20.6868    4.8934    2.9967 C   0  0  0  0  0  0  0  0  0  0  0  0
   23.6349    3.6356    8.0459 C   0  0  0  0  0  0  0  0  0  0  0  0
   22.2068    4.7815    2.8158 C   0  0  0  0  0  0  0  0  0  0  0  0
   23.8682    2.3909    7.1778 C   0  0  0  0  0  0  0  0  0  0  0  0
   22.6703    3.3337    2.5950 C   0  0  0  0  0  0  0  0  0  0  0  0
   24.1783    3.2104    2.6206 C   0  0  0  0  0  0  0  0  0  0  0  0
   24.8632    1.4496    7.8526 C   0  0  0  0  0  0  0  0  0  0  0  0
   24.8869    2.6314    3.6947 C   0  0  0  0  0  0  0  0  0  0  0  0
   24.1828    2.0458    4.8507 C   0  0  0  0  0  0  0  0  0  0  0  0
   24.9169    3.7227    1.5389 C   0  0  0  0  0  0  0  0  0  0  0  0
   26.2903    2.5740    3.6719 C   0  0  0  0  0  0  0  0  0  0  0  0
   26.3088    3.6632    1.5370 C   0  0  0  0  0  0  0  0  0  0  0  0
   27.0065    3.0946    2.5959 C   0  0  0  0  0  0  0  0  0  0  0  0
   18.2458    5.2904    6.6708 H   0  0  0  0  0  0  0  0  0  0  0  0
   26.4954    1.6393    5.4382 H   0  0  0  0  0  0  0  0  0  0  0  0
   26.4760    4.5622   -0.2464 H   0  0  0  0  0  0  0  0  0  0  0  0
  1  6  1  0
  1 24  1  0
  2 14  1  0
  2 19  1  0
  3 19  2  0
  4 21  1  0
  4 25  1  0
  5 22  1  0
  5 26  1  0
  6  7  1  0
  6  8  1  0
  7  9  1  0
  8 10  1  0
  9 11  1  0
 10 12  1  0
 11 13  1  0
 12 14  1  0
 13 15  1  0
 14 17  1  0
 15 16  1  0
 16 18  2  0
 16 20  1  0
 18 19  1  0
 18 21  1  0
 20 22  2  0
 21 23  2  0
 22 23  1  0
M  END
> <PUBCHEM_COMPOUND_CID>
2999413

> <PUBCHEM_CONFORMER_RMSD>
0.6

> <PUBCHEM_CONFORMER_DIVERSEORDER>
1
6
14
27
9
16
11
26
8
2
22
5
20
28
18
17
29
3
24
19
21
13
15
7
23
4
25
12
10

> <PUBCHEM_MMFF94_PARTIAL_CHARGES>
20
1 -0.68
14 0.28
15 0.14
16 -0.14
18 0.09
19 0.63
2 -0.43
20 -0.15
21 0.08
22 0.08
23 -0.15
3 -0.57
4 -0.53
45 0.4
46 0.15
47 0.15
48 0.45
49 0.45
5 -0.53
6 0.28

> <PUBCHEM_EFFECTIVE_ROTOR_COUNT>
2.2

> <PUBCHEM_PHARMACOPHORE_FEATURES>
6
1 1 acceptor
1 1 donor
1 3 acceptor
1 4 donor
1 5 donor
6 16 18 20 21 22 23 rings

> <PUBCHEM_HEAVY_ATOM_COUNT>
23

> <PUBCHEM_ATOM_DEF_STEREO_COUNT>
2

> <PUBCHEM_ATOM_UDEF_STEREO_COUNT>
0

> <PUBCHEM_BOND_DEF_STEREO_COUNT>
0

> <PUBCHEM_BOND_UDEF_STEREO_COUNT>
0

> <PUBCHEM_ISOTOPIC_ATOM_COUNT>
0

> <PUBCHEM_COMPONENT_COUNT>
1

> <PUBCHEM_CACTVS_TAUTO_COUNT>
25

> <PUBCHEM_CONFORMER_ID>
002DC47500000001

> <PUBCHEM_MMFF94_ENERGY>
51.6521

> <PUBCHEM_FEATURE_SELFOVERLAP>
30.446

> <PUBCHEM_SHAPE_FINGERPRINT>
104564 63 18340206271993051459
10498660 4 18187631549186102207
10577160 183 17606693423048979742
10616163 171 18266175029013727061
10759866 29 17750229218859711762
108634 29 18411143511243732574
1100329 8 17185877190433830119
11578080 2 17058915861662947194
116883 192 18412832382636582198
12011746 2 18335696144590423807
12054548 360 18337387261554875763
12156800 1 11695045847065978403
12553582 1 18337941355723699521
12788726 201 18339079272527017530
12954195 1 18196384628153038830
13402501 40 18410292523613913767
13533116 47 17911794988931237615
13941206 138 17823424798885047762
14178342 30 17618481208803059632
14251740 79 18268155262187636390
14251745 187 18265888240930317283
14251751 93 18337386020182837502
14251757 17 18340208496912958262
14251757 5 18336274478600052878
14289585 56 17025448677686211638
14363568 33 17831602116089395611
14790565 3 18338242566191680045
14931854 50 18192983829844991199
15081414 286 18267592488269592273
15210252 30 18041841838786063412
17093844 170 18338788043621724272
17357779 13 18338788026679147463
19591789 44 18410009931708134251
20775438 99 17121094438368206175
21141583 151 18411697703262438637
21634736 98 18410570674064001468
221357 26 18411697699342485711
221490 88 18411139126039522364
22393880 68 18190738627232927852
22907989 373 17973200346140242700
23379529 103 18202007594804787190
23419403 2 17703496796872386008
23559900 14 18341611543049219120
23566358 2 18411982468764321124
238 59 17976219553578124023
2871803 45 18335692832737868381
3014063 31 18410290320121227783
6287921 2 17544481216121896507

> <PUBCHEM_SHAPE_MULTIPOLES>
443.98
8.13
4.23
1.13
0.08
1.63
0.2
-3.4
-2.74
-1.52
0.36
0
0.19
0.73

> <PUBCHEM_SHAPE_SELFOVERLAP>
910.639

> <PUBCHEM_SHAPE_VOLUME>
254.2

> <PUBCHEM_COORDINATE_TYPE>
2
5
10

> <Energy>
43.3336

> <minimizedAffinity>
9.30182

> <CNNscore>
0.1921641082

> <CNNaffinity>
5.7120418549

> <CNN_VS>
1.0976494551

> <CNNaffinity_variance>
0.3081076145

$$$$
2999413


 26 27  0  0  0  0  0  0  0  0999 V2000
   17.8632    5.1573    7.3611 O   0  0  0  0  0  0  0  0  0  0  0  0
   22.7907    5.8948    4.1582 O   0  0  0  0  0  0  0  0  0  0  0  0
   23.7861    6.6530    6.0997 O   0  0  0  0  0  0  0  0  0  0  0  0
   25.5153    5.8085    3.0458 O   0  0  0  0  0  0  0  0  0  0  0  0
   27.1293    1.5003    4.3522 O   0  0  0  0  0  0  0  0  0  0  0  0
   18.4873    4.6516    6.1814 C   0  0  0  0  0  0  0  0  0  0  0  0
   19.3309    3.4259    6.5609 C   0  0  0  0  0  0  0  0  0  0  0  0
   19.2677    5.7874    5.5021 C   0  0  0  0  0  0  0  0  0  0  0  0
   20.3803    3.6942    7.6502 C   0  0  0  0  0  0  0  0  0  0  0  0
   19.8967    5.3761    4.1686 C   0  0  0  0  0  0  0  0  0  0  0  0
   21.3594    2.5252    7.8153 C   0  0  0  0  0  0  0  0  0  0  0  0
   20.5919    6.5390    3.4486 C   0  0  0  0  0  0  0  0  0  0  0  0
   22.4551    2.4900    6.7412 C   0  0  0  0  0  0  0  0  0  0  0  0
   21.8797    7.0077    4.1409 C   0  0  0  0  0  0  0  0  0  0  0  0
   23.5744    3.5083    7.0058 C   0  0  0  0  0  0  0  0  0  0  0  0
   24.5385    3.6066    5.8435 C   0  0  0  0  0  0  0  0  0  0  0  0
   22.5166    8.1553    3.3607 C   0  0  0  0  0  0  0  0  0  0  0  0
   24.5750    4.7083    4.9626 C   0  0  0  0  0  0  0  0  0  0  0  0
   23.7007    5.8790    5.1623 C   0  0  0  0  0  0  0  0  0  0  0  0
   25.4226    2.5389    5.6063 C   0  0  0  0  0  0  0  0  0  0  0  0
   25.4739    4.7260    3.8833 C   0  0  0  0  0  0  0  0  0  0  0  0
   26.3023    2.5709    4.5265 C   0  0  0  0  0  0  0  0  0  0  0  0
   26.3367    3.6553    3.6580 C   0  0  0  0  0  0  0  0  0  0  0  0
   17.3683    4.4452    7.7956 H   0  0  0  0  0  0  0  0  0  0  0  0
   24.9393    6.5336    3.1886 H   0  0  0  0  0  0  0  0  0  0  0  0
   27.0922    0.7778    4.9477 H   0  0  0  0  0  0  0  0  0  0  0  0
  1  6  1  0
  1 24  1  0
  2 14  1  0
  2 19  1  0
  3 19  2  0
  4 21  1  0
  4 25  1  0
  5 22  1  0
  5 26  1  0
  6  7  1  0
  6  8  1  0
  7  9  1  0
  8 10  1  0
  9 11  1  0
 10 12  1  0
 11 13  1  0
 12 14  1  0
 13 15  1  0
 14 17  1  0
 15 16  1  0
 16 18  2  0
 16 20  1  0
 18 19  1  0
 18 21  1  0
 20 22  2  0
 21 23  2  0
 22 23  1  0
M  END
> <PUBCHEM_COMPOUND_CID>
2999413

> <PUBCHEM_CONFORMER_RMSD>
0.6

> <PUBCHEM_CONFORMER_DIVERSEORDER>
1
6
14
27
9
16
11
26
8
2
22
5
20
28
18
17
29
3
24
19
21
13
15
7
23
4
25
12
10

> <PUBCHEM_MMFF94_PARTIAL_CHARGES>
20
1 -0.68
14 0.28
15 0.14
16 -0.14
18 0.09
19 0.63
2 -0.43
20 -0.15
21 0.08
22 0.08
23 -0.15
3 -0.57
4 -0.53
45 0.4
46 0.15
47 0.15
48 0.45
49 0.45
5 -0.53
6 0.28

> <PUBCHEM_EFFECTIVE_ROTOR_COUNT>
2.2

> <PUBCHEM_PHARMACOPHORE_FEATURES>
6
1 1 acceptor
1 1 donor
1 3 acceptor
1 4 donor
1 5 donor
6 16 18 20 21 22 23 rings

> <PUBCHEM_HEAVY_ATOM_COUNT>
23

> <PUBCHEM_ATOM_DEF_STEREO_COUNT>
2

> <PUBCHEM_ATOM_UDEF_STEREO_COUNT>
0

> <PUBCHEM_BOND_DEF_STEREO_COUNT>
0

> <PUBCHEM_BOND_UDEF_STEREO_COUNT>
0

> <PUBCHEM_ISOTOPIC_ATOM_COUNT>
0

> <PUBCHEM_COMPONENT_COUNT>
1

> <PUBCHEM_CACTVS_TAUTO_COUNT>
25

> <PUBCHEM_CONFORMER_ID>
002DC47500000001

> <PUBCHEM_MMFF94_ENERGY>
51.6521

> <PUBCHEM_FEATURE_SELFOVERLAP>
30.446

> <PUBCHEM_SHAPE_FINGERPRINT>
104564 63 18340206271993051459
10498660 4 18187631549186102207
10577160 183 17606693423048979742
10616163 171 18266175029013727061
10759866 29 17750229218859711762
108634 29 18411143511243732574
1100329 8 17185877190433830119
11578080 2 17058915861662947194
116883 192 18412832382636582198
12011746 2 18335696144590423807
12054548 360 18337387261554875763
12156800 1 11695045847065978403
12553582 1 18337941355723699521
12788726 201 18339079272527017530
12954195 1 18196384628153038830
13402501 40 18410292523613913767
13533116 47 17911794988931237615
13941206 138 17823424798885047762
14178342 30 17618481208803059632
14251740 79 18268155262187636390
14251745 187 18265888240930317283
14251751 93 18337386020182837502
14251757 17 18340208496912958262
14251757 5 18336274478600052878
14289585 56 17025448677686211638
14363568 33 17831602116089395611
14790565 3 18338242566191680045
14931854 50 18192983829844991199
15081414 286 18267592488269592273
15210252 30 18041841838786063412
17093844 170 18338788043621724272
17357779 13 18338788026679147463
19591789 44 18410009931708134251
20775438 99 17121094438368206175
21141583 151 18411697703262438637
21634736 98 18410570674064001468
221357 26 18411697699342485711
221490 88 18411139126039522364
22393880 68 18190738627232927852
22907989 373 17973200346140242700
23379529 103 18202007594804787190
23419403 2 17703496796872386008
23559900 14 18341611543049219120
23566358 2 18411982468764321124
238 59 17976219553578124023
2871803 45 18335692832737868381
3014063 31 18410290320121227783
6287921 2 17544481216121896507

> <PUBCHEM_SHAPE_MULTIPOLES>
443.98
8.13
4.23
1.13
0.08
1.63
0.2
-3.4
-2.74
-1.52
0.36
0
0.19
0.73

> <PUBCHEM_SHAPE_SELFOVERLAP>
910.639

> <PUBCHEM_SHAPE_VOLUME>
254.2

> <PUBCHEM_COORDINATE_TYPE>
2
5
10

> <Energy>
43.3336

> <minimizedAffinity>
-5.03532

> <CNNscore>
0.1642452329

> <CNNaffinity>
6.2253117561

> <CNN_VS>
1.0224777460

> <CNNaffinity_variance>
0.0322961099

$$$$
2999413


 26 27  0  0  0  0  0  0  0  0999 V2000
   19.1368    1.7202    6.7859 O   0  0  0  0  0  0  0  0  0  0  0  0
   24.3731    3.4565    4.6300 O   0  0  0  0  0  0  0  0  0  0  0  0
   23.4698    3.1369    2.5283 O   0  0  0  0  0  0  0  0  0  0  0  0
   26.5804    4.8236    3.2417 O   0  0  0  0  0  0  0  0  0  0  0  0
   25.0229    9.3248    2.8096 O   0  0  0  0  0  0  0  0  0  0  0  0
   20.2648    2.5116    7.1573 C   0  0  0  0  0  0  0  0  0  0  0  0
   20.0006    3.9660    6.7418 C   0  0  0  0  0  0  0  0  0  0  0  0
   21.5334    1.8882    6.5550 C   0  0  0  0  0  0  0  0  0  0  0  0
   19.6845    4.1491    5.2497 C   0  0  0  0  0  0  0  0  0  0  0  0
   22.8184    2.6055    6.9759 C   0  0  0  0  0  0  0  0  0  0  0  0
   19.6792    5.6253    4.8330 C   0  0  0  0  0  0  0  0  0  0  0  0
   24.0874    1.9214    6.4508 C   0  0  0  0  0  0  0  0  0  0  0  0
   21.0846    6.2065    4.6265 C   0  0  0  0  0  0  0  0  0  0  0  0
   24.2728    2.0539    4.9324 C   0  0  0  0  0  0  0  0  0  0  0  0
   21.7023    5.7946    3.2817 C   0  0  0  0  0  0  0  0  0  0  0  0
   23.1560    6.2018    3.1765 C   0  0  0  0  0  0  0  0  0  0  0  0
   25.5589    1.3600    4.4902 C   0  0  0  0  0  0  0  0  0  0  0  0
   24.2226    5.2815    3.2570 C   0  0  0  0  0  0  0  0  0  0  0  0
   23.9774    3.8334    3.3898 C   0  0  0  0  0  0  0  0  0  0  0  0
   23.4668    7.5646    3.0212 C   0  0  0  0  0  0  0  0  0  0  0  0
   25.5528    5.7268    3.1825 C   0  0  0  0  0  0  0  0  0  0  0  0
   24.7924    7.9885    2.9563 C   0  0  0  0  0  0  0  0  0  0  0  0
   25.8427    7.0820    3.0376 C   0  0  0  0  0  0  0  0  0  0  0  0
   18.3316    2.1080    7.1629 H   0  0  0  0  0  0  0  0  0  0  0  0
   26.3961    3.9101    3.3391 H   0  0  0  0  0  0  0  0  0  0  0  0
   24.3023    9.9214    2.7567 H   0  0  0  0  0  0  0  0  0  0  0  0
  1  6  1  0
  1 24  1  0
  2 14  1  0
  2 19  1  0
  3 19  2  0
  4 21  1  0
  4 25  1  0
  5 22  1  0
  5 26  1  0
  6  7  1  0
  6  8  1  0
  7  9  1  0
  8 10  1  0
  9 11  1  0
 10 12  1  0
 11 13  1  0
 12 14  1  0
 13 15  1  0
 14 17  1  0
 15 16  1  0
 16 18  2  0
 16 20  1  0
 18 19  1  0
 18 21  1  0
 20 22  2  0
 21 23  2  0
 22 23  1  0
M  END
> <PUBCHEM_COMPOUND_CID>
2999413

> <PUBCHEM_CONFORMER_RMSD>
0.6

> <PUBCHEM_CONFORMER_DIVERSEORDER>
1
6
14
27
9
16
11
26
8
2
22
5
20
28
18
17
29
3
24
19
21
13
15
7
23
4
25
12
10

> <PUBCHEM_MMFF94_PARTIAL_CHARGES>
20
1 -0.68
14 0.28
15 0.14
16 -0.14
18 0.09
19 0.63
2 -0.43
20 -0.15
21 0.08
22 0.08
23 -0.15
3 -0.57
4 -0.53
45 0.4
46 0.15
47 0.15
48 0.45
49 0.45
5 -0.53
6 0.28

> <PUBCHEM_EFFECTIVE_ROTOR_COUNT>
2.2

> <PUBCHEM_PHARMACOPHORE_FEATURES>
6
1 1 acceptor
1 1 donor
1 3 acceptor
1 4 donor
1 5 donor
6 16 18 20 21 22 23 rings

> <PUBCHEM_HEAVY_ATOM_COUNT>
23

> <PUBCHEM_ATOM_DEF_STEREO_COUNT>
2

> <PUBCHEM_ATOM_UDEF_STEREO_COUNT>
0

> <PUBCHEM_BOND_DEF_STEREO_COUNT>
0

> <PUBCHEM_BOND_UDEF_STEREO_COUNT>
0

> <PUBCHEM_ISOTOPIC_ATOM_COUNT>
0

> <PUBCHEM_COMPONENT_COUNT>
1

> <PUBCHEM_CACTVS_TAUTO_COUNT>
25

> <PUBCHEM_CONFORMER_ID>
002DC47500000001

> <PUBCHEM_MMFF94_ENERGY>
51.6521

> <PUBCHEM_FEATURE_SELFOVERLAP>
30.446

> <PUBCHEM_SHAPE_FINGERPRINT>
104564 63 18340206271993051459
10498660 4 18187631549186102207
10577160 183 17606693423048979742
10616163 171 18266175029013727061
10759866 29 17750229218859711762
108634 29 18411143511243732574
1100329 8 17185877190433830119
11578080 2 17058915861662947194
116883 192 18412832382636582198
12011746 2 18335696144590423807
12054548 360 18337387261554875763
12156800 1 11695045847065978403
12553582 1 18337941355723699521
12788726 201 18339079272527017530
12954195 1 18196384628153038830
13402501 40 18410292523613913767
13533116 47 17911794988931237615
13941206 138 17823424798885047762
14178342 30 17618481208803059632
14251740 79 18268155262187636390
14251745 187 18265888240930317283
14251751 93 18337386020182837502
14251757 17 18340208496912958262
14251757 5 18336274478600052878
14289585 56 17025448677686211638
14363568 33 17831602116089395611
14790565 3 18338242566191680045
14931854 50 18192983829844991199
15081414 286 18267592488269592273
15210252 30 18041841838786063412
17093844 170 18338788043621724272
17357779 13 18338788026679147463
19591789 44 18410009931708134251
20775438 99 17121094438368206175
21141583 151 18411697703262438637
21634736 98 18410570674064001468
221357 26 18411697699342485711
221490 88 18411139126039522364
22393880 68 18190738627232927852
22907989 373 17973200346140242700
23379529 103 18202007594804787190
23419403 2 17703496796872386008
23559900 14 18341611543049219120
23566358 2 18411982468764321124
238 59 17976219553578124023
2871803 45 18335692832737868381
3014063 31 18410290320121227783
6287921 2 17544481216121896507

> <PUBCHEM_SHAPE_MULTIPOLES>
443.98
8.13
4.23
1.13
0.08
1.63
0.2
-3.4
-2.74
-1.52
0.36
0
0.19
0.73

> <PUBCHEM_SHAPE_SELFOVERLAP>
910.639

> <PUBCHEM_SHAPE_VOLUME>
254.2

> <PUBCHEM_COORDINATE_TYPE>
2
5
10

> <Energy>
43.3336

> <minimizedAffinity>
3.15474

> <CNNscore>
0.1415194571

> <CNNaffinity>
5.4684615135

> <CNN_VS>
0.7738937140

> <CNNaffinity_variance>
0.1722494364

$$$$
2999413


 26 27  0  0  0  0  0  0  0  0999 V2000
   17.2214    7.2482    6.6665 O   0  0  0  0  0  0  0  0  0  0  0  0
   22.0762    4.7459    4.3750 O   0  0  0  0  0  0  0  0  0  0  0  0
   23.2393    5.6974    6.1290 O   0  0  0  0  0  0  0  0  0  0  0  0
   24.5230    3.1862    3.8762 O   0  0  0  0  0  0  0  0  0  0  0  0
   24.0460   -0.6069    6.7498 O   0  0  0  0  0  0  0  0  0  0  0  0
   17.5993    6.1444    5.8445 C   0  0  0  0  0  0  0  0  0  0  0  0
   17.8088    4.9156    6.7412 C   0  0  0  0  0  0  0  0  0  0  0  0
   18.8196    6.5437    5.0007 C   0  0  0  0  0  0  0  0  0  0  0  0
   18.8338    5.1223    7.8666 C   0  0  0  0  0  0  0  0  0  0  0  0
   19.2483    5.4614    4.0069 C   0  0  0  0  0  0  0  0  0  0  0  0
   19.1968    3.8091    8.5713 C   0  0  0  0  0  0  0  0  0  0  0  0
   20.4052    5.9024    3.1008 C   0  0  0  0  0  0  0  0  0  0  0  0
   20.2010    2.9530    7.7876 C   0  0  0  0  0  0  0  0  0  0  0  0
   21.7450    6.0386    3.8382 C   0  0  0  0  0  0  0  0  0  0  0  0
   21.6437    3.4630    7.9225 C   0  0  0  0  0  0  0  0  0  0  0  0
   22.5909    2.7394    6.9902 C   0  0  0  0  0  0  0  0  0  0  0  0
   22.8447    6.4679    2.8700 C   0  0  0  0  0  0  0  0  0  0  0  0
   23.1344    3.3316    5.8305 C   0  0  0  0  0  0  0  0  0  0  0  0
   22.8543    4.7376    5.4844 C   0  0  0  0  0  0  0  0  0  0  0  0
   22.9259    1.4026    7.2709 C   0  0  0  0  0  0  0  0  0  0  0  0
   23.9850    2.5962    4.9886 C   0  0  0  0  0  0  0  0  0  0  0  0
   23.7657    0.6866    6.4204 C   0  0  0  0  0  0  0  0  0  0  0  0
   24.2992    1.2697    5.2773 C   0  0  0  0  0  0  0  0  0  0  0  0
   16.4509    7.0033    7.2025 H   0  0  0  0  0  0  0  0  0  0  0  0
   24.3180    4.0776    3.6732 H   0  0  0  0  0  0  0  0  0  0  0  0
   23.6773   -0.9836    7.5244 H   0  0  0  0  0  0  0  0  0  0  0  0
  1  6  1  0
  1 24  1  0
  2 14  1  0
  2 19  1  0
  3 19  2  0
  4 21  1  0
  4 25  1  0
  5 22  1  0
  5 26  1  0
  6  7  1  0
  6  8  1  0
  7  9  1  0
  8 10  1  0
  9 11  1  0
 10 12  1  0
 11 13  1  0
 12 14  1  0
 13 15  1  0
 14 17  1  0
 15 16  1  0
 16 18  2  0
 16 20  1  0
 18 19  1  0
 18 21  1  0
 20 22  2  0
 21 23  2  0
 22 23  1  0
M  END
> <PUBCHEM_COMPOUND_CID>
2999413

> <PUBCHEM_CONFORMER_RMSD>
0.6

> <PUBCHEM_CONFORMER_DIVERSEORDER>
1
6
14
27
9
16
11
26
8
2
22
5
20
28
18
17
29
3
24
19
21
13
15
7
23
4
25
12
10

> <PUBCHEM_MMFF94_PARTIAL_CHARGES>
20
1 -0.68
14 0.28
15 0.14
16 -0.14
18 0.09
19 0.63
2 -0.43
20 -0.15
21 0.08
22 0.08
23 -0.15
3 -0.57
4 -0.53
45 0.4
46 0.15
47 0.15
48 0.45
49 0.45
5 -0.53
6 0.28

> <PUBCHEM_EFFECTIVE_ROTOR_COUNT>
2.2

> <PUBCHEM_PHARMACOPHORE_FEATURES>
6
1 1 acceptor
1 1 donor
1 3 acceptor
1 4 donor
1 5 donor
6 16 18 20 21 22 23 rings

> <PUBCHEM_HEAVY_ATOM_COUNT>
23

> <PUBCHEM_ATOM_DEF_STEREO_COUNT>
2

> <PUBCHEM_ATOM_UDEF_STEREO_COUNT>
0

> <PUBCHEM_BOND_DEF_STEREO_COUNT>
0

> <PUBCHEM_BOND_UDEF_STEREO_COUNT>
0

> <PUBCHEM_ISOTOPIC_ATOM_COUNT>
0

> <PUBCHEM_COMPONENT_COUNT>
1

> <PUBCHEM_CACTVS_TAUTO_COUNT>
25

> <PUBCHEM_CONFORMER_ID>
002DC47500000001

> <PUBCHEM_MMFF94_ENERGY>
51.6521

> <PUBCHEM_FEATURE_SELFOVERLAP>
30.446

> <PUBCHEM_SHAPE_FINGERPRINT>
104564 63 18340206271993051459
10498660 4 18187631549186102207
10577160 183 17606693423048979742
10616163 171 18266175029013727061
10759866 29 17750229218859711762
108634 29 18411143511243732574
1100329 8 17185877190433830119
11578080 2 17058915861662947194
116883 192 18412832382636582198
12011746 2 18335696144590423807
12054548 360 18337387261554875763
12156800 1 11695045847065978403
12553582 1 18337941355723699521
12788726 201 18339079272527017530
12954195 1 18196384628153038830
13402501 40 18410292523613913767
13533116 47 17911794988931237615
13941206 138 17823424798885047762
14178342 30 17618481208803059632
14251740 79 18268155262187636390
14251745 187 18265888240930317283
14251751 93 18337386020182837502
14251757 17 18340208496912958262
14251757 5 18336274478600052878
14289585 56 17025448677686211638
14363568 33 17831602116089395611
14790565 3 18338242566191680045
14931854 50 18192983829844991199
15081414 286 18267592488269592273
15210252 30 18041841838786063412
17093844 170 18338788043621724272
17357779 13 18338788026679147463
19591789 44 18410009931708134251
20775438 99 17121094438368206175
21141583 151 18411697703262438637
21634736 98 18410570674064001468
221357 26 18411697699342485711
221490 88 18411139126039522364
22393880 68 18190738627232927852
22907989 373 17973200346140242700
23379529 103 18202007594804787190
23419403 2 17703496796872386008
23559900 14 18341611543049219120
23566358 2 18411982468764321124
238 59 17976219553578124023
2871803 45 18335692832737868381
3014063 31 18410290320121227783
6287921 2 17544481216121896507

> <PUBCHEM_SHAPE_MULTIPOLES>
443.98
8.13
4.23
1.13
0.08
1.63
0.2
-3.4
-2.74
-1.52
0.36
0
0.19
0.73

> <PUBCHEM_SHAPE_SELFOVERLAP>
910.639

> <PUBCHEM_SHAPE_VOLUME>
254.2

> <PUBCHEM_COORDINATE_TYPE>
2
5
10

> <Energy>
43.3336

> <minimizedAffinity>
-4.54922

> <CNNscore>
0.1326037347

> <CNNaffinity>
5.3016948700

> <CNN_VS>
0.7030245662

> <CNNaffinity_variance>
0.1712663770

$$$$
2999413


 26 27  0  0  0  0  0  0  0  0999 V2000
   17.3792    4.7949    6.0983 O   0  0  0  0  0  0  0  0  0  0  0  0
   22.8952    2.6384    6.0225 O   0  0  0  0  0  0  0  0  0  0  0  0
   22.3256    1.6008    4.0391 O   0  0  0  0  0  0  0  0  0  0  0  0
   25.6704    1.9120    5.3601 O   0  0  0  0  0  0  0  0  0  0  0  0
   27.1528    5.5266    2.6015 O   0  0  0  0  0  0  0  0  0  0  0  0
   18.6800    5.0995    6.6002 C   0  0  0  0  0  0  0  0  0  0  0  0
   19.3924    6.0124    5.5917 C   0  0  0  0  0  0  0  0  0  0  0  0
   19.4148    3.7873    6.9147 C   0  0  0  0  0  0  0  0  0  0  0  0
   19.4871    5.4327    4.1722 C   0  0  0  0  0  0  0  0  0  0  0  0
   20.7885    4.0016    7.5549 C   0  0  0  0  0  0  0  0  0  0  0  0
   20.4178    6.2527    3.2699 C   0  0  0  0  0  0  0  0  0  0  0  0
   21.4757    2.6896    7.9553 C   0  0  0  0  0  0  0  0  0  0  0  0
   21.9067    5.9660    3.5072 C   0  0  0  0  0  0  0  0  0  0  0  0
   21.9422    1.8504    6.7572 C   0  0  0  0  0  0  0  0  0  0  0  0
   22.3682    4.6567    2.8497 C   0  0  0  0  0  0  0  0  0  0  0  0
   23.7769    4.2829    3.2569 C   0  0  0  0  0  0  0  0  0  0  0  0
   22.6240    0.5709    7.2362 C   0  0  0  0  0  0  0  0  0  0  0  0
   24.0682    3.2282    4.1478 C   0  0  0  0  0  0  0  0  0  0  0  0
   23.0007    2.3723    4.6979 C   0  0  0  0  0  0  0  0  0  0  0  0
   24.8499    5.0380    2.7503 C   0  0  0  0  0  0  0  0  0  0  0  0
   25.3966    2.9502    4.5103 C   0  0  0  0  0  0  0  0  0  0  0  0
   26.1605    4.7521    3.1267 C   0  0  0  0  0  0  0  0  0  0  0  0
   26.4469    3.7145    4.0057 C   0  0  0  0  0  0  0  0  0  0  0  0
   16.9090    5.6192    5.8973 H   0  0  0  0  0  0  0  0  0  0  0  0
   24.9713    1.3921    5.7049 H   0  0  0  0  0  0  0  0  0  0  0  0
   26.9411    6.2220    2.0103 H   0  0  0  0  0  0  0  0  0  0  0  0
  1  6  1  0
  1 24  1  0
  2 14  1  0
  2 19  1  0
  3 19  2  0
  4 21  1  0
  4 25  1  0
  5 22  1  0
  5 26  1  0
  6  7  1  0
  6  8  1  0
  7  9  1  0
  8 10  1  0
  9 11  1  0
 10 12  1  0
 11 13  1  0
 12 14  1  0
 13 15  1  0
 14 17  1  0
 15 16  1  0
 16 18  2  0
 16 20  1  0
 18 19  1  0
 18 21  1  0
 20 22  2  0
 21 23  2  0
 22 23  1  0
M  END
> <PUBCHEM_COMPOUND_CID>
2999413

> <PUBCHEM_CONFORMER_RMSD>
0.6

> <PUBCHEM_CONFORMER_DIVERSEORDER>
1
6
14
27
9
16
11
26
8
2
22
5
20
28
18
17
29
3
24
19
21
13
15
7
23
4
25
12
10

> <PUBCHEM_MMFF94_PARTIAL_CHARGES>
20
1 -0.68
14 0.28
15 0.14
16 -0.14
18 0.09
19 0.63
2 -0.43
20 -0.15
21 0.08
22 0.08
23 -0.15
3 -0.57
4 -0.53
45 0.4
46 0.15
47 0.15
48 0.45
49 0.45
5 -0.53
6 0.28

> <PUBCHEM_EFFECTIVE_ROTOR_COUNT>
2.2

> <PUBCHEM_PHARMACOPHORE_FEATURES>
6
1 1 acceptor
1 1 donor
1 3 acceptor
1 4 donor
1 5 donor
6 16 18 20 21 22 23 rings

> <PUBCHEM_HEAVY_ATOM_COUNT>
23

> <PUBCHEM_ATOM_DEF_STEREO_COUNT>
2

> <PUBCHEM_ATOM_UDEF_STEREO_COUNT>
0

> <PUBCHEM_BOND_DEF_STEREO_COUNT>
0

> <PUBCHEM_BOND_UDEF_STEREO_COUNT>
0

> <PUBCHEM_ISOTOPIC_ATOM_COUNT>
0

> <PUBCHEM_COMPONENT_COUNT>
1

> <PUBCHEM_CACTVS_TAUTO_COUNT>
25

> <PUBCHEM_CONFORMER_ID>
002DC47500000001

> <PUBCHEM_MMFF94_ENERGY>
51.6521

> <PUBCHEM_FEATURE_SELFOVERLAP>
30.446

> <PUBCHEM_SHAPE_FINGERPRINT>
104564 63 18340206271993051459
10498660 4 18187631549186102207
10577160 183 17606693423048979742
10616163 171 18266175029013727061
10759866 29 17750229218859711762
108634 29 18411143511243732574
1100329 8 17185877190433830119
11578080 2 17058915861662947194
116883 192 18412832382636582198
12011746 2 18335696144590423807
12054548 360 18337387261554875763
12156800 1 11695045847065978403
12553582 1 18337941355723699521
12788726 201 18339079272527017530
12954195 1 18196384628153038830
13402501 40 18410292523613913767
13533116 47 17911794988931237615
13941206 138 17823424798885047762
14178342 30 17618481208803059632
14251740 79 18268155262187636390
14251745 187 18265888240930317283
14251751 93 18337386020182837502
14251757 17 18340208496912958262
14251757 5 18336274478600052878
14289585 56 17025448677686211638
14363568 33 17831602116089395611
14790565 3 18338242566191680045
14931854 50 18192983829844991199
15081414 286 18267592488269592273
15210252 30 18041841838786063412
17093844 170 18338788043621724272
17357779 13 18338788026679147463
19591789 44 18410009931708134251
20775438 99 17121094438368206175
21141583 151 18411697703262438637
21634736 98 18410570674064001468
221357 26 18411697699342485711
221490 88 18411139126039522364
22393880 68 18190738627232927852
22907989 373 17973200346140242700
23379529 103 18202007594804787190
23419403 2 17703496796872386008
23559900 14 18341611543049219120
23566358 2 18411982468764321124
238 59 17976219553578124023
2871803 45 18335692832737868381
3014063 31 18410290320121227783
6287921 2 17544481216121896507

> <PUBCHEM_SHAPE_MULTIPOLES>
443.98
8.13
4.23
1.13
0.08
1.63
0.2
-3.4
-2.74
-1.52
0.36
0
0.19
0.73

> <PUBCHEM_SHAPE_SELFOVERLAP>
910.639

> <PUBCHEM_SHAPE_VOLUME>
254.2

> <PUBCHEM_COORDINATE_TYPE>
2
5
10

> <Energy>
43.3336

> <minimizedAffinity>
-6.62716

> <CNNscore>
0.1220145300

> <CNNaffinity>
5.5355124474

> <CNN_VS>
0.6754129529

> <CNNaffinity_variance>
0.2028325796

$$$$
2999413


 26 27  0  0  0  0  0  0  0  0999 V2000
   17.8155    6.5749    7.4385 O   0  0  0  0  0  0  0  0  0  0  0  0
   22.5274    5.2852    4.0894 O   0  0  0  0  0  0  0  0  0  0  0  0
   23.6762    4.9407    6.0634 O   0  0  0  0  0  0  0  0  0  0  0  0
   24.8364    4.0201    2.7716 O   0  0  0  0  0  0  0  0  0  0  0  0
   23.8339   -0.6514    2.9836 O   0  0  0  0  0  0  0  0  0  0  0  0
   18.1308    6.0959    6.1316 C   0  0  0  0  0  0  0  0  0  0  0  0
   18.1697    4.5613    6.1690 C   0  0  0  0  0  0  0  0  0  0  0  0
   19.4296    6.7633    5.6540 C   0  0  0  0  0  0  0  0  0  0  0  0
   19.1447    3.9792    7.2036 C   0  0  0  0  0  0  0  0  0  0  0  0
   19.8071    6.3934    4.2175 C   0  0  0  0  0  0  0  0  0  0  0  0
   19.3389    2.4672    7.0338 C   0  0  0  0  0  0  0  0  0  0  0  0
   21.0505    7.1373    3.7129 C   0  0  0  0  0  0  0  0  0  0  0  0
   20.2983    2.0990    5.8938 C   0  0  0  0  0  0  0  0  0  0  0  0
   22.3534    6.6820    4.3855 C   0  0  0  0  0  0  0  0  0  0  0  0
   21.7736    2.2784    6.2824 C   0  0  0  0  0  0  0  0  0  0  0  0
   22.6975    2.1090    5.0960 C   0  0  0  0  0  0  0  0  0  0  0  0
   23.5424    7.4578    3.8236 C   0  0  0  0  0  0  0  0  0  0  0  0
   23.3602    3.1883    4.4739 C   0  0  0  0  0  0  0  0  0  0  0  0
   23.2373    4.5640    4.9908 C   0  0  0  0  0  0  0  0  0  0  0  0
   22.8855    0.8206    4.5642 C   0  0  0  0  0  0  0  0  0  0  0  0
   24.1820    2.9688    3.3560 C   0  0  0  0  0  0  0  0  0  0  0  0
   23.6988    0.6231    3.4503 C   0  0  0  0  0  0  0  0  0  0  0  0
   24.3498    1.6867    2.8367 C   0  0  0  0  0  0  0  0  0  0  0  0
   16.9960    6.1575    7.7468 H   0  0  0  0  0  0  0  0  0  0  0  0
   24.7302    4.8862    3.1131 H   0  0  0  0  0  0  0  0  0  0  0  0
   23.3874   -1.3562    3.4099 H   0  0  0  0  0  0  0  0  0  0  0  0
  1  6  1  0
  1 24  1  0
  2 14  1  0
  2 19  1  0
  3 19  2  0
  4 21  1  0
  4 25  1  0
  5 22  1  0
  5 26  1  0
  6  7  1  0
  6  8  1  0
  7  9  1  0
  8 10  1  0
  9 11  1  0
 10 12  1  0
 11 13  1  0
 12 14  1  0
 13 15  1  0
 14 17  1  0
 15 16  1  0
 16 18  2  0
 16 20  1  0
 18 19  1  0
 18 21  1  0
 20 22  2  0
 21 23  2  0
 22 23  1  0
M  END
> <PUBCHEM_COMPOUND_CID>
2999413

> <PUBCHEM_CONFORMER_RMSD>
0.6

> <PUBCHEM_CONFORMER_DIVERSEORDER>
1
6
14
27
9
16
11
26
8
2
22
5
20
28
18
17
29
3
24
19
21
13
15
7
23
4
25
12
10

> <PUBCHEM_MMFF94_PARTIAL_CHARGES>
20
1 -0.68
14 0.28
15 0.14
16 -0.14
18 0.09
19 0.63
2 -0.43
20 -0.15
21 0.08
22 0.08
23 -0.15
3 -0.57
4 -0.53
45 0.4
46 0.15
47 0.15
48 0.45
49 0.45
5 -0.53
6 0.28

> <PUBCHEM_EFFECTIVE_ROTOR_COUNT>
2.2

> <PUBCHEM_PHARMACOPHORE_FEATURES>
6
1 1 acceptor
1 1 donor
1 3 acceptor
1 4 donor
1 5 donor
6 16 18 20 21 22 23 rings

> <PUBCHEM_HEAVY_ATOM_COUNT>
23

> <PUBCHEM_ATOM_DEF_STEREO_COUNT>
2

> <PUBCHEM_ATOM_UDEF_STEREO_COUNT>
0

> <PUBCHEM_BOND_DEF_STEREO_COUNT>
0

> <PUBCHEM_BOND_UDEF_STEREO_COUNT>
0

> <PUBCHEM_ISOTOPIC_ATOM_COUNT>
0

> <PUBCHEM_COMPONENT_COUNT>
1

> <PUBCHEM_CACTVS_TAUTO_COUNT>
25

> <PUBCHEM_CONFORMER_ID>
002DC47500000001

> <PUBCHEM_MMFF94_ENERGY>
51.6521

> <PUBCHEM_FEATURE_SELFOVERLAP>
30.446

> <PUBCHEM_SHAPE_FINGERPRINT>
104564 63 18340206271993051459
10498660 4 18187631549186102207
10577160 183 17606693423048979742
10616163 171 18266175029013727061
10759866 29 17750229218859711762
108634 29 18411143511243732574
1100329 8 17185877190433830119
11578080 2 17058915861662947194
116883 192 18412832382636582198
12011746 2 18335696144590423807
12054548 360 18337387261554875763
12156800 1 11695045847065978403
12553582 1 18337941355723699521
12788726 201 18339079272527017530
12954195 1 18196384628153038830
13402501 40 18410292523613913767
13533116 47 17911794988931237615
13941206 138 17823424798885047762
14178342 30 17618481208803059632
14251740 79 18268155262187636390
14251745 187 18265888240930317283
14251751 93 18337386020182837502
14251757 17 18340208496912958262
14251757 5 18336274478600052878
14289585 56 17025448677686211638
14363568 33 17831602116089395611
14790565 3 18338242566191680045
14931854 50 18192983829844991199
15081414 286 18267592488269592273
15210252 30 18041841838786063412
17093844 170 18338788043621724272
17357779 13 18338788026679147463
19591789 44 18410009931708134251
20775438 99 17121094438368206175
21141583 151 18411697703262438637
21634736 98 18410570674064001468
221357 26 18411697699342485711
221490 88 18411139126039522364
22393880 68 18190738627232927852
22907989 373 17973200346140242700
23379529 103 18202007594804787190
23419403 2 17703496796872386008
23559900 14 18341611543049219120
23566358 2 18411982468764321124
238 59 17976219553578124023
2871803 45 18335692832737868381
3014063 31 18410290320121227783
6287921 2 17544481216121896507

> <PUBCHEM_SHAPE_MULTIPOLES>
443.98
8.13
4.23
1.13
0.08
1.63
0.2
-3.4
-2.74
-1.52
0.36
0
0.19
0.73

> <PUBCHEM_SHAPE_SELFOVERLAP>
910.639

> <PUBCHEM_SHAPE_VOLUME>
254.2

> <PUBCHEM_COORDINATE_TYPE>
2
5
10

> <Energy>
43.3336

> <minimizedAffinity>
-4.05800

> <CNNscore>
0.1157597527

> <CNNaffinity>
5.5286478996

> <CNN_VS>
0.6399949193

> <CNNaffinity_variance>
0.0896411464

$$$$
2999413


 26 27  0  0  0  0  0  0  0  0999 V2000
   23.3641    8.9517    4.5829 O   0  0  0  0  0  0  0  0  0  0  0  0
   22.0974    3.3257    5.9341 O   0  0  0  0  0  0  0  0  0  0  0  0
   20.4988    3.4199    4.2696 O   0  0  0  0  0  0  0  0  0  0  0  0
   21.6361    0.4179    5.9201 O   0  0  0  0  0  0  0  0  0  0  0  0
   24.5659   -1.1706    2.4900 O   0  0  0  0  0  0  0  0  0  0  0  0
   23.9781    7.8004    5.1611 C   0  0  0  0  0  0  0  0  0  0  0  0
   24.6849    7.0121    4.0490 C   0  0  0  0  0  0  0  0  0  0  0  0
   22.9189    7.0073    5.9418 C   0  0  0  0  0  0  0  0  0  0  0  0
   23.7697    6.6043    2.8844 C   0  0  0  0  0  0  0  0  0  0  0  0
   23.4943    5.8007    6.6874 C   0  0  0  0  0  0  0  0  0  0  0  0
   24.4481    5.6124    1.9313 C   0  0  0  0  0  0  0  0  0  0  0  0
   22.4509    5.0697    7.5424 C   0  0  0  0  0  0  0  0  0  0  0  0
   24.4561    4.1699    2.4555 C   0  0  0  0  0  0  0  0  0  0  0  0
   21.4017    4.3123    6.7162 C   0  0  0  0  0  0  0  0  0  0  0  0
   23.1015    3.4684    2.2750 C   0  0  0  0  0  0  0  0  0  0  0  0
   23.0598    2.1265    2.9733 C   0  0  0  0  0  0  0  0  0  0  0  0
   20.4094    3.6041    7.6354 C   0  0  0  0  0  0  0  0  0  0  0  0
   22.3338    1.8974    4.1614 C   0  0  0  0  0  0  0  0  0  0  0  0
   21.5077    2.9559    4.7713 C   0  0  0  0  0  0  0  0  0  0  0  0
   23.8023    1.0606    2.4343 C   0  0  0  0  0  0  0  0  0  0  0  0
   22.3599    0.6357    4.7783 C   0  0  0  0  0  0  0  0  0  0  0  0
   23.8218   -0.1821    3.0640 C   0  0  0  0  0  0  0  0  0  0  0  0
   23.1082   -0.4068    4.2352 C   0  0  0  0  0  0  0  0  0  0  0  0
   24.0273    9.4578    4.0881 H   0  0  0  0  0  0  0  0  0  0  0  0
   21.1297    1.1123    6.2933 H   0  0  0  0  0  0  0  0  0  0  0  0
   25.0407   -1.0010    1.7002 H   0  0  0  0  0  0  0  0  0  0  0  0
  1  6  1  0
  1 24  1  0
  2 14  1  0
  2 19  1  0
  3 19  2  0
  4 21  1  0
  4 25  1  0
  5 22  1  0
  5 26  1  0
  6  7  1  0
  6  8  1  0
  7  9  1  0
  8 10  1  0
  9 11  1  0
 10 12  1  0
 11 13  1  0
 12 14  1  0
 13 15  1  0
 14 17  1  0
 15 16  1  0
 16 18  2  0
 16 20  1  0
 18 19  1  0
 18 21  1  0
 20 22  2  0
 21 23  2  0
 22 23  1  0
M  END
> <PUBCHEM_COMPOUND_CID>
2999413

> <PUBCHEM_CONFORMER_RMSD>
0.6

> <PUBCHEM_CONFORMER_DIVERSEORDER>
1
6
14
27
9
16
11
26
8
2
22
5
20
28
18
17
29
3
24
19
21
13
15
7
23
4
25
12
10

> <PUBCHEM_MMFF94_PARTIAL_CHARGES>
20
1 -0.68
14 0.28
15 0.14
16 -0.14
18 0.09
19 0.63
2 -0.43
20 -0.15
21 0.08
22 0.08
23 -0.15
3 -0.57
4 -0.53
45 0.4
46 0.15
47 0.15
48 0.45
49 0.45
5 -0.53
6 0.28

> <PUBCHEM_EFFECTIVE_ROTOR_COUNT>
2.2

> <PUBCHEM_PHARMACOPHORE_FEATURES>
6
1 1 acceptor
1 1 donor
1 3 acceptor
1 4 donor
1 5 donor
6 16 18 20 21 22 23 rings

> <PUBCHEM_HEAVY_ATOM_COUNT>
23

> <PUBCHEM_ATOM_DEF_STEREO_COUNT>
2

> <PUBCHEM_ATOM_UDEF_STEREO_COUNT>
0

> <PUBCHEM_BOND_DEF_STEREO_COUNT>
0

> <PUBCHEM_BOND_UDEF_STEREO_COUNT>
0

> <PUBCHEM_ISOTOPIC_ATOM_COUNT>
0

> <PUBCHEM_COMPONENT_COUNT>
1

> <PUBCHEM_CACTVS_TAUTO_COUNT>
25

> <PUBCHEM_CONFORMER_ID>
002DC47500000001

> <PUBCHEM_MMFF94_ENERGY>
51.6521

> <PUBCHEM_FEATURE_SELFOVERLAP>
30.446

> <PUBCHEM_SHAPE_FINGERPRINT>
104564 63 18340206271993051459
10498660 4 18187631549186102207
10577160 183 17606693423048979742
10616163 171 18266175029013727061
10759866 29 17750229218859711762
108634 29 18411143511243732574
1100329 8 17185877190433830119
11578080 2 17058915861662947194
116883 192 18412832382636582198
12011746 2 18335696144590423807
12054548 360 18337387261554875763
12156800 1 11695045847065978403
12553582 1 18337941355723699521
12788726 201 18339079272527017530
12954195 1 18196384628153038830
13402501 40 18410292523613913767
13533116 47 17911794988931237615
13941206 138 17823424798885047762
14178342 30 17618481208803059632
14251740 79 18268155262187636390
14251745 187 18265888240930317283
14251751 93 18337386020182837502
14251757 17 18340208496912958262
14251757 5 18336274478600052878
14289585 56 17025448677686211638
14363568 33 17831602116089395611
14790565 3 18338242566191680045
14931854 50 18192983829844991199
15081414 286 18267592488269592273
15210252 30 18041841838786063412
17093844 170 18338788043621724272
17357779 13 18338788026679147463
19591789 44 18410009931708134251
20775438 99 17121094438368206175
21141583 151 18411697703262438637
21634736 98 18410570674064001468
221357 26 18411697699342485711
221490 88 18411139126039522364
22393880 68 18190738627232927852
22907989 373 17973200346140242700
23379529 103 18202007594804787190
23419403 2 17703496796872386008
23559900 14 18341611543049219120
23566358 2 18411982468764321124
238 59 17976219553578124023
2871803 45 18335692832737868381
3014063 31 18410290320121227783
6287921 2 17544481216121896507

> <PUBCHEM_SHAPE_MULTIPOLES>
443.98
8.13
4.23
1.13
0.08
1.63
0.2
-3.4
-2.74
-1.52
0.36
0
0.19
0.73

> <PUBCHEM_SHAPE_SELFOVERLAP>
910.639

> <PUBCHEM_SHAPE_VOLUME>
254.2

> <PUBCHEM_COORDINATE_TYPE>
2
5
10

> <Energy>
43.3336

> <minimizedAffinity>
8.08841

> <CNNscore>
0.1033107564

> <CNNaffinity>
4.1967024803

> <CNN_VS>
0.4335645139

> <CNNaffinity_variance>
1.8416138887

$$$$
