5757


 22 25  0  0  0  0  0  0  0  0999 V2000
    1.1033   -1.9930   -3.8538 O   0  0  0  0  0  0  0  0  0  0  0  0
   11.3354    1.0151   -6.3936 O   0  0  0  0  0  0  0  0  0  0  0  0
    3.3243   -0.9955   -4.2431 C   0  0  0  0  0  0  0  0  0  0  0  0
    3.8773    0.3723   -3.7947 C   0  0  0  0  0  0  0  0  0  0  0  0
    5.3955    0.4599   -3.9497 C   0  0  0  0  0  0  0  0  0  0  0  0
    5.7543    0.2850   -5.4567 C   0  0  0  0  0  0  0  0  0  0  0  0
    1.8356   -0.7844   -3.9064 C   0  0  0  0  0  0  0  0  0  0  0  0
    3.6298   -1.1675   -5.7360 C   0  0  0  0  0  0  0  0  0  0  0  0
    3.2535    0.5732   -2.4165 C   0  0  0  0  0  0  0  0  0  0  0  0
    5.1341   -1.0160   -6.0344 C   0  0  0  0  0  0  0  0  0  0  0  0
    1.8601   -0.0700   -2.5409 C   0  0  0  0  0  0  0  0  0  0  0  0
    5.9618    1.7923   -3.4552 C   0  0  0  0  0  0  0  0  0  0  0  0
    3.8860   -2.2114   -3.4625 C   0  0  0  0  0  0  0  0  0  0  0  0
    7.2554    0.4473   -5.6905 C   0  0  0  0  0  0  0  0  0  0  0  0
    7.4874    1.7592   -3.5040 C   0  0  0  0  0  0  0  0  0  0  0  0
    8.0497    1.1819   -4.7824 C   0  0  0  0  0  0  0  0  0  0  0  0
    7.8655   -0.0502   -6.8561 C   0  0  0  0  0  0  0  0  0  0  0  0
    9.4245    1.3508   -5.0314 C   0  0  0  0  0  0  0  0  0  0  0  0
    9.2292    0.1323   -7.0981 C   0  0  0  0  0  0  0  0  0  0  0  0
   10.0005    0.8273   -6.1816 C   0  0  0  0  0  0  0  0  0  0  0  0
    1.1097   -2.4133   -4.7280 H   0  0  0  0  0  0  0  0  0  0  0  0
   11.8475    1.4869   -5.7666 H   0  0  0  0  0  0  0  0  0  0  0  0
  1  7  1  0
  1 21  1  0
  2 20  1  0
  2 22  1  0
  3  4  1  0
  3  7  1  0
  3  8  1  0
  3 13  1  0
  4  5  1  0
  4  9  1  0
  5  6  1  0
  5 12  1  0
  6 10  1  0
  6 14  1  0
  7 11  1  0
  8 10  1  0
  9 11  1  0
 12 15  1  0
 14 16  2  0
 14 17  1  0
 15 16  1  0
 16 18  1  0
 17 19  2  0
 18 20  2  0
 19 20  1  0
M  END
> <PUBCHEM_COMPOUND_CID>
5757

> <PUBCHEM_CONFORMER_RMSD>
0.6

> <PUBCHEM_CONFORMER_DIVERSEORDER>
1

> <PUBCHEM_MMFF94_PARTIAL_CHARGES>
16
1 -0.68
14 -0.14
15 0.14
16 -0.14
17 -0.15
18 -0.15
19 -0.15
2 -0.53
20 0.08
40 0.4
41 0.15
42 0.15
43 0.15
44 0.45
6 0.14
7 0.28

> <PUBCHEM_EFFECTIVE_ROTOR_COUNT>
1.4

> <PUBCHEM_PHARMACOPHORE_FEATURES>
7
1 1 acceptor
1 1 donor
1 2 donor
5 3 4 7 9 11 rings
6 14 16 17 18 19 20 rings
6 3 4 5 6 8 10 rings
6 5 6 12 14 15 16 rings

> <PUBCHEM_HEAVY_ATOM_COUNT>
20

> <PUBCHEM_ATOM_DEF_STEREO_COUNT>
5

> <PUBCHEM_ATOM_UDEF_STEREO_COUNT>
0

> <PUBCHEM_BOND_DEF_STEREO_COUNT>
0

> <PUBCHEM_BOND_UDEF_STEREO_COUNT>
0

> <PUBCHEM_ISOTOPIC_ATOM_COUNT>
0

> <PUBCHEM_COMPONENT_COUNT>
1

> <PUBCHEM_CACTVS_TAUTO_COUNT>
9

> <PUBCHEM_CONFORMER_ID>
0000167D00000001

> <PUBCHEM_MMFF94_ENERGY>
68.4596

> <PUBCHEM_FEATURE_SELFOVERLAP>
35.62

> <PUBCHEM_SHAPE_FINGERPRINT>
10 15 18262512710780645640
10411042 1 16969703283687688743
10616163 171 18338239395883154686
10967382 1 18410012100429229070
11132069 177 18409162216832884669
11578080 2 17201347718505248258
12011746 2 18410859841042374310
12107183 9 17690845558000159065
12236239 1 13470690338792453460
12251169 10 18335139816864396069
12403259 415 18410852127603240605
12403814 3 17530960289353343621
12500047 106 18271238421624861530
12592029 89 18334859377112304987
12788726 201 17703518696578858128
128620 24 11818992989152349105
13140716 1 18192429898953651512
13533116 47 17846218813073552003
13544592 145 18272379637759764926
13675066 3 18341893012844745609
14178342 30 18123731313450613666
14341114 176 18409738343777605753
14866123 147 17046555868986690930
15042514 8 18263932206156989787
15196674 1 18410012108982090935
15256400 18 18410857620686823693
15295992 7 17845930826899781123
15536298 74 18413671296627645270
1601671 61 18409168826940819996
16945 1 18266170819592368622
17349148 13 18412820287929204701
17804303 29 18410296916890392117
1813 80 16950285091842931756
18186145 218 17417805158171412875
19141452 34 18413108389914235807
192875 21 13830133918406568194
19591789 44 18192993725128068838
200 152 18131627885965453901
20028762 73 18272929458099065015
20261772 1 18410856577167961319
20510252 161 18341895147623301209
20645477 70 18200878374956666302
21033648 29 18271512131406579929
21267235 1 18337399244825179854
21279426 13 18124035632930519374
21421861 104 17895744090149736410
22854114 59 18412546505207311417
22892500 29 17274814788166584896
23184049 59 18410576175690384255
23402539 116 18342170081765240151
23557571 272 17773880972535682807
23558518 356 17682680979747269074
23559900 14 18413389822146813342
2748010 2 18337666399911122230
3004659 81 18260835844047909814
335352 9 18410013195572088855
34934 24 18411133675799850702
350125 39 18409735045496469133
351380 180 18409730664571278687
3545911 37 18411703192367818988
4214541 1 18409167684326479901
465052 167 17967541176940287083
495365 180 17346587600050392546
5104073 3 18409449150412323065
542803 24 17346883342628774985
59755656 215 18335983048405458773
69090 78 18341891905091661271
77779 3 18409450271409361990
7832392 63 18341046427736201710
9709674 26 18410862087368844367
9999458 23 17967819357476725574

> <PUBCHEM_SHAPE_MULTIPOLES>
399.85
9.72
2.11
0.84
3.73
0.39
0.22
-1.2
1.2
-0.24
-0.15
-0.38
-0.13
0.32

> <PUBCHEM_SHAPE_SELFOVERLAP>
871.414

> <PUBCHEM_SHAPE_VOLUME>
217.1

> <PUBCHEM_COORDINATE_TYPE>
2
5
10

> <Energy>
58.4396

> <minimizedAffinity>
-10.82905

> <CNNscore>
0.9712675810

> <CNNaffinity>
7.8971505165

> <CNN_VS>
7.6702461243

> <CNNaffinity_variance>
0.6149905324

$$$$
5757


 22 25  0  0  0  0  0  0  0  0999 V2000
    9.7777    0.6061   -7.1731 O   0  0  0  0  0  0  0  0  0  0  0  0
   -0.5840   -1.7984   -4.5178 O   0  0  0  0  0  0  0  0  0  0  0  0
    7.5631    0.0939   -6.2177 C   0  0  0  0  0  0  0  0  0  0  0  0
    7.1266    0.0150   -4.7409 C   0  0  0  0  0  0  0  0  0  0  0  0
    5.6057    0.0036   -4.5885 C   0  0  0  0  0  0  0  0  0  0  0  0
    5.0414   -1.2591   -5.3079 C   0  0  0  0  0  0  0  0  0  0  0  0
    9.0903    0.1544   -6.0227 C   0  0  0  0  0  0  0  0  0  0  0  0
    7.0536   -1.1629   -6.9336 C   0  0  0  0  0  0  0  0  0  0  0  0
    7.9369    1.1213   -4.0714 C   0  0  0  0  0  0  0  0  0  0  0  0
    5.5295   -1.3319   -6.7801 C   0  0  0  0  0  0  0  0  0  0  0  0
    9.2761    1.1141   -4.8312 C   0  0  0  0  0  0  0  0  0  0  0  0
    5.1609   -0.0177   -3.1249 C   0  0  0  0  0  0  0  0  0  0  0  0
    7.0666    1.3514   -6.9761 C   0  0  0  0  0  0  0  0  0  0  0  0
    3.5295   -1.3739   -5.1195 C   0  0  0  0  0  0  0  0  0  0  0  0
    3.6423    0.1166   -3.0407 C   0  0  0  0  0  0  0  0  0  0  0  0
    2.8923   -0.7551   -4.0212 C   0  0  0  0  0  0  0  0  0  0  0  0
    2.7503   -2.1697   -5.9785 C   0  0  0  0  0  0  0  0  0  0  0  0
    1.5038   -0.9000   -3.8438 C   0  0  0  0  0  0  0  0  0  0  0  0
    1.3742   -2.3150   -5.7869 C   0  0  0  0  0  0  0  0  0  0  0  0
    0.7593   -1.6751   -4.7236 C   0  0  0  0  0  0  0  0  0  0  0  0
    9.6383   -0.0208   -7.9001 H   0  0  0  0  0  0  0  0  0  0  0  0
   -0.9893   -1.3608   -3.7951 H   0  0  0  0  0  0  0  0  0  0  0  0
  1  7  1  0
  1 21  1  0
  2 20  1  0
  2 22  1  0
  3  4  1  0
  3  7  1  0
  3  8  1  0
  3 13  1  0
  4  5  1  0
  4  9  1  0
  5  6  1  0
  5 12  1  0
  6 10  1  0
  6 14  1  0
  7 11  1  0
  8 10  1  0
  9 11  1  0
 12 15  1  0
 14 16  2  0
 14 17  1  0
 15 16  1  0
 16 18  1  0
 17 19  2  0
 18 20  2  0
 19 20  1  0
M  END
> <PUBCHEM_COMPOUND_CID>
5757

> <PUBCHEM_CONFORMER_RMSD>
0.6

> <PUBCHEM_CONFORMER_DIVERSEORDER>
1

> <PUBCHEM_MMFF94_PARTIAL_CHARGES>
16
1 -0.68
14 -0.14
15 0.14
16 -0.14
17 -0.15
18 -0.15
19 -0.15
2 -0.53
20 0.08
40 0.4
41 0.15
42 0.15
43 0.15
44 0.45
6 0.14
7 0.28

> <PUBCHEM_EFFECTIVE_ROTOR_COUNT>
1.4

> <PUBCHEM_PHARMACOPHORE_FEATURES>
7
1 1 acceptor
1 1 donor
1 2 donor
5 3 4 7 9 11 rings
6 14 16 17 18 19 20 rings
6 3 4 5 6 8 10 rings
6 5 6 12 14 15 16 rings

> <PUBCHEM_HEAVY_ATOM_COUNT>
20

> <PUBCHEM_ATOM_DEF_STEREO_COUNT>
5

> <PUBCHEM_ATOM_UDEF_STEREO_COUNT>
0

> <PUBCHEM_BOND_DEF_STEREO_COUNT>
0

> <PUBCHEM_BOND_UDEF_STEREO_COUNT>
0

> <PUBCHEM_ISOTOPIC_ATOM_COUNT>
0

> <PUBCHEM_COMPONENT_COUNT>
1

> <PUBCHEM_CACTVS_TAUTO_COUNT>
9

> <PUBCHEM_CONFORMER_ID>
0000167D00000001

> <PUBCHEM_MMFF94_ENERGY>
68.4596

> <PUBCHEM_FEATURE_SELFOVERLAP>
35.62

> <PUBCHEM_SHAPE_FINGERPRINT>
10 15 18262512710780645640
10411042 1 16969703283687688743
10616163 171 18338239395883154686
10967382 1 18410012100429229070
11132069 177 18409162216832884669
11578080 2 17201347718505248258
12011746 2 18410859841042374310
12107183 9 17690845558000159065
12236239 1 13470690338792453460
12251169 10 18335139816864396069
12403259 415 18410852127603240605
12403814 3 17530960289353343621
12500047 106 18271238421624861530
12592029 89 18334859377112304987
12788726 201 17703518696578858128
128620 24 11818992989152349105
13140716 1 18192429898953651512
13533116 47 17846218813073552003
13544592 145 18272379637759764926
13675066 3 18341893012844745609
14178342 30 18123731313450613666
14341114 176 18409738343777605753
14866123 147 17046555868986690930
15042514 8 18263932206156989787
15196674 1 18410012108982090935
15256400 18 18410857620686823693
15295992 7 17845930826899781123
15536298 74 18413671296627645270
1601671 61 18409168826940819996
16945 1 18266170819592368622
17349148 13 18412820287929204701
17804303 29 18410296916890392117
1813 80 16950285091842931756
18186145 218 17417805158171412875
19141452 34 18413108389914235807
192875 21 13830133918406568194
19591789 44 18192993725128068838
200 152 18131627885965453901
20028762 73 18272929458099065015
20261772 1 18410856577167961319
20510252 161 18341895147623301209
20645477 70 18200878374956666302
21033648 29 18271512131406579929
21267235 1 18337399244825179854
21279426 13 18124035632930519374
21421861 104 17895744090149736410
22854114 59 18412546505207311417
22892500 29 17274814788166584896
23184049 59 18410576175690384255
23402539 116 18342170081765240151
23557571 272 17773880972535682807
23558518 356 17682680979747269074
23559900 14 18413389822146813342
2748010 2 18337666399911122230
3004659 81 18260835844047909814
335352 9 18410013195572088855
34934 24 18411133675799850702
350125 39 18409735045496469133
351380 180 18409730664571278687
3545911 37 18411703192367818988
4214541 1 18409167684326479901
465052 167 17967541176940287083
495365 180 17346587600050392546
5104073 3 18409449150412323065
542803 24 17346883342628774985
59755656 215 18335983048405458773
69090 78 18341891905091661271
77779 3 18409450271409361990
7832392 63 18341046427736201710
9709674 26 18410862087368844367
9999458 23 17967819357476725574

> <PUBCHEM_SHAPE_MULTIPOLES>
399.85
9.72
2.11
0.84
3.73
0.39
0.22
-1.2
1.2
-0.24
-0.15
-0.38
-0.13
0.32

> <PUBCHEM_SHAPE_SELFOVERLAP>
871.414

> <PUBCHEM_SHAPE_VOLUME>
217.1

> <PUBCHEM_COORDINATE_TYPE>
2
5
10

> <Energy>
58.4396

> <minimizedAffinity>
-8.69747

> <CNNscore>
0.7443260550

> <CNNaffinity>
7.7313151360

> <CNN_VS>
5.7546191216

> <CNNaffinity_variance>
0.9224634171

$$$$
5757


 22 25  0  0  0  0  0  0  0  0999 V2000
    1.1262   -2.9959   -6.7122 O   0  0  0  0  0  0  0  0  0  0  0  0
   10.9124    1.7945   -5.4960 O   0  0  0  0  0  0  0  0  0  0  0  0
    3.1341   -1.6261   -6.2978 C   0  0  0  0  0  0  0  0  0  0  0  0
    3.2497   -0.2146   -5.6881 C   0  0  0  0  0  0  0  0  0  0  0  0
    4.6871    0.1300   -5.2988 C   0  0  0  0  0  0  0  0  0  0  0  0
    5.5717    0.1044   -6.5822 C   0  0  0  0  0  0  0  0  0  0  0  0
    1.6087   -1.6824   -6.5077 C   0  0  0  0  0  0  0  0  0  0  0  0
    3.9642   -1.6586   -7.5868 C   0  0  0  0  0  0  0  0  0  0  0  0
    2.1612   -0.1993   -4.6187 C   0  0  0  0  0  0  0  0  0  0  0  0
    5.4275   -1.2449   -7.3368 C   0  0  0  0  0  0  0  0  0  0  0  0
    1.0325   -1.0543   -5.2236 C   0  0  0  0  0  0  0  0  0  0  0  0
    4.8050    1.5063   -4.6411 C   0  0  0  0  0  0  0  0  0  0  0  0
    3.5923   -2.7766   -5.3652 C   0  0  0  0  0  0  0  0  0  0  0  0
    7.0078    0.5243   -6.2729 C   0  0  0  0  0  0  0  0  0  0  0  0
    6.2335    1.7271   -4.1493 C   0  0  0  0  0  0  0  0  0  0  0  0
    7.2962    1.3254   -5.1458 C   0  0  0  0  0  0  0  0  0  0  0  0
    8.0615    0.2025   -7.1473 C   0  0  0  0  0  0  0  0  0  0  0  0
    8.6200    1.7319   -4.8952 C   0  0  0  0  0  0  0  0  0  0  0  0
    9.3702    0.6201   -6.8941 C   0  0  0  0  0  0  0  0  0  0  0  0
    9.6415    1.3779   -5.7671 C   0  0  0  0  0  0  0  0  0  0  0  0
    1.5090   -3.3578   -7.5267 H   0  0  0  0  0  0  0  0  0  0  0  0
   11.0842    2.3067   -4.7305 H   0  0  0  0  0  0  0  0  0  0  0  0
  1  7  1  0
  1 21  1  0
  2 20  1  0
  2 22  1  0
  3  4  1  0
  3  7  1  0
  3  8  1  0
  3 13  1  0
  4  5  1  0
  4  9  1  0
  5  6  1  0
  5 12  1  0
  6 10  1  0
  6 14  1  0
  7 11  1  0
  8 10  1  0
  9 11  1  0
 12 15  1  0
 14 16  2  0
 14 17  1  0
 15 16  1  0
 16 18  1  0
 17 19  2  0
 18 20  2  0
 19 20  1  0
M  END
> <PUBCHEM_COMPOUND_CID>
5757

> <PUBCHEM_CONFORMER_RMSD>
0.6

> <PUBCHEM_CONFORMER_DIVERSEORDER>
1

> <PUBCHEM_MMFF94_PARTIAL_CHARGES>
16
1 -0.68
14 -0.14
15 0.14
16 -0.14
17 -0.15
18 -0.15
19 -0.15
2 -0.53
20 0.08
40 0.4
41 0.15
42 0.15
43 0.15
44 0.45
6 0.14
7 0.28

> <PUBCHEM_EFFECTIVE_ROTOR_COUNT>
1.4

> <PUBCHEM_PHARMACOPHORE_FEATURES>
7
1 1 acceptor
1 1 donor
1 2 donor
5 3 4 7 9 11 rings
6 14 16 17 18 19 20 rings
6 3 4 5 6 8 10 rings
6 5 6 12 14 15 16 rings

> <PUBCHEM_HEAVY_ATOM_COUNT>
20

> <PUBCHEM_ATOM_DEF_STEREO_COUNT>
5

> <PUBCHEM_ATOM_UDEF_STEREO_COUNT>
0

> <PUBCHEM_BOND_DEF_STEREO_COUNT>
0

> <PUBCHEM_BOND_UDEF_STEREO_COUNT>
0

> <PUBCHEM_ISOTOPIC_ATOM_COUNT>
0

> <PUBCHEM_COMPONENT_COUNT>
1

> <PUBCHEM_CACTVS_TAUTO_COUNT>
9

> <PUBCHEM_CONFORMER_ID>
0000167D00000001

> <PUBCHEM_MMFF94_ENERGY>
68.4596

> <PUBCHEM_FEATURE_SELFOVERLAP>
35.62

> <PUBCHEM_SHAPE_FINGERPRINT>
10 15 18262512710780645640
10411042 1 16969703283687688743
10616163 171 18338239395883154686
10967382 1 18410012100429229070
11132069 177 18409162216832884669
11578080 2 17201347718505248258
12011746 2 18410859841042374310
12107183 9 17690845558000159065
12236239 1 13470690338792453460
12251169 10 18335139816864396069
12403259 415 18410852127603240605
12403814 3 17530960289353343621
12500047 106 18271238421624861530
12592029 89 18334859377112304987
12788726 201 17703518696578858128
128620 24 11818992989152349105
13140716 1 18192429898953651512
13533116 47 17846218813073552003
13544592 145 18272379637759764926
13675066 3 18341893012844745609
14178342 30 18123731313450613666
14341114 176 18409738343777605753
14866123 147 17046555868986690930
15042514 8 18263932206156989787
15196674 1 18410012108982090935
15256400 18 18410857620686823693
15295992 7 17845930826899781123
15536298 74 18413671296627645270
1601671 61 18409168826940819996
16945 1 18266170819592368622
17349148 13 18412820287929204701
17804303 29 18410296916890392117
1813 80 16950285091842931756
18186145 218 17417805158171412875
19141452 34 18413108389914235807
192875 21 13830133918406568194
19591789 44 18192993725128068838
200 152 18131627885965453901
20028762 73 18272929458099065015
20261772 1 18410856577167961319
20510252 161 18341895147623301209
20645477 70 18200878374956666302
21033648 29 18271512131406579929
21267235 1 18337399244825179854
21279426 13 18124035632930519374
21421861 104 17895744090149736410
22854114 59 18412546505207311417
22892500 29 17274814788166584896
23184049 59 18410576175690384255
23402539 116 18342170081765240151
23557571 272 17773880972535682807
23558518 356 17682680979747269074
23559900 14 18413389822146813342
2748010 2 18337666399911122230
3004659 81 18260835844047909814
335352 9 18410013195572088855
34934 24 18411133675799850702
350125 39 18409735045496469133
351380 180 18409730664571278687
3545911 37 18411703192367818988
4214541 1 18409167684326479901
465052 167 17967541176940287083
495365 180 17346587600050392546
5104073 3 18409449150412323065
542803 24 17346883342628774985
59755656 215 18335983048405458773
69090 78 18341891905091661271
77779 3 18409450271409361990
7832392 63 18341046427736201710
9709674 26 18410862087368844367
9999458 23 17967819357476725574

> <PUBCHEM_SHAPE_MULTIPOLES>
399.85
9.72
2.11
0.84
3.73
0.39
0.22
-1.2
1.2
-0.24
-0.15
-0.38
-0.13
0.32

> <PUBCHEM_SHAPE_SELFOVERLAP>
871.414

> <PUBCHEM_SHAPE_VOLUME>
217.1

> <PUBCHEM_COORDINATE_TYPE>
2
5
10

> <Energy>
58.4396

> <minimizedAffinity>
-5.84886

> <CNNscore>
0.6969877481

> <CNNaffinity>
7.4392752647

> <CNN_VS>
5.1850838661

> <CNNaffinity_variance>
0.7720994949

$$$$
5757


 22 25  0  0  0  0  0  0  0  0999 V2000
    0.7511   -1.0814   -3.8447 O   0  0  0  0  0  0  0  0  0  0  0  0
   11.1450    1.8077   -5.7979 O   0  0  0  0  0  0  0  0  0  0  0  0
    3.1102   -0.7525   -4.4819 C   0  0  0  0  0  0  0  0  0  0  0  0
    4.0242   -1.6398   -5.3507 C   0  0  0  0  0  0  0  0  0  0  0  0
    5.3002   -0.9129   -5.7750 C   0  0  0  0  0  0  0  0  0  0  0  0
    6.1047   -0.5289   -4.4960 C   0  0  0  0  0  0  0  0  0  0  0  0
    1.9293   -1.7237   -4.2909 C   0  0  0  0  0  0  0  0  0  0  0  0
    3.8692   -0.3994   -3.1971 C   0  0  0  0  0  0  0  0  0  0  0  0
    3.0808   -2.1809   -6.4212 C   0  0  0  0  0  0  0  0  0  0  0  0
    5.2243    0.2703   -3.4976 C   0  0  0  0  0  0  0  0  0  0  0  0
    1.7423   -2.3610   -5.6816 C   0  0  0  0  0  0  0  0  0  0  0  0
    6.1884   -1.7646   -6.6840 C   0  0  0  0  0  0  0  0  0  0  0  0
    2.6291    0.5523   -5.1669 C   0  0  0  0  0  0  0  0  0  0  0  0
    7.4362    0.1280   -4.8564 C   0  0  0  0  0  0  0  0  0  0  0  0
    7.3677   -0.9343   -7.1850 C   0  0  0  0  0  0  0  0  0  0  0  0
    8.0386   -0.1084   -6.1119 C   0  0  0  0  0  0  0  0  0  0  0  0
    8.1372    0.9076   -3.9186 C   0  0  0  0  0  0  0  0  0  0  0  0
    9.2822    0.4771   -6.4139 C   0  0  0  0  0  0  0  0  0  0  0  0
    9.3760    1.4755   -4.2256 C   0  0  0  0  0  0  0  0  0  0  0  0
    9.9379    1.2605   -5.4730 C   0  0  0  0  0  0  0  0  0  0  0  0
    0.9060   -0.6934   -2.9693 H   0  0  0  0  0  0  0  0  0  0  0  0
   11.5156    1.6556   -6.6450 H   0  0  0  0  0  0  0  0  0  0  0  0
  1  7  1  0
  1 21  1  0
  2 20  1  0
  2 22  1  0
  3  4  1  0
  3  7  1  0
  3  8  1  0
  3 13  1  0
  4  5  1  0
  4  9  1  0
  5  6  1  0
  5 12  1  0
  6 10  1  0
  6 14  1  0
  7 11  1  0
  8 10  1  0
  9 11  1  0
 12 15  1  0
 14 16  2  0
 14 17  1  0
 15 16  1  0
 16 18  1  0
 17 19  2  0
 18 20  2  0
 19 20  1  0
M  END
> <PUBCHEM_COMPOUND_CID>
5757

> <PUBCHEM_CONFORMER_RMSD>
0.6

> <PUBCHEM_CONFORMER_DIVERSEORDER>
1

> <PUBCHEM_MMFF94_PARTIAL_CHARGES>
16
1 -0.68
14 -0.14
15 0.14
16 -0.14
17 -0.15
18 -0.15
19 -0.15
2 -0.53
20 0.08
40 0.4
41 0.15
42 0.15
43 0.15
44 0.45
6 0.14
7 0.28

> <PUBCHEM_EFFECTIVE_ROTOR_COUNT>
1.4

> <PUBCHEM_PHARMACOPHORE_FEATURES>
7
1 1 acceptor
1 1 donor
1 2 donor
5 3 4 7 9 11 rings
6 14 16 17 18 19 20 rings
6 3 4 5 6 8 10 rings
6 5 6 12 14 15 16 rings

> <PUBCHEM_HEAVY_ATOM_COUNT>
20

> <PUBCHEM_ATOM_DEF_STEREO_COUNT>
5

> <PUBCHEM_ATOM_UDEF_STEREO_COUNT>
0

> <PUBCHEM_BOND_DEF_STEREO_COUNT>
0

> <PUBCHEM_BOND_UDEF_STEREO_COUNT>
0

> <PUBCHEM_ISOTOPIC_ATOM_COUNT>
0

> <PUBCHEM_COMPONENT_COUNT>
1

> <PUBCHEM_CACTVS_TAUTO_COUNT>
9

> <PUBCHEM_CONFORMER_ID>
0000167D00000001

> <PUBCHEM_MMFF94_ENERGY>
68.4596

> <PUBCHEM_FEATURE_SELFOVERLAP>
35.62

> <PUBCHEM_SHAPE_FINGERPRINT>
10 15 18262512710780645640
10411042 1 16969703283687688743
10616163 171 18338239395883154686
10967382 1 18410012100429229070
11132069 177 18409162216832884669
11578080 2 17201347718505248258
12011746 2 18410859841042374310
12107183 9 17690845558000159065
12236239 1 13470690338792453460
12251169 10 18335139816864396069
12403259 415 18410852127603240605
12403814 3 17530960289353343621
12500047 106 18271238421624861530
12592029 89 18334859377112304987
12788726 201 17703518696578858128
128620 24 11818992989152349105
13140716 1 18192429898953651512
13533116 47 17846218813073552003
13544592 145 18272379637759764926
13675066 3 18341893012844745609
14178342 30 18123731313450613666
14341114 176 18409738343777605753
14866123 147 17046555868986690930
15042514 8 18263932206156989787
15196674 1 18410012108982090935
15256400 18 18410857620686823693
15295992 7 17845930826899781123
15536298 74 18413671296627645270
1601671 61 18409168826940819996
16945 1 18266170819592368622
17349148 13 18412820287929204701
17804303 29 18410296916890392117
1813 80 16950285091842931756
18186145 218 17417805158171412875
19141452 34 18413108389914235807
192875 21 13830133918406568194
19591789 44 18192993725128068838
200 152 18131627885965453901
20028762 73 18272929458099065015
20261772 1 18410856577167961319
20510252 161 18341895147623301209
20645477 70 18200878374956666302
21033648 29 18271512131406579929
21267235 1 18337399244825179854
21279426 13 18124035632930519374
21421861 104 17895744090149736410
22854114 59 18412546505207311417
22892500 29 17274814788166584896
23184049 59 18410576175690384255
23402539 116 18342170081765240151
23557571 272 17773880972535682807
23558518 356 17682680979747269074
23559900 14 18413389822146813342
2748010 2 18337666399911122230
3004659 81 18260835844047909814
335352 9 18410013195572088855
34934 24 18411133675799850702
350125 39 18409735045496469133
351380 180 18409730664571278687
3545911 37 18411703192367818988
4214541 1 18409167684326479901
465052 167 17967541176940287083
495365 180 17346587600050392546
5104073 3 18409449150412323065
542803 24 17346883342628774985
59755656 215 18335983048405458773
69090 78 18341891905091661271
77779 3 18409450271409361990
7832392 63 18341046427736201710
9709674 26 18410862087368844367
9999458 23 17967819357476725574

> <PUBCHEM_SHAPE_MULTIPOLES>
399.85
9.72
2.11
0.84
3.73
0.39
0.22
-1.2
1.2
-0.24
-0.15
-0.38
-0.13
0.32

> <PUBCHEM_SHAPE_SELFOVERLAP>
871.414

> <PUBCHEM_SHAPE_VOLUME>
217.1

> <PUBCHEM_COORDINATE_TYPE>
2
5
10

> <Energy>
58.4396

> <minimizedAffinity>
-7.29594

> <CNNscore>
0.5997876525

> <CNNaffinity>
7.1672616005

> <CNN_VS>
4.2988348007

> <CNNaffinity_variance>
0.4374113083

$$$$
5757


 22 25  0  0  0  0  0  0  0  0999 V2000
   10.6571    1.7725   -5.7000 O   0  0  0  0  0  0  0  0  0  0  0  0
    0.5642   -1.5008   -2.9407 O   0  0  0  0  0  0  0  0  0  0  0  0
    8.3065    1.0723   -5.4466 C   0  0  0  0  0  0  0  0  0  0  0  0
    7.2083    0.9181   -6.5178 C   0  0  0  0  0  0  0  0  0  0  0  0
    5.9977    0.1444   -5.9960 C   0  0  0  0  0  0  0  0  0  0  0  0
    5.3764    0.9343   -4.8040 C   0  0  0  0  0  0  0  0  0  0  0  0
    9.3699    1.8079   -6.2847 C   0  0  0  0  0  0  0  0  0  0  0  0
    7.7269    1.8854   -4.2827 C   0  0  0  0  0  0  0  0  0  0  0  0
    7.9674    0.3890   -7.7313 C   0  0  0  0  0  0  0  0  0  0  0  0
    6.4432    1.2451   -3.7195 C   0  0  0  0  0  0  0  0  0  0  0  0
    9.3388    1.0836   -7.6447 C   0  0  0  0  0  0  0  0  0  0  0  0
    4.9254   -0.0634   -7.0672 C   0  0  0  0  0  0  0  0  0  0  0  0
    8.8774   -0.2628   -4.9038 C   0  0  0  0  0  0  0  0  0  0  0  0
    4.1085    0.2539   -4.2903 C   0  0  0  0  0  0  0  0  0  0  0  0
    3.8156   -0.9610   -6.5250 C   0  0  0  0  0  0  0  0  0  0  0  0
    3.3613   -0.6024   -5.1290 C   0  0  0  0  0  0  0  0  0  0  0  0
    3.6055    0.5326   -3.0067 C   0  0  0  0  0  0  0  0  0  0  0  0
    2.1769   -1.1934   -4.6508 C   0  0  0  0  0  0  0  0  0  0  0  0
    2.4232   -0.0516   -2.5460 C   0  0  0  0  0  0  0  0  0  0  0  0
    1.7195   -0.9146   -3.3694 C   0  0  0  0  0  0  0  0  0  0  0  0
   10.6383    2.2364   -4.8484 H   0  0  0  0  0  0  0  0  0  0  0  0
    0.0964   -2.0831   -3.5064 H   0  0  0  0  0  0  0  0  0  0  0  0
  1  7  1  0
  1 21  1  0
  2 20  1  0
  2 22  1  0
  3  4  1  0
  3  7  1  0
  3  8  1  0
  3 13  1  0
  4  5  1  0
  4  9  1  0
  5  6  1  0
  5 12  1  0
  6 10  1  0
  6 14  1  0
  7 11  1  0
  8 10  1  0
  9 11  1  0
 12 15  1  0
 14 16  2  0
 14 17  1  0
 15 16  1  0
 16 18  1  0
 17 19  2  0
 18 20  2  0
 19 20  1  0
M  END
> <PUBCHEM_COMPOUND_CID>
5757

> <PUBCHEM_CONFORMER_RMSD>
0.6

> <PUBCHEM_CONFORMER_DIVERSEORDER>
1

> <PUBCHEM_MMFF94_PARTIAL_CHARGES>
16
1 -0.68
14 -0.14
15 0.14
16 -0.14
17 -0.15
18 -0.15
19 -0.15
2 -0.53
20 0.08
40 0.4
41 0.15
42 0.15
43 0.15
44 0.45
6 0.14
7 0.28

> <PUBCHEM_EFFECTIVE_ROTOR_COUNT>
1.4

> <PUBCHEM_PHARMACOPHORE_FEATURES>
7
1 1 acceptor
1 1 donor
1 2 donor
5 3 4 7 9 11 rings
6 14 16 17 18 19 20 rings
6 3 4 5 6 8 10 rings
6 5 6 12 14 15 16 rings

> <PUBCHEM_HEAVY_ATOM_COUNT>
20

> <PUBCHEM_ATOM_DEF_STEREO_COUNT>
5

> <PUBCHEM_ATOM_UDEF_STEREO_COUNT>
0

> <PUBCHEM_BOND_DEF_STEREO_COUNT>
0

> <PUBCHEM_BOND_UDEF_STEREO_COUNT>
0

> <PUBCHEM_ISOTOPIC_ATOM_COUNT>
0

> <PUBCHEM_COMPONENT_COUNT>
1

> <PUBCHEM_CACTVS_TAUTO_COUNT>
9

> <PUBCHEM_CONFORMER_ID>
0000167D00000001

> <PUBCHEM_MMFF94_ENERGY>
68.4596

> <PUBCHEM_FEATURE_SELFOVERLAP>
35.62

> <PUBCHEM_SHAPE_FINGERPRINT>
10 15 18262512710780645640
10411042 1 16969703283687688743
10616163 171 18338239395883154686
10967382 1 18410012100429229070
11132069 177 18409162216832884669
11578080 2 17201347718505248258
12011746 2 18410859841042374310
12107183 9 17690845558000159065
12236239 1 13470690338792453460
12251169 10 18335139816864396069
12403259 415 18410852127603240605
12403814 3 17530960289353343621
12500047 106 18271238421624861530
12592029 89 18334859377112304987
12788726 201 17703518696578858128
128620 24 11818992989152349105
13140716 1 18192429898953651512
13533116 47 17846218813073552003
13544592 145 18272379637759764926
13675066 3 18341893012844745609
14178342 30 18123731313450613666
14341114 176 18409738343777605753
14866123 147 17046555868986690930
15042514 8 18263932206156989787
15196674 1 18410012108982090935
15256400 18 18410857620686823693
15295992 7 17845930826899781123
15536298 74 18413671296627645270
1601671 61 18409168826940819996
16945 1 18266170819592368622
17349148 13 18412820287929204701
17804303 29 18410296916890392117
1813 80 16950285091842931756
18186145 218 17417805158171412875
19141452 34 18413108389914235807
192875 21 13830133918406568194
19591789 44 18192993725128068838
200 152 18131627885965453901
20028762 73 18272929458099065015
20261772 1 18410856577167961319
20510252 161 18341895147623301209
20645477 70 18200878374956666302
21033648 29 18271512131406579929
21267235 1 18337399244825179854
21279426 13 18124035632930519374
21421861 104 17895744090149736410
22854114 59 18412546505207311417
22892500 29 17274814788166584896
23184049 59 18410576175690384255
23402539 116 18342170081765240151
23557571 272 17773880972535682807
23558518 356 17682680979747269074
23559900 14 18413389822146813342
2748010 2 18337666399911122230
3004659 81 18260835844047909814
335352 9 18410013195572088855
34934 24 18411133675799850702
350125 39 18409735045496469133
351380 180 18409730664571278687
3545911 37 18411703192367818988
4214541 1 18409167684326479901
465052 167 17967541176940287083
495365 180 17346587600050392546
5104073 3 18409449150412323065
542803 24 17346883342628774985
59755656 215 18335983048405458773
69090 78 18341891905091661271
77779 3 18409450271409361990
7832392 63 18341046427736201710
9709674 26 18410862087368844367
9999458 23 17967819357476725574

> <PUBCHEM_SHAPE_MULTIPOLES>
399.85
9.72
2.11
0.84
3.73
0.39
0.22
-1.2
1.2
-0.24
-0.15
-0.38
-0.13
0.32

> <PUBCHEM_SHAPE_SELFOVERLAP>
871.414

> <PUBCHEM_SHAPE_VOLUME>
217.1

> <PUBCHEM_COORDINATE_TYPE>
2
5
10

> <Energy>
58.4396

> <minimizedAffinity>
-10.03245

> <CNNscore>
0.5783670545

> <CNNaffinity>
7.3286356926

> <CNN_VS>
4.2386412621

> <CNNaffinity_variance>
0.3090969026

$$$$
5757


 22 25  0  0  0  0  0  0  0  0999 V2000
    0.9702   -1.4035   -2.6531 O   0  0  0  0  0  0  0  0  0  0  0  0
   10.7073    2.0985   -6.2752 O   0  0  0  0  0  0  0  0  0  0  0  0
    3.0694   -0.7886   -3.7910 C   0  0  0  0  0  0  0  0  0  0  0  0
    3.5329   -1.0987   -5.2286 C   0  0  0  0  0  0  0  0  0  0  0  0
    4.7388   -0.2548   -5.6409 C   0  0  0  0  0  0  0  0  0  0  0  0
    5.9279   -0.5843   -4.6880 C   0  0  0  0  0  0  0  0  0  0  0  0
    1.8451   -1.7213   -3.7177 C   0  0  0  0  0  0  0  0  0  0  0  0
    4.2120   -1.1476   -2.8333 C   0  0  0  0  0  0  0  0  0  0  0  0
    2.2456   -1.0118   -6.0435 C   0  0  0  0  0  0  0  0  0  0  0  0
    5.5181   -0.4163   -3.1998 C   0  0  0  0  0  0  0  0  0  0  0  0
    1.1636   -1.5501   -5.0893 C   0  0  0  0  0  0  0  0  0  0  0  0
    5.1725   -0.5138   -7.0849 C   0  0  0  0  0  0  0  0  0  0  0  0
    2.6417    0.6816   -3.5488 C   0  0  0  0  0  0  0  0  0  0  0  0
    7.1926    0.1669   -5.1012 C   0  0  0  0  0  0  0  0  0  0  0  0
    6.2829    0.4581   -7.4768 C   0  0  0  0  0  0  0  0  0  0  0  0
    7.3623    0.6132   -6.4305 C   0  0  0  0  0  0  0  0  0  0  0  0
    8.2538    0.3522   -4.1969 C   0  0  0  0  0  0  0  0  0  0  0  0
    8.5485    1.2729   -6.8023 C   0  0  0  0  0  0  0  0  0  0  0  0
    9.4311    0.9994   -4.5796 C   0  0  0  0  0  0  0  0  0  0  0  0
    9.5686    1.4598   -5.8784 C   0  0  0  0  0  0  0  0  0  0  0  0
    1.4321   -1.5225   -1.8084 H   0  0  0  0  0  0  0  0  0  0  0  0
   10.7893    2.4058   -7.1565 H   0  0  0  0  0  0  0  0  0  0  0  0
  1  7  1  0
  1 21  1  0
  2 20  1  0
  2 22  1  0
  3  4  1  0
  3  7  1  0
  3  8  1  0
  3 13  1  0
  4  5  1  0
  4  9  1  0
  5  6  1  0
  5 12  1  0
  6 10  1  0
  6 14  1  0
  7 11  1  0
  8 10  1  0
  9 11  1  0
 12 15  1  0
 14 16  2  0
 14 17  1  0
 15 16  1  0
 16 18  1  0
 17 19  2  0
 18 20  2  0
 19 20  1  0
M  END
> <PUBCHEM_COMPOUND_CID>
5757

> <PUBCHEM_CONFORMER_RMSD>
0.6

> <PUBCHEM_CONFORMER_DIVERSEORDER>
1

> <PUBCHEM_MMFF94_PARTIAL_CHARGES>
16
1 -0.68
14 -0.14
15 0.14
16 -0.14
17 -0.15
18 -0.15
19 -0.15
2 -0.53
20 0.08
40 0.4
41 0.15
42 0.15
43 0.15
44 0.45
6 0.14
7 0.28

> <PUBCHEM_EFFECTIVE_ROTOR_COUNT>
1.4

> <PUBCHEM_PHARMACOPHORE_FEATURES>
7
1 1 acceptor
1 1 donor
1 2 donor
5 3 4 7 9 11 rings
6 14 16 17 18 19 20 rings
6 3 4 5 6 8 10 rings
6 5 6 12 14 15 16 rings

> <PUBCHEM_HEAVY_ATOM_COUNT>
20

> <PUBCHEM_ATOM_DEF_STEREO_COUNT>
5

> <PUBCHEM_ATOM_UDEF_STEREO_COUNT>
0

> <PUBCHEM_BOND_DEF_STEREO_COUNT>
0

> <PUBCHEM_BOND_UDEF_STEREO_COUNT>
0

> <PUBCHEM_ISOTOPIC_ATOM_COUNT>
0

> <PUBCHEM_COMPONENT_COUNT>
1

> <PUBCHEM_CACTVS_TAUTO_COUNT>
9

> <PUBCHEM_CONFORMER_ID>
0000167D00000001

> <PUBCHEM_MMFF94_ENERGY>
68.4596

> <PUBCHEM_FEATURE_SELFOVERLAP>
35.62

> <PUBCHEM_SHAPE_FINGERPRINT>
10 15 18262512710780645640
10411042 1 16969703283687688743
10616163 171 18338239395883154686
10967382 1 18410012100429229070
11132069 177 18409162216832884669
11578080 2 17201347718505248258
12011746 2 18410859841042374310
12107183 9 17690845558000159065
12236239 1 13470690338792453460
12251169 10 18335139816864396069
12403259 415 18410852127603240605
12403814 3 17530960289353343621
12500047 106 18271238421624861530
12592029 89 18334859377112304987
12788726 201 17703518696578858128
128620 24 11818992989152349105
13140716 1 18192429898953651512
13533116 47 17846218813073552003
13544592 145 18272379637759764926
13675066 3 18341893012844745609
14178342 30 18123731313450613666
14341114 176 18409738343777605753
14866123 147 17046555868986690930
15042514 8 18263932206156989787
15196674 1 18410012108982090935
15256400 18 18410857620686823693
15295992 7 17845930826899781123
15536298 74 18413671296627645270
1601671 61 18409168826940819996
16945 1 18266170819592368622
17349148 13 18412820287929204701
17804303 29 18410296916890392117
1813 80 16950285091842931756
18186145 218 17417805158171412875
19141452 34 18413108389914235807
192875 21 13830133918406568194
19591789 44 18192993725128068838
200 152 18131627885965453901
20028762 73 18272929458099065015
20261772 1 18410856577167961319
20510252 161 18341895147623301209
20645477 70 18200878374956666302
21033648 29 18271512131406579929
21267235 1 18337399244825179854
21279426 13 18124035632930519374
21421861 104 17895744090149736410
22854114 59 18412546505207311417
22892500 29 17274814788166584896
23184049 59 18410576175690384255
23402539 116 18342170081765240151
23557571 272 17773880972535682807
23558518 356 17682680979747269074
23559900 14 18413389822146813342
2748010 2 18337666399911122230
3004659 81 18260835844047909814
335352 9 18410013195572088855
34934 24 18411133675799850702
350125 39 18409735045496469133
351380 180 18409730664571278687
3545911 37 18411703192367818988
4214541 1 18409167684326479901
465052 167 17967541176940287083
495365 180 17346587600050392546
5104073 3 18409449150412323065
542803 24 17346883342628774985
59755656 215 18335983048405458773
69090 78 18341891905091661271
77779 3 18409450271409361990
7832392 63 18341046427736201710
9709674 26 18410862087368844367
9999458 23 17967819357476725574

> <PUBCHEM_SHAPE_MULTIPOLES>
399.85
9.72
2.11
0.84
3.73
0.39
0.22
-1.2
1.2
-0.24
-0.15
-0.38
-0.13
0.32

> <PUBCHEM_SHAPE_SELFOVERLAP>
871.414

> <PUBCHEM_SHAPE_VOLUME>
217.1

> <PUBCHEM_COORDINATE_TYPE>
2
5
10

> <Energy>
58.4396

> <minimizedAffinity>
-9.54275

> <CNNscore>
0.4800614715

> <CNNaffinity>
7.2708563805

> <CNN_VS>
3.4904580116

> <CNNaffinity_variance>
0.4509606063

$$$$
5757


 22 25  0  0  0  0  0  0  0  0999 V2000
    0.9512   -2.3480   -3.7457 O   0  0  0  0  0  0  0  0  0  0  0  0
   10.9512    1.2802   -6.3976 O   0  0  0  0  0  0  0  0  0  0  0  0
    3.0557   -1.4722   -4.6858 C   0  0  0  0  0  0  0  0  0  0  0  0
    3.3536   -0.9519   -6.1064 C   0  0  0  0  0  0  0  0  0  0  0  0
    4.6787   -0.1932   -6.1771 C   0  0  0  0  0  0  0  0  0  0  0  0
    5.8325   -1.1665   -5.7872 C   0  0  0  0  0  0  0  0  0  0  0  0
    1.6730   -2.1039   -4.9371 C   0  0  0  0  0  0  0  0  0  0  0  0
    4.1584   -2.4658   -4.3005 C   0  0  0  0  0  0  0  0  0  0  0  0
    2.0627   -0.2408   -6.5023 C   0  0  0  0  0  0  0  0  0  0  0  0
    5.5611   -1.8376   -4.4136 C   0  0  0  0  0  0  0  0  0  0  0  0
    0.9558   -1.0830   -5.8419 C   0  0  0  0  0  0  0  0  0  0  0  0
    4.9576    0.3759   -7.5695 C   0  0  0  0  0  0  0  0  0  0  0  0
    2.9556   -0.3720   -3.5982 C   0  0  0  0  0  0  0  0  0  0  0  0
    7.1959   -0.4897   -5.9202 C   0  0  0  0  0  0  0  0  0  0  0  0
    6.2170    1.2384   -7.5361 C   0  0  0  0  0  0  0  0  0  0  0  0
    7.3692    0.6158   -6.7821 C   0  0  0  0  0  0  0  0  0  0  0  0
    8.3276   -1.0035   -5.2617 C   0  0  0  0  0  0  0  0  0  0  0  0
    8.6398    1.2053   -6.9189 C   0  0  0  0  0  0  0  0  0  0  0  0
    9.5862   -0.4166   -5.4129 C   0  0  0  0  0  0  0  0  0  0  0  0
    9.7329    0.6869   -6.2367 C   0  0  0  0  0  0  0  0  0  0  0  0
    1.4313   -2.9932   -3.2032 H   0  0  0  0  0  0  0  0  0  0  0  0
   11.0386    2.0264   -6.9574 H   0  0  0  0  0  0  0  0  0  0  0  0
  1  7  1  0
  1 21  1  0
  2 20  1  0
  2 22  1  0
  3  4  1  0
  3  7  1  0
  3  8  1  0
  3 13  1  0
  4  5  1  0
  4  9  1  0
  5  6  1  0
  5 12  1  0
  6 10  1  0
  6 14  1  0
  7 11  1  0
  8 10  1  0
  9 11  1  0
 12 15  1  0
 14 16  2  0
 14 17  1  0
 15 16  1  0
 16 18  1  0
 17 19  2  0
 18 20  2  0
 19 20  1  0
M  END
> <PUBCHEM_COMPOUND_CID>
5757

> <PUBCHEM_CONFORMER_RMSD>
0.6

> <PUBCHEM_CONFORMER_DIVERSEORDER>
1

> <PUBCHEM_MMFF94_PARTIAL_CHARGES>
16
1 -0.68
14 -0.14
15 0.14
16 -0.14
17 -0.15
18 -0.15
19 -0.15
2 -0.53
20 0.08
40 0.4
41 0.15
42 0.15
43 0.15
44 0.45
6 0.14
7 0.28

> <PUBCHEM_EFFECTIVE_ROTOR_COUNT>
1.4

> <PUBCHEM_PHARMACOPHORE_FEATURES>
7
1 1 acceptor
1 1 donor
1 2 donor
5 3 4 7 9 11 rings
6 14 16 17 18 19 20 rings
6 3 4 5 6 8 10 rings
6 5 6 12 14 15 16 rings

> <PUBCHEM_HEAVY_ATOM_COUNT>
20

> <PUBCHEM_ATOM_DEF_STEREO_COUNT>
5

> <PUBCHEM_ATOM_UDEF_STEREO_COUNT>
0

> <PUBCHEM_BOND_DEF_STEREO_COUNT>
0

> <PUBCHEM_BOND_UDEF_STEREO_COUNT>
0

> <PUBCHEM_ISOTOPIC_ATOM_COUNT>
0

> <PUBCHEM_COMPONENT_COUNT>
1

> <PUBCHEM_CACTVS_TAUTO_COUNT>
9

> <PUBCHEM_CONFORMER_ID>
0000167D00000001

> <PUBCHEM_MMFF94_ENERGY>
68.4596

> <PUBCHEM_FEATURE_SELFOVERLAP>
35.62

> <PUBCHEM_SHAPE_FINGERPRINT>
10 15 18262512710780645640
10411042 1 16969703283687688743
10616163 171 18338239395883154686
10967382 1 18410012100429229070
11132069 177 18409162216832884669
11578080 2 17201347718505248258
12011746 2 18410859841042374310
12107183 9 17690845558000159065
12236239 1 13470690338792453460
12251169 10 18335139816864396069
12403259 415 18410852127603240605
12403814 3 17530960289353343621
12500047 106 18271238421624861530
12592029 89 18334859377112304987
12788726 201 17703518696578858128
128620 24 11818992989152349105
13140716 1 18192429898953651512
13533116 47 17846218813073552003
13544592 145 18272379637759764926
13675066 3 18341893012844745609
14178342 30 18123731313450613666
14341114 176 18409738343777605753
14866123 147 17046555868986690930
15042514 8 18263932206156989787
15196674 1 18410012108982090935
15256400 18 18410857620686823693
15295992 7 17845930826899781123
15536298 74 18413671296627645270
1601671 61 18409168826940819996
16945 1 18266170819592368622
17349148 13 18412820287929204701
17804303 29 18410296916890392117
1813 80 16950285091842931756
18186145 218 17417805158171412875
19141452 34 18413108389914235807
192875 21 13830133918406568194
19591789 44 18192993725128068838
200 152 18131627885965453901
20028762 73 18272929458099065015
20261772 1 18410856577167961319
20510252 161 18341895147623301209
20645477 70 18200878374956666302
21033648 29 18271512131406579929
21267235 1 18337399244825179854
21279426 13 18124035632930519374
21421861 104 17895744090149736410
22854114 59 18412546505207311417
22892500 29 17274814788166584896
23184049 59 18410576175690384255
23402539 116 18342170081765240151
23557571 272 17773880972535682807
23558518 356 17682680979747269074
23559900 14 18413389822146813342
2748010 2 18337666399911122230
3004659 81 18260835844047909814
335352 9 18410013195572088855
34934 24 18411133675799850702
350125 39 18409735045496469133
351380 180 18409730664571278687
3545911 37 18411703192367818988
4214541 1 18409167684326479901
465052 167 17967541176940287083
495365 180 17346587600050392546
5104073 3 18409449150412323065
542803 24 17346883342628774985
59755656 215 18335983048405458773
69090 78 18341891905091661271
77779 3 18409450271409361990
7832392 63 18341046427736201710
9709674 26 18410862087368844367
9999458 23 17967819357476725574

> <PUBCHEM_SHAPE_MULTIPOLES>
399.85
9.72
2.11
0.84
3.73
0.39
0.22
-1.2
1.2
-0.24
-0.15
-0.38
-0.13
0.32

> <PUBCHEM_SHAPE_SELFOVERLAP>
871.414

> <PUBCHEM_SHAPE_VOLUME>
217.1

> <PUBCHEM_COORDINATE_TYPE>
2
5
10

> <Energy>
58.4396

> <minimizedAffinity>
-4.41998

> <CNNscore>
0.4170632362

> <CNNaffinity>
6.6889634132

> <CNN_VS>
2.7897207737

> <CNNaffinity_variance>
0.3357557356

$$$$
5757


 22 25  0  0  0  0  0  0  0  0999 V2000
    9.9915    1.5268   -4.0333 O   0  0  0  0  0  0  0  0  0  0  0  0
   -0.3467   -2.0901   -4.5186 O   0  0  0  0  0  0  0  0  0  0  0  0
    7.6728    0.8309   -4.5012 C   0  0  0  0  0  0  0  0  0  0  0  0
    6.8619    0.9370   -5.8084 C   0  0  0  0  0  0  0  0  0  0  0  0
    5.5905    0.0894   -5.7692 C   0  0  0  0  0  0  0  0  0  0  0  0
    4.6803    0.6079   -4.6145 C   0  0  0  0  0  0  0  0  0  0  0  0
    8.8766    1.7138   -4.8829 C   0  0  0  0  0  0  0  0  0  0  0  0
    6.8089    1.3774   -3.3581 C   0  0  0  0  0  0  0  0  0  0  0  0
    7.9020    0.6750   -6.8939 C   0  0  0  0  0  0  0  0  0  0  0  0
    5.4521    0.6522   -3.2679 C   0  0  0  0  0  0  0  0  0  0  0  0
    9.1900    1.3083   -6.3364 C   0  0  0  0  0  0  0  0  0  0  0  0
    4.8067    0.1428   -7.0820 C   0  0  0  0  0  0  0  0  0  0  0  0
    8.1468   -0.6013   -4.1446 C   0  0  0  0  0  0  0  0  0  0  0  0
    3.3518   -0.1457   -4.5762 C   0  0  0  0  0  0  0  0  0  0  0  0
    3.6328   -0.8319   -7.0269 C   0  0  0  0  0  0  0  0  0  0  0  0
    2.8521   -0.7821   -5.7339 C   0  0  0  0  0  0  0  0  0  0  0  0
    2.5529   -0.1482   -3.4186 C   0  0  0  0  0  0  0  0  0  0  0  0
    1.6100   -1.4423   -5.6899 C   0  0  0  0  0  0  0  0  0  0  0  0
    1.3167   -0.7980   -3.3892 C   0  0  0  0  0  0  0  0  0  0  0  0
    0.8558   -1.4450   -4.5236 C   0  0  0  0  0  0  0  0  0  0  0  0
    9.7577    1.7915   -3.1299 H   0  0  0  0  0  0  0  0  0  0  0  0
   -0.6485   -2.5245   -5.2920 H   0  0  0  0  0  0  0  0  0  0  0  0
  1  7  1  0
  1 21  1  0
  2 20  1  0
  2 22  1  0
  3  4  1  0
  3  7  1  0
  3  8  1  0
  3 13  1  0
  4  5  1  0
  4  9  1  0
  5  6  1  0
  5 12  1  0
  6 10  1  0
  6 14  1  0
  7 11  1  0
  8 10  1  0
  9 11  1  0
 12 15  1  0
 14 16  2  0
 14 17  1  0
 15 16  1  0
 16 18  1  0
 17 19  2  0
 18 20  2  0
 19 20  1  0
M  END
> <PUBCHEM_COMPOUND_CID>
5757

> <PUBCHEM_CONFORMER_RMSD>
0.6

> <PUBCHEM_CONFORMER_DIVERSEORDER>
1

> <PUBCHEM_MMFF94_PARTIAL_CHARGES>
16
1 -0.68
14 -0.14
15 0.14
16 -0.14
17 -0.15
18 -0.15
19 -0.15
2 -0.53
20 0.08
40 0.4
41 0.15
42 0.15
43 0.15
44 0.45
6 0.14
7 0.28

> <PUBCHEM_EFFECTIVE_ROTOR_COUNT>
1.4

> <PUBCHEM_PHARMACOPHORE_FEATURES>
7
1 1 acceptor
1 1 donor
1 2 donor
5 3 4 7 9 11 rings
6 14 16 17 18 19 20 rings
6 3 4 5 6 8 10 rings
6 5 6 12 14 15 16 rings

> <PUBCHEM_HEAVY_ATOM_COUNT>
20

> <PUBCHEM_ATOM_DEF_STEREO_COUNT>
5

> <PUBCHEM_ATOM_UDEF_STEREO_COUNT>
0

> <PUBCHEM_BOND_DEF_STEREO_COUNT>
0

> <PUBCHEM_BOND_UDEF_STEREO_COUNT>
0

> <PUBCHEM_ISOTOPIC_ATOM_COUNT>
0

> <PUBCHEM_COMPONENT_COUNT>
1

> <PUBCHEM_CACTVS_TAUTO_COUNT>
9

> <PUBCHEM_CONFORMER_ID>
0000167D00000001

> <PUBCHEM_MMFF94_ENERGY>
68.4596

> <PUBCHEM_FEATURE_SELFOVERLAP>
35.62

> <PUBCHEM_SHAPE_FINGERPRINT>
10 15 18262512710780645640
10411042 1 16969703283687688743
10616163 171 18338239395883154686
10967382 1 18410012100429229070
11132069 177 18409162216832884669
11578080 2 17201347718505248258
12011746 2 18410859841042374310
12107183 9 17690845558000159065
12236239 1 13470690338792453460
12251169 10 18335139816864396069
12403259 415 18410852127603240605
12403814 3 17530960289353343621
12500047 106 18271238421624861530
12592029 89 18334859377112304987
12788726 201 17703518696578858128
128620 24 11818992989152349105
13140716 1 18192429898953651512
13533116 47 17846218813073552003
13544592 145 18272379637759764926
13675066 3 18341893012844745609
14178342 30 18123731313450613666
14341114 176 18409738343777605753
14866123 147 17046555868986690930
15042514 8 18263932206156989787
15196674 1 18410012108982090935
15256400 18 18410857620686823693
15295992 7 17845930826899781123
15536298 74 18413671296627645270
1601671 61 18409168826940819996
16945 1 18266170819592368622
17349148 13 18412820287929204701
17804303 29 18410296916890392117
1813 80 16950285091842931756
18186145 218 17417805158171412875
19141452 34 18413108389914235807
192875 21 13830133918406568194
19591789 44 18192993725128068838
200 152 18131627885965453901
20028762 73 18272929458099065015
20261772 1 18410856577167961319
20510252 161 18341895147623301209
20645477 70 18200878374956666302
21033648 29 18271512131406579929
21267235 1 18337399244825179854
21279426 13 18124035632930519374
21421861 104 17895744090149736410
22854114 59 18412546505207311417
22892500 29 17274814788166584896
23184049 59 18410576175690384255
23402539 116 18342170081765240151
23557571 272 17773880972535682807
23558518 356 17682680979747269074
23559900 14 18413389822146813342
2748010 2 18337666399911122230
3004659 81 18260835844047909814
335352 9 18410013195572088855
34934 24 18411133675799850702
350125 39 18409735045496469133
351380 180 18409730664571278687
3545911 37 18411703192367818988
4214541 1 18409167684326479901
465052 167 17967541176940287083
495365 180 17346587600050392546
5104073 3 18409449150412323065
542803 24 17346883342628774985
59755656 215 18335983048405458773
69090 78 18341891905091661271
77779 3 18409450271409361990
7832392 63 18341046427736201710
9709674 26 18410862087368844367
9999458 23 17967819357476725574

> <PUBCHEM_SHAPE_MULTIPOLES>
399.85
9.72
2.11
0.84
3.73
0.39
0.22
-1.2
1.2
-0.24
-0.15
-0.38
-0.13
0.32

> <PUBCHEM_SHAPE_SELFOVERLAP>
871.414

> <PUBCHEM_SHAPE_VOLUME>
217.1

> <PUBCHEM_COORDINATE_TYPE>
2
5
10

> <Energy>
58.4396

> <minimizedAffinity>
-8.31397

> <CNNscore>
0.1958499998

> <CNNaffinity>
6.6803050041

> <CNN_VS>
1.3083376884

> <CNNaffinity_variance>
0.4500413835

$$$$
5757


 22 25  0  0  0  0  0  0  0  0999 V2000
    0.0017    0.8607   -4.2635 O   0  0  0  0  0  0  0  0  0  0  0  0
    9.2937   -4.4363   -6.6711 O   0  0  0  0  0  0  0  0  0  0  0  0
    1.8762   -0.6402   -4.8231 C   0  0  0  0  0  0  0  0  0  0  0  0
    1.8693   -2.1575   -5.0977 C   0  0  0  0  0  0  0  0  0  0  0  0
    3.1749   -2.6349   -5.7332 C   0  0  0  0  0  0  0  0  0  0  0  0
    4.3456   -2.3470   -4.7447 C   0  0  0  0  0  0  0  0  0  0  0  0
    0.4475   -0.4813   -4.2684 C   0  0  0  0  0  0  0  0  0  0  0  0
    2.9952   -0.3424   -3.8177 C   0  0  0  0  0  0  0  0  0  0  0  0
    0.5530   -2.3786   -5.8375 C   0  0  0  0  0  0  0  0  0  0  0  0
    4.3616   -0.8559   -4.3122 C   0  0  0  0  0  0  0  0  0  0  0  0
   -0.4115   -1.3665   -5.1924 C   0  0  0  0  0  0  0  0  0  0  0  0
    3.1579   -4.1290   -6.0618 C   0  0  0  0  0  0  0  0  0  0  0  0
    2.0679    0.2471   -6.0797 C   0  0  0  0  0  0  0  0  0  0  0  0
    5.6712   -2.8792   -5.2870 C   0  0  0  0  0  0  0  0  0  0  0  0
    4.4272   -4.5093   -6.8203 C   0  0  0  0  0  0  0  0  0  0  0  0
    5.6924   -3.9282   -6.2326 C   0  0  0  0  0  0  0  0  0  0  0  0
    6.8995   -2.4036   -4.7937 C   0  0  0  0  0  0  0  0  0  0  0  0
    6.9232   -4.4298   -6.6955 C   0  0  0  0  0  0  0  0  0  0  0  0
    8.1153   -2.9160   -5.2527 C   0  0  0  0  0  0  0  0  0  0  0  0
    8.1190   -3.9223   -6.2042 C   0  0  0  0  0  0  0  0  0  0  0  0
    0.5641    1.3861   -3.6732 H   0  0  0  0  0  0  0  0  0  0  0  0
    9.2841   -5.1170   -7.3150 H   0  0  0  0  0  0  0  0  0  0  0  0
  1  7  1  0
  1 21  1  0
  2 20  1  0
  2 22  1  0
  3  4  1  0
  3  7  1  0
  3  8  1  0
  3 13  1  0
  4  5  1  0
  4  9  1  0
  5  6  1  0
  5 12  1  0
  6 10  1  0
  6 14  1  0
  7 11  1  0
  8 10  1  0
  9 11  1  0
 12 15  1  0
 14 16  2  0
 14 17  1  0
 15 16  1  0
 16 18  1  0
 17 19  2  0
 18 20  2  0
 19 20  1  0
M  END
> <PUBCHEM_COMPOUND_CID>
5757

> <PUBCHEM_CONFORMER_RMSD>
0.6

> <PUBCHEM_CONFORMER_DIVERSEORDER>
1

> <PUBCHEM_MMFF94_PARTIAL_CHARGES>
16
1 -0.68
14 -0.14
15 0.14
16 -0.14
17 -0.15
18 -0.15
19 -0.15
2 -0.53
20 0.08
40 0.4
41 0.15
42 0.15
43 0.15
44 0.45
6 0.14
7 0.28

> <PUBCHEM_EFFECTIVE_ROTOR_COUNT>
1.4

> <PUBCHEM_PHARMACOPHORE_FEATURES>
7
1 1 acceptor
1 1 donor
1 2 donor
5 3 4 7 9 11 rings
6 14 16 17 18 19 20 rings
6 3 4 5 6 8 10 rings
6 5 6 12 14 15 16 rings

> <PUBCHEM_HEAVY_ATOM_COUNT>
20

> <PUBCHEM_ATOM_DEF_STEREO_COUNT>
5

> <PUBCHEM_ATOM_UDEF_STEREO_COUNT>
0

> <PUBCHEM_BOND_DEF_STEREO_COUNT>
0

> <PUBCHEM_BOND_UDEF_STEREO_COUNT>
0

> <PUBCHEM_ISOTOPIC_ATOM_COUNT>
0

> <PUBCHEM_COMPONENT_COUNT>
1

> <PUBCHEM_CACTVS_TAUTO_COUNT>
9

> <PUBCHEM_CONFORMER_ID>
0000167D00000001

> <PUBCHEM_MMFF94_ENERGY>
68.4596

> <PUBCHEM_FEATURE_SELFOVERLAP>
35.62

> <PUBCHEM_SHAPE_FINGERPRINT>
10 15 18262512710780645640
10411042 1 16969703283687688743
10616163 171 18338239395883154686
10967382 1 18410012100429229070
11132069 177 18409162216832884669
11578080 2 17201347718505248258
12011746 2 18410859841042374310
12107183 9 17690845558000159065
12236239 1 13470690338792453460
12251169 10 18335139816864396069
12403259 415 18410852127603240605
12403814 3 17530960289353343621
12500047 106 18271238421624861530
12592029 89 18334859377112304987
12788726 201 17703518696578858128
128620 24 11818992989152349105
13140716 1 18192429898953651512
13533116 47 17846218813073552003
13544592 145 18272379637759764926
13675066 3 18341893012844745609
14178342 30 18123731313450613666
14341114 176 18409738343777605753
14866123 147 17046555868986690930
15042514 8 18263932206156989787
15196674 1 18410012108982090935
15256400 18 18410857620686823693
15295992 7 17845930826899781123
15536298 74 18413671296627645270
1601671 61 18409168826940819996
16945 1 18266170819592368622
17349148 13 18412820287929204701
17804303 29 18410296916890392117
1813 80 16950285091842931756
18186145 218 17417805158171412875
19141452 34 18413108389914235807
192875 21 13830133918406568194
19591789 44 18192993725128068838
200 152 18131627885965453901
20028762 73 18272929458099065015
20261772 1 18410856577167961319
20510252 161 18341895147623301209
20645477 70 18200878374956666302
21033648 29 18271512131406579929
21267235 1 18337399244825179854
21279426 13 18124035632930519374
21421861 104 17895744090149736410
22854114 59 18412546505207311417
22892500 29 17274814788166584896
23184049 59 18410576175690384255
23402539 116 18342170081765240151
23557571 272 17773880972535682807
23558518 356 17682680979747269074
23559900 14 18413389822146813342
2748010 2 18337666399911122230
3004659 81 18260835844047909814
335352 9 18410013195572088855
34934 24 18411133675799850702
350125 39 18409735045496469133
351380 180 18409730664571278687
3545911 37 18411703192367818988
4214541 1 18409167684326479901
465052 167 17967541176940287083
495365 180 17346587600050392546
5104073 3 18409449150412323065
542803 24 17346883342628774985
59755656 215 18335983048405458773
69090 78 18341891905091661271
77779 3 18409450271409361990
7832392 63 18341046427736201710
9709674 26 18410862087368844367
9999458 23 17967819357476725574

> <PUBCHEM_SHAPE_MULTIPOLES>
399.85
9.72
2.11
0.84
3.73
0.39
0.22
-1.2
1.2
-0.24
-0.15
-0.38
-0.13
0.32

> <PUBCHEM_SHAPE_SELFOVERLAP>
871.414

> <PUBCHEM_SHAPE_VOLUME>
217.1

> <PUBCHEM_COORDINATE_TYPE>
2
5
10

> <Energy>
58.4396

> <minimizedAffinity>
16.49310

> <CNNscore>
0.1951807737

> <CNNaffinity>
5.4246158600

> <CNN_VS>
1.0587806702

> <CNNaffinity_variance>
0.0931129530

$$$$
