896


 19 20  0  0  0  0  0  0  0  0999 V2000
   -5.6871    0.0301   23.1543 N   0  0  0  0  0  0  0  0  0  0  0  0
   -4.6306   -1.8664   23.6689 C   0  0  0  0  0  0  0  0  0  0  0  0
   -6.0394   -2.0576   23.8410 C   0  0  0  0  0  0  0  0  0  0  0  0
   -6.6704   -0.8566   23.5262 C   0  0  0  0  0  0  0  0  0  0  0  0
   -4.4550   -0.5646   23.2414 C   0  0  0  0  0  0  0  0  0  0  0  0
   -6.8297   -3.1553   24.2447 C   0  0  0  0  0  0  0  0  0  0  0  0
   -8.0571   -0.6927   23.6005 C   0  0  0  0  0  0  0  0  0  0  0  0
   -8.2180   -3.0158   24.3382 C   0  0  0  0  0  0  0  0  0  0  0  0
   -8.8143   -1.7960   24.0170 C   0  0  0  0  0  0  0  0  0  0  0  0
   -5.8452    0.9583   22.8669 H   0  0  0  0  0  0  0  0  0  0  0  0
   -9.0874   -3.9986   24.7313 O   0  0  0  0  0  0  0  0  0  0  0  0
   -8.7502   -5.3319   24.3643 C   0  0  0  0  0  0  0  0  0  0  0  0
   -3.5622   -2.8919   23.9095 C   0  0  0  0  0  0  0  0  0  0  0  0
   -2.2037   -2.4935   23.3219 C   0  0  0  0  0  0  0  0  0  0  0  0
   -0.8772   -1.6861   20.9415 O   0  0  0  0  0  0  0  0  0  0  0  0
   -1.7514   -3.3618   22.2470 N   0  0  0  0  0  0  0  0  0  0  0  0
   -1.1430   -2.8694   21.1157 C   0  0  0  0  0  0  0  0  0  0  0  0
   -0.7998   -3.9333   20.1083 C   0  0  0  0  0  0  0  0  0  0  0  0
   -1.8848   -4.3336   22.3315 H   0  0  0  0  0  0  0  0  0  0  0  0
 11  8  1  0
 11 12  1  0
 15 17  2  0
  1  4  1  0
  1  5  1  0
  1 10  1  0
 16 14  1  0
 16 17  1  0
 16 19  1  0
  2  3  1  0
  2 13  1  0
  2  5  2  0
  3  4  2  0
  3  6  1  0
 13 14  1  0
  4  7  1  0
  6  8  2  0
  7  9  2  0
  8  9  1  0
 17 18  1  0
M  END
> <PUBCHEM_COMPOUND_CID>
896

> <PUBCHEM_CONFORMER_RMSD>
0.6

> <PUBCHEM_CONFORMER_DIVERSEORDER>
1
13
50
55
28
16
42
48
27
15
62
60
65
61
36
4
20
58
41
17
59
21
2
63
47
57
40
56
22
64
54
37
51
7
31
53
26
8
49
39
32
11
5
33
38
52
23
45
43
12
14
9
34
44
35
10
25
29
46
6
30
24
3
19
18

> <PUBCHEM_MMFF94_PARTIAL_CHARGES>
22
1 -0.36
10 0.3
11 -0.15
12 -0.15
13 0.08
14 -0.15
15 0.57
16 0.06
17 0.28
2 -0.57
20 0.15
23 0.27
24 0.15
25 0.15
26 0.15
27 0.37
3 0.03
4 -0.73
5 -0.18
7 0.18
8 -0.15
9 -0.3

> <PUBCHEM_EFFECTIVE_ROTOR_COUNT>
5

> <PUBCHEM_PHARMACOPHORE_FEATURES>
7
1 1 acceptor
1 2 acceptor
1 3 cation
1 3 donor
1 4 donor
5 3 5 6 8 9 rings
6 6 8 11 12 13 14 rings

> <PUBCHEM_HEAVY_ATOM_COUNT>
17

> <PUBCHEM_ATOM_DEF_STEREO_COUNT>
0

> <PUBCHEM_ATOM_UDEF_STEREO_COUNT>
0

> <PUBCHEM_BOND_DEF_STEREO_COUNT>
0

> <PUBCHEM_BOND_UDEF_STEREO_COUNT>
0

> <PUBCHEM_ISOTOPIC_ATOM_COUNT>
0

> <PUBCHEM_COMPONENT_COUNT>
1

> <PUBCHEM_CACTVS_TAUTO_COUNT>
2

> <PUBCHEM_CONFORMER_ID>
0000038000000001

> <PUBCHEM_MMFF94_ENERGY>
32.7119

> <PUBCHEM_FEATURE_SELFOVERLAP>
35.612

> <PUBCHEM_SHAPE_FINGERPRINT>
10967382 1 18410853274190255273
11640471 11 17676780867509025316
13027679 85 18194690495324420133
13140716 1 17978229692519098697
13965767 371 16608554374032828400
1420 336 18266184924512803916
14787075 74 17896612875907719035
14790565 3 18341057316043312793
15006816 218 16754940689043299904
16945 1 18195239147136872059
19591789 44 18120376712306458779
19765921 60 17749382706469569763
20510252 161 18342458093286620745
21141583 151 18124894583888822372
21524375 3 17972887951224859043
2334 1 18410572855759727185
23419403 2 17326855944455494142
23557571 272 18201719608641642450
23559900 14 18342173410755765088
2748010 2 18337115553281152647
353137 74 18409164389875307419
44154327 71 18267028250037128041
526903 126 18410576235872810256
537710 114 18408601466050490037
7832392 63 17187566044572678455
9981440 41 18116712022929254594

> <PUBCHEM_SHAPE_MULTIPOLES>
328.15
4.94
3.77
0.97
2.92
1.2
-0.06
0.99
-1.27
-0.81
0.74
0.39
0.23
-0.66

> <PUBCHEM_SHAPE_SELFOVERLAP>
695.133

> <PUBCHEM_SHAPE_VOLUME>
185.3

> <PUBCHEM_COORDINATE_TYPE>
2
5
10

> <Energy>
0.232708

> <minimizedAffinity>
-5.76939

> <CNNscore>
0.4179779589

> <CNNaffinity>
6.2457346916

> <CNN_VS>
2.6105794907

> <CNNaffinity_variance>
0.4412230551

$$$$
896


 19 20  0  0  0  0  0  0  0  0999 V2000
   -4.6069   -4.5064   20.1777 N   0  0  0  0  0  0  0  0  0  0  0  0
   -3.5591   -4.0610   22.0965 C   0  0  0  0  0  0  0  0  0  0  0  0
   -4.9611   -4.1988   22.3535 C   0  0  0  0  0  0  0  0  0  0  0  0
   -5.5895   -4.4626   21.1389 C   0  0  0  0  0  0  0  0  0  0  0  0
   -3.3815   -4.2608   20.7411 C   0  0  0  0  0  0  0  0  0  0  0  0
   -5.7484   -4.1152   23.5222 C   0  0  0  0  0  0  0  0  0  0  0  0
   -6.9720   -4.6417   21.0299 C   0  0  0  0  0  0  0  0  0  0  0  0
   -7.1347   -4.2794   23.4401 C   0  0  0  0  0  0  0  0  0  0  0  0
   -7.7289   -4.5400   22.2050 C   0  0  0  0  0  0  0  0  0  0  0  0
   -4.7612   -4.6879   19.2226 H   0  0  0  0  0  0  0  0  0  0  0  0
   -8.0042   -4.2059   24.4960 O   0  0  0  0  0  0  0  0  0  0  0  0
   -8.8528   -3.0641   24.5444 C   0  0  0  0  0  0  0  0  0  0  0  0
   -2.4982   -3.7585   23.1133 C   0  0  0  0  0  0  0  0  0  0  0  0
   -1.9053   -2.3530   22.9631 C   0  0  0  0  0  0  0  0  0  0  0  0
   -1.0375   -1.9893   20.2813 O   0  0  0  0  0  0  0  0  0  0  0  0
   -0.5294   -2.3431   22.4933 N   0  0  0  0  0  0  0  0  0  0  0  0
   -0.2115   -2.1892   21.1638 C   0  0  0  0  0  0  0  0  0  0  0  0
    1.2664   -2.2585   20.8888 C   0  0  0  0  0  0  0  0  0  0  0  0
    0.1983   -2.4501   23.1478 H   0  0  0  0  0  0  0  0  0  0  0  0
 11  8  1  0
 11 12  1  0
 15 17  2  0
  1  4  1  0
  1  5  1  0
  1 10  1  0
 16 14  1  0
 16 17  1  0
 16 19  1  0
  2  3  1  0
  2 13  1  0
  2  5  2  0
  3  4  2  0
  3  6  1  0
 13 14  1  0
  4  7  1  0
  6  8  2  0
  7  9  2  0
  8  9  1  0
 17 18  1  0
M  END
> <PUBCHEM_COMPOUND_CID>
896

> <PUBCHEM_CONFORMER_RMSD>
0.6

> <PUBCHEM_CONFORMER_DIVERSEORDER>
1
13
50
55
28
16
42
48
27
15
62
60
65
61
36
4
20
58
41
17
59
21
2
63
47
57
40
56
22
64
54
37
51
7
31
53
26
8
49
39
32
11
5
33
38
52
23
45
43
12
14
9
34
44
35
10
25
29
46
6
30
24
3
19
18

> <PUBCHEM_MMFF94_PARTIAL_CHARGES>
22
1 -0.36
10 0.3
11 -0.15
12 -0.15
13 0.08
14 -0.15
15 0.57
16 0.06
17 0.28
2 -0.57
20 0.15
23 0.27
24 0.15
25 0.15
26 0.15
27 0.37
3 0.03
4 -0.73
5 -0.18
7 0.18
8 -0.15
9 -0.3

> <PUBCHEM_EFFECTIVE_ROTOR_COUNT>
5

> <PUBCHEM_PHARMACOPHORE_FEATURES>
7
1 1 acceptor
1 2 acceptor
1 3 cation
1 3 donor
1 4 donor
5 3 5 6 8 9 rings
6 6 8 11 12 13 14 rings

> <PUBCHEM_HEAVY_ATOM_COUNT>
17

> <PUBCHEM_ATOM_DEF_STEREO_COUNT>
0

> <PUBCHEM_ATOM_UDEF_STEREO_COUNT>
0

> <PUBCHEM_BOND_DEF_STEREO_COUNT>
0

> <PUBCHEM_BOND_UDEF_STEREO_COUNT>
0

> <PUBCHEM_ISOTOPIC_ATOM_COUNT>
0

> <PUBCHEM_COMPONENT_COUNT>
1

> <PUBCHEM_CACTVS_TAUTO_COUNT>
2

> <PUBCHEM_CONFORMER_ID>
0000038000000001

> <PUBCHEM_MMFF94_ENERGY>
32.7119

> <PUBCHEM_FEATURE_SELFOVERLAP>
35.612

> <PUBCHEM_SHAPE_FINGERPRINT>
10967382 1 18410853274190255273
11640471 11 17676780867509025316
13027679 85 18194690495324420133
13140716 1 17978229692519098697
13965767 371 16608554374032828400
1420 336 18266184924512803916
14787075 74 17896612875907719035
14790565 3 18341057316043312793
15006816 218 16754940689043299904
16945 1 18195239147136872059
19591789 44 18120376712306458779
19765921 60 17749382706469569763
20510252 161 18342458093286620745
21141583 151 18124894583888822372
21524375 3 17972887951224859043
2334 1 18410572855759727185
23419403 2 17326855944455494142
23557571 272 18201719608641642450
23559900 14 18342173410755765088
2748010 2 18337115553281152647
353137 74 18409164389875307419
44154327 71 18267028250037128041
526903 126 18410576235872810256
537710 114 18408601466050490037
7832392 63 17187566044572678455
9981440 41 18116712022929254594

> <PUBCHEM_SHAPE_MULTIPOLES>
328.15
4.94
3.77
0.97
2.92
1.2
-0.06
0.99
-1.27
-0.81
0.74
0.39
0.23
-0.66

> <PUBCHEM_SHAPE_SELFOVERLAP>
695.133

> <PUBCHEM_SHAPE_VOLUME>
185.3

> <PUBCHEM_COORDINATE_TYPE>
2
5
10

> <Energy>
0.232708

> <minimizedAffinity>
-5.48454

> <CNNscore>
0.3973640501

> <CNNaffinity>
6.3516354561

> <CNN_VS>
2.5239114761

> <CNNaffinity_variance>
0.5566298962

$$$$
896


 19 20  0  0  0  0  0  0  0  0999 V2000
   -5.6512   -5.7545   22.9185 N   0  0  0  0  0  0  0  0  0  0  0  0
   -5.2792   -3.9124   21.7159 C   0  0  0  0  0  0  0  0  0  0  0  0
   -6.3308   -3.6518   22.6524 C   0  0  0  0  0  0  0  0  0  0  0  0
   -6.5496   -4.8202   23.3782 C   0  0  0  0  0  0  0  0  0  0  0  0
   -4.8850   -5.2215   21.9143 C   0  0  0  0  0  0  0  0  0  0  0  0
   -7.1189   -2.5161   22.9385 C   0  0  0  0  0  0  0  0  0  0  0  0
   -7.5248   -4.9152   24.3757 C   0  0  0  0  0  0  0  0  0  0  0  0
   -8.1088   -2.5868   23.9237 C   0  0  0  0  0  0  0  0  0  0  0  0
   -8.3005   -3.7756   24.6283 C   0  0  0  0  0  0  0  0  0  0  0  0
   -5.5700   -6.6738   23.2611 H   0  0  0  0  0  0  0  0  0  0  0  0
   -8.9448   -1.5621   24.2804 O   0  0  0  0  0  0  0  0  0  0  0  0
   -8.5632   -0.2548   23.8664 C   0  0  0  0  0  0  0  0  0  0  0  0
   -4.7222   -2.9410   20.7173 C   0  0  0  0  0  0  0  0  0  0  0  0
   -3.4171   -3.4229   20.0737 C   0  0  0  0  0  0  0  0  0  0  0  0
   -1.0404   -2.3478   18.9455 O   0  0  0  0  0  0  0  0  0  0  0  0
   -2.2219   -3.0203   20.7971 N   0  0  0  0  0  0  0  0  0  0  0  0
   -1.1059   -2.5368   20.1543 C   0  0  0  0  0  0  0  0  0  0  0  0
    0.0350   -2.2269   21.0853 C   0  0  0  0  0  0  0  0  0  0  0  0
   -2.2109   -3.0960   21.7786 H   0  0  0  0  0  0  0  0  0  0  0  0
 11  8  1  0
 11 12  1  0
 15 17  2  0
  1  4  1  0
  1  5  1  0
  1 10  1  0
 16 14  1  0
 16 17  1  0
 16 19  1  0
  2  3  1  0
  2 13  1  0
  2  5  2  0
  3  4  2  0
  3  6  1  0
 13 14  1  0
  4  7  1  0
  6  8  2  0
  7  9  2  0
  8  9  1  0
 17 18  1  0
M  END
> <PUBCHEM_COMPOUND_CID>
896

> <PUBCHEM_CONFORMER_RMSD>
0.6

> <PUBCHEM_CONFORMER_DIVERSEORDER>
1
13
50
55
28
16
42
48
27
15
62
60
65
61
36
4
20
58
41
17
59
21
2
63
47
57
40
56
22
64
54
37
51
7
31
53
26
8
49
39
32
11
5
33
38
52
23
45
43
12
14
9
34
44
35
10
25
29
46
6
30
24
3
19
18

> <PUBCHEM_MMFF94_PARTIAL_CHARGES>
22
1 -0.36
10 0.3
11 -0.15
12 -0.15
13 0.08
14 -0.15
15 0.57
16 0.06
17 0.28
2 -0.57
20 0.15
23 0.27
24 0.15
25 0.15
26 0.15
27 0.37
3 0.03
4 -0.73
5 -0.18
7 0.18
8 -0.15
9 -0.3

> <PUBCHEM_EFFECTIVE_ROTOR_COUNT>
5

> <PUBCHEM_PHARMACOPHORE_FEATURES>
7
1 1 acceptor
1 2 acceptor
1 3 cation
1 3 donor
1 4 donor
5 3 5 6 8 9 rings
6 6 8 11 12 13 14 rings

> <PUBCHEM_HEAVY_ATOM_COUNT>
17

> <PUBCHEM_ATOM_DEF_STEREO_COUNT>
0

> <PUBCHEM_ATOM_UDEF_STEREO_COUNT>
0

> <PUBCHEM_BOND_DEF_STEREO_COUNT>
0

> <PUBCHEM_BOND_UDEF_STEREO_COUNT>
0

> <PUBCHEM_ISOTOPIC_ATOM_COUNT>
0

> <PUBCHEM_COMPONENT_COUNT>
1

> <PUBCHEM_CACTVS_TAUTO_COUNT>
2

> <PUBCHEM_CONFORMER_ID>
0000038000000001

> <PUBCHEM_MMFF94_ENERGY>
32.7119

> <PUBCHEM_FEATURE_SELFOVERLAP>
35.612

> <PUBCHEM_SHAPE_FINGERPRINT>
10967382 1 18410853274190255273
11640471 11 17676780867509025316
13027679 85 18194690495324420133
13140716 1 17978229692519098697
13965767 371 16608554374032828400
1420 336 18266184924512803916
14787075 74 17896612875907719035
14790565 3 18341057316043312793
15006816 218 16754940689043299904
16945 1 18195239147136872059
19591789 44 18120376712306458779
19765921 60 17749382706469569763
20510252 161 18342458093286620745
21141583 151 18124894583888822372
21524375 3 17972887951224859043
2334 1 18410572855759727185
23419403 2 17326855944455494142
23557571 272 18201719608641642450
23559900 14 18342173410755765088
2748010 2 18337115553281152647
353137 74 18409164389875307419
44154327 71 18267028250037128041
526903 126 18410576235872810256
537710 114 18408601466050490037
7832392 63 17187566044572678455
9981440 41 18116712022929254594

> <PUBCHEM_SHAPE_MULTIPOLES>
328.15
4.94
3.77
0.97
2.92
1.2
-0.06
0.99
-1.27
-0.81
0.74
0.39
0.23
-0.66

> <PUBCHEM_SHAPE_SELFOVERLAP>
695.133

> <PUBCHEM_SHAPE_VOLUME>
185.3

> <PUBCHEM_COORDINATE_TYPE>
2
5
10

> <Energy>
0.232708

> <minimizedAffinity>
-6.47430

> <CNNscore>
0.3821141422

> <CNNaffinity>
6.5094742775

> <CNN_VS>
2.4873621464

> <CNNaffinity_variance>
0.6226748824

$$$$
896


 19 20  0  0  0  0  0  0  0  0999 V2000
   -4.5326   -4.1767   19.9793 N   0  0  0  0  0  0  0  0  0  0  0  0
   -4.1160   -3.6559   22.1084 C   0  0  0  0  0  0  0  0  0  0  0  0
   -3.0376   -3.1815   21.2942 C   0  0  0  0  0  0  0  0  0  0  0  0
   -3.3180   -3.5316   19.9756 C   0  0  0  0  0  0  0  0  0  0  0  0
   -5.0200   -4.2623   21.2577 C   0  0  0  0  0  0  0  0  0  0  0  0
   -1.8414   -2.4861   21.5734 C   0  0  0  0  0  0  0  0  0  0  0  0
   -2.4572   -3.2269   18.9167 C   0  0  0  0  0  0  0  0  0  0  0  0
   -0.9573   -2.1784   20.5345 C   0  0  0  0  0  0  0  0  0  0  0  0
   -1.2711   -2.5476   19.2262 C   0  0  0  0  0  0  0  0  0  0  0  0
   -4.9867   -4.5267   19.1790 H   0  0  0  0  0  0  0  0  0  0  0  0
    0.2371   -1.5236   20.6798 O   0  0  0  0  0  0  0  0  0  0  0  0
    1.3716   -2.3274   20.9847 C   0  0  0  0  0  0  0  0  0  0  0  0
   -4.2296   -3.5141   23.5977 C   0  0  0  0  0  0  0  0  0  0  0  0
   -5.1746   -2.3848   24.0234 C   0  0  0  0  0  0  0  0  0  0  0  0
   -6.1620   -4.7882   25.1750 O   0  0  0  0  0  0  0  0  0  0  0  0
   -6.5679   -2.7893   24.1185 N   0  0  0  0  0  0  0  0  0  0  0  0
   -6.9444   -3.9922   24.6695 C   0  0  0  0  0  0  0  0  0  0  0  0
   -8.4289   -4.2343   24.6234 C   0  0  0  0  0  0  0  0  0  0  0  0
   -7.2644   -2.1828   23.7775 H   0  0  0  0  0  0  0  0  0  0  0  0
 11  8  1  0
 11 12  1  0
 15 17  2  0
  1  4  1  0
  1  5  1  0
  1 10  1  0
 16 14  1  0
 16 17  1  0
 16 19  1  0
  2  3  1  0
  2 13  1  0
  2  5  2  0
  3  4  2  0
  3  6  1  0
 13 14  1  0
  4  7  1  0
  6  8  2  0
  7  9  2  0
  8  9  1  0
 17 18  1  0
M  END
> <PUBCHEM_COMPOUND_CID>
896

> <PUBCHEM_CONFORMER_RMSD>
0.6

> <PUBCHEM_CONFORMER_DIVERSEORDER>
1
13
50
55
28
16
42
48
27
15
62
60
65
61
36
4
20
58
41
17
59
21
2
63
47
57
40
56
22
64
54
37
51
7
31
53
26
8
49
39
32
11
5
33
38
52
23
45
43
12
14
9
34
44
35
10
25
29
46
6
30
24
3
19
18

> <PUBCHEM_MMFF94_PARTIAL_CHARGES>
22
1 -0.36
10 0.3
11 -0.15
12 -0.15
13 0.08
14 -0.15
15 0.57
16 0.06
17 0.28
2 -0.57
20 0.15
23 0.27
24 0.15
25 0.15
26 0.15
27 0.37
3 0.03
4 -0.73
5 -0.18
7 0.18
8 -0.15
9 -0.3

> <PUBCHEM_EFFECTIVE_ROTOR_COUNT>
5

> <PUBCHEM_PHARMACOPHORE_FEATURES>
7
1 1 acceptor
1 2 acceptor
1 3 cation
1 3 donor
1 4 donor
5 3 5 6 8 9 rings
6 6 8 11 12 13 14 rings

> <PUBCHEM_HEAVY_ATOM_COUNT>
17

> <PUBCHEM_ATOM_DEF_STEREO_COUNT>
0

> <PUBCHEM_ATOM_UDEF_STEREO_COUNT>
0

> <PUBCHEM_BOND_DEF_STEREO_COUNT>
0

> <PUBCHEM_BOND_UDEF_STEREO_COUNT>
0

> <PUBCHEM_ISOTOPIC_ATOM_COUNT>
0

> <PUBCHEM_COMPONENT_COUNT>
1

> <PUBCHEM_CACTVS_TAUTO_COUNT>
2

> <PUBCHEM_CONFORMER_ID>
0000038000000001

> <PUBCHEM_MMFF94_ENERGY>
32.7119

> <PUBCHEM_FEATURE_SELFOVERLAP>
35.612

> <PUBCHEM_SHAPE_FINGERPRINT>
10967382 1 18410853274190255273
11640471 11 17676780867509025316
13027679 85 18194690495324420133
13140716 1 17978229692519098697
13965767 371 16608554374032828400
1420 336 18266184924512803916
14787075 74 17896612875907719035
14790565 3 18341057316043312793
15006816 218 16754940689043299904
16945 1 18195239147136872059
19591789 44 18120376712306458779
19765921 60 17749382706469569763
20510252 161 18342458093286620745
21141583 151 18124894583888822372
21524375 3 17972887951224859043
2334 1 18410572855759727185
23419403 2 17326855944455494142
23557571 272 18201719608641642450
23559900 14 18342173410755765088
2748010 2 18337115553281152647
353137 74 18409164389875307419
44154327 71 18267028250037128041
526903 126 18410576235872810256
537710 114 18408601466050490037
7832392 63 17187566044572678455
9981440 41 18116712022929254594

> <PUBCHEM_SHAPE_MULTIPOLES>
328.15
4.94
3.77
0.97
2.92
1.2
-0.06
0.99
-1.27
-0.81
0.74
0.39
0.23
-0.66

> <PUBCHEM_SHAPE_SELFOVERLAP>
695.133

> <PUBCHEM_SHAPE_VOLUME>
185.3

> <PUBCHEM_COORDINATE_TYPE>
2
5
10

> <Energy>
0.232708

> <minimizedAffinity>
-6.19828

> <CNNscore>
0.3796009421

> <CNNaffinity>
6.1626148224

> <CNN_VS>
2.3393344879

> <CNNaffinity_variance>
0.2869122326

$$$$
896


 19 20  0  0  0  0  0  0  0  0999 V2000
   -7.0907   -5.6379   24.4921 N   0  0  0  0  0  0  0  0  0  0  0  0
   -5.5465   -4.6567   23.2152 C   0  0  0  0  0  0  0  0  0  0  0  0
   -6.6047   -3.7245   23.4640 C   0  0  0  0  0  0  0  0  0  0  0  0
   -7.5578   -4.3672   24.2504 C   0  0  0  0  0  0  0  0  0  0  0  0
   -5.8837   -5.8256   23.8697 C   0  0  0  0  0  0  0  0  0  0  0  0
   -6.8317   -2.3855   23.0792 C   0  0  0  0  0  0  0  0  0  0  0  0
   -8.7354   -3.7400   24.6688 C   0  0  0  0  0  0  0  0  0  0  0  0
   -8.0063   -1.7378   23.4747 C   0  0  0  0  0  0  0  0  0  0  0  0
   -8.9393   -2.4150   24.2602 C   0  0  0  0  0  0  0  0  0  0  0  0
   -7.5560   -6.3153   25.0340 H   0  0  0  0  0  0  0  0  0  0  0  0
   -8.3467   -0.4505   23.1532 O   0  0  0  0  0  0  0  0  0  0  0  0
   -8.6599   -0.1961   21.7882 C   0  0  0  0  0  0  0  0  0  0  0  0
   -4.3140   -4.3997   22.3991 C   0  0  0  0  0  0  0  0  0  0  0  0
   -4.4252   -4.9212   20.9620 C   0  0  0  0  0  0  0  0  0  0  0  0
   -1.6778   -4.2601   20.6582 O   0  0  0  0  0  0  0  0  0  0  0  0
   -3.8560   -4.0269   19.9670 N   0  0  0  0  0  0  0  0  0  0  0  0
   -2.5101   -3.7461   19.9205 C   0  0  0  0  0  0  0  0  0  0  0  0
   -2.1404   -2.7593   18.8463 C   0  0  0  0  0  0  0  0  0  0  0  0
   -4.4530   -3.6088   19.3051 H   0  0  0  0  0  0  0  0  0  0  0  0
 11  8  1  0
 11 12  1  0
 15 17  2  0
  1  4  1  0
  1  5  1  0
  1 10  1  0
 16 14  1  0
 16 17  1  0
 16 19  1  0
  2  3  1  0
  2 13  1  0
  2  5  2  0
  3  4  2  0
  3  6  1  0
 13 14  1  0
  4  7  1  0
  6  8  2  0
  7  9  2  0
  8  9  1  0
 17 18  1  0
M  END
> <PUBCHEM_COMPOUND_CID>
896

> <PUBCHEM_CONFORMER_RMSD>
0.6

> <PUBCHEM_CONFORMER_DIVERSEORDER>
1
13
50
55
28
16
42
48
27
15
62
60
65
61
36
4
20
58
41
17
59
21
2
63
47
57
40
56
22
64
54
37
51
7
31
53
26
8
49
39
32
11
5
33
38
52
23
45
43
12
14
9
34
44
35
10
25
29
46
6
30
24
3
19
18

> <PUBCHEM_MMFF94_PARTIAL_CHARGES>
22
1 -0.36
10 0.3
11 -0.15
12 -0.15
13 0.08
14 -0.15
15 0.57
16 0.06
17 0.28
2 -0.57
20 0.15
23 0.27
24 0.15
25 0.15
26 0.15
27 0.37
3 0.03
4 -0.73
5 -0.18
7 0.18
8 -0.15
9 -0.3

> <PUBCHEM_EFFECTIVE_ROTOR_COUNT>
5

> <PUBCHEM_PHARMACOPHORE_FEATURES>
7
1 1 acceptor
1 2 acceptor
1 3 cation
1 3 donor
1 4 donor
5 3 5 6 8 9 rings
6 6 8 11 12 13 14 rings

> <PUBCHEM_HEAVY_ATOM_COUNT>
17

> <PUBCHEM_ATOM_DEF_STEREO_COUNT>
0

> <PUBCHEM_ATOM_UDEF_STEREO_COUNT>
0

> <PUBCHEM_BOND_DEF_STEREO_COUNT>
0

> <PUBCHEM_BOND_UDEF_STEREO_COUNT>
0

> <PUBCHEM_ISOTOPIC_ATOM_COUNT>
0

> <PUBCHEM_COMPONENT_COUNT>
1

> <PUBCHEM_CACTVS_TAUTO_COUNT>
2

> <PUBCHEM_CONFORMER_ID>
0000038000000001

> <PUBCHEM_MMFF94_ENERGY>
32.7119

> <PUBCHEM_FEATURE_SELFOVERLAP>
35.612

> <PUBCHEM_SHAPE_FINGERPRINT>
10967382 1 18410853274190255273
11640471 11 17676780867509025316
13027679 85 18194690495324420133
13140716 1 17978229692519098697
13965767 371 16608554374032828400
1420 336 18266184924512803916
14787075 74 17896612875907719035
14790565 3 18341057316043312793
15006816 218 16754940689043299904
16945 1 18195239147136872059
19591789 44 18120376712306458779
19765921 60 17749382706469569763
20510252 161 18342458093286620745
21141583 151 18124894583888822372
21524375 3 17972887951224859043
2334 1 18410572855759727185
23419403 2 17326855944455494142
23557571 272 18201719608641642450
23559900 14 18342173410755765088
2748010 2 18337115553281152647
353137 74 18409164389875307419
44154327 71 18267028250037128041
526903 126 18410576235872810256
537710 114 18408601466050490037
7832392 63 17187566044572678455
9981440 41 18116712022929254594

> <PUBCHEM_SHAPE_MULTIPOLES>
328.15
4.94
3.77
0.97
2.92
1.2
-0.06
0.99
-1.27
-0.81
0.74
0.39
0.23
-0.66

> <PUBCHEM_SHAPE_SELFOVERLAP>
695.133

> <PUBCHEM_SHAPE_VOLUME>
185.3

> <PUBCHEM_COORDINATE_TYPE>
2
5
10

> <Energy>
0.232708

> <minimizedAffinity>
-6.37128

> <CNNscore>
0.3654224873

> <CNNaffinity>
6.4474678040

> <CNN_VS>
2.3560497761

> <CNNaffinity_variance>
0.3112359941

$$$$
896


 19 20  0  0  0  0  0  0  0  0999 V2000
   -4.6033   -4.7568   21.0157 N   0  0  0  0  0  0  0  0  0  0  0  0
   -3.2692   -3.7836   22.5159 C   0  0  0  0  0  0  0  0  0  0  0  0
   -4.4914   -3.0422   22.4305 C   0  0  0  0  0  0  0  0  0  0  0  0
   -5.2970   -3.6636   21.4794 C   0  0  0  0  0  0  0  0  0  0  0  0
   -3.3794   -4.8363   21.6281 C   0  0  0  0  0  0  0  0  0  0  0  0
   -4.9763   -1.8879   23.0826 C   0  0  0  0  0  0  0  0  0  0  0  0
   -6.5662   -3.1851   21.1395 C   0  0  0  0  0  0  0  0  0  0  0  0
   -6.2377   -1.3817   22.7539 C   0  0  0  0  0  0  0  0  0  0  0  0
   -7.0152   -2.0301   21.7940 C   0  0  0  0  0  0  0  0  0  0  0  0
   -4.9375   -5.3911   20.3410 H   0  0  0  0  0  0  0  0  0  0  0  0
   -6.8097   -0.2648   23.3031 O   0  0  0  0  0  0  0  0  0  0  0  0
   -8.2124   -0.3177   23.5393 C   0  0  0  0  0  0  0  0  0  0  0  0
   -2.1019   -3.4670   23.4038 C   0  0  0  0  0  0  0  0  0  0  0  0
   -1.1920   -2.3734   22.8330 C   0  0  0  0  0  0  0  0  0  0  0  0
    0.8638   -1.9578   20.9151 O   0  0  0  0  0  0  0  0  0  0  0  0
   -1.3718   -2.1441   21.4086 N   0  0  0  0  0  0  0  0  0  0  0  0
   -0.3093   -1.9223   20.5635 C   0  0  0  0  0  0  0  0  0  0  0  0
   -0.7203   -1.6582   19.1402 C   0  0  0  0  0  0  0  0  0  0  0  0
   -2.2835   -2.1476   21.0369 H   0  0  0  0  0  0  0  0  0  0  0  0
 11  8  1  0
 11 12  1  0
 15 17  2  0
  1  4  1  0
  1  5  1  0
  1 10  1  0
 16 14  1  0
 16 17  1  0
 16 19  1  0
  2  3  1  0
  2 13  1  0
  2  5  2  0
  3  4  2  0
  3  6  1  0
 13 14  1  0
  4  7  1  0
  6  8  2  0
  7  9  2  0
  8  9  1  0
 17 18  1  0
M  END
> <PUBCHEM_COMPOUND_CID>
896

> <PUBCHEM_CONFORMER_RMSD>
0.6

> <PUBCHEM_CONFORMER_DIVERSEORDER>
1
13
50
55
28
16
42
48
27
15
62
60
65
61
36
4
20
58
41
17
59
21
2
63
47
57
40
56
22
64
54
37
51
7
31
53
26
8
49
39
32
11
5
33
38
52
23
45
43
12
14
9
34
44
35
10
25
29
46
6
30
24
3
19
18

> <PUBCHEM_MMFF94_PARTIAL_CHARGES>
22
1 -0.36
10 0.3
11 -0.15
12 -0.15
13 0.08
14 -0.15
15 0.57
16 0.06
17 0.28
2 -0.57
20 0.15
23 0.27
24 0.15
25 0.15
26 0.15
27 0.37
3 0.03
4 -0.73
5 -0.18
7 0.18
8 -0.15
9 -0.3

> <PUBCHEM_EFFECTIVE_ROTOR_COUNT>
5

> <PUBCHEM_PHARMACOPHORE_FEATURES>
7
1 1 acceptor
1 2 acceptor
1 3 cation
1 3 donor
1 4 donor
5 3 5 6 8 9 rings
6 6 8 11 12 13 14 rings

> <PUBCHEM_HEAVY_ATOM_COUNT>
17

> <PUBCHEM_ATOM_DEF_STEREO_COUNT>
0

> <PUBCHEM_ATOM_UDEF_STEREO_COUNT>
0

> <PUBCHEM_BOND_DEF_STEREO_COUNT>
0

> <PUBCHEM_BOND_UDEF_STEREO_COUNT>
0

> <PUBCHEM_ISOTOPIC_ATOM_COUNT>
0

> <PUBCHEM_COMPONENT_COUNT>
1

> <PUBCHEM_CACTVS_TAUTO_COUNT>
2

> <PUBCHEM_CONFORMER_ID>
0000038000000001

> <PUBCHEM_MMFF94_ENERGY>
32.7119

> <PUBCHEM_FEATURE_SELFOVERLAP>
35.612

> <PUBCHEM_SHAPE_FINGERPRINT>
10967382 1 18410853274190255273
11640471 11 17676780867509025316
13027679 85 18194690495324420133
13140716 1 17978229692519098697
13965767 371 16608554374032828400
1420 336 18266184924512803916
14787075 74 17896612875907719035
14790565 3 18341057316043312793
15006816 218 16754940689043299904
16945 1 18195239147136872059
19591789 44 18120376712306458779
19765921 60 17749382706469569763
20510252 161 18342458093286620745
21141583 151 18124894583888822372
21524375 3 17972887951224859043
2334 1 18410572855759727185
23419403 2 17326855944455494142
23557571 272 18201719608641642450
23559900 14 18342173410755765088
2748010 2 18337115553281152647
353137 74 18409164389875307419
44154327 71 18267028250037128041
526903 126 18410576235872810256
537710 114 18408601466050490037
7832392 63 17187566044572678455
9981440 41 18116712022929254594

> <PUBCHEM_SHAPE_MULTIPOLES>
328.15
4.94
3.77
0.97
2.92
1.2
-0.06
0.99
-1.27
-0.81
0.74
0.39
0.23
-0.66

> <PUBCHEM_SHAPE_SELFOVERLAP>
695.133

> <PUBCHEM_SHAPE_VOLUME>
185.3

> <PUBCHEM_COORDINATE_TYPE>
2
5
10

> <Energy>
0.232708

> <minimizedAffinity>
-6.58132

> <CNNscore>
0.3591711223

> <CNNaffinity>
6.2168135643

> <CNN_VS>
2.2328999043

> <CNNaffinity_variance>
0.1511470079

$$$$
896


 19 20  0  0  0  0  0  0  0  0999 V2000
   -3.6398   -3.3959   23.7299 N   0  0  0  0  0  0  0  0  0  0  0  0
   -4.0421   -3.4896   21.5373 C   0  0  0  0  0  0  0  0  0  0  0  0
   -5.2134   -3.0066   22.2047 C   0  0  0  0  0  0  0  0  0  0  0  0
   -4.9380   -2.9713   23.5695 C   0  0  0  0  0  0  0  0  0  0  0  0
   -3.0921   -3.7158   22.5145 C   0  0  0  0  0  0  0  0  0  0  0  0
   -6.4895   -2.6008   21.7580 C   0  0  0  0  0  0  0  0  0  0  0  0
   -5.8787   -2.5555   24.5167 C   0  0  0  0  0  0  0  0  0  0  0  0
   -7.4529   -2.1907   22.6849 C   0  0  0  0  0  0  0  0  0  0  0  0
   -7.1410   -2.1710   24.0446 C   0  0  0  0  0  0  0  0  0  0  0  0
   -3.1712   -3.4608   24.5932 H   0  0  0  0  0  0  0  0  0  0  0  0
   -8.7264   -1.7904   22.3780 O   0  0  0  0  0  0  0  0  0  0  0  0
   -9.6847   -1.8526   23.4287 C   0  0  0  0  0  0  0  0  0  0  0  0
   -3.8895   -3.7035   20.0602 C   0  0  0  0  0  0  0  0  0  0  0  0
   -2.6923   -2.9539   19.4649 C   0  0  0  0  0  0  0  0  0  0  0  0
   -0.3547   -1.3851   19.0749 O   0  0  0  0  0  0  0  0  0  0  0  0
   -1.5494   -2.8679   20.3595 N   0  0  0  0  0  0  0  0  0  0  0  0
   -0.4467   -2.0996   20.0659 C   0  0  0  0  0  0  0  0  0  0  0  0
    0.6412   -2.1920   21.1014 C   0  0  0  0  0  0  0  0  0  0  0  0
   -1.5652   -3.3760   21.2027 H   0  0  0  0  0  0  0  0  0  0  0  0
 11  8  1  0
 11 12  1  0
 15 17  2  0
  1  4  1  0
  1  5  1  0
  1 10  1  0
 16 14  1  0
 16 17  1  0
 16 19  1  0
  2  3  1  0
  2 13  1  0
  2  5  2  0
  3  4  2  0
  3  6  1  0
 13 14  1  0
  4  7  1  0
  6  8  2  0
  7  9  2  0
  8  9  1  0
 17 18  1  0
M  END
> <PUBCHEM_COMPOUND_CID>
896

> <PUBCHEM_CONFORMER_RMSD>
0.6

> <PUBCHEM_CONFORMER_DIVERSEORDER>
1
13
50
55
28
16
42
48
27
15
62
60
65
61
36
4
20
58
41
17
59
21
2
63
47
57
40
56
22
64
54
37
51
7
31
53
26
8
49
39
32
11
5
33
38
52
23
45
43
12
14
9
34
44
35
10
25
29
46
6
30
24
3
19
18

> <PUBCHEM_MMFF94_PARTIAL_CHARGES>
22
1 -0.36
10 0.3
11 -0.15
12 -0.15
13 0.08
14 -0.15
15 0.57
16 0.06
17 0.28
2 -0.57
20 0.15
23 0.27
24 0.15
25 0.15
26 0.15
27 0.37
3 0.03
4 -0.73
5 -0.18
7 0.18
8 -0.15
9 -0.3

> <PUBCHEM_EFFECTIVE_ROTOR_COUNT>
5

> <PUBCHEM_PHARMACOPHORE_FEATURES>
7
1 1 acceptor
1 2 acceptor
1 3 cation
1 3 donor
1 4 donor
5 3 5 6 8 9 rings
6 6 8 11 12 13 14 rings

> <PUBCHEM_HEAVY_ATOM_COUNT>
17

> <PUBCHEM_ATOM_DEF_STEREO_COUNT>
0

> <PUBCHEM_ATOM_UDEF_STEREO_COUNT>
0

> <PUBCHEM_BOND_DEF_STEREO_COUNT>
0

> <PUBCHEM_BOND_UDEF_STEREO_COUNT>
0

> <PUBCHEM_ISOTOPIC_ATOM_COUNT>
0

> <PUBCHEM_COMPONENT_COUNT>
1

> <PUBCHEM_CACTVS_TAUTO_COUNT>
2

> <PUBCHEM_CONFORMER_ID>
0000038000000001

> <PUBCHEM_MMFF94_ENERGY>
32.7119

> <PUBCHEM_FEATURE_SELFOVERLAP>
35.612

> <PUBCHEM_SHAPE_FINGERPRINT>
10967382 1 18410853274190255273
11640471 11 17676780867509025316
13027679 85 18194690495324420133
13140716 1 17978229692519098697
13965767 371 16608554374032828400
1420 336 18266184924512803916
14787075 74 17896612875907719035
14790565 3 18341057316043312793
15006816 218 16754940689043299904
16945 1 18195239147136872059
19591789 44 18120376712306458779
19765921 60 17749382706469569763
20510252 161 18342458093286620745
21141583 151 18124894583888822372
21524375 3 17972887951224859043
2334 1 18410572855759727185
23419403 2 17326855944455494142
23557571 272 18201719608641642450
23559900 14 18342173410755765088
2748010 2 18337115553281152647
353137 74 18409164389875307419
44154327 71 18267028250037128041
526903 126 18410576235872810256
537710 114 18408601466050490037
7832392 63 17187566044572678455
9981440 41 18116712022929254594

> <PUBCHEM_SHAPE_MULTIPOLES>
328.15
4.94
3.77
0.97
2.92
1.2
-0.06
0.99
-1.27
-0.81
0.74
0.39
0.23
-0.66

> <PUBCHEM_SHAPE_SELFOVERLAP>
695.133

> <PUBCHEM_SHAPE_VOLUME>
185.3

> <PUBCHEM_COORDINATE_TYPE>
2
5
10

> <Energy>
0.232708

> <minimizedAffinity>
-6.04085

> <CNNscore>
0.3501053751

> <CNNaffinity>
6.4659495354

> <CNN_VS>
2.2637636662

> <CNNaffinity_variance>
0.5916072130

$$$$
896


 19 20  0  0  0  0  0  0  0  0999 V2000
   -5.1486   -1.3351   23.2491 N   0  0  0  0  0  0  0  0  0  0  0  0
   -3.2745   -2.5339   23.0799 C   0  0  0  0  0  0  0  0  0  0  0  0
   -4.2878   -3.1382   22.2682 C   0  0  0  0  0  0  0  0  0  0  0  0
   -5.4469   -2.3780   22.4036 C   0  0  0  0  0  0  0  0  0  0  0  0
   -3.8458   -1.4214   23.6669 C   0  0  0  0  0  0  0  0  0  0  0  0
   -4.3143   -4.2751   21.4319 C   0  0  0  0  0  0  0  0  0  0  0  0
   -6.6394   -2.7004   21.7484 C   0  0  0  0  0  0  0  0  0  0  0  0
   -5.4968   -4.6265   20.7733 C   0  0  0  0  0  0  0  0  0  0  0  0
   -6.6389   -3.8419   20.9354 C   0  0  0  0  0  0  0  0  0  0  0  0
   -5.7798   -0.6284   23.5160 H   0  0  0  0  0  0  0  0  0  0  0  0
   -5.6521   -5.7108   19.9508 O   0  0  0  0  0  0  0  0  0  0  0  0
   -5.4602   -6.9916   20.5416 C   0  0  0  0  0  0  0  0  0  0  0  0
   -1.8671   -3.0248   23.2503 C   0  0  0  0  0  0  0  0  0  0  0  0
   -0.8702   -2.3269   22.3182 C   0  0  0  0  0  0  0  0  0  0  0  0
   -0.7863   -4.3389   20.3125 O   0  0  0  0  0  0  0  0  0  0  0  0
   -1.3373   -2.2011   20.9471 N   0  0  0  0  0  0  0  0  0  0  0  0
   -1.2247   -3.2280   20.0387 C   0  0  0  0  0  0  0  0  0  0  0  0
   -1.7239   -2.8706   18.6649 C   0  0  0  0  0  0  0  0  0  0  0  0
   -1.7473   -1.3535   20.6594 H   0  0  0  0  0  0  0  0  0  0  0  0
 11  8  1  0
 11 12  1  0
 15 17  2  0
  1  4  1  0
  1  5  1  0
  1 10  1  0
 16 14  1  0
 16 17  1  0
 16 19  1  0
  2  3  1  0
  2 13  1  0
  2  5  2  0
  3  4  2  0
  3  6  1  0
 13 14  1  0
  4  7  1  0
  6  8  2  0
  7  9  2  0
  8  9  1  0
 17 18  1  0
M  END
> <PUBCHEM_COMPOUND_CID>
896

> <PUBCHEM_CONFORMER_RMSD>
0.6

> <PUBCHEM_CONFORMER_DIVERSEORDER>
1
13
50
55
28
16
42
48
27
15
62
60
65
61
36
4
20
58
41
17
59
21
2
63
47
57
40
56
22
64
54
37
51
7
31
53
26
8
49
39
32
11
5
33
38
52
23
45
43
12
14
9
34
44
35
10
25
29
46
6
30
24
3
19
18

> <PUBCHEM_MMFF94_PARTIAL_CHARGES>
22
1 -0.36
10 0.3
11 -0.15
12 -0.15
13 0.08
14 -0.15
15 0.57
16 0.06
17 0.28
2 -0.57
20 0.15
23 0.27
24 0.15
25 0.15
26 0.15
27 0.37
3 0.03
4 -0.73
5 -0.18
7 0.18
8 -0.15
9 -0.3

> <PUBCHEM_EFFECTIVE_ROTOR_COUNT>
5

> <PUBCHEM_PHARMACOPHORE_FEATURES>
7
1 1 acceptor
1 2 acceptor
1 3 cation
1 3 donor
1 4 donor
5 3 5 6 8 9 rings
6 6 8 11 12 13 14 rings

> <PUBCHEM_HEAVY_ATOM_COUNT>
17

> <PUBCHEM_ATOM_DEF_STEREO_COUNT>
0

> <PUBCHEM_ATOM_UDEF_STEREO_COUNT>
0

> <PUBCHEM_BOND_DEF_STEREO_COUNT>
0

> <PUBCHEM_BOND_UDEF_STEREO_COUNT>
0

> <PUBCHEM_ISOTOPIC_ATOM_COUNT>
0

> <PUBCHEM_COMPONENT_COUNT>
1

> <PUBCHEM_CACTVS_TAUTO_COUNT>
2

> <PUBCHEM_CONFORMER_ID>
0000038000000001

> <PUBCHEM_MMFF94_ENERGY>
32.7119

> <PUBCHEM_FEATURE_SELFOVERLAP>
35.612

> <PUBCHEM_SHAPE_FINGERPRINT>
10967382 1 18410853274190255273
11640471 11 17676780867509025316
13027679 85 18194690495324420133
13140716 1 17978229692519098697
13965767 371 16608554374032828400
1420 336 18266184924512803916
14787075 74 17896612875907719035
14790565 3 18341057316043312793
15006816 218 16754940689043299904
16945 1 18195239147136872059
19591789 44 18120376712306458779
19765921 60 17749382706469569763
20510252 161 18342458093286620745
21141583 151 18124894583888822372
21524375 3 17972887951224859043
2334 1 18410572855759727185
23419403 2 17326855944455494142
23557571 272 18201719608641642450
23559900 14 18342173410755765088
2748010 2 18337115553281152647
353137 74 18409164389875307419
44154327 71 18267028250037128041
526903 126 18410576235872810256
537710 114 18408601466050490037
7832392 63 17187566044572678455
9981440 41 18116712022929254594

> <PUBCHEM_SHAPE_MULTIPOLES>
328.15
4.94
3.77
0.97
2.92
1.2
-0.06
0.99
-1.27
-0.81
0.74
0.39
0.23
-0.66

> <PUBCHEM_SHAPE_SELFOVERLAP>
695.133

> <PUBCHEM_SHAPE_VOLUME>
185.3

> <PUBCHEM_COORDINATE_TYPE>
2
5
10

> <Energy>
0.232708

> <minimizedAffinity>
-6.67677

> <CNNscore>
0.3331875205

> <CNNaffinity>
6.1544017792

> <CNN_VS>
2.0505697727

> <CNNaffinity_variance>
0.3201745749

$$$$
896


 19 20  0  0  0  0  0  0  0  0999 V2000
   -5.6837   -5.6286   21.9046 N   0  0  0  0  0  0  0  0  0  0  0  0
   -4.3299   -4.0999   22.8036 C   0  0  0  0  0  0  0  0  0  0  0  0
   -5.6885   -3.7220   23.0531 C   0  0  0  0  0  0  0  0  0  0  0  0
   -6.5088   -4.6851   22.4706 C   0  0  0  0  0  0  0  0  0  0  0  0
   -4.3703   -5.2843   22.0938 C   0  0  0  0  0  0  0  0  0  0  0  0
   -6.2879   -2.6342   23.7241 C   0  0  0  0  0  0  0  0  0  0  0  0
   -7.9045   -4.6138   22.5184 C   0  0  0  0  0  0  0  0  0  0  0  0
   -7.6816   -2.5326   23.7774 C   0  0  0  0  0  0  0  0  0  0  0  0
   -8.4707   -3.5157   23.1799 C   0  0  0  0  0  0  0  0  0  0  0  0
   -5.9918   -6.4351   21.4316 H   0  0  0  0  0  0  0  0  0  0  0  0
   -8.3785   -1.5206   24.3827 O   0  0  0  0  0  0  0  0  0  0  0  0
   -8.4858   -0.2993   23.6595 C   0  0  0  0  0  0  0  0  0  0  0  0
   -3.1075   -3.3453   23.2363 C   0  0  0  0  0  0  0  0  0  0  0  0
   -2.7235   -2.2188   22.2703 C   0  0  0  0  0  0  0  0  0  0  0  0
   -3.6645   -2.7981   19.6518 O   0  0  0  0  0  0  0  0  0  0  0  0
   -1.9212   -2.6612   21.1413 N   0  0  0  0  0  0  0  0  0  0  0  0
   -2.4773   -2.9464   19.9158 C   0  0  0  0  0  0  0  0  0  0  0  0
   -1.4774   -3.4352   18.9030 C   0  0  0  0  0  0  0  0  0  0  0  0
   -0.9486   -2.7599   21.2577 H   0  0  0  0  0  0  0  0  0  0  0  0
 11  8  1  0
 11 12  1  0
 15 17  2  0
  1  4  1  0
  1  5  1  0
  1 10  1  0
 16 14  1  0
 16 17  1  0
 16 19  1  0
  2  3  1  0
  2 13  1  0
  2  5  2  0
  3  4  2  0
  3  6  1  0
 13 14  1  0
  4  7  1  0
  6  8  2  0
  7  9  2  0
  8  9  1  0
 17 18  1  0
M  END
> <PUBCHEM_COMPOUND_CID>
896

> <PUBCHEM_CONFORMER_RMSD>
0.6

> <PUBCHEM_CONFORMER_DIVERSEORDER>
1
13
50
55
28
16
42
48
27
15
62
60
65
61
36
4
20
58
41
17
59
21
2
63
47
57
40
56
22
64
54
37
51
7
31
53
26
8
49
39
32
11
5
33
38
52
23
45
43
12
14
9
34
44
35
10
25
29
46
6
30
24
3
19
18

> <PUBCHEM_MMFF94_PARTIAL_CHARGES>
22
1 -0.36
10 0.3
11 -0.15
12 -0.15
13 0.08
14 -0.15
15 0.57
16 0.06
17 0.28
2 -0.57
20 0.15
23 0.27
24 0.15
25 0.15
26 0.15
27 0.37
3 0.03
4 -0.73
5 -0.18
7 0.18
8 -0.15
9 -0.3

> <PUBCHEM_EFFECTIVE_ROTOR_COUNT>
5

> <PUBCHEM_PHARMACOPHORE_FEATURES>
7
1 1 acceptor
1 2 acceptor
1 3 cation
1 3 donor
1 4 donor
5 3 5 6 8 9 rings
6 6 8 11 12 13 14 rings

> <PUBCHEM_HEAVY_ATOM_COUNT>
17

> <PUBCHEM_ATOM_DEF_STEREO_COUNT>
0

> <PUBCHEM_ATOM_UDEF_STEREO_COUNT>
0

> <PUBCHEM_BOND_DEF_STEREO_COUNT>
0

> <PUBCHEM_BOND_UDEF_STEREO_COUNT>
0

> <PUBCHEM_ISOTOPIC_ATOM_COUNT>
0

> <PUBCHEM_COMPONENT_COUNT>
1

> <PUBCHEM_CACTVS_TAUTO_COUNT>
2

> <PUBCHEM_CONFORMER_ID>
0000038000000001

> <PUBCHEM_MMFF94_ENERGY>
32.7119

> <PUBCHEM_FEATURE_SELFOVERLAP>
35.612

> <PUBCHEM_SHAPE_FINGERPRINT>
10967382 1 18410853274190255273
11640471 11 17676780867509025316
13027679 85 18194690495324420133
13140716 1 17978229692519098697
13965767 371 16608554374032828400
1420 336 18266184924512803916
14787075 74 17896612875907719035
14790565 3 18341057316043312793
15006816 218 16754940689043299904
16945 1 18195239147136872059
19591789 44 18120376712306458779
19765921 60 17749382706469569763
20510252 161 18342458093286620745
21141583 151 18124894583888822372
21524375 3 17972887951224859043
2334 1 18410572855759727185
23419403 2 17326855944455494142
23557571 272 18201719608641642450
23559900 14 18342173410755765088
2748010 2 18337115553281152647
353137 74 18409164389875307419
44154327 71 18267028250037128041
526903 126 18410576235872810256
537710 114 18408601466050490037
7832392 63 17187566044572678455
9981440 41 18116712022929254594

> <PUBCHEM_SHAPE_MULTIPOLES>
328.15
4.94
3.77
0.97
2.92
1.2
-0.06
0.99
-1.27
-0.81
0.74
0.39
0.23
-0.66

> <PUBCHEM_SHAPE_SELFOVERLAP>
695.133

> <PUBCHEM_SHAPE_VOLUME>
185.3

> <PUBCHEM_COORDINATE_TYPE>
2
5
10

> <Energy>
0.232708

> <minimizedAffinity>
-5.96141

> <CNNscore>
0.3154468834

> <CNNaffinity>
6.2095761299

> <CNN_VS>
1.9587914944

> <CNNaffinity_variance>
0.2167196274

$$$$
