7184


 15 15  0  0  0  0  0  0  0  0999 V2000
    4.9167   49.8572  129.1790 O   0  0  0  0  0  0  0  0  0  0  0  0
    8.4451   48.0714  130.4019 C   0  0  0  0  0  0  0  0  0  0  0  0
    8.2822   49.4563  130.5285 C   0  0  0  0  0  0  0  0  0  0  0  0
    7.4259   47.2891  129.8513 C   0  0  0  0  0  0  0  0  0  0  0  0
    7.0876   50.0517  130.1172 C   0  0  0  0  0  0  0  0  0  0  0  0
    6.2384   47.8848  129.4420 C   0  0  0  0  0  0  0  0  0  0  0  0
    6.0735   49.2640  129.5782 C   0  0  0  0  0  0  0  0  0  0  0  0
    4.8089   50.7834  129.2716 H   0  0  0  0  0  0  0  0  0  0  0  0
   10.1650   46.4309  130.3241 O   0  0  0  0  0  0  0  0  0  0  0  0
    9.7123   47.4464  130.8270 C   0  0  0  0  0  0  0  0  0  0  0  0
   10.2743   48.1862  131.8168 O   0  0  0  0  0  0  0  0  0  0  0  0
    9.6787   48.0159  133.1082 C   0  0  0  0  0  0  0  0  0  0  0  0
   10.5089   46.9997  133.8882 C   0  0  0  0  0  0  0  0  0  0  0  0
    9.6245   45.9527  134.5606 C   0  0  0  0  0  0  0  0  0  0  0  0
    8.2918   45.8049  133.8443 C   0  0  0  0  0  0  0  0  0  0  0  0
 11 12  1  0
 11 10  1  0
  9 10  2  0
  1  7  1  0
  1  8  1  0
 13 14  1  0
 13 12  1  0
 14 15  1  0
  2 10  1  0
  2  3  2  0
  2  4  1  0
  3  5  1  0
  4  6  2  0
  5  7  2  0
  6  7  1  0
M  END
> <PUBCHEM_COMPOUND_CID>
7184

> <PUBCHEM_CONFORMER_RMSD>
0.6

> <PUBCHEM_CONFORMER_DIVERSEORDER>
1
44
15
20
41
3
43
64
40
47
74
50
4
6
22
69
55
77
16
75
28
26
73
53
11
32
49
58
67
63
62
24
65
27
19
38
12
48
76
25
57
10
31
17
42
34
68
51
9
23
8
14
21
33
18
30
5
66
70
2
56
45
39
37
46
35
60
36
52
59
54
29
71
72
61
13
7

> <PUBCHEM_MMFF94_PARTIAL_CHARGES>
16
1 -0.43
10 -0.15
11 -0.15
12 -0.15
13 -0.15
14 0.08
2 -0.57
24 0.15
25 0.15
26 0.15
27 0.15
28 0.45
3 -0.53
6 0.28
8 0.09
9 0.63

> <PUBCHEM_EFFECTIVE_ROTOR_COUNT>
5

> <PUBCHEM_PHARMACOPHORE_FEATURES>
4
1 2 acceptor
1 3 donor
1 7 hydrophobe
6 8 10 11 12 13 14 rings

> <PUBCHEM_HEAVY_ATOM_COUNT>
14

> <PUBCHEM_ATOM_DEF_STEREO_COUNT>
0

> <PUBCHEM_ATOM_UDEF_STEREO_COUNT>
0

> <PUBCHEM_BOND_DEF_STEREO_COUNT>
0

> <PUBCHEM_BOND_UDEF_STEREO_COUNT>
0

> <PUBCHEM_ISOTOPIC_ATOM_COUNT>
0

> <PUBCHEM_COMPONENT_COUNT>
1

> <PUBCHEM_CACTVS_TAUTO_COUNT>
3

> <PUBCHEM_CONFORMER_ID>
00001C1000000001

> <PUBCHEM_MMFF94_ENERGY>
26.8162

> <PUBCHEM_FEATURE_SELFOVERLAP>
20.297

> <PUBCHEM_SHAPE_FINGERPRINT>
100836 57 10159698014692119138
10465860 250 17561082501386551480
10968037 39 18334860532716625766
11046707 91 18409446968869733128
12032990 46 18409167722807014732
12251169 10 18060418027818494140
13167823 11 18408602527187214402
13288520 33 18409730651148371639
13551218 46 18270963440792261598
13690532 89 18409730694483049495
13862211 1 18342737464162399199
14252887 29 17989215824084205230
17804303 29 18273497883401759577
17834072 33 18410577323021717172
1813 80 17968106291699631366
18186145 218 14923950067535008876
200 152 17530965761531918920
20281475 54 18337672035103360796
20767249 213 10735876175026745610
20828058 44 18273214175553485034
21267235 1 18410019844213228018
22485316 2 18408601440280660184
2297311 6 18130235869953600908
23402539 116 17846774109970031213
23463225 33 18411140233692529510
23559900 14 18270389602695558633
351380 180 10665231458300457486
351380 3 18259982652836299658
42 15 18342740719346176002
4214541 1 18340769252190604880
5104073 3 18271533095046590721
559249 180 18335415712557464698
7364860 26 18126566957732624024
83771 10 18407476665592062532

> <PUBCHEM_SHAPE_MULTIPOLES>
270.51
10.85
1.64
0.68
12.98
0.32
0
-5.61
1.62
-0.51
-0.11
-0.08
0
-0.42

> <PUBCHEM_SHAPE_SELFOVERLAP>
550.017

> <PUBCHEM_SHAPE_VOLUME>
158.1

> <PUBCHEM_COORDINATE_TYPE>
2
5
10

> <Energy>
17.0404

> <minimizedAffinity>
-5.94438

> <CNNscore>
0.8966627717

> <CNNaffinity>
5.4009766579

> <CNN_VS>
4.8428544998

> <CNNaffinity_variance>
0.1395249516

$$$$
7184


 15 15  0  0  0  0  0  0  0  0999 V2000
    6.8792   51.2382  128.8985 O   0  0  0  0  0  0  0  0  0  0  0  0
    8.5535   47.7201  130.2962 C   0  0  0  0  0  0  0  0  0  0  0  0
    7.8387   47.7239  129.0922 C   0  0  0  0  0  0  0  0  0  0  0  0
    8.6934   48.8973  131.0368 C   0  0  0  0  0  0  0  0  0  0  0  0
    7.2796   48.9154  128.6247 C   0  0  0  0  0  0  0  0  0  0  0  0
    8.1349   50.0813  130.5692 C   0  0  0  0  0  0  0  0  0  0  0  0
    7.4314   50.0858  129.3638 C   0  0  0  0  0  0  0  0  0  0  0  0
    6.4073   51.2381  128.0889 H   0  0  0  0  0  0  0  0  0  0  0  0
    8.6248   45.3639  130.6104 O   0  0  0  0  0  0  0  0  0  0  0  0
    9.1338   46.4578  130.7933 C   0  0  0  0  0  0  0  0  0  0  0  0
   10.2992   46.7166  131.4394 O   0  0  0  0  0  0  0  0  0  0  0  0
   10.4936   45.9769  132.6505 C   0  0  0  0  0  0  0  0  0  0  0  0
   10.3890   46.9458  133.8254 C   0  0  0  0  0  0  0  0  0  0  0  0
    8.9772   46.9718  134.4055 C   0  0  0  0  0  0  0  0  0  0  0  0
    8.2537   45.6555  134.1716 C   0  0  0  0  0  0  0  0  0  0  0  0
 11 12  1  0
 11 10  1  0
  9 10  2  0
  1  7  1  0
  1  8  1  0
 13 14  1  0
 13 12  1  0
 14 15  1  0
  2 10  1  0
  2  3  2  0
  2  4  1  0
  3  5  1  0
  4  6  2  0
  5  7  2  0
  6  7  1  0
M  END
> <PUBCHEM_COMPOUND_CID>
7184

> <PUBCHEM_CONFORMER_RMSD>
0.6

> <PUBCHEM_CONFORMER_DIVERSEORDER>
1
44
15
20
41
3
43
64
40
47
74
50
4
6
22
69
55
77
16
75
28
26
73
53
11
32
49
58
67
63
62
24
65
27
19
38
12
48
76
25
57
10
31
17
42
34
68
51
9
23
8
14
21
33
18
30
5
66
70
2
56
45
39
37
46
35
60
36
52
59
54
29
71
72
61
13
7

> <PUBCHEM_MMFF94_PARTIAL_CHARGES>
16
1 -0.43
10 -0.15
11 -0.15
12 -0.15
13 -0.15
14 0.08
2 -0.57
24 0.15
25 0.15
26 0.15
27 0.15
28 0.45
3 -0.53
6 0.28
8 0.09
9 0.63

> <PUBCHEM_EFFECTIVE_ROTOR_COUNT>
5

> <PUBCHEM_PHARMACOPHORE_FEATURES>
4
1 2 acceptor
1 3 donor
1 7 hydrophobe
6 8 10 11 12 13 14 rings

> <PUBCHEM_HEAVY_ATOM_COUNT>
14

> <PUBCHEM_ATOM_DEF_STEREO_COUNT>
0

> <PUBCHEM_ATOM_UDEF_STEREO_COUNT>
0

> <PUBCHEM_BOND_DEF_STEREO_COUNT>
0

> <PUBCHEM_BOND_UDEF_STEREO_COUNT>
0

> <PUBCHEM_ISOTOPIC_ATOM_COUNT>
0

> <PUBCHEM_COMPONENT_COUNT>
1

> <PUBCHEM_CACTVS_TAUTO_COUNT>
3

> <PUBCHEM_CONFORMER_ID>
00001C1000000001

> <PUBCHEM_MMFF94_ENERGY>
26.8162

> <PUBCHEM_FEATURE_SELFOVERLAP>
20.297

> <PUBCHEM_SHAPE_FINGERPRINT>
100836 57 10159698014692119138
10465860 250 17561082501386551480
10968037 39 18334860532716625766
11046707 91 18409446968869733128
12032990 46 18409167722807014732
12251169 10 18060418027818494140
13167823 11 18408602527187214402
13288520 33 18409730651148371639
13551218 46 18270963440792261598
13690532 89 18409730694483049495
13862211 1 18342737464162399199
14252887 29 17989215824084205230
17804303 29 18273497883401759577
17834072 33 18410577323021717172
1813 80 17968106291699631366
18186145 218 14923950067535008876
200 152 17530965761531918920
20281475 54 18337672035103360796
20767249 213 10735876175026745610
20828058 44 18273214175553485034
21267235 1 18410019844213228018
22485316 2 18408601440280660184
2297311 6 18130235869953600908
23402539 116 17846774109970031213
23463225 33 18411140233692529510
23559900 14 18270389602695558633
351380 180 10665231458300457486
351380 3 18259982652836299658
42 15 18342740719346176002
4214541 1 18340769252190604880
5104073 3 18271533095046590721
559249 180 18335415712557464698
7364860 26 18126566957732624024
83771 10 18407476665592062532

> <PUBCHEM_SHAPE_MULTIPOLES>
270.51
10.85
1.64
0.68
12.98
0.32
0
-5.61
1.62
-0.51
-0.11
-0.08
0
-0.42

> <PUBCHEM_SHAPE_SELFOVERLAP>
550.017

> <PUBCHEM_SHAPE_VOLUME>
158.1

> <PUBCHEM_COORDINATE_TYPE>
2
5
10

> <Energy>
17.0404

> <minimizedAffinity>
-6.41285

> <CNNscore>
0.8857159615

> <CNNaffinity>
5.9604754448

> <CNN_VS>
5.2792882919

> <CNNaffinity_variance>
0.2568856478

$$$$
7184


 15 15  0  0  0  0  0  0  0  0999 V2000
    7.0949   50.9005  128.9710 O   0  0  0  0  0  0  0  0  0  0  0  0
    8.5264   47.1701  130.0525 C   0  0  0  0  0  0  0  0  0  0  0  0
    9.1669   48.3258  130.5159 C   0  0  0  0  0  0  0  0  0  0  0  0
    7.4124   47.2695  129.2141 C   0  0  0  0  0  0  0  0  0  0  0  0
    8.6762   49.5812  130.1500 C   0  0  0  0  0  0  0  0  0  0  0  0
    6.9270   48.5205  128.8510 C   0  0  0  0  0  0  0  0  0  0  0  0
    7.5602   49.6717  129.3220 C   0  0  0  0  0  0  0  0  0  0  0  0
    7.5221   51.6715  129.2887 H   0  0  0  0  0  0  0  0  0  0  0  0
    8.3485   44.8652  130.6103 O   0  0  0  0  0  0  0  0  0  0  0  0
    9.0535   45.8451  130.4316 C   0  0  0  0  0  0  0  0  0  0  0  0
   10.4071   45.9015  130.5160 O   0  0  0  0  0  0  0  0  0  0  0  0
   11.0979   44.8565  129.8214 C   0  0  0  0  0  0  0  0  0  0  0  0
   12.3519   44.5010  130.6160 C   0  0  0  0  0  0  0  0  0  0  0  0
   12.3520   45.1675  131.9893 C   0  0  0  0  0  0  0  0  0  0  0  0
   12.2603   44.1416  133.1074 C   0  0  0  0  0  0  0  0  0  0  0  0
 11 12  1  0
 11 10  1  0
  9 10  2  0
  1  7  1  0
  1  8  1  0
 13 14  1  0
 13 12  1  0
 14 15  1  0
  2 10  1  0
  2  3  2  0
  2  4  1  0
  3  5  1  0
  4  6  2  0
  5  7  2  0
  6  7  1  0
M  END
> <PUBCHEM_COMPOUND_CID>
7184

> <PUBCHEM_CONFORMER_RMSD>
0.6

> <PUBCHEM_CONFORMER_DIVERSEORDER>
1
44
15
20
41
3
43
64
40
47
74
50
4
6
22
69
55
77
16
75
28
26
73
53
11
32
49
58
67
63
62
24
65
27
19
38
12
48
76
25
57
10
31
17
42
34
68
51
9
23
8
14
21
33
18
30
5
66
70
2
56
45
39
37
46
35
60
36
52
59
54
29
71
72
61
13
7

> <PUBCHEM_MMFF94_PARTIAL_CHARGES>
16
1 -0.43
10 -0.15
11 -0.15
12 -0.15
13 -0.15
14 0.08
2 -0.57
24 0.15
25 0.15
26 0.15
27 0.15
28 0.45
3 -0.53
6 0.28
8 0.09
9 0.63

> <PUBCHEM_EFFECTIVE_ROTOR_COUNT>
5

> <PUBCHEM_PHARMACOPHORE_FEATURES>
4
1 2 acceptor
1 3 donor
1 7 hydrophobe
6 8 10 11 12 13 14 rings

> <PUBCHEM_HEAVY_ATOM_COUNT>
14

> <PUBCHEM_ATOM_DEF_STEREO_COUNT>
0

> <PUBCHEM_ATOM_UDEF_STEREO_COUNT>
0

> <PUBCHEM_BOND_DEF_STEREO_COUNT>
0

> <PUBCHEM_BOND_UDEF_STEREO_COUNT>
0

> <PUBCHEM_ISOTOPIC_ATOM_COUNT>
0

> <PUBCHEM_COMPONENT_COUNT>
1

> <PUBCHEM_CACTVS_TAUTO_COUNT>
3

> <PUBCHEM_CONFORMER_ID>
00001C1000000001

> <PUBCHEM_MMFF94_ENERGY>
26.8162

> <PUBCHEM_FEATURE_SELFOVERLAP>
20.297

> <PUBCHEM_SHAPE_FINGERPRINT>
100836 57 10159698014692119138
10465860 250 17561082501386551480
10968037 39 18334860532716625766
11046707 91 18409446968869733128
12032990 46 18409167722807014732
12251169 10 18060418027818494140
13167823 11 18408602527187214402
13288520 33 18409730651148371639
13551218 46 18270963440792261598
13690532 89 18409730694483049495
13862211 1 18342737464162399199
14252887 29 17989215824084205230
17804303 29 18273497883401759577
17834072 33 18410577323021717172
1813 80 17968106291699631366
18186145 218 14923950067535008876
200 152 17530965761531918920
20281475 54 18337672035103360796
20767249 213 10735876175026745610
20828058 44 18273214175553485034
21267235 1 18410019844213228018
22485316 2 18408601440280660184
2297311 6 18130235869953600908
23402539 116 17846774109970031213
23463225 33 18411140233692529510
23559900 14 18270389602695558633
351380 180 10665231458300457486
351380 3 18259982652836299658
42 15 18342740719346176002
4214541 1 18340769252190604880
5104073 3 18271533095046590721
559249 180 18335415712557464698
7364860 26 18126566957732624024
83771 10 18407476665592062532

> <PUBCHEM_SHAPE_MULTIPOLES>
270.51
10.85
1.64
0.68
12.98
0.32
0
-5.61
1.62
-0.51
-0.11
-0.08
0
-0.42

> <PUBCHEM_SHAPE_SELFOVERLAP>
550.017

> <PUBCHEM_SHAPE_VOLUME>
158.1

> <PUBCHEM_COORDINATE_TYPE>
2
5
10

> <Energy>
17.0404

> <minimizedAffinity>
-6.26585

> <CNNscore>
0.8649352789

> <CNNaffinity>
5.9135422707

> <CNN_VS>
5.1148314476

> <CNNaffinity_variance>
0.8302699924

$$$$
7184


 15 15  0  0  0  0  0  0  0  0999 V2000
    7.0308   51.0690  128.8184 O   0  0  0  0  0  0  0  0  0  0  0  0
    8.4909   47.6268  130.5943 C   0  0  0  0  0  0  0  0  0  0  0  0
    8.5454   48.8452  131.2821 C   0  0  0  0  0  0  0  0  0  0  0  0
    7.9575   47.5690  129.3036 C   0  0  0  0  0  0  0  0  0  0  0  0
    8.0475   50.0020  130.6782 C   0  0  0  0  0  0  0  0  0  0  0  0
    7.4636   48.7224  128.7049 C   0  0  0  0  0  0  0  0  0  0  0  0
    7.5092   49.9343  129.3957 C   0  0  0  0  0  0  0  0  0  0  0  0
    7.0628   51.8811  129.2846 H   0  0  0  0  0  0  0  0  0  0  0  0
   10.0135   46.4016  131.9494 O   0  0  0  0  0  0  0  0  0  0  0  0
    9.0276   46.4083  131.2302 C   0  0  0  0  0  0  0  0  0  0  0  0
    8.2465   45.3458  130.9083 O   0  0  0  0  0  0  0  0  0  0  0  0
    8.9626   44.1505  130.5764 C   0  0  0  0  0  0  0  0  0  0  0  0
    8.9086   43.9647  129.0622 C   0  0  0  0  0  0  0  0  0  0  0  0
   10.3079   43.9188  128.4538 C   0  0  0  0  0  0  0  0  0  0  0  0
   11.3797   44.1818  129.4992 C   0  0  0  0  0  0  0  0  0  0  0  0
 11 12  1  0
 11 10  1  0
  9 10  2  0
  1  7  1  0
  1  8  1  0
 13 14  1  0
 13 12  1  0
 14 15  1  0
  2 10  1  0
  2  3  2  0
  2  4  1  0
  3  5  1  0
  4  6  2  0
  5  7  2  0
  6  7  1  0
M  END
> <PUBCHEM_COMPOUND_CID>
7184

> <PUBCHEM_CONFORMER_RMSD>
0.6

> <PUBCHEM_CONFORMER_DIVERSEORDER>
1
44
15
20
41
3
43
64
40
47
74
50
4
6
22
69
55
77
16
75
28
26
73
53
11
32
49
58
67
63
62
24
65
27
19
38
12
48
76
25
57
10
31
17
42
34
68
51
9
23
8
14
21
33
18
30
5
66
70
2
56
45
39
37
46
35
60
36
52
59
54
29
71
72
61
13
7

> <PUBCHEM_MMFF94_PARTIAL_CHARGES>
16
1 -0.43
10 -0.15
11 -0.15
12 -0.15
13 -0.15
14 0.08
2 -0.57
24 0.15
25 0.15
26 0.15
27 0.15
28 0.45
3 -0.53
6 0.28
8 0.09
9 0.63

> <PUBCHEM_EFFECTIVE_ROTOR_COUNT>
5

> <PUBCHEM_PHARMACOPHORE_FEATURES>
4
1 2 acceptor
1 3 donor
1 7 hydrophobe
6 8 10 11 12 13 14 rings

> <PUBCHEM_HEAVY_ATOM_COUNT>
14

> <PUBCHEM_ATOM_DEF_STEREO_COUNT>
0

> <PUBCHEM_ATOM_UDEF_STEREO_COUNT>
0

> <PUBCHEM_BOND_DEF_STEREO_COUNT>
0

> <PUBCHEM_BOND_UDEF_STEREO_COUNT>
0

> <PUBCHEM_ISOTOPIC_ATOM_COUNT>
0

> <PUBCHEM_COMPONENT_COUNT>
1

> <PUBCHEM_CACTVS_TAUTO_COUNT>
3

> <PUBCHEM_CONFORMER_ID>
00001C1000000001

> <PUBCHEM_MMFF94_ENERGY>
26.8162

> <PUBCHEM_FEATURE_SELFOVERLAP>
20.297

> <PUBCHEM_SHAPE_FINGERPRINT>
100836 57 10159698014692119138
10465860 250 17561082501386551480
10968037 39 18334860532716625766
11046707 91 18409446968869733128
12032990 46 18409167722807014732
12251169 10 18060418027818494140
13167823 11 18408602527187214402
13288520 33 18409730651148371639
13551218 46 18270963440792261598
13690532 89 18409730694483049495
13862211 1 18342737464162399199
14252887 29 17989215824084205230
17804303 29 18273497883401759577
17834072 33 18410577323021717172
1813 80 17968106291699631366
18186145 218 14923950067535008876
200 152 17530965761531918920
20281475 54 18337672035103360796
20767249 213 10735876175026745610
20828058 44 18273214175553485034
21267235 1 18410019844213228018
22485316 2 18408601440280660184
2297311 6 18130235869953600908
23402539 116 17846774109970031213
23463225 33 18411140233692529510
23559900 14 18270389602695558633
351380 180 10665231458300457486
351380 3 18259982652836299658
42 15 18342740719346176002
4214541 1 18340769252190604880
5104073 3 18271533095046590721
559249 180 18335415712557464698
7364860 26 18126566957732624024
83771 10 18407476665592062532

> <PUBCHEM_SHAPE_MULTIPOLES>
270.51
10.85
1.64
0.68
12.98
0.32
0
-5.61
1.62
-0.51
-0.11
-0.08
0
-0.42

> <PUBCHEM_SHAPE_SELFOVERLAP>
550.017

> <PUBCHEM_SHAPE_VOLUME>
158.1

> <PUBCHEM_COORDINATE_TYPE>
2
5
10

> <Energy>
17.0404

> <minimizedAffinity>
-6.58570

> <CNNscore>
0.8326513767

> <CNNaffinity>
5.8218121529

> <CNN_VS>
4.8475399017

> <CNNaffinity_variance>
0.5148916245

$$$$
7184


 15 15  0  0  0  0  0  0  0  0999 V2000
    6.9820   50.9464  129.1211 O   0  0  0  0  0  0  0  0  0  0  0  0
    7.7937   47.0150  130.1311 C   0  0  0  0  0  0  0  0  0  0  0  0
    6.6383   47.3255  129.4035 C   0  0  0  0  0  0  0  0  0  0  0  0
    8.6689   48.0290  130.5306 C   0  0  0  0  0  0  0  0  0  0  0  0
    6.3727   48.6537  129.0630 C   0  0  0  0  0  0  0  0  0  0  0  0
    8.4013   49.3501  130.1909 C   0  0  0  0  0  0  0  0  0  0  0  0
    7.2545   49.6570  129.4568 C   0  0  0  0  0  0  0  0  0  0  0  0
    6.2113   51.1493  128.6283 H   0  0  0  0  0  0  0  0  0  0  0  0
    8.0790   45.2077  131.6502 O   0  0  0  0  0  0  0  0  0  0  0  0
    8.0662   45.6124  130.4990 C   0  0  0  0  0  0  0  0  0  0  0  0
    8.2651   44.8780  129.3748 O   0  0  0  0  0  0  0  0  0  0  0  0
    8.8871   43.6057  129.5888 C   0  0  0  0  0  0  0  0  0  0  0  0
    9.8747   43.3581  128.4514 C   0  0  0  0  0  0  0  0  0  0  0  0
   10.8009   44.5538  128.2442 C   0  0  0  0  0  0  0  0  0  0  0  0
   11.8408   44.6519  129.3486 C   0  0  0  0  0  0  0  0  0  0  0  0
 11 12  1  0
 11 10  1  0
  9 10  2  0
  1  7  1  0
  1  8  1  0
 13 14  1  0
 13 12  1  0
 14 15  1  0
  2 10  1  0
  2  3  2  0
  2  4  1  0
  3  5  1  0
  4  6  2  0
  5  7  2  0
  6  7  1  0
M  END
> <PUBCHEM_COMPOUND_CID>
7184

> <PUBCHEM_CONFORMER_RMSD>
0.6

> <PUBCHEM_CONFORMER_DIVERSEORDER>
1
44
15
20
41
3
43
64
40
47
74
50
4
6
22
69
55
77
16
75
28
26
73
53
11
32
49
58
67
63
62
24
65
27
19
38
12
48
76
25
57
10
31
17
42
34
68
51
9
23
8
14
21
33
18
30
5
66
70
2
56
45
39
37
46
35
60
36
52
59
54
29
71
72
61
13
7

> <PUBCHEM_MMFF94_PARTIAL_CHARGES>
16
1 -0.43
10 -0.15
11 -0.15
12 -0.15
13 -0.15
14 0.08
2 -0.57
24 0.15
25 0.15
26 0.15
27 0.15
28 0.45
3 -0.53
6 0.28
8 0.09
9 0.63

> <PUBCHEM_EFFECTIVE_ROTOR_COUNT>
5

> <PUBCHEM_PHARMACOPHORE_FEATURES>
4
1 2 acceptor
1 3 donor
1 7 hydrophobe
6 8 10 11 12 13 14 rings

> <PUBCHEM_HEAVY_ATOM_COUNT>
14

> <PUBCHEM_ATOM_DEF_STEREO_COUNT>
0

> <PUBCHEM_ATOM_UDEF_STEREO_COUNT>
0

> <PUBCHEM_BOND_DEF_STEREO_COUNT>
0

> <PUBCHEM_BOND_UDEF_STEREO_COUNT>
0

> <PUBCHEM_ISOTOPIC_ATOM_COUNT>
0

> <PUBCHEM_COMPONENT_COUNT>
1

> <PUBCHEM_CACTVS_TAUTO_COUNT>
3

> <PUBCHEM_CONFORMER_ID>
00001C1000000001

> <PUBCHEM_MMFF94_ENERGY>
26.8162

> <PUBCHEM_FEATURE_SELFOVERLAP>
20.297

> <PUBCHEM_SHAPE_FINGERPRINT>
100836 57 10159698014692119138
10465860 250 17561082501386551480
10968037 39 18334860532716625766
11046707 91 18409446968869733128
12032990 46 18409167722807014732
12251169 10 18060418027818494140
13167823 11 18408602527187214402
13288520 33 18409730651148371639
13551218 46 18270963440792261598
13690532 89 18409730694483049495
13862211 1 18342737464162399199
14252887 29 17989215824084205230
17804303 29 18273497883401759577
17834072 33 18410577323021717172
1813 80 17968106291699631366
18186145 218 14923950067535008876
200 152 17530965761531918920
20281475 54 18337672035103360796
20767249 213 10735876175026745610
20828058 44 18273214175553485034
21267235 1 18410019844213228018
22485316 2 18408601440280660184
2297311 6 18130235869953600908
23402539 116 17846774109970031213
23463225 33 18411140233692529510
23559900 14 18270389602695558633
351380 180 10665231458300457486
351380 3 18259982652836299658
42 15 18342740719346176002
4214541 1 18340769252190604880
5104073 3 18271533095046590721
559249 180 18335415712557464698
7364860 26 18126566957732624024
83771 10 18407476665592062532

> <PUBCHEM_SHAPE_MULTIPOLES>
270.51
10.85
1.64
0.68
12.98
0.32
0
-5.61
1.62
-0.51
-0.11
-0.08
0
-0.42

> <PUBCHEM_SHAPE_SELFOVERLAP>
550.017

> <PUBCHEM_SHAPE_VOLUME>
158.1

> <PUBCHEM_COORDINATE_TYPE>
2
5
10

> <Energy>
17.0404

> <minimizedAffinity>
-6.80385

> <CNNscore>
0.8315664530

> <CNNaffinity>
5.4239459038

> <CNN_VS>
4.5103716850

> <CNNaffinity_variance>
0.3705331385

$$$$
7184


 15 15  0  0  0  0  0  0  0  0999 V2000
    6.9346   51.1105  128.9601 O   0  0  0  0  0  0  0  0  0  0  0  0
    8.4389   47.5369  130.4094 C   0  0  0  0  0  0  0  0  0  0  0  0
    8.6236   48.7192  131.1366 C   0  0  0  0  0  0  0  0  0  0  0  0
    7.7597   47.5594  129.1879 C   0  0  0  0  0  0  0  0  0  0  0  0
    8.1101   49.9207  130.6433 C   0  0  0  0  0  0  0  0  0  0  0  0
    7.2506   48.7571  128.6993 C   0  0  0  0  0  0  0  0  0  0  0  0
    7.4267   49.9330  129.4301 C   0  0  0  0  0  0  0  0  0  0  0  0
    7.0543   51.8984  129.4529 H   0  0  0  0  0  0  0  0  0  0  0  0
    8.3216   45.4262  131.4988 O   0  0  0  0  0  0  0  0  0  0  0  0
    8.9919   46.2708  130.9274 C   0  0  0  0  0  0  0  0  0  0  0  0
   10.3175   46.2038  130.6431 O   0  0  0  0  0  0  0  0  0  0  0  0
   10.9047   44.9081  130.8108 C   0  0  0  0  0  0  0  0  0  0  0  0
   11.7488   44.6014  129.5765 C   0  0  0  0  0  0  0  0  0  0  0  0
   10.9070   44.6232  128.3032 C   0  0  0  0  0  0  0  0  0  0  0  0
    9.8516   43.5291  128.3134 C   0  0  0  0  0  0  0  0  0  0  0  0
 11 12  1  0
 11 10  1  0
  9 10  2  0
  1  7  1  0
  1  8  1  0
 13 14  1  0
 13 12  1  0
 14 15  1  0
  2 10  1  0
  2  3  2  0
  2  4  1  0
  3  5  1  0
  4  6  2  0
  5  7  2  0
  6  7  1  0
M  END
> <PUBCHEM_COMPOUND_CID>
7184

> <PUBCHEM_CONFORMER_RMSD>
0.6

> <PUBCHEM_CONFORMER_DIVERSEORDER>
1
44
15
20
41
3
43
64
40
47
74
50
4
6
22
69
55
77
16
75
28
26
73
53
11
32
49
58
67
63
62
24
65
27
19
38
12
48
76
25
57
10
31
17
42
34
68
51
9
23
8
14
21
33
18
30
5
66
70
2
56
45
39
37
46
35
60
36
52
59
54
29
71
72
61
13
7

> <PUBCHEM_MMFF94_PARTIAL_CHARGES>
16
1 -0.43
10 -0.15
11 -0.15
12 -0.15
13 -0.15
14 0.08
2 -0.57
24 0.15
25 0.15
26 0.15
27 0.15
28 0.45
3 -0.53
6 0.28
8 0.09
9 0.63

> <PUBCHEM_EFFECTIVE_ROTOR_COUNT>
5

> <PUBCHEM_PHARMACOPHORE_FEATURES>
4
1 2 acceptor
1 3 donor
1 7 hydrophobe
6 8 10 11 12 13 14 rings

> <PUBCHEM_HEAVY_ATOM_COUNT>
14

> <PUBCHEM_ATOM_DEF_STEREO_COUNT>
0

> <PUBCHEM_ATOM_UDEF_STEREO_COUNT>
0

> <PUBCHEM_BOND_DEF_STEREO_COUNT>
0

> <PUBCHEM_BOND_UDEF_STEREO_COUNT>
0

> <PUBCHEM_ISOTOPIC_ATOM_COUNT>
0

> <PUBCHEM_COMPONENT_COUNT>
1

> <PUBCHEM_CACTVS_TAUTO_COUNT>
3

> <PUBCHEM_CONFORMER_ID>
00001C1000000001

> <PUBCHEM_MMFF94_ENERGY>
26.8162

> <PUBCHEM_FEATURE_SELFOVERLAP>
20.297

> <PUBCHEM_SHAPE_FINGERPRINT>
100836 57 10159698014692119138
10465860 250 17561082501386551480
10968037 39 18334860532716625766
11046707 91 18409446968869733128
12032990 46 18409167722807014732
12251169 10 18060418027818494140
13167823 11 18408602527187214402
13288520 33 18409730651148371639
13551218 46 18270963440792261598
13690532 89 18409730694483049495
13862211 1 18342737464162399199
14252887 29 17989215824084205230
17804303 29 18273497883401759577
17834072 33 18410577323021717172
1813 80 17968106291699631366
18186145 218 14923950067535008876
200 152 17530965761531918920
20281475 54 18337672035103360796
20767249 213 10735876175026745610
20828058 44 18273214175553485034
21267235 1 18410019844213228018
22485316 2 18408601440280660184
2297311 6 18130235869953600908
23402539 116 17846774109970031213
23463225 33 18411140233692529510
23559900 14 18270389602695558633
351380 180 10665231458300457486
351380 3 18259982652836299658
42 15 18342740719346176002
4214541 1 18340769252190604880
5104073 3 18271533095046590721
559249 180 18335415712557464698
7364860 26 18126566957732624024
83771 10 18407476665592062532

> <PUBCHEM_SHAPE_MULTIPOLES>
270.51
10.85
1.64
0.68
12.98
0.32
0
-5.61
1.62
-0.51
-0.11
-0.08
0
-0.42

> <PUBCHEM_SHAPE_SELFOVERLAP>
550.017

> <PUBCHEM_SHAPE_VOLUME>
158.1

> <PUBCHEM_COORDINATE_TYPE>
2
5
10

> <Energy>
17.0404

> <minimizedAffinity>
-6.86659

> <CNNscore>
0.8237650394

> <CNNaffinity>
5.9167551994

> <CNN_VS>
4.8740162849

> <CNNaffinity_variance>
0.4244719446

$$$$
7184


 15 15  0  0  0  0  0  0  0  0999 V2000
    6.9121   51.2198  129.0019 O   0  0  0  0  0  0  0  0  0  0  0  0
    8.3902   47.5430  130.1981 C   0  0  0  0  0  0  0  0  0  0  0  0
    8.8220   48.7115  130.8376 C   0  0  0  0  0  0  0  0  0  0  0  0
    7.4713   47.6129  129.1471 C   0  0  0  0  0  0  0  0  0  0  0  0
    8.3162   49.9483  130.4312 C   0  0  0  0  0  0  0  0  0  0  0  0
    6.9705   48.8456  128.7444 C   0  0  0  0  0  0  0  0  0  0  0  0
    7.3941   50.0085  129.3895 C   0  0  0  0  0  0  0  0  0  0  0  0
    7.1984   51.9988  129.4368 H   0  0  0  0  0  0  0  0  0  0  0  0
    9.1273   45.9357  131.7883 O   0  0  0  0  0  0  0  0  0  0  0  0
    8.9343   46.2387  130.6220 C   0  0  0  0  0  0  0  0  0  0  0  0
    9.1474   45.4589  129.5315 O   0  0  0  0  0  0  0  0  0  0  0  0
   10.3562   45.7407  128.8166 C   0  0  0  0  0  0  0  0  0  0  0  0
   11.1693   44.4521  128.7241 C   0  0  0  0  0  0  0  0  0  0  0  0
   12.4304   44.5234  129.5814 C   0  0  0  0  0  0  0  0  0  0  0  0
   12.1337   44.2044  131.0378 C   0  0  0  0  0  0  0  0  0  0  0  0
 11 12  1  0
 11 10  1  0
  9 10  2  0
  1  7  1  0
  1  8  1  0
 13 14  1  0
 13 12  1  0
 14 15  1  0
  2 10  1  0
  2  3  2  0
  2  4  1  0
  3  5  1  0
  4  6  2  0
  5  7  2  0
  6  7  1  0
M  END
> <PUBCHEM_COMPOUND_CID>
7184

> <PUBCHEM_CONFORMER_RMSD>
0.6

> <PUBCHEM_CONFORMER_DIVERSEORDER>
1
44
15
20
41
3
43
64
40
47
74
50
4
6
22
69
55
77
16
75
28
26
73
53
11
32
49
58
67
63
62
24
65
27
19
38
12
48
76
25
57
10
31
17
42
34
68
51
9
23
8
14
21
33
18
30
5
66
70
2
56
45
39
37
46
35
60
36
52
59
54
29
71
72
61
13
7

> <PUBCHEM_MMFF94_PARTIAL_CHARGES>
16
1 -0.43
10 -0.15
11 -0.15
12 -0.15
13 -0.15
14 0.08
2 -0.57
24 0.15
25 0.15
26 0.15
27 0.15
28 0.45
3 -0.53
6 0.28
8 0.09
9 0.63

> <PUBCHEM_EFFECTIVE_ROTOR_COUNT>
5

> <PUBCHEM_PHARMACOPHORE_FEATURES>
4
1 2 acceptor
1 3 donor
1 7 hydrophobe
6 8 10 11 12 13 14 rings

> <PUBCHEM_HEAVY_ATOM_COUNT>
14

> <PUBCHEM_ATOM_DEF_STEREO_COUNT>
0

> <PUBCHEM_ATOM_UDEF_STEREO_COUNT>
0

> <PUBCHEM_BOND_DEF_STEREO_COUNT>
0

> <PUBCHEM_BOND_UDEF_STEREO_COUNT>
0

> <PUBCHEM_ISOTOPIC_ATOM_COUNT>
0

> <PUBCHEM_COMPONENT_COUNT>
1

> <PUBCHEM_CACTVS_TAUTO_COUNT>
3

> <PUBCHEM_CONFORMER_ID>
00001C1000000001

> <PUBCHEM_MMFF94_ENERGY>
26.8162

> <PUBCHEM_FEATURE_SELFOVERLAP>
20.297

> <PUBCHEM_SHAPE_FINGERPRINT>
100836 57 10159698014692119138
10465860 250 17561082501386551480
10968037 39 18334860532716625766
11046707 91 18409446968869733128
12032990 46 18409167722807014732
12251169 10 18060418027818494140
13167823 11 18408602527187214402
13288520 33 18409730651148371639
13551218 46 18270963440792261598
13690532 89 18409730694483049495
13862211 1 18342737464162399199
14252887 29 17989215824084205230
17804303 29 18273497883401759577
17834072 33 18410577323021717172
1813 80 17968106291699631366
18186145 218 14923950067535008876
200 152 17530965761531918920
20281475 54 18337672035103360796
20767249 213 10735876175026745610
20828058 44 18273214175553485034
21267235 1 18410019844213228018
22485316 2 18408601440280660184
2297311 6 18130235869953600908
23402539 116 17846774109970031213
23463225 33 18411140233692529510
23559900 14 18270389602695558633
351380 180 10665231458300457486
351380 3 18259982652836299658
42 15 18342740719346176002
4214541 1 18340769252190604880
5104073 3 18271533095046590721
559249 180 18335415712557464698
7364860 26 18126566957732624024
83771 10 18407476665592062532

> <PUBCHEM_SHAPE_MULTIPOLES>
270.51
10.85
1.64
0.68
12.98
0.32
0
-5.61
1.62
-0.51
-0.11
-0.08
0
-0.42

> <PUBCHEM_SHAPE_SELFOVERLAP>
550.017

> <PUBCHEM_SHAPE_VOLUME>
158.1

> <PUBCHEM_COORDINATE_TYPE>
2
5
10

> <Energy>
17.0404

> <minimizedAffinity>
-6.57854

> <CNNscore>
0.8102077246

> <CNNaffinity>
5.8609642982

> <CNN_VS>
4.7485985756

> <CNNaffinity_variance>
0.5573390126

$$$$
7184


 15 15  0  0  0  0  0  0  0  0999 V2000
    6.9955   51.0690  128.9008 O   0  0  0  0  0  0  0  0  0  0  0  0
    8.5399   47.5527  130.4451 C   0  0  0  0  0  0  0  0  0  0  0  0
    7.8265   47.5331  129.2404 C   0  0  0  0  0  0  0  0  0  0  0  0
    8.7220   48.7534  131.1371 C   0  0  0  0  0  0  0  0  0  0  0  0
    7.3114   48.7239  128.7233 C   0  0  0  0  0  0  0  0  0  0  0  0
    8.2072   49.9368  130.6203 C   0  0  0  0  0  0  0  0  0  0  0  0
    7.5051   49.9173  129.4142 C   0  0  0  0  0  0  0  0  0  0  0  0
    6.5245   51.0528  128.0909 H   0  0  0  0  0  0  0  0  0  0  0  0
    8.3933   45.4786  131.5993 O   0  0  0  0  0  0  0  0  0  0  0  0
    9.0735   46.2916  130.9948 C   0  0  0  0  0  0  0  0  0  0  0  0
   10.3940   46.1888  130.6971 O   0  0  0  0  0  0  0  0  0  0  0  0
   10.9335   44.8660  130.8008 C   0  0  0  0  0  0  0  0  0  0  0  0
   11.7746   44.5930  129.5566 C   0  0  0  0  0  0  0  0  0  0  0  0
   10.9309   44.6555  128.2859 C   0  0  0  0  0  0  0  0  0  0  0  0
    9.9190   43.5223  128.2318 C   0  0  0  0  0  0  0  0  0  0  0  0
 11 12  1  0
 11 10  1  0
  9 10  2  0
  1  7  1  0
  1  8  1  0
 13 14  1  0
 13 12  1  0
 14 15  1  0
  2 10  1  0
  2  3  2  0
  2  4  1  0
  3  5  1  0
  4  6  2  0
  5  7  2  0
  6  7  1  0
M  END
> <PUBCHEM_COMPOUND_CID>
7184

> <PUBCHEM_CONFORMER_RMSD>
0.6

> <PUBCHEM_CONFORMER_DIVERSEORDER>
1
44
15
20
41
3
43
64
40
47
74
50
4
6
22
69
55
77
16
75
28
26
73
53
11
32
49
58
67
63
62
24
65
27
19
38
12
48
76
25
57
10
31
17
42
34
68
51
9
23
8
14
21
33
18
30
5
66
70
2
56
45
39
37
46
35
60
36
52
59
54
29
71
72
61
13
7

> <PUBCHEM_MMFF94_PARTIAL_CHARGES>
16
1 -0.43
10 -0.15
11 -0.15
12 -0.15
13 -0.15
14 0.08
2 -0.57
24 0.15
25 0.15
26 0.15
27 0.15
28 0.45
3 -0.53
6 0.28
8 0.09
9 0.63

> <PUBCHEM_EFFECTIVE_ROTOR_COUNT>
5

> <PUBCHEM_PHARMACOPHORE_FEATURES>
4
1 2 acceptor
1 3 donor
1 7 hydrophobe
6 8 10 11 12 13 14 rings

> <PUBCHEM_HEAVY_ATOM_COUNT>
14

> <PUBCHEM_ATOM_DEF_STEREO_COUNT>
0

> <PUBCHEM_ATOM_UDEF_STEREO_COUNT>
0

> <PUBCHEM_BOND_DEF_STEREO_COUNT>
0

> <PUBCHEM_BOND_UDEF_STEREO_COUNT>
0

> <PUBCHEM_ISOTOPIC_ATOM_COUNT>
0

> <PUBCHEM_COMPONENT_COUNT>
1

> <PUBCHEM_CACTVS_TAUTO_COUNT>
3

> <PUBCHEM_CONFORMER_ID>
00001C1000000001

> <PUBCHEM_MMFF94_ENERGY>
26.8162

> <PUBCHEM_FEATURE_SELFOVERLAP>
20.297

> <PUBCHEM_SHAPE_FINGERPRINT>
100836 57 10159698014692119138
10465860 250 17561082501386551480
10968037 39 18334860532716625766
11046707 91 18409446968869733128
12032990 46 18409167722807014732
12251169 10 18060418027818494140
13167823 11 18408602527187214402
13288520 33 18409730651148371639
13551218 46 18270963440792261598
13690532 89 18409730694483049495
13862211 1 18342737464162399199
14252887 29 17989215824084205230
17804303 29 18273497883401759577
17834072 33 18410577323021717172
1813 80 17968106291699631366
18186145 218 14923950067535008876
200 152 17530965761531918920
20281475 54 18337672035103360796
20767249 213 10735876175026745610
20828058 44 18273214175553485034
21267235 1 18410019844213228018
22485316 2 18408601440280660184
2297311 6 18130235869953600908
23402539 116 17846774109970031213
23463225 33 18411140233692529510
23559900 14 18270389602695558633
351380 180 10665231458300457486
351380 3 18259982652836299658
42 15 18342740719346176002
4214541 1 18340769252190604880
5104073 3 18271533095046590721
559249 180 18335415712557464698
7364860 26 18126566957732624024
83771 10 18407476665592062532

> <PUBCHEM_SHAPE_MULTIPOLES>
270.51
10.85
1.64
0.68
12.98
0.32
0
-5.61
1.62
-0.51
-0.11
-0.08
0
-0.42

> <PUBCHEM_SHAPE_SELFOVERLAP>
550.017

> <PUBCHEM_SHAPE_VOLUME>
158.1

> <PUBCHEM_COORDINATE_TYPE>
2
5
10

> <Energy>
17.0404

> <minimizedAffinity>
-6.86546

> <CNNscore>
0.8097637892

> <CNNaffinity>
5.9563274384

> <CNN_VS>
4.8232183456

> <CNNaffinity_variance>
0.3824100792

$$$$
7184


 15 15  0  0  0  0  0  0  0  0999 V2000
    6.2946   50.8315  130.0223 O   0  0  0  0  0  0  0  0  0  0  0  0
    8.8371   47.5802  129.7080 C   0  0  0  0  0  0  0  0  0  0  0  0
    7.5132   47.4778  129.2633 C   0  0  0  0  0  0  0  0  0  0  0  0
    9.3015   48.7723  130.2709 C   0  0  0  0  0  0  0  0  0  0  0  0
    6.6620   48.5801  129.3690 C   0  0  0  0  0  0  0  0  0  0  0  0
    8.4514   49.8673  130.3756 C   0  0  0  0  0  0  0  0  0  0  0  0
    7.1351   49.7671  129.9226 C   0  0  0  0  0  0  0  0  0  0  0  0
    5.4113   50.7612  129.7174 H   0  0  0  0  0  0  0  0  0  0  0  0
   10.3382   46.1138  128.5891 O   0  0  0  0  0  0  0  0  0  0  0  0
    9.7310   46.4109  129.6052 C   0  0  0  0  0  0  0  0  0  0  0  0
    9.7770   45.7674  130.7995 O   0  0  0  0  0  0  0  0  0  0  0  0
   10.5020   46.4543  131.8262 C   0  0  0  0  0  0  0  0  0  0  0  0
   11.7723   45.6629  132.1267 C   0  0  0  0  0  0  0  0  0  0  0  0
   11.8005   44.3398  131.3658 C   0  0  0  0  0  0  0  0  0  0  0  0
   12.8412   44.3554  130.2578 C   0  0  0  0  0  0  0  0  0  0  0  0
 11 12  1  0
 11 10  1  0
  9 10  2  0
  1  7  1  0
  1  8  1  0
 13 14  1  0
 13 12  1  0
 14 15  1  0
  2 10  1  0
  2  3  2  0
  2  4  1  0
  3  5  1  0
  4  6  2  0
  5  7  2  0
  6  7  1  0
M  END
> <PUBCHEM_COMPOUND_CID>
7184

> <PUBCHEM_CONFORMER_RMSD>
0.6

> <PUBCHEM_CONFORMER_DIVERSEORDER>
1
44
15
20
41
3
43
64
40
47
74
50
4
6
22
69
55
77
16
75
28
26
73
53
11
32
49
58
67
63
62
24
65
27
19
38
12
48
76
25
57
10
31
17
42
34
68
51
9
23
8
14
21
33
18
30
5
66
70
2
56
45
39
37
46
35
60
36
52
59
54
29
71
72
61
13
7

> <PUBCHEM_MMFF94_PARTIAL_CHARGES>
16
1 -0.43
10 -0.15
11 -0.15
12 -0.15
13 -0.15
14 0.08
2 -0.57
24 0.15
25 0.15
26 0.15
27 0.15
28 0.45
3 -0.53
6 0.28
8 0.09
9 0.63

> <PUBCHEM_EFFECTIVE_ROTOR_COUNT>
5

> <PUBCHEM_PHARMACOPHORE_FEATURES>
4
1 2 acceptor
1 3 donor
1 7 hydrophobe
6 8 10 11 12 13 14 rings

> <PUBCHEM_HEAVY_ATOM_COUNT>
14

> <PUBCHEM_ATOM_DEF_STEREO_COUNT>
0

> <PUBCHEM_ATOM_UDEF_STEREO_COUNT>
0

> <PUBCHEM_BOND_DEF_STEREO_COUNT>
0

> <PUBCHEM_BOND_UDEF_STEREO_COUNT>
0

> <PUBCHEM_ISOTOPIC_ATOM_COUNT>
0

> <PUBCHEM_COMPONENT_COUNT>
1

> <PUBCHEM_CACTVS_TAUTO_COUNT>
3

> <PUBCHEM_CONFORMER_ID>
00001C1000000001

> <PUBCHEM_MMFF94_ENERGY>
26.8162

> <PUBCHEM_FEATURE_SELFOVERLAP>
20.297

> <PUBCHEM_SHAPE_FINGERPRINT>
100836 57 10159698014692119138
10465860 250 17561082501386551480
10968037 39 18334860532716625766
11046707 91 18409446968869733128
12032990 46 18409167722807014732
12251169 10 18060418027818494140
13167823 11 18408602527187214402
13288520 33 18409730651148371639
13551218 46 18270963440792261598
13690532 89 18409730694483049495
13862211 1 18342737464162399199
14252887 29 17989215824084205230
17804303 29 18273497883401759577
17834072 33 18410577323021717172
1813 80 17968106291699631366
18186145 218 14923950067535008876
200 152 17530965761531918920
20281475 54 18337672035103360796
20767249 213 10735876175026745610
20828058 44 18273214175553485034
21267235 1 18410019844213228018
22485316 2 18408601440280660184
2297311 6 18130235869953600908
23402539 116 17846774109970031213
23463225 33 18411140233692529510
23559900 14 18270389602695558633
351380 180 10665231458300457486
351380 3 18259982652836299658
42 15 18342740719346176002
4214541 1 18340769252190604880
5104073 3 18271533095046590721
559249 180 18335415712557464698
7364860 26 18126566957732624024
83771 10 18407476665592062532

> <PUBCHEM_SHAPE_MULTIPOLES>
270.51
10.85
1.64
0.68
12.98
0.32
0
-5.61
1.62
-0.51
-0.11
-0.08
0
-0.42

> <PUBCHEM_SHAPE_SELFOVERLAP>
550.017

> <PUBCHEM_SHAPE_VOLUME>
158.1

> <PUBCHEM_COORDINATE_TYPE>
2
5
10

> <Energy>
17.0404

> <minimizedAffinity>
-6.11158

> <CNNscore>
0.7110804319

> <CNNaffinity>
5.7114777565

> <CNN_VS>
4.0613203049

> <CNNaffinity_variance>
0.4154142439

$$$$
