6013


 22 25  0  0  0  0  0  0  0  0999 V2000
   27.0470   -2.6696   11.4540 O   0  0  0  0  0  0  0  0  0  0  0  0
   21.7362   -3.5961    2.0317 O   0  0  0  0  0  0  0  0  0  0  0  0
   24.2016   -3.3167    9.2553 C   0  0  0  0  0  0  0  0  0  0  0  0
   25.4957   -2.5260    9.5288 C   0  0  0  0  0  0  0  0  0  0  0  0
   23.3633   -2.7031    8.1299 C   0  0  0  0  0  0  0  0  0  0  0  0
   24.2139   -2.6878    6.8207 C   0  0  0  0  0  0  0  0  0  0  0  0
   23.4234   -2.1111    5.5845 C   0  0  0  0  0  0  0  0  0  0  0  0
   26.3606   -2.5811    8.2628 C   0  0  0  0  0  0  0  0  0  0  0  0
   25.6049   -2.0304    7.0398 C   0  0  0  0  0  0  0  0  0  0  0  0
   26.0421   -3.3414   10.7183 C   0  0  0  0  0  0  0  0  0  0  0  0
   23.5823   -3.4768   10.6414 C   0  0  0  0  0  0  0  0  0  0  0  0
   22.0652   -3.4893    7.9066 C   0  0  0  0  0  0  0  0  0  0  0  0
   24.7945   -3.6348   11.5768 C   0  0  0  0  0  0  0  0  0  0  0  0
   22.0531   -2.7966    5.4892 C   0  0  0  0  0  0  0  0  0  0  0  0
   21.2506   -2.8947    6.7653 C   0  0  0  0  0  0  0  0  0  0  0  0
   25.2769   -1.0495    9.9424 C   0  0  0  0  0  0  0  0  0  0  0  0
   24.2515   -2.3969    4.2969 C   0  0  0  0  0  0  0  0  0  0  0  0
   23.1918   -0.5881    5.7026 C   0  0  0  0  0  0  0  0  0  0  0  0
   23.4561   -2.2398    3.0092 C   0  0  0  0  0  0  0  0  0  0  0  0
   21.5379   -3.2815    4.3464 C   0  0  0  0  0  0  0  0  0  0  0  0
   22.2251   -3.1062    3.0453 C   0  0  0  0  0  0  0  0  0  0  0  0
   27.8116   -2.5042   10.8806 H   0  0  0  0  0  0  0  0  0  0  0  0
  1 10  1  0
  1 22  1  0
  2 21  2  0
  3  4  1  0
  3  5  1  0
  3 11  1  0
  4  8  1  0
  4 10  1  0
  4 16  1  0
  5  6  1  0
  5 12  1  0
  6  7  1  0
  6  9  1  0
  7 14  1  0
  7 17  1  0
  7 18  1  0
  8  9  1  0
 10 13  1  0
 11 13  1  0
 12 15  1  0
 14 15  1  0
 14 20  2  0
 17 19  1  0
 19 21  1  0
 20 21  1  0
M  END
> <PUBCHEM_COMPOUND_CID>
6013

> <PUBCHEM_CONFORMER_RMSD>
0.6

> <PUBCHEM_CONFORMER_DIVERSEORDER>
1

> <PUBCHEM_MMFF94_PARTIAL_CHARGES>
11
1 -0.68
10 0.28
14 -0.28
15 0.14
19 0.06
2 -0.57
20 -0.14
21 0.49
48 0.15
49 0.4
7 0.14

> <PUBCHEM_EFFECTIVE_ROTOR_COUNT>
1.8

> <PUBCHEM_PHARMACOPHORE_FEATURES>
7
1 1 acceptor
1 1 donor
1 2 acceptor
5 3 4 10 11 13 rings
6 3 4 5 6 8 9 rings
6 5 6 7 12 14 15 rings
6 7 14 17 19 20 21 rings

> <PUBCHEM_HEAVY_ATOM_COUNT>
21

> <PUBCHEM_ATOM_DEF_STEREO_COUNT>
6

> <PUBCHEM_ATOM_UDEF_STEREO_COUNT>
0

> <PUBCHEM_BOND_DEF_STEREO_COUNT>
0

> <PUBCHEM_BOND_UDEF_STEREO_COUNT>
0

> <PUBCHEM_ISOTOPIC_ATOM_COUNT>
0

> <PUBCHEM_COMPONENT_COUNT>
1

> <PUBCHEM_CACTVS_TAUTO_COUNT>
5

> <PUBCHEM_CONFORMER_ID>
0000177D00000001

> <PUBCHEM_MMFF94_ENERGY>
67.5416

> <PUBCHEM_FEATURE_SELFOVERLAP>
35.618

> <PUBCHEM_SHAPE_FINGERPRINT>
10062212 137 18336825385559829163
10759866 29 17897457309511876188
10967382 1 18412548682291571786
11132069 177 18410018732180467827
11370993 70 18410569557056084199
11578080 2 16735503067342509174
12011746 2 18412547592124142406
12236239 1 18040155136873436768
12251169 10 18410008845387181634
12403259 226 18410006624652160988
12403259 415 18408880746209696412
12403260 363 18340481291412090749
12403814 3 17894914044785590877
12507557 5 18408881845467772304
12633257 1 18341888602346167976
12839892 36 18340758291450253690
13140716 1 18339643467883616216
13214271 11 18272369780793716703
13224815 77 18411987974316295335
13675066 3 18187087269080573787
14178342 30 18338527339117458393
14223421 5 18341052895787930134
14341114 176 18411985737129035682
14787075 74 18339640165090922602
14790565 3 18050014594947639924
15163728 17 14691189929019880809
15196674 1 18411420639180230811
15375358 24 18413110541697833299
15536298 74 18272376330249831326
15788980 27 17167859768361771669
16945 1 18267308633664624303
17349148 13 18260547844245275310
17492 89 18410012108956776131
1813 80 17168144512515476742
18186145 218 18411423903503023558
18522853 276 18412546492037592553
19050596 39 18410858775858764633
19784866 9 18412265021155473810
200 152 18202274819337965375
20715895 44 18116989984517715477
21033648 29 18262779827106925672
21267235 1 18410302427354843602
21421861 104 18042966467372004754
21637258 2 15647319828885568714
22182313 1 18189614934485510503
22854114 111 18409735070690792279
22854114 59 18343022189864506130
23402539 116 18272925046486162621
23557571 272 18059303161493107767
23559900 14 18343023255612643838
26918003 58 18409728456589012017
2748010 2 18410304609229794207
2838139 119 14835541671104639250
296302 2 16343984710473737934
335352 9 18411702045432157758
34934 24 18341610383102269379
350125 39 18410857681354741304
351380 180 18413386540454065762
3545911 37 18411703166439727155
42 15 18260548935156425576
5104073 3 18410294747868572393
59755656 215 18339930311854621398
633830 44 17988931080225984300
69090 78 18413386557386229218
7364860 26 18200601276388112774
9709674 26 18341058445033876271

> <PUBCHEM_SHAPE_MULTIPOLES>
420.43
9.43
2.1
1.06
1.16
0.42
0.43
-0.59
-2.56
-0.22
0.02
0.09
-0.22
0.11

> <PUBCHEM_SHAPE_SELFOVERLAP>
902.625

> <PUBCHEM_SHAPE_VOLUME>
230.1

> <PUBCHEM_COORDINATE_TYPE>
2
5
10

> <Energy>
71.9966

> <minimizedAffinity>
-10.68354

> <CNNscore>
0.9031795859

> <CNNaffinity>
7.9947819710

> <CNN_VS>
7.2207241058

> <CNNaffinity_variance>
0.5229467154

$$$$
6013


 22 25  0  0  0  0  0  0  0  0999 V2000
   21.1850   -1.4163    2.6929 O   0  0  0  0  0  0  0  0  0  0  0  0
   26.4769   -2.5525   12.1029 O   0  0  0  0  0  0  0  0  0  0  0  0
   22.1270   -3.0124    5.8417 C   0  0  0  0  0  0  0  0  0  0  0  0
   22.5393   -2.1518    4.6316 C   0  0  0  0  0  0  0  0  0  0  0  0
   23.3307   -3.5163    6.6434 C   0  0  0  0  0  0  0  0  0  0  0  0
   24.1352   -2.2857    7.1689 C   0  0  0  0  0  0  0  0  0  0  0  0
   25.3779   -2.6973    8.0476 C   0  0  0  0  0  0  0  0  0  0  0  0
   23.2613   -0.9060    5.1610 C   0  0  0  0  0  0  0  0  0  0  0  0
   24.4745   -1.2845    6.0298 C   0  0  0  0  0  0  0  0  0  0  0  0
   21.1457   -1.8815    4.0288 C   0  0  0  0  0  0  0  0  0  0  0  0
   21.1551   -4.0263    5.2431 C   0  0  0  0  0  0  0  0  0  0  0  0
   22.8909   -4.3997    7.8178 C   0  0  0  0  0  0  0  0  0  0  0  0
   20.4157   -3.2350    4.1494 C   0  0  0  0  0  0  0  0  0  0  0  0
   24.9389   -3.7173    9.1076 C   0  0  0  0  0  0  0  0  0  0  0  0
   24.0891   -4.8717    8.6309 C   0  0  0  0  0  0  0  0  0  0  0  0
   23.4417   -2.8745    3.6008 C   0  0  0  0  0  0  0  0  0  0  0  0
   25.9341   -1.4177    8.7394 C   0  0  0  0  0  0  0  0  0  0  0  0
   26.5011   -3.3369    7.2012 C   0  0  0  0  0  0  0  0  0  0  0  0
   26.8809   -1.7079    9.8947 C   0  0  0  0  0  0  0  0  0  0  0  0
   25.2860   -3.6442   10.4040 C   0  0  0  0  0  0  0  0  0  0  0  0
   26.2149   -2.6039   10.9049 C   0  0  0  0  0  0  0  0  0  0  0  0
   21.6507   -0.5661    2.6600 H   0  0  0  0  0  0  0  0  0  0  0  0
  1 10  1  0
  1 22  1  0
  2 21  2  0
  3  4  1  0
  3  5  1  0
  3 11  1  0
  4  8  1  0
  4 10  1  0
  4 16  1  0
  5  6  1  0
  5 12  1  0
  6  7  1  0
  6  9  1  0
  7 14  1  0
  7 17  1  0
  7 18  1  0
  8  9  1  0
 10 13  1  0
 11 13  1  0
 12 15  1  0
 14 15  1  0
 14 20  2  0
 17 19  1  0
 19 21  1  0
 20 21  1  0
M  END
> <PUBCHEM_COMPOUND_CID>
6013

> <PUBCHEM_CONFORMER_RMSD>
0.6

> <PUBCHEM_CONFORMER_DIVERSEORDER>
1

> <PUBCHEM_MMFF94_PARTIAL_CHARGES>
11
1 -0.68
10 0.28
14 -0.28
15 0.14
19 0.06
2 -0.57
20 -0.14
21 0.49
48 0.15
49 0.4
7 0.14

> <PUBCHEM_EFFECTIVE_ROTOR_COUNT>
1.8

> <PUBCHEM_PHARMACOPHORE_FEATURES>
7
1 1 acceptor
1 1 donor
1 2 acceptor
5 3 4 10 11 13 rings
6 3 4 5 6 8 9 rings
6 5 6 7 12 14 15 rings
6 7 14 17 19 20 21 rings

> <PUBCHEM_HEAVY_ATOM_COUNT>
21

> <PUBCHEM_ATOM_DEF_STEREO_COUNT>
6

> <PUBCHEM_ATOM_UDEF_STEREO_COUNT>
0

> <PUBCHEM_BOND_DEF_STEREO_COUNT>
0

> <PUBCHEM_BOND_UDEF_STEREO_COUNT>
0

> <PUBCHEM_ISOTOPIC_ATOM_COUNT>
0

> <PUBCHEM_COMPONENT_COUNT>
1

> <PUBCHEM_CACTVS_TAUTO_COUNT>
5

> <PUBCHEM_CONFORMER_ID>
0000177D00000001

> <PUBCHEM_MMFF94_ENERGY>
67.5416

> <PUBCHEM_FEATURE_SELFOVERLAP>
35.618

> <PUBCHEM_SHAPE_FINGERPRINT>
10062212 137 18336825385559829163
10759866 29 17897457309511876188
10967382 1 18412548682291571786
11132069 177 18410018732180467827
11370993 70 18410569557056084199
11578080 2 16735503067342509174
12011746 2 18412547592124142406
12236239 1 18040155136873436768
12251169 10 18410008845387181634
12403259 226 18410006624652160988
12403259 415 18408880746209696412
12403260 363 18340481291412090749
12403814 3 17894914044785590877
12507557 5 18408881845467772304
12633257 1 18341888602346167976
12839892 36 18340758291450253690
13140716 1 18339643467883616216
13214271 11 18272369780793716703
13224815 77 18411987974316295335
13675066 3 18187087269080573787
14178342 30 18338527339117458393
14223421 5 18341052895787930134
14341114 176 18411985737129035682
14787075 74 18339640165090922602
14790565 3 18050014594947639924
15163728 17 14691189929019880809
15196674 1 18411420639180230811
15375358 24 18413110541697833299
15536298 74 18272376330249831326
15788980 27 17167859768361771669
16945 1 18267308633664624303
17349148 13 18260547844245275310
17492 89 18410012108956776131
1813 80 17168144512515476742
18186145 218 18411423903503023558
18522853 276 18412546492037592553
19050596 39 18410858775858764633
19784866 9 18412265021155473810
200 152 18202274819337965375
20715895 44 18116989984517715477
21033648 29 18262779827106925672
21267235 1 18410302427354843602
21421861 104 18042966467372004754
21637258 2 15647319828885568714
22182313 1 18189614934485510503
22854114 111 18409735070690792279
22854114 59 18343022189864506130
23402539 116 18272925046486162621
23557571 272 18059303161493107767
23559900 14 18343023255612643838
26918003 58 18409728456589012017
2748010 2 18410304609229794207
2838139 119 14835541671104639250
296302 2 16343984710473737934
335352 9 18411702045432157758
34934 24 18341610383102269379
350125 39 18410857681354741304
351380 180 18413386540454065762
3545911 37 18411703166439727155
42 15 18260548935156425576
5104073 3 18410294747868572393
59755656 215 18339930311854621398
633830 44 17988931080225984300
69090 78 18413386557386229218
7364860 26 18200601276388112774
9709674 26 18341058445033876271

> <PUBCHEM_SHAPE_MULTIPOLES>
420.43
9.43
2.1
1.06
1.16
0.42
0.43
-0.59
-2.56
-0.22
0.02
0.09
-0.22
0.11

> <PUBCHEM_SHAPE_SELFOVERLAP>
902.625

> <PUBCHEM_SHAPE_VOLUME>
230.1

> <PUBCHEM_COORDINATE_TYPE>
2
5
10

> <Energy>
71.9966

> <minimizedAffinity>
-8.48961

> <CNNscore>
0.7515254021

> <CNNaffinity>
7.3621315956

> <CNN_VS>
5.5328288078

> <CNNaffinity_variance>
0.3013481796

$$$$
6013


 22 25  0  0  0  0  0  0  0  0999 V2000
   20.6080   -3.7809    3.4975 O   0  0  0  0  0  0  0  0  0  0  0  0
   28.1029   -2.5782   11.2579 O   0  0  0  0  0  0  0  0  0  0  0  0
   23.2603   -2.1054    5.3705 C   0  0  0  0  0  0  0  0  0  0  0  0
   22.0454   -3.0535    5.3786 C   0  0  0  0  0  0  0  0  0  0  0  0
   23.6643   -1.6538    6.7771 C   0  0  0  0  0  0  0  0  0  0  0  0
   24.0317   -2.9136    7.6232 C   0  0  0  0  0  0  0  0  0  0  0  0
   24.5051   -2.5531    9.0832 C   0  0  0  0  0  0  0  0  0  0  0  0
   22.4401   -4.3221    6.1459 C   0  0  0  0  0  0  0  0  0  0  0  0
   22.9145   -3.9927    7.5729 C   0  0  0  0  0  0  0  0  0  0  0  0
   21.8683   -3.2484    3.8590 C   0  0  0  0  0  0  0  0  0  0  0  0
   22.8836   -1.0527    4.3310 C   0  0  0  0  0  0  0  0  0  0  0  0
   24.8510   -0.6828    6.7339 C   0  0  0  0  0  0  0  0  0  0  0  0
   22.0917   -1.8397    3.2715 C   0  0  0  0  0  0  0  0  0  0  0  0
   25.5725   -1.4517    9.0169 C   0  0  0  0  0  0  0  0  0  0  0  0
   25.2697   -0.2621    8.1365 C   0  0  0  0  0  0  0  0  0  0  0  0
   20.7595   -2.4524    5.9986 C   0  0  0  0  0  0  0  0  0  0  0  0
   25.1035   -3.8348    9.7347 C   0  0  0  0  0  0  0  0  0  0  0  0
   23.3411   -2.0421    9.9613 C   0  0  0  0  0  0  0  0  0  0  0  0
   25.9317   -3.5593   10.9810 C   0  0  0  0  0  0  0  0  0  0  0  0
   26.7256   -1.4861    9.7065 C   0  0  0  0  0  0  0  0  0  0  0  0
   27.0223   -2.5668   10.6761 C   0  0  0  0  0  0  0  0  0  0  0  0
   20.5068   -4.6642    3.8853 H   0  0  0  0  0  0  0  0  0  0  0  0
  1 10  1  0
  1 22  1  0
  2 21  2  0
  3  4  1  0
  3  5  1  0
  3 11  1  0
  4  8  1  0
  4 10  1  0
  4 16  1  0
  5  6  1  0
  5 12  1  0
  6  7  1  0
  6  9  1  0
  7 14  1  0
  7 17  1  0
  7 18  1  0
  8  9  1  0
 10 13  1  0
 11 13  1  0
 12 15  1  0
 14 15  1  0
 14 20  2  0
 17 19  1  0
 19 21  1  0
 20 21  1  0
M  END
> <PUBCHEM_COMPOUND_CID>
6013

> <PUBCHEM_CONFORMER_RMSD>
0.6

> <PUBCHEM_CONFORMER_DIVERSEORDER>
1

> <PUBCHEM_MMFF94_PARTIAL_CHARGES>
11
1 -0.68
10 0.28
14 -0.28
15 0.14
19 0.06
2 -0.57
20 -0.14
21 0.49
48 0.15
49 0.4
7 0.14

> <PUBCHEM_EFFECTIVE_ROTOR_COUNT>
1.8

> <PUBCHEM_PHARMACOPHORE_FEATURES>
7
1 1 acceptor
1 1 donor
1 2 acceptor
5 3 4 10 11 13 rings
6 3 4 5 6 8 9 rings
6 5 6 7 12 14 15 rings
6 7 14 17 19 20 21 rings

> <PUBCHEM_HEAVY_ATOM_COUNT>
21

> <PUBCHEM_ATOM_DEF_STEREO_COUNT>
6

> <PUBCHEM_ATOM_UDEF_STEREO_COUNT>
0

> <PUBCHEM_BOND_DEF_STEREO_COUNT>
0

> <PUBCHEM_BOND_UDEF_STEREO_COUNT>
0

> <PUBCHEM_ISOTOPIC_ATOM_COUNT>
0

> <PUBCHEM_COMPONENT_COUNT>
1

> <PUBCHEM_CACTVS_TAUTO_COUNT>
5

> <PUBCHEM_CONFORMER_ID>
0000177D00000001

> <PUBCHEM_MMFF94_ENERGY>
67.5416

> <PUBCHEM_FEATURE_SELFOVERLAP>
35.618

> <PUBCHEM_SHAPE_FINGERPRINT>
10062212 137 18336825385559829163
10759866 29 17897457309511876188
10967382 1 18412548682291571786
11132069 177 18410018732180467827
11370993 70 18410569557056084199
11578080 2 16735503067342509174
12011746 2 18412547592124142406
12236239 1 18040155136873436768
12251169 10 18410008845387181634
12403259 226 18410006624652160988
12403259 415 18408880746209696412
12403260 363 18340481291412090749
12403814 3 17894914044785590877
12507557 5 18408881845467772304
12633257 1 18341888602346167976
12839892 36 18340758291450253690
13140716 1 18339643467883616216
13214271 11 18272369780793716703
13224815 77 18411987974316295335
13675066 3 18187087269080573787
14178342 30 18338527339117458393
14223421 5 18341052895787930134
14341114 176 18411985737129035682
14787075 74 18339640165090922602
14790565 3 18050014594947639924
15163728 17 14691189929019880809
15196674 1 18411420639180230811
15375358 24 18413110541697833299
15536298 74 18272376330249831326
15788980 27 17167859768361771669
16945 1 18267308633664624303
17349148 13 18260547844245275310
17492 89 18410012108956776131
1813 80 17168144512515476742
18186145 218 18411423903503023558
18522853 276 18412546492037592553
19050596 39 18410858775858764633
19784866 9 18412265021155473810
200 152 18202274819337965375
20715895 44 18116989984517715477
21033648 29 18262779827106925672
21267235 1 18410302427354843602
21421861 104 18042966467372004754
21637258 2 15647319828885568714
22182313 1 18189614934485510503
22854114 111 18409735070690792279
22854114 59 18343022189864506130
23402539 116 18272925046486162621
23557571 272 18059303161493107767
23559900 14 18343023255612643838
26918003 58 18409728456589012017
2748010 2 18410304609229794207
2838139 119 14835541671104639250
296302 2 16343984710473737934
335352 9 18411702045432157758
34934 24 18341610383102269379
350125 39 18410857681354741304
351380 180 18413386540454065762
3545911 37 18411703166439727155
42 15 18260548935156425576
5104073 3 18410294747868572393
59755656 215 18339930311854621398
633830 44 17988931080225984300
69090 78 18413386557386229218
7364860 26 18200601276388112774
9709674 26 18341058445033876271

> <PUBCHEM_SHAPE_MULTIPOLES>
420.43
9.43
2.1
1.06
1.16
0.42
0.43
-0.59
-2.56
-0.22
0.02
0.09
-0.22
0.11

> <PUBCHEM_SHAPE_SELFOVERLAP>
902.625

> <PUBCHEM_SHAPE_VOLUME>
230.1

> <PUBCHEM_COORDINATE_TYPE>
2
5
10

> <Energy>
71.9966

> <minimizedAffinity>
-8.66555

> <CNNscore>
0.6940916777

> <CNNaffinity>
7.2305846214

> <CNN_VS>
5.0186886787

> <CNNaffinity_variance>
0.2339338809

$$$$
6013


 22 25  0  0  0  0  0  0  0  0999 V2000
   28.1230   -3.4905    9.0916 O   0  0  0  0  0  0  0  0  0  0  0  0
   19.5782   -2.7455    2.4377 O   0  0  0  0  0  0  0  0  0  0  0  0
   24.7202   -4.1152    7.9167 C   0  0  0  0  0  0  0  0  0  0  0  0
   25.9175   -3.1502    8.0176 C   0  0  0  0  0  0  0  0  0  0  0  0
   23.4344   -3.4136    7.4692 C   0  0  0  0  0  0  0  0  0  0  0  0
   23.6718   -2.7789    6.0626 C   0  0  0  0  0  0  0  0  0  0  0  0
   22.3884   -2.0646    5.4894 C   0  0  0  0  0  0  0  0  0  0  0  0
   26.1931   -2.5900    6.6162 C   0  0  0  0  0  0  0  0  0  0  0  0
   24.9495   -1.8949    6.0327 C   0  0  0  0  0  0  0  0  0  0  0  0
   26.9869   -4.1302    8.5415 C   0  0  0  0  0  0  0  0  0  0  0  0
   24.7399   -4.8484    9.2556 C   0  0  0  0  0  0  0  0  0  0  0  0
   22.2534   -4.3909    7.4146 C   0  0  0  0  0  0  0  0  0  0  0  0
   26.2369   -4.9794    9.5884 C   0  0  0  0  0  0  0  0  0  0  0  0
   21.1829   -3.0076    5.6079 C   0  0  0  0  0  0  0  0  0  0  0  0
   20.9848   -3.6958    6.9380 C   0  0  0  0  0  0  0  0  0  0  0  0
   25.7238   -1.9803    9.0140 C   0  0  0  0  0  0  0  0  0  0  0  0
   22.6475   -1.7183    3.9934 C   0  0  0  0  0  0  0  0  0  0  0  0
   22.0578   -0.7634    6.2542 C   0  0  0  0  0  0  0  0  0  0  0  0
   21.3852   -1.3739    3.2165 C   0  0  0  0  0  0  0  0  0  0  0  0
   20.3047   -3.2263    4.6142 C   0  0  0  0  0  0  0  0  0  0  0  0
   20.3795   -2.4886    3.3312 C   0  0  0  0  0  0  0  0  0  0  0  0
   28.5649   -2.9686    8.4038 H   0  0  0  0  0  0  0  0  0  0  0  0
  1 10  1  0
  1 22  1  0
  2 21  2  0
  3  4  1  0
  3  5  1  0
  3 11  1  0
  4  8  1  0
  4 10  1  0
  4 16  1  0
  5  6  1  0
  5 12  1  0
  6  7  1  0
  6  9  1  0
  7 14  1  0
  7 17  1  0
  7 18  1  0
  8  9  1  0
 10 13  1  0
 11 13  1  0
 12 15  1  0
 14 15  1  0
 14 20  2  0
 17 19  1  0
 19 21  1  0
 20 21  1  0
M  END
> <PUBCHEM_COMPOUND_CID>
6013

> <PUBCHEM_CONFORMER_RMSD>
0.6

> <PUBCHEM_CONFORMER_DIVERSEORDER>
1

> <PUBCHEM_MMFF94_PARTIAL_CHARGES>
11
1 -0.68
10 0.28
14 -0.28
15 0.14
19 0.06
2 -0.57
20 -0.14
21 0.49
48 0.15
49 0.4
7 0.14

> <PUBCHEM_EFFECTIVE_ROTOR_COUNT>
1.8

> <PUBCHEM_PHARMACOPHORE_FEATURES>
7
1 1 acceptor
1 1 donor
1 2 acceptor
5 3 4 10 11 13 rings
6 3 4 5 6 8 9 rings
6 5 6 7 12 14 15 rings
6 7 14 17 19 20 21 rings

> <PUBCHEM_HEAVY_ATOM_COUNT>
21

> <PUBCHEM_ATOM_DEF_STEREO_COUNT>
6

> <PUBCHEM_ATOM_UDEF_STEREO_COUNT>
0

> <PUBCHEM_BOND_DEF_STEREO_COUNT>
0

> <PUBCHEM_BOND_UDEF_STEREO_COUNT>
0

> <PUBCHEM_ISOTOPIC_ATOM_COUNT>
0

> <PUBCHEM_COMPONENT_COUNT>
1

> <PUBCHEM_CACTVS_TAUTO_COUNT>
5

> <PUBCHEM_CONFORMER_ID>
0000177D00000001

> <PUBCHEM_MMFF94_ENERGY>
67.5416

> <PUBCHEM_FEATURE_SELFOVERLAP>
35.618

> <PUBCHEM_SHAPE_FINGERPRINT>
10062212 137 18336825385559829163
10759866 29 17897457309511876188
10967382 1 18412548682291571786
11132069 177 18410018732180467827
11370993 70 18410569557056084199
11578080 2 16735503067342509174
12011746 2 18412547592124142406
12236239 1 18040155136873436768
12251169 10 18410008845387181634
12403259 226 18410006624652160988
12403259 415 18408880746209696412
12403260 363 18340481291412090749
12403814 3 17894914044785590877
12507557 5 18408881845467772304
12633257 1 18341888602346167976
12839892 36 18340758291450253690
13140716 1 18339643467883616216
13214271 11 18272369780793716703
13224815 77 18411987974316295335
13675066 3 18187087269080573787
14178342 30 18338527339117458393
14223421 5 18341052895787930134
14341114 176 18411985737129035682
14787075 74 18339640165090922602
14790565 3 18050014594947639924
15163728 17 14691189929019880809
15196674 1 18411420639180230811
15375358 24 18413110541697833299
15536298 74 18272376330249831326
15788980 27 17167859768361771669
16945 1 18267308633664624303
17349148 13 18260547844245275310
17492 89 18410012108956776131
1813 80 17168144512515476742
18186145 218 18411423903503023558
18522853 276 18412546492037592553
19050596 39 18410858775858764633
19784866 9 18412265021155473810
200 152 18202274819337965375
20715895 44 18116989984517715477
21033648 29 18262779827106925672
21267235 1 18410302427354843602
21421861 104 18042966467372004754
21637258 2 15647319828885568714
22182313 1 18189614934485510503
22854114 111 18409735070690792279
22854114 59 18343022189864506130
23402539 116 18272925046486162621
23557571 272 18059303161493107767
23559900 14 18343023255612643838
26918003 58 18409728456589012017
2748010 2 18410304609229794207
2838139 119 14835541671104639250
296302 2 16343984710473737934
335352 9 18411702045432157758
34934 24 18341610383102269379
350125 39 18410857681354741304
351380 180 18413386540454065762
3545911 37 18411703166439727155
42 15 18260548935156425576
5104073 3 18410294747868572393
59755656 215 18339930311854621398
633830 44 17988931080225984300
69090 78 18413386557386229218
7364860 26 18200601276388112774
9709674 26 18341058445033876271

> <PUBCHEM_SHAPE_MULTIPOLES>
420.43
9.43
2.1
1.06
1.16
0.42
0.43
-0.59
-2.56
-0.22
0.02
0.09
-0.22
0.11

> <PUBCHEM_SHAPE_SELFOVERLAP>
902.625

> <PUBCHEM_SHAPE_VOLUME>
230.1

> <PUBCHEM_COORDINATE_TYPE>
2
5
10

> <Energy>
71.9966

> <minimizedAffinity>
-4.42243

> <CNNscore>
0.5059313774

> <CNNaffinity>
7.2634282112

> <CNN_VS>
3.6747963428

> <CNNaffinity_variance>
0.4834873676

$$$$
6013


 22 25  0  0  0  0  0  0  0  0999 V2000
   20.7681   -2.3400    2.8294 O   0  0  0  0  0  0  0  0  0  0  0  0
   25.6396   -5.3894   12.0388 O   0  0  0  0  0  0  0  0  0  0  0  0
   23.5504   -3.2906    4.9984 C   0  0  0  0  0  0  0  0  0  0  0  0
   22.1828   -2.5968    4.8459 C   0  0  0  0  0  0  0  0  0  0  0  0
   24.2422   -2.9442    6.3202 C   0  0  0  0  0  0  0  0  0  0  0  0
   23.3275   -3.3999    7.5006 C   0  0  0  0  0  0  0  0  0  0  0  0
   23.9706   -3.1259    8.9138 C   0  0  0  0  0  0  0  0  0  0  0  0
   21.2653   -3.1085    5.9639 C   0  0  0  0  0  0  0  0  0  0  0  0
   21.8780   -2.8590    7.3540 C   0  0  0  0  0  0  0  0  0  0  0  0
   21.8093   -3.0855    3.4316 C   0  0  0  0  0  0  0  0  0  0  0  0
   24.2586   -2.9749    3.6833 C   0  0  0  0  0  0  0  0  0  0  0  0
   25.6159   -3.6186    6.4264 C   0  0  0  0  0  0  0  0  0  0  0  0
   23.1284   -2.9827    2.6385 C   0  0  0  0  0  0  0  0  0  0  0  0
   25.4099   -3.6598    8.9324 C   0  0  0  0  0  0  0  0  0  0  0  0
   26.2857   -3.2976    7.7561 C   0  0  0  0  0  0  0  0  0  0  0  0
   22.2341   -1.0493    4.8856 C   0  0  0  0  0  0  0  0  0  0  0  0
   23.1177   -3.8593    9.9907 C   0  0  0  0  0  0  0  0  0  0  0  0
   24.0128   -1.6185    9.2501 C   0  0  0  0  0  0  0  0  0  0  0  0
   23.8163   -3.9988   11.3353 C   0  0  0  0  0  0  0  0  0  0  0  0
   25.9204   -4.3976    9.9331 C   0  0  0  0  0  0  0  0  0  0  0  0
   25.1476   -4.6815   11.1652 C   0  0  0  0  0  0  0  0  0  0  0  0
   19.9589   -2.4303    3.3566 H   0  0  0  0  0  0  0  0  0  0  0  0
  1 10  1  0
  1 22  1  0
  2 21  2  0
  3  4  1  0
  3  5  1  0
  3 11  1  0
  4  8  1  0
  4 10  1  0
  4 16  1  0
  5  6  1  0
  5 12  1  0
  6  7  1  0
  6  9  1  0
  7 14  1  0
  7 17  1  0
  7 18  1  0
  8  9  1  0
 10 13  1  0
 11 13  1  0
 12 15  1  0
 14 15  1  0
 14 20  2  0
 17 19  1  0
 19 21  1  0
 20 21  1  0
M  END
> <PUBCHEM_COMPOUND_CID>
6013

> <PUBCHEM_CONFORMER_RMSD>
0.6

> <PUBCHEM_CONFORMER_DIVERSEORDER>
1

> <PUBCHEM_MMFF94_PARTIAL_CHARGES>
11
1 -0.68
10 0.28
14 -0.28
15 0.14
19 0.06
2 -0.57
20 -0.14
21 0.49
48 0.15
49 0.4
7 0.14

> <PUBCHEM_EFFECTIVE_ROTOR_COUNT>
1.8

> <PUBCHEM_PHARMACOPHORE_FEATURES>
7
1 1 acceptor
1 1 donor
1 2 acceptor
5 3 4 10 11 13 rings
6 3 4 5 6 8 9 rings
6 5 6 7 12 14 15 rings
6 7 14 17 19 20 21 rings

> <PUBCHEM_HEAVY_ATOM_COUNT>
21

> <PUBCHEM_ATOM_DEF_STEREO_COUNT>
6

> <PUBCHEM_ATOM_UDEF_STEREO_COUNT>
0

> <PUBCHEM_BOND_DEF_STEREO_COUNT>
0

> <PUBCHEM_BOND_UDEF_STEREO_COUNT>
0

> <PUBCHEM_ISOTOPIC_ATOM_COUNT>
0

> <PUBCHEM_COMPONENT_COUNT>
1

> <PUBCHEM_CACTVS_TAUTO_COUNT>
5

> <PUBCHEM_CONFORMER_ID>
0000177D00000001

> <PUBCHEM_MMFF94_ENERGY>
67.5416

> <PUBCHEM_FEATURE_SELFOVERLAP>
35.618

> <PUBCHEM_SHAPE_FINGERPRINT>
10062212 137 18336825385559829163
10759866 29 17897457309511876188
10967382 1 18412548682291571786
11132069 177 18410018732180467827
11370993 70 18410569557056084199
11578080 2 16735503067342509174
12011746 2 18412547592124142406
12236239 1 18040155136873436768
12251169 10 18410008845387181634
12403259 226 18410006624652160988
12403259 415 18408880746209696412
12403260 363 18340481291412090749
12403814 3 17894914044785590877
12507557 5 18408881845467772304
12633257 1 18341888602346167976
12839892 36 18340758291450253690
13140716 1 18339643467883616216
13214271 11 18272369780793716703
13224815 77 18411987974316295335
13675066 3 18187087269080573787
14178342 30 18338527339117458393
14223421 5 18341052895787930134
14341114 176 18411985737129035682
14787075 74 18339640165090922602
14790565 3 18050014594947639924
15163728 17 14691189929019880809
15196674 1 18411420639180230811
15375358 24 18413110541697833299
15536298 74 18272376330249831326
15788980 27 17167859768361771669
16945 1 18267308633664624303
17349148 13 18260547844245275310
17492 89 18410012108956776131
1813 80 17168144512515476742
18186145 218 18411423903503023558
18522853 276 18412546492037592553
19050596 39 18410858775858764633
19784866 9 18412265021155473810
200 152 18202274819337965375
20715895 44 18116989984517715477
21033648 29 18262779827106925672
21267235 1 18410302427354843602
21421861 104 18042966467372004754
21637258 2 15647319828885568714
22182313 1 18189614934485510503
22854114 111 18409735070690792279
22854114 59 18343022189864506130
23402539 116 18272925046486162621
23557571 272 18059303161493107767
23559900 14 18343023255612643838
26918003 58 18409728456589012017
2748010 2 18410304609229794207
2838139 119 14835541671104639250
296302 2 16343984710473737934
335352 9 18411702045432157758
34934 24 18341610383102269379
350125 39 18410857681354741304
351380 180 18413386540454065762
3545911 37 18411703166439727155
42 15 18260548935156425576
5104073 3 18410294747868572393
59755656 215 18339930311854621398
633830 44 17988931080225984300
69090 78 18413386557386229218
7364860 26 18200601276388112774
9709674 26 18341058445033876271

> <PUBCHEM_SHAPE_MULTIPOLES>
420.43
9.43
2.1
1.06
1.16
0.42
0.43
-0.59
-2.56
-0.22
0.02
0.09
-0.22
0.11

> <PUBCHEM_SHAPE_SELFOVERLAP>
902.625

> <PUBCHEM_SHAPE_VOLUME>
230.1

> <PUBCHEM_COORDINATE_TYPE>
2
5
10

> <Energy>
71.9966

> <minimizedAffinity>
-8.52273

> <CNNscore>
0.4735422134

> <CNNaffinity>
7.2860088348

> <CNN_VS>
3.4502327442

> <CNNaffinity_variance>
0.2818548381

$$$$
6013


 22 25  0  0  0  0  0  0  0  0999 V2000
   26.3207   -2.5267   12.1272 O   0  0  0  0  0  0  0  0  0  0  0  0
   20.5400   -1.8544    2.9634 O   0  0  0  0  0  0  0  0  0  0  0  0
   25.7414   -2.4932    8.5199 C   0  0  0  0  0  0  0  0  0  0  0  0
   25.2286   -2.8515    9.9283 C   0  0  0  0  0  0  0  0  0  0  0  0
   24.9203   -3.1537    7.4085 C   0  0  0  0  0  0  0  0  0  0  0  0
   23.4386   -2.6757    7.5266 C   0  0  0  0  0  0  0  0  0  0  0  0
   22.5128   -3.2680    6.3962 C   0  0  0  0  0  0  0  0  0  0  0  0
   23.7994   -2.3102   10.0634 C   0  0  0  0  0  0  0  0  0  0  0  0
   22.8789   -2.8693    8.9634 C   0  0  0  0  0  0  0  0  0  0  0  0
   26.2816   -2.1089   10.7758 C   0  0  0  0  0  0  0  0  0  0  0  0
   27.2397   -2.7736    8.6043 C   0  0  0  0  0  0  0  0  0  0  0  0
   25.4769   -2.8092    6.0213 C   0  0  0  0  0  0  0  0  0  0  0  0
   27.6125   -2.3840   10.0460 C   0  0  0  0  0  0  0  0  0  0  0  0
   23.1800   -3.0618    5.0290 C   0  0  0  0  0  0  0  0  0  0  0  0
   24.6379   -3.4417    4.9186 C   0  0  0  0  0  0  0  0  0  0  0  0
   25.2423   -4.3652   10.2564 C   0  0  0  0  0  0  0  0  0  0  0  0
   21.1474   -2.5205    6.4395 C   0  0  0  0  0  0  0  0  0  0  0  0
   22.2615   -4.7807    6.5850 C   0  0  0  0  0  0  0  0  0  0  0  0
   20.3020   -2.7154    5.1894 C   0  0  0  0  0  0  0  0  0  0  0  0
   22.5365   -2.5914    3.9468 C   0  0  0  0  0  0  0  0  0  0  0  0
   21.0804   -2.3168    3.9637 C   0  0  0  0  0  0  0  0  0  0  0  0
   25.4682   -2.3370   12.5492 H   0  0  0  0  0  0  0  0  0  0  0  0
  1 10  1  0
  1 22  1  0
  2 21  2  0
  3  4  1  0
  3  5  1  0
  3 11  1  0
  4  8  1  0
  4 10  1  0
  4 16  1  0
  5  6  1  0
  5 12  1  0
  6  7  1  0
  6  9  1  0
  7 14  1  0
  7 17  1  0
  7 18  1  0
  8  9  1  0
 10 13  1  0
 11 13  1  0
 12 15  1  0
 14 15  1  0
 14 20  2  0
 17 19  1  0
 19 21  1  0
 20 21  1  0
M  END
> <PUBCHEM_COMPOUND_CID>
6013

> <PUBCHEM_CONFORMER_RMSD>
0.6

> <PUBCHEM_CONFORMER_DIVERSEORDER>
1

> <PUBCHEM_MMFF94_PARTIAL_CHARGES>
11
1 -0.68
10 0.28
14 -0.28
15 0.14
19 0.06
2 -0.57
20 -0.14
21 0.49
48 0.15
49 0.4
7 0.14

> <PUBCHEM_EFFECTIVE_ROTOR_COUNT>
1.8

> <PUBCHEM_PHARMACOPHORE_FEATURES>
7
1 1 acceptor
1 1 donor
1 2 acceptor
5 3 4 10 11 13 rings
6 3 4 5 6 8 9 rings
6 5 6 7 12 14 15 rings
6 7 14 17 19 20 21 rings

> <PUBCHEM_HEAVY_ATOM_COUNT>
21

> <PUBCHEM_ATOM_DEF_STEREO_COUNT>
6

> <PUBCHEM_ATOM_UDEF_STEREO_COUNT>
0

> <PUBCHEM_BOND_DEF_STEREO_COUNT>
0

> <PUBCHEM_BOND_UDEF_STEREO_COUNT>
0

> <PUBCHEM_ISOTOPIC_ATOM_COUNT>
0

> <PUBCHEM_COMPONENT_COUNT>
1

> <PUBCHEM_CACTVS_TAUTO_COUNT>
5

> <PUBCHEM_CONFORMER_ID>
0000177D00000001

> <PUBCHEM_MMFF94_ENERGY>
67.5416

> <PUBCHEM_FEATURE_SELFOVERLAP>
35.618

> <PUBCHEM_SHAPE_FINGERPRINT>
10062212 137 18336825385559829163
10759866 29 17897457309511876188
10967382 1 18412548682291571786
11132069 177 18410018732180467827
11370993 70 18410569557056084199
11578080 2 16735503067342509174
12011746 2 18412547592124142406
12236239 1 18040155136873436768
12251169 10 18410008845387181634
12403259 226 18410006624652160988
12403259 415 18408880746209696412
12403260 363 18340481291412090749
12403814 3 17894914044785590877
12507557 5 18408881845467772304
12633257 1 18341888602346167976
12839892 36 18340758291450253690
13140716 1 18339643467883616216
13214271 11 18272369780793716703
13224815 77 18411987974316295335
13675066 3 18187087269080573787
14178342 30 18338527339117458393
14223421 5 18341052895787930134
14341114 176 18411985737129035682
14787075 74 18339640165090922602
14790565 3 18050014594947639924
15163728 17 14691189929019880809
15196674 1 18411420639180230811
15375358 24 18413110541697833299
15536298 74 18272376330249831326
15788980 27 17167859768361771669
16945 1 18267308633664624303
17349148 13 18260547844245275310
17492 89 18410012108956776131
1813 80 17168144512515476742
18186145 218 18411423903503023558
18522853 276 18412546492037592553
19050596 39 18410858775858764633
19784866 9 18412265021155473810
200 152 18202274819337965375
20715895 44 18116989984517715477
21033648 29 18262779827106925672
21267235 1 18410302427354843602
21421861 104 18042966467372004754
21637258 2 15647319828885568714
22182313 1 18189614934485510503
22854114 111 18409735070690792279
22854114 59 18343022189864506130
23402539 116 18272925046486162621
23557571 272 18059303161493107767
23559900 14 18343023255612643838
26918003 58 18409728456589012017
2748010 2 18410304609229794207
2838139 119 14835541671104639250
296302 2 16343984710473737934
335352 9 18411702045432157758
34934 24 18341610383102269379
350125 39 18410857681354741304
351380 180 18413386540454065762
3545911 37 18411703166439727155
42 15 18260548935156425576
5104073 3 18410294747868572393
59755656 215 18339930311854621398
633830 44 17988931080225984300
69090 78 18413386557386229218
7364860 26 18200601276388112774
9709674 26 18341058445033876271

> <PUBCHEM_SHAPE_MULTIPOLES>
420.43
9.43
2.1
1.06
1.16
0.42
0.43
-0.59
-2.56
-0.22
0.02
0.09
-0.22
0.11

> <PUBCHEM_SHAPE_SELFOVERLAP>
902.625

> <PUBCHEM_SHAPE_VOLUME>
230.1

> <PUBCHEM_COORDINATE_TYPE>
2
5
10

> <Energy>
71.9966

> <minimizedAffinity>
-8.83487

> <CNNscore>
0.2986783385

> <CNNaffinity>
7.0295047760

> <CNN_VS>
2.0995607376

> <CNNaffinity_variance>
0.2258629054

$$$$
6013


 22 25  0  0  0  0  0  0  0  0999 V2000
   25.5582   -5.7758   11.4264 O   0  0  0  0  0  0  0  0  0  0  0  0
   20.6032   -2.0494    2.5155 O   0  0  0  0  0  0  0  0  0  0  0  0
   23.6811   -3.4079    9.3724 C   0  0  0  0  0  0  0  0  0  0  0  0
   24.7604   -4.5048    9.4563 C   0  0  0  0  0  0  0  0  0  0  0  0
   23.7186   -2.6453    8.0448 C   0  0  0  0  0  0  0  0  0  0  0  0
   23.4820   -3.6555    6.8781 C   0  0  0  0  0  0  0  0  0  0  0  0
   23.4592   -2.9610    5.4628 C   0  0  0  0  0  0  0  0  0  0  0  0
   24.4753   -5.5344    8.3553 C   0  0  0  0  0  0  0  0  0  0  0  0
   24.4398   -4.8763    6.9640 C   0  0  0  0  0  0  0  0  0  0  0  0
   24.4983   -5.0063   10.8910 C   0  0  0  0  0  0  0  0  0  0  0  0
   23.8549   -2.6365   10.6783 C   0  0  0  0  0  0  0  0  0  0  0  0
   22.6589   -1.5368    8.0060 C   0  0  0  0  0  0  0  0  0  0  0  0
   24.2529   -3.7163   11.7005 C   0  0  0  0  0  0  0  0  0  0  0  0
   22.5194   -1.7478    5.5040 C   0  0  0  0  0  0  0  0  0  0  0  0
   22.6784   -0.8027    6.6717 C   0  0  0  0  0  0  0  0  0  0  0  0
   26.2158   -3.9923    9.3218 C   0  0  0  0  0  0  0  0  0  0  0  0
   22.9463   -3.9954    4.4177 C   0  0  0  0  0  0  0  0  0  0  0  0
   24.8600   -2.4696    5.0347 C   0  0  0  0  0  0  0  0  0  0  0  0
   22.5177   -3.3719    3.0976 C   0  0  0  0  0  0  0  0  0  0  0  0
   21.5996   -1.4826    4.5606 C   0  0  0  0  0  0  0  0  0  0  0  0
   21.4808   -2.3061    3.3343 C   0  0  0  0  0  0  0  0  0  0  0  0
   25.6801   -6.5754   10.8909 H   0  0  0  0  0  0  0  0  0  0  0  0
  1 10  1  0
  1 22  1  0
  2 21  2  0
  3  4  1  0
  3  5  1  0
  3 11  1  0
  4  8  1  0
  4 10  1  0
  4 16  1  0
  5  6  1  0
  5 12  1  0
  6  7  1  0
  6  9  1  0
  7 14  1  0
  7 17  1  0
  7 18  1  0
  8  9  1  0
 10 13  1  0
 11 13  1  0
 12 15  1  0
 14 15  1  0
 14 20  2  0
 17 19  1  0
 19 21  1  0
 20 21  1  0
M  END
> <PUBCHEM_COMPOUND_CID>
6013

> <PUBCHEM_CONFORMER_RMSD>
0.6

> <PUBCHEM_CONFORMER_DIVERSEORDER>
1

> <PUBCHEM_MMFF94_PARTIAL_CHARGES>
11
1 -0.68
10 0.28
14 -0.28
15 0.14
19 0.06
2 -0.57
20 -0.14
21 0.49
48 0.15
49 0.4
7 0.14

> <PUBCHEM_EFFECTIVE_ROTOR_COUNT>
1.8

> <PUBCHEM_PHARMACOPHORE_FEATURES>
7
1 1 acceptor
1 1 donor
1 2 acceptor
5 3 4 10 11 13 rings
6 3 4 5 6 8 9 rings
6 5 6 7 12 14 15 rings
6 7 14 17 19 20 21 rings

> <PUBCHEM_HEAVY_ATOM_COUNT>
21

> <PUBCHEM_ATOM_DEF_STEREO_COUNT>
6

> <PUBCHEM_ATOM_UDEF_STEREO_COUNT>
0

> <PUBCHEM_BOND_DEF_STEREO_COUNT>
0

> <PUBCHEM_BOND_UDEF_STEREO_COUNT>
0

> <PUBCHEM_ISOTOPIC_ATOM_COUNT>
0

> <PUBCHEM_COMPONENT_COUNT>
1

> <PUBCHEM_CACTVS_TAUTO_COUNT>
5

> <PUBCHEM_CONFORMER_ID>
0000177D00000001

> <PUBCHEM_MMFF94_ENERGY>
67.5416

> <PUBCHEM_FEATURE_SELFOVERLAP>
35.618

> <PUBCHEM_SHAPE_FINGERPRINT>
10062212 137 18336825385559829163
10759866 29 17897457309511876188
10967382 1 18412548682291571786
11132069 177 18410018732180467827
11370993 70 18410569557056084199
11578080 2 16735503067342509174
12011746 2 18412547592124142406
12236239 1 18040155136873436768
12251169 10 18410008845387181634
12403259 226 18410006624652160988
12403259 415 18408880746209696412
12403260 363 18340481291412090749
12403814 3 17894914044785590877
12507557 5 18408881845467772304
12633257 1 18341888602346167976
12839892 36 18340758291450253690
13140716 1 18339643467883616216
13214271 11 18272369780793716703
13224815 77 18411987974316295335
13675066 3 18187087269080573787
14178342 30 18338527339117458393
14223421 5 18341052895787930134
14341114 176 18411985737129035682
14787075 74 18339640165090922602
14790565 3 18050014594947639924
15163728 17 14691189929019880809
15196674 1 18411420639180230811
15375358 24 18413110541697833299
15536298 74 18272376330249831326
15788980 27 17167859768361771669
16945 1 18267308633664624303
17349148 13 18260547844245275310
17492 89 18410012108956776131
1813 80 17168144512515476742
18186145 218 18411423903503023558
18522853 276 18412546492037592553
19050596 39 18410858775858764633
19784866 9 18412265021155473810
200 152 18202274819337965375
20715895 44 18116989984517715477
21033648 29 18262779827106925672
21267235 1 18410302427354843602
21421861 104 18042966467372004754
21637258 2 15647319828885568714
22182313 1 18189614934485510503
22854114 111 18409735070690792279
22854114 59 18343022189864506130
23402539 116 18272925046486162621
23557571 272 18059303161493107767
23559900 14 18343023255612643838
26918003 58 18409728456589012017
2748010 2 18410304609229794207
2838139 119 14835541671104639250
296302 2 16343984710473737934
335352 9 18411702045432157758
34934 24 18341610383102269379
350125 39 18410857681354741304
351380 180 18413386540454065762
3545911 37 18411703166439727155
42 15 18260548935156425576
5104073 3 18410294747868572393
59755656 215 18339930311854621398
633830 44 17988931080225984300
69090 78 18413386557386229218
7364860 26 18200601276388112774
9709674 26 18341058445033876271

> <PUBCHEM_SHAPE_MULTIPOLES>
420.43
9.43
2.1
1.06
1.16
0.42
0.43
-0.59
-2.56
-0.22
0.02
0.09
-0.22
0.11

> <PUBCHEM_SHAPE_SELFOVERLAP>
902.625

> <PUBCHEM_SHAPE_VOLUME>
230.1

> <PUBCHEM_COORDINATE_TYPE>
2
5
10

> <Energy>
71.9966

> <minimizedAffinity>
-4.09935

> <CNNscore>
0.1738120764

> <CNNaffinity>
6.8001999855

> <CNN_VS>
1.1819568872

> <CNNaffinity_variance>
0.6877174377

$$$$
6013


 22 25  0  0  0  0  0  0  0  0999 V2000
   27.3033   -0.6653    6.0685 O   0  0  0  0  0  0  0  0  0  0  0  0
   19.6486   -4.9199   12.4832 O   0  0  0  0  0  0  0  0  0  0  0  0
   24.4546   -2.7780    6.9469 C   0  0  0  0  0  0  0  0  0  0  0  0
   25.7730   -2.1065    7.3781 C   0  0  0  0  0  0  0  0  0  0  0  0
   23.9873   -3.8482    7.9378 C   0  0  0  0  0  0  0  0  0  0  0  0
   23.7638   -3.1798    9.3310 C   0  0  0  0  0  0  0  0  0  0  0  0
   23.2378   -4.1932   10.4183 C   0  0  0  0  0  0  0  0  0  0  0  0
   25.5240   -1.3868    8.7099 C   0  0  0  0  0  0  0  0  0  0  0  0
   25.0011   -2.3565    9.7852 C   0  0  0  0  0  0  0  0  0  0  0  0
   25.9857   -1.1713    6.1703 C   0  0  0  0  0  0  0  0  0  0  0  0
   24.7136   -3.1714    5.4947 C   0  0  0  0  0  0  0  0  0  0  0  0
   22.6946   -4.5240    7.4633 C   0  0  0  0  0  0  0  0  0  0  0  0
   25.6026   -2.0378    4.9528 C   0  0  0  0  0  0  0  0  0  0  0  0
   22.0483   -4.9802    9.8504 C   0  0  0  0  0  0  0  0  0  0  0  0
   22.2164   -5.5645    8.4675 C   0  0  0  0  0  0  0  0  0  0  0  0
   26.9731   -3.0740    7.5288 C   0  0  0  0  0  0  0  0  0  0  0  0
   22.7893   -3.3807   11.6689 C   0  0  0  0  0  0  0  0  0  0  0  0
   24.3252   -5.2054   10.8427 C   0  0  0  0  0  0  0  0  0  0  0  0
   21.9230   -4.1736   12.6365 C   0  0  0  0  0  0  0  0  0  0  0  0
   20.9011   -5.1869   10.5195 C   0  0  0  0  0  0  0  0  0  0  0  0
   20.7256   -4.7419   11.9220 C   0  0  0  0  0  0  0  0  0  0  0  0
   27.5046   -0.1280    6.8506 H   0  0  0  0  0  0  0  0  0  0  0  0
  1 10  1  0
  1 22  1  0
  2 21  2  0
  3  4  1  0
  3  5  1  0
  3 11  1  0
  4  8  1  0
  4 10  1  0
  4 16  1  0
  5  6  1  0
  5 12  1  0
  6  7  1  0
  6  9  1  0
  7 14  1  0
  7 17  1  0
  7 18  1  0
  8  9  1  0
 10 13  1  0
 11 13  1  0
 12 15  1  0
 14 15  1  0
 14 20  2  0
 17 19  1  0
 19 21  1  0
 20 21  1  0
M  END
> <PUBCHEM_COMPOUND_CID>
6013

> <PUBCHEM_CONFORMER_RMSD>
0.6

> <PUBCHEM_CONFORMER_DIVERSEORDER>
1

> <PUBCHEM_MMFF94_PARTIAL_CHARGES>
11
1 -0.68
10 0.28
14 -0.28
15 0.14
19 0.06
2 -0.57
20 -0.14
21 0.49
48 0.15
49 0.4
7 0.14

> <PUBCHEM_EFFECTIVE_ROTOR_COUNT>
1.8

> <PUBCHEM_PHARMACOPHORE_FEATURES>
7
1 1 acceptor
1 1 donor
1 2 acceptor
5 3 4 10 11 13 rings
6 3 4 5 6 8 9 rings
6 5 6 7 12 14 15 rings
6 7 14 17 19 20 21 rings

> <PUBCHEM_HEAVY_ATOM_COUNT>
21

> <PUBCHEM_ATOM_DEF_STEREO_COUNT>
6

> <PUBCHEM_ATOM_UDEF_STEREO_COUNT>
0

> <PUBCHEM_BOND_DEF_STEREO_COUNT>
0

> <PUBCHEM_BOND_UDEF_STEREO_COUNT>
0

> <PUBCHEM_ISOTOPIC_ATOM_COUNT>
0

> <PUBCHEM_COMPONENT_COUNT>
1

> <PUBCHEM_CACTVS_TAUTO_COUNT>
5

> <PUBCHEM_CONFORMER_ID>
0000177D00000001

> <PUBCHEM_MMFF94_ENERGY>
67.5416

> <PUBCHEM_FEATURE_SELFOVERLAP>
35.618

> <PUBCHEM_SHAPE_FINGERPRINT>
10062212 137 18336825385559829163
10759866 29 17897457309511876188
10967382 1 18412548682291571786
11132069 177 18410018732180467827
11370993 70 18410569557056084199
11578080 2 16735503067342509174
12011746 2 18412547592124142406
12236239 1 18040155136873436768
12251169 10 18410008845387181634
12403259 226 18410006624652160988
12403259 415 18408880746209696412
12403260 363 18340481291412090749
12403814 3 17894914044785590877
12507557 5 18408881845467772304
12633257 1 18341888602346167976
12839892 36 18340758291450253690
13140716 1 18339643467883616216
13214271 11 18272369780793716703
13224815 77 18411987974316295335
13675066 3 18187087269080573787
14178342 30 18338527339117458393
14223421 5 18341052895787930134
14341114 176 18411985737129035682
14787075 74 18339640165090922602
14790565 3 18050014594947639924
15163728 17 14691189929019880809
15196674 1 18411420639180230811
15375358 24 18413110541697833299
15536298 74 18272376330249831326
15788980 27 17167859768361771669
16945 1 18267308633664624303
17349148 13 18260547844245275310
17492 89 18410012108956776131
1813 80 17168144512515476742
18186145 218 18411423903503023558
18522853 276 18412546492037592553
19050596 39 18410858775858764633
19784866 9 18412265021155473810
200 152 18202274819337965375
20715895 44 18116989984517715477
21033648 29 18262779827106925672
21267235 1 18410302427354843602
21421861 104 18042966467372004754
21637258 2 15647319828885568714
22182313 1 18189614934485510503
22854114 111 18409735070690792279
22854114 59 18343022189864506130
23402539 116 18272925046486162621
23557571 272 18059303161493107767
23559900 14 18343023255612643838
26918003 58 18409728456589012017
2748010 2 18410304609229794207
2838139 119 14835541671104639250
296302 2 16343984710473737934
335352 9 18411702045432157758
34934 24 18341610383102269379
350125 39 18410857681354741304
351380 180 18413386540454065762
3545911 37 18411703166439727155
42 15 18260548935156425576
5104073 3 18410294747868572393
59755656 215 18339930311854621398
633830 44 17988931080225984300
69090 78 18413386557386229218
7364860 26 18200601276388112774
9709674 26 18341058445033876271

> <PUBCHEM_SHAPE_MULTIPOLES>
420.43
9.43
2.1
1.06
1.16
0.42
0.43
-0.59
-2.56
-0.22
0.02
0.09
-0.22
0.11

> <PUBCHEM_SHAPE_SELFOVERLAP>
902.625

> <PUBCHEM_SHAPE_VOLUME>
230.1

> <PUBCHEM_COORDINATE_TYPE>
2
5
10

> <Energy>
71.9966

> <minimizedAffinity>
7.48092

> <CNNscore>
0.1265443414

> <CNNaffinity>
5.6054491997

> <CNN_VS>
0.7093378901

> <CNNaffinity_variance>
0.2164235562

$$$$
6013


 22 25  0  0  0  0  0  0  0  0999 V2000
   22.0677   -7.1112    8.1880 O   0  0  0  0  0  0  0  0  0  0  0  0
   25.3386    2.6990   11.4905 O   0  0  0  0  0  0  0  0  0  0  0  0
   23.9694   -4.6972   10.1643 C   0  0  0  0  0  0  0  0  0  0  0  0
   23.3057   -5.0621    8.8223 C   0  0  0  0  0  0  0  0  0  0  0  0
   24.9117   -3.4954   10.0478 C   0  0  0  0  0  0  0  0  0  0  0  0
   24.0928   -2.2608    9.5547 C   0  0  0  0  0  0  0  0  0  0  0  0
   24.9662   -0.9531    9.4416 C   0  0  0  0  0  0  0  0  0  0  0  0
   22.4414   -3.8731    8.3830 C   0  0  0  0  0  0  0  0  0  0  0  0
   23.2728   -2.5820    8.2743 C   0  0  0  0  0  0  0  0  0  0  0  0
   22.5111   -6.3075    9.2650 C   0  0  0  0  0  0  0  0  0  0  0  0
   24.5225   -6.0302   10.6622 C   0  0  0  0  0  0  0  0  0  0  0  0
   25.5852   -3.1801   11.3894 C   0  0  0  0  0  0  0  0  0  0  0  0
   23.4858   -7.0652   10.1899 C   0  0  0  0  0  0  0  0  0  0  0  0
   25.7638   -0.7576   10.7386 C   0  0  0  0  0  0  0  0  0  0  0  0
   26.4960   -1.9647   11.2762 C   0  0  0  0  0  0  0  0  0  0  0  0
   24.2958   -5.4290    7.6891 C   0  0  0  0  0  0  0  0  0  0  0  0
   24.0109    0.2562    9.2177 C   0  0  0  0  0  0  0  0  0  0  0  0
   25.9678   -1.0237    8.2673 C   0  0  0  0  0  0  0  0  0  0  0  0
   24.6651    1.6078    9.4634 C   0  0  0  0  0  0  0  0  0  0  0  0
   25.8565    0.4147   11.3894 C   0  0  0  0  0  0  0  0  0  0  0  0
   25.2605    1.6576   10.8455 C   0  0  0  0  0  0  0  0  0  0  0  0
   21.4591   -6.5999    7.6321 H   0  0  0  0  0  0  0  0  0  0  0  0
  1 10  1  0
  1 22  1  0
  2 21  2  0
  3  4  1  0
  3  5  1  0
  3 11  1  0
  4  8  1  0
  4 10  1  0
  4 16  1  0
  5  6  1  0
  5 12  1  0
  6  7  1  0
  6  9  1  0
  7 14  1  0
  7 17  1  0
  7 18  1  0
  8  9  1  0
 10 13  1  0
 11 13  1  0
 12 15  1  0
 14 15  1  0
 14 20  2  0
 17 19  1  0
 19 21  1  0
 20 21  1  0
M  END
> <PUBCHEM_COMPOUND_CID>
6013

> <PUBCHEM_CONFORMER_RMSD>
0.6

> <PUBCHEM_CONFORMER_DIVERSEORDER>
1

> <PUBCHEM_MMFF94_PARTIAL_CHARGES>
11
1 -0.68
10 0.28
14 -0.28
15 0.14
19 0.06
2 -0.57
20 -0.14
21 0.49
48 0.15
49 0.4
7 0.14

> <PUBCHEM_EFFECTIVE_ROTOR_COUNT>
1.8

> <PUBCHEM_PHARMACOPHORE_FEATURES>
7
1 1 acceptor
1 1 donor
1 2 acceptor
5 3 4 10 11 13 rings
6 3 4 5 6 8 9 rings
6 5 6 7 12 14 15 rings
6 7 14 17 19 20 21 rings

> <PUBCHEM_HEAVY_ATOM_COUNT>
21

> <PUBCHEM_ATOM_DEF_STEREO_COUNT>
6

> <PUBCHEM_ATOM_UDEF_STEREO_COUNT>
0

> <PUBCHEM_BOND_DEF_STEREO_COUNT>
0

> <PUBCHEM_BOND_UDEF_STEREO_COUNT>
0

> <PUBCHEM_ISOTOPIC_ATOM_COUNT>
0

> <PUBCHEM_COMPONENT_COUNT>
1

> <PUBCHEM_CACTVS_TAUTO_COUNT>
5

> <PUBCHEM_CONFORMER_ID>
0000177D00000001

> <PUBCHEM_MMFF94_ENERGY>
67.5416

> <PUBCHEM_FEATURE_SELFOVERLAP>
35.618

> <PUBCHEM_SHAPE_FINGERPRINT>
10062212 137 18336825385559829163
10759866 29 17897457309511876188
10967382 1 18412548682291571786
11132069 177 18410018732180467827
11370993 70 18410569557056084199
11578080 2 16735503067342509174
12011746 2 18412547592124142406
12236239 1 18040155136873436768
12251169 10 18410008845387181634
12403259 226 18410006624652160988
12403259 415 18408880746209696412
12403260 363 18340481291412090749
12403814 3 17894914044785590877
12507557 5 18408881845467772304
12633257 1 18341888602346167976
12839892 36 18340758291450253690
13140716 1 18339643467883616216
13214271 11 18272369780793716703
13224815 77 18411987974316295335
13675066 3 18187087269080573787
14178342 30 18338527339117458393
14223421 5 18341052895787930134
14341114 176 18411985737129035682
14787075 74 18339640165090922602
14790565 3 18050014594947639924
15163728 17 14691189929019880809
15196674 1 18411420639180230811
15375358 24 18413110541697833299
15536298 74 18272376330249831326
15788980 27 17167859768361771669
16945 1 18267308633664624303
17349148 13 18260547844245275310
17492 89 18410012108956776131
1813 80 17168144512515476742
18186145 218 18411423903503023558
18522853 276 18412546492037592553
19050596 39 18410858775858764633
19784866 9 18412265021155473810
200 152 18202274819337965375
20715895 44 18116989984517715477
21033648 29 18262779827106925672
21267235 1 18410302427354843602
21421861 104 18042966467372004754
21637258 2 15647319828885568714
22182313 1 18189614934485510503
22854114 111 18409735070690792279
22854114 59 18343022189864506130
23402539 116 18272925046486162621
23557571 272 18059303161493107767
23559900 14 18343023255612643838
26918003 58 18409728456589012017
2748010 2 18410304609229794207
2838139 119 14835541671104639250
296302 2 16343984710473737934
335352 9 18411702045432157758
34934 24 18341610383102269379
350125 39 18410857681354741304
351380 180 18413386540454065762
3545911 37 18411703166439727155
42 15 18260548935156425576
5104073 3 18410294747868572393
59755656 215 18339930311854621398
633830 44 17988931080225984300
69090 78 18413386557386229218
7364860 26 18200601276388112774
9709674 26 18341058445033876271

> <PUBCHEM_SHAPE_MULTIPOLES>
420.43
9.43
2.1
1.06
1.16
0.42
0.43
-0.59
-2.56
-0.22
0.02
0.09
-0.22
0.11

> <PUBCHEM_SHAPE_SELFOVERLAP>
902.625

> <PUBCHEM_SHAPE_VOLUME>
230.1

> <PUBCHEM_COORDINATE_TYPE>
2
5
10

> <Energy>
71.9966

> <minimizedAffinity>
7.01409

> <CNNscore>
0.1187810302

> <CNNaffinity>
5.2574687004

> <CNN_VS>
0.6244875193

> <CNNaffinity_variance>
0.3390006125

$$$$
