5757


 22 25  0  0  0  0  0  0  0  0999 V2000
  108.7665   11.2502   22.7478 O   0  0  0  0  0  0  0  0  0  0  0  0
  100.3493   17.6528   25.6382 O   0  0  0  0  0  0  0  0  0  0  0  0
  106.7959   12.7054   23.0286 C   0  0  0  0  0  0  0  0  0  0  0  0
  105.8305   13.2651   21.9646 C   0  0  0  0  0  0  0  0  0  0  0  0
  104.5577   13.8403   22.5856 C   0  0  0  0  0  0  0  0  0  0  0  0
  104.9501   15.0217   23.5242 C   0  0  0  0  0  0  0  0  0  0  0  0
  107.9002   12.1622   22.1015 C   0  0  0  0  0  0  0  0  0  0  0  0
  107.2279   13.8629   23.9370 C   0  0  0  0  0  0  0  0  0  0  0  0
  105.7208   12.1289   20.9517 C   0  0  0  0  0  0  0  0  0  0  0  0
  106.0176   14.5829   24.5629 C   0  0  0  0  0  0  0  0  0  0  0  0
  107.1243   11.4958   20.9486 C   0  0  0  0  0  0  0  0  0  0  0  0
  103.5676   14.3477   21.5354 C   0  0  0  0  0  0  0  0  0  0  0  0
  106.2127   11.5626   23.8987 C   0  0  0  0  0  0  0  0  0  0  0  0
  103.7116   15.6959   24.1124 C   0  0  0  0  0  0  0  0  0  0  0  0
  102.2663   14.7740   22.2106 C   0  0  0  0  0  0  0  0  0  0  0  0
  102.4636   15.6051   23.4572 C   0  0  0  0  0  0  0  0  0  0  0  0
  103.8006   16.4958   25.2659 C   0  0  0  0  0  0  0  0  0  0  0  0
  101.3406   16.2614   23.9946 C   0  0  0  0  0  0  0  0  0  0  0  0
  102.6814   17.1512   25.7848 C   0  0  0  0  0  0  0  0  0  0  0  0
  101.4578   17.0255   25.1484 C   0  0  0  0  0  0  0  0  0  0  0  0
  109.2363   11.7036   23.4653 H   0  0  0  0  0  0  0  0  0  0  0  0
   99.5266   17.5606   25.1994 H   0  0  0  0  0  0  0  0  0  0  0  0
  1  7  1  0
  1 21  1  0
  2 20  1  0
  2 22  1  0
  3  4  1  0
  3  7  1  0
  3  8  1  0
  3 13  1  0
  4  5  1  0
  4  9  1  0
  5  6  1  0
  5 12  1  0
  6 10  1  0
  6 14  1  0
  7 11  1  0
  8 10  1  0
  9 11  1  0
 12 15  1  0
 14 16  2  0
 14 17  1  0
 15 16  1  0
 16 18  1  0
 17 19  2  0
 18 20  2  0
 19 20  1  0
M  END
> <PUBCHEM_COMPOUND_CID>
5757

> <PUBCHEM_CONFORMER_RMSD>
0.6

> <PUBCHEM_CONFORMER_DIVERSEORDER>
1

> <PUBCHEM_MMFF94_PARTIAL_CHARGES>
16
1 -0.68
14 -0.14
15 0.14
16 -0.14
17 -0.15
18 -0.15
19 -0.15
2 -0.53
20 0.08
40 0.4
41 0.15
42 0.15
43 0.15
44 0.45
6 0.14
7 0.28

> <PUBCHEM_EFFECTIVE_ROTOR_COUNT>
1.4

> <PUBCHEM_PHARMACOPHORE_FEATURES>
7
1 1 acceptor
1 1 donor
1 2 donor
5 3 4 7 9 11 rings
6 14 16 17 18 19 20 rings
6 3 4 5 6 8 10 rings
6 5 6 12 14 15 16 rings

> <PUBCHEM_HEAVY_ATOM_COUNT>
20

> <PUBCHEM_ATOM_DEF_STEREO_COUNT>
5

> <PUBCHEM_ATOM_UDEF_STEREO_COUNT>
0

> <PUBCHEM_BOND_DEF_STEREO_COUNT>
0

> <PUBCHEM_BOND_UDEF_STEREO_COUNT>
0

> <PUBCHEM_ISOTOPIC_ATOM_COUNT>
0

> <PUBCHEM_COMPONENT_COUNT>
1

> <PUBCHEM_CACTVS_TAUTO_COUNT>
9

> <PUBCHEM_CONFORMER_ID>
0000167D00000001

> <PUBCHEM_MMFF94_ENERGY>
68.4596

> <PUBCHEM_FEATURE_SELFOVERLAP>
35.62

> <PUBCHEM_SHAPE_FINGERPRINT>
10 15 18262512710780645640
10411042 1 16969703283687688743
10616163 171 18338239395883154686
10967382 1 18410012100429229070
11132069 177 18409162216832884669
11578080 2 17201347718505248258
12011746 2 18410859841042374310
12107183 9 17690845558000159065
12236239 1 13470690338792453460
12251169 10 18335139816864396069
12403259 415 18410852127603240605
12403814 3 17530960289353343621
12500047 106 18271238421624861530
12592029 89 18334859377112304987
12788726 201 17703518696578858128
128620 24 11818992989152349105
13140716 1 18192429898953651512
13533116 47 17846218813073552003
13544592 145 18272379637759764926
13675066 3 18341893012844745609
14178342 30 18123731313450613666
14341114 176 18409738343777605753
14866123 147 17046555868986690930
15042514 8 18263932206156989787
15196674 1 18410012108982090935
15256400 18 18410857620686823693
15295992 7 17845930826899781123
15536298 74 18413671296627645270
1601671 61 18409168826940819996
16945 1 18266170819592368622
17349148 13 18412820287929204701
17804303 29 18410296916890392117
1813 80 16950285091842931756
18186145 218 17417805158171412875
19141452 34 18413108389914235807
192875 21 13830133918406568194
19591789 44 18192993725128068838
200 152 18131627885965453901
20028762 73 18272929458099065015
20261772 1 18410856577167961319
20510252 161 18341895147623301209
20645477 70 18200878374956666302
21033648 29 18271512131406579929
21267235 1 18337399244825179854
21279426 13 18124035632930519374
21421861 104 17895744090149736410
22854114 59 18412546505207311417
22892500 29 17274814788166584896
23184049 59 18410576175690384255
23402539 116 18342170081765240151
23557571 272 17773880972535682807
23558518 356 17682680979747269074
23559900 14 18413389822146813342
2748010 2 18337666399911122230
3004659 81 18260835844047909814
335352 9 18410013195572088855
34934 24 18411133675799850702
350125 39 18409735045496469133
351380 180 18409730664571278687
3545911 37 18411703192367818988
4214541 1 18409167684326479901
465052 167 17967541176940287083
495365 180 17346587600050392546
5104073 3 18409449150412323065
542803 24 17346883342628774985
59755656 215 18335983048405458773
69090 78 18341891905091661271
77779 3 18409450271409361990
7832392 63 18341046427736201710
9709674 26 18410862087368844367
9999458 23 17967819357476725574

> <PUBCHEM_SHAPE_MULTIPOLES>
399.85
9.72
2.11
0.84
3.73
0.39
0.22
-1.2
1.2
-0.24
-0.15
-0.38
-0.13
0.32

> <PUBCHEM_SHAPE_SELFOVERLAP>
871.414

> <PUBCHEM_SHAPE_VOLUME>
217.1

> <PUBCHEM_COORDINATE_TYPE>
2
5
10

> <Energy>
58.4396

> <minimizedAffinity>
-11.94758

> <CNNscore>
0.9709892273

> <CNNaffinity>
8.3809261322

> <CNN_VS>
8.1377887726

> <CNNaffinity_variance>
1.3549751043

$$$$
5757


 22 25  0  0  0  0  0  0  0  0999 V2000
  107.9516   11.3511   20.7137 O   0  0  0  0  0  0  0  0  0  0  0  0
  100.5968   17.9948   25.4003 O   0  0  0  0  0  0  0  0  0  0  0  0
  106.4483   12.7334   22.0953 C   0  0  0  0  0  0  0  0  0  0  0  0
  106.3932   12.8906   23.6282 C   0  0  0  0  0  0  0  0  0  0  0  0
  105.5474   14.0901   24.0553 C   0  0  0  0  0  0  0  0  0  0  0  0
  104.0860   13.8729   23.5577 C   0  0  0  0  0  0  0  0  0  0  0  0
  107.3974   11.5231   22.0033 C   0  0  0  0  0  0  0  0  0  0  0  0
  105.0233   12.4754   21.5906 C   0  0  0  0  0  0  0  0  0  0  0  0
  107.8596   12.8232   24.0452 C   0  0  0  0  0  0  0  0  0  0  0  0
  104.0491   13.5847   22.0324 C   0  0  0  0  0  0  0  0  0  0  0  0
  108.4820   11.8192   23.0576 C   0  0  0  0  0  0  0  0  0  0  0  0
  105.5316   14.2890   25.5721 C   0  0  0  0  0  0  0  0  0  0  0  0
  107.0473   13.9465   21.3385 C   0  0  0  0  0  0  0  0  0  0  0  0
  103.1683   15.0008   24.0269 C   0  0  0  0  0  0  0  0  0  0  0  0
  104.7926   15.5791   25.9198 C   0  0  0  0  0  0  0  0  0  0  0  0
  103.4953   15.7668   25.1678 C   0  0  0  0  0  0  0  0  0  0  0  0
  101.9367   15.2445   23.3930 C   0  0  0  0  0  0  0  0  0  0  0  0
  102.6215   16.7790   25.6064 C   0  0  0  0  0  0  0  0  0  0  0  0
  101.0721   16.2451   23.8432 C   0  0  0  0  0  0  0  0  0  0  0  0
  101.4226   17.0090   24.9439 C   0  0  0  0  0  0  0  0  0  0  0  0
  107.2418   11.1670   20.0787 H   0  0  0  0  0  0  0  0  0  0  0  0
  100.8443   18.5054   26.1459 H   0  0  0  0  0  0  0  0  0  0  0  0
  1  7  1  0
  1 21  1  0
  2 20  1  0
  2 22  1  0
  3  4  1  0
  3  7  1  0
  3  8  1  0
  3 13  1  0
  4  5  1  0
  4  9  1  0
  5  6  1  0
  5 12  1  0
  6 10  1  0
  6 14  1  0
  7 11  1  0
  8 10  1  0
  9 11  1  0
 12 15  1  0
 14 16  2  0
 14 17  1  0
 15 16  1  0
 16 18  1  0
 17 19  2  0
 18 20  2  0
 19 20  1  0
M  END
> <PUBCHEM_COMPOUND_CID>
5757

> <PUBCHEM_CONFORMER_RMSD>
0.6

> <PUBCHEM_CONFORMER_DIVERSEORDER>
1

> <PUBCHEM_MMFF94_PARTIAL_CHARGES>
16
1 -0.68
14 -0.14
15 0.14
16 -0.14
17 -0.15
18 -0.15
19 -0.15
2 -0.53
20 0.08
40 0.4
41 0.15
42 0.15
43 0.15
44 0.45
6 0.14
7 0.28

> <PUBCHEM_EFFECTIVE_ROTOR_COUNT>
1.4

> <PUBCHEM_PHARMACOPHORE_FEATURES>
7
1 1 acceptor
1 1 donor
1 2 donor
5 3 4 7 9 11 rings
6 14 16 17 18 19 20 rings
6 3 4 5 6 8 10 rings
6 5 6 12 14 15 16 rings

> <PUBCHEM_HEAVY_ATOM_COUNT>
20

> <PUBCHEM_ATOM_DEF_STEREO_COUNT>
5

> <PUBCHEM_ATOM_UDEF_STEREO_COUNT>
0

> <PUBCHEM_BOND_DEF_STEREO_COUNT>
0

> <PUBCHEM_BOND_UDEF_STEREO_COUNT>
0

> <PUBCHEM_ISOTOPIC_ATOM_COUNT>
0

> <PUBCHEM_COMPONENT_COUNT>
1

> <PUBCHEM_CACTVS_TAUTO_COUNT>
9

> <PUBCHEM_CONFORMER_ID>
0000167D00000001

> <PUBCHEM_MMFF94_ENERGY>
68.4596

> <PUBCHEM_FEATURE_SELFOVERLAP>
35.62

> <PUBCHEM_SHAPE_FINGERPRINT>
10 15 18262512710780645640
10411042 1 16969703283687688743
10616163 171 18338239395883154686
10967382 1 18410012100429229070
11132069 177 18409162216832884669
11578080 2 17201347718505248258
12011746 2 18410859841042374310
12107183 9 17690845558000159065
12236239 1 13470690338792453460
12251169 10 18335139816864396069
12403259 415 18410852127603240605
12403814 3 17530960289353343621
12500047 106 18271238421624861530
12592029 89 18334859377112304987
12788726 201 17703518696578858128
128620 24 11818992989152349105
13140716 1 18192429898953651512
13533116 47 17846218813073552003
13544592 145 18272379637759764926
13675066 3 18341893012844745609
14178342 30 18123731313450613666
14341114 176 18409738343777605753
14866123 147 17046555868986690930
15042514 8 18263932206156989787
15196674 1 18410012108982090935
15256400 18 18410857620686823693
15295992 7 17845930826899781123
15536298 74 18413671296627645270
1601671 61 18409168826940819996
16945 1 18266170819592368622
17349148 13 18412820287929204701
17804303 29 18410296916890392117
1813 80 16950285091842931756
18186145 218 17417805158171412875
19141452 34 18413108389914235807
192875 21 13830133918406568194
19591789 44 18192993725128068838
200 152 18131627885965453901
20028762 73 18272929458099065015
20261772 1 18410856577167961319
20510252 161 18341895147623301209
20645477 70 18200878374956666302
21033648 29 18271512131406579929
21267235 1 18337399244825179854
21279426 13 18124035632930519374
21421861 104 17895744090149736410
22854114 59 18412546505207311417
22892500 29 17274814788166584896
23184049 59 18410576175690384255
23402539 116 18342170081765240151
23557571 272 17773880972535682807
23558518 356 17682680979747269074
23559900 14 18413389822146813342
2748010 2 18337666399911122230
3004659 81 18260835844047909814
335352 9 18410013195572088855
34934 24 18411133675799850702
350125 39 18409735045496469133
351380 180 18409730664571278687
3545911 37 18411703192367818988
4214541 1 18409167684326479901
465052 167 17967541176940287083
495365 180 17346587600050392546
5104073 3 18409449150412323065
542803 24 17346883342628774985
59755656 215 18335983048405458773
69090 78 18341891905091661271
77779 3 18409450271409361990
7832392 63 18341046427736201710
9709674 26 18410862087368844367
9999458 23 17967819357476725574

> <PUBCHEM_SHAPE_MULTIPOLES>
399.85
9.72
2.11
0.84
3.73
0.39
0.22
-1.2
1.2
-0.24
-0.15
-0.38
-0.13
0.32

> <PUBCHEM_SHAPE_SELFOVERLAP>
871.414

> <PUBCHEM_SHAPE_VOLUME>
217.1

> <PUBCHEM_COORDINATE_TYPE>
2
5
10

> <Energy>
58.4396

> <minimizedAffinity>
-10.62597

> <CNNscore>
0.9004133344

> <CNNaffinity>
8.2155179977

> <CNN_VS>
7.3973617554

> <CNNaffinity_variance>
1.4999674559

$$$$
5757


 22 25  0  0  0  0  0  0  0  0999 V2000
  109.4354   13.1145   21.4298 O   0  0  0  0  0  0  0  0  0  0  0  0
   99.7870   17.2819   24.5501 O   0  0  0  0  0  0  0  0  0  0  0  0
  107.4287   14.1015   22.4684 C   0  0  0  0  0  0  0  0  0  0  0  0
  107.2259   14.6297   23.9027 C   0  0  0  0  0  0  0  0  0  0  0  0
  105.9501   15.4610   24.0366 C   0  0  0  0  0  0  0  0  0  0  0  0
  104.7268   14.5560   23.6974 C   0  0  0  0  0  0  0  0  0  0  0  0
  108.7838   13.3920   22.6538 C   0  0  0  0  0  0  0  0  0  0  0  0
  106.2554   13.1733   22.1313 C   0  0  0  0  0  0  0  0  0  0  0  0
  108.5714   15.2652   24.2409 C   0  0  0  0  0  0  0  0  0  0  0  0
  104.8969   13.8784   22.3107 C   0  0  0  0  0  0  0  0  0  0  0  0
  109.5979   14.3661   23.5277 C   0  0  0  0  0  0  0  0  0  0  0  0
  105.7676   16.0370   25.4421 C   0  0  0  0  0  0  0  0  0  0  0  0
  107.5405   15.2004   21.3807 C   0  0  0  0  0  0  0  0  0  0  0  0
  103.4111   15.3073   23.8951 C   0  0  0  0  0  0  0  0  0  0  0  0
  104.5585   16.9689   25.4694 C   0  0  0  0  0  0  0  0  0  0  0  0
  103.3398   16.4160   24.7673 C   0  0  0  0  0  0  0  0  0  0  0  0
  102.2234   14.8613   23.2878 C   0  0  0  0  0  0  0  0  0  0  0  0
  102.1119   17.0749   24.9643 C   0  0  0  0  0  0  0  0  0  0  0  0
  101.0080   15.5169   23.4986 C   0  0  0  0  0  0  0  0  0  0  0  0
  100.9614   16.6223   24.3316 C   0  0  0  0  0  0  0  0  0  0  0  0
  108.8955   12.5003   20.9081 H   0  0  0  0  0  0  0  0  0  0  0  0
   99.7673   18.0287   25.1156 H   0  0  0  0  0  0  0  0  0  0  0  0
  1  7  1  0
  1 21  1  0
  2 20  1  0
  2 22  1  0
  3  4  1  0
  3  7  1  0
  3  8  1  0
  3 13  1  0
  4  5  1  0
  4  9  1  0
  5  6  1  0
  5 12  1  0
  6 10  1  0
  6 14  1  0
  7 11  1  0
  8 10  1  0
  9 11  1  0
 12 15  1  0
 14 16  2  0
 14 17  1  0
 15 16  1  0
 16 18  1  0
 17 19  2  0
 18 20  2  0
 19 20  1  0
M  END
> <PUBCHEM_COMPOUND_CID>
5757

> <PUBCHEM_CONFORMER_RMSD>
0.6

> <PUBCHEM_CONFORMER_DIVERSEORDER>
1

> <PUBCHEM_MMFF94_PARTIAL_CHARGES>
16
1 -0.68
14 -0.14
15 0.14
16 -0.14
17 -0.15
18 -0.15
19 -0.15
2 -0.53
20 0.08
40 0.4
41 0.15
42 0.15
43 0.15
44 0.45
6 0.14
7 0.28

> <PUBCHEM_EFFECTIVE_ROTOR_COUNT>
1.4

> <PUBCHEM_PHARMACOPHORE_FEATURES>
7
1 1 acceptor
1 1 donor
1 2 donor
5 3 4 7 9 11 rings
6 14 16 17 18 19 20 rings
6 3 4 5 6 8 10 rings
6 5 6 12 14 15 16 rings

> <PUBCHEM_HEAVY_ATOM_COUNT>
20

> <PUBCHEM_ATOM_DEF_STEREO_COUNT>
5

> <PUBCHEM_ATOM_UDEF_STEREO_COUNT>
0

> <PUBCHEM_BOND_DEF_STEREO_COUNT>
0

> <PUBCHEM_BOND_UDEF_STEREO_COUNT>
0

> <PUBCHEM_ISOTOPIC_ATOM_COUNT>
0

> <PUBCHEM_COMPONENT_COUNT>
1

> <PUBCHEM_CACTVS_TAUTO_COUNT>
9

> <PUBCHEM_CONFORMER_ID>
0000167D00000001

> <PUBCHEM_MMFF94_ENERGY>
68.4596

> <PUBCHEM_FEATURE_SELFOVERLAP>
35.62

> <PUBCHEM_SHAPE_FINGERPRINT>
10 15 18262512710780645640
10411042 1 16969703283687688743
10616163 171 18338239395883154686
10967382 1 18410012100429229070
11132069 177 18409162216832884669
11578080 2 17201347718505248258
12011746 2 18410859841042374310
12107183 9 17690845558000159065
12236239 1 13470690338792453460
12251169 10 18335139816864396069
12403259 415 18410852127603240605
12403814 3 17530960289353343621
12500047 106 18271238421624861530
12592029 89 18334859377112304987
12788726 201 17703518696578858128
128620 24 11818992989152349105
13140716 1 18192429898953651512
13533116 47 17846218813073552003
13544592 145 18272379637759764926
13675066 3 18341893012844745609
14178342 30 18123731313450613666
14341114 176 18409738343777605753
14866123 147 17046555868986690930
15042514 8 18263932206156989787
15196674 1 18410012108982090935
15256400 18 18410857620686823693
15295992 7 17845930826899781123
15536298 74 18413671296627645270
1601671 61 18409168826940819996
16945 1 18266170819592368622
17349148 13 18412820287929204701
17804303 29 18410296916890392117
1813 80 16950285091842931756
18186145 218 17417805158171412875
19141452 34 18413108389914235807
192875 21 13830133918406568194
19591789 44 18192993725128068838
200 152 18131627885965453901
20028762 73 18272929458099065015
20261772 1 18410856577167961319
20510252 161 18341895147623301209
20645477 70 18200878374956666302
21033648 29 18271512131406579929
21267235 1 18337399244825179854
21279426 13 18124035632930519374
21421861 104 17895744090149736410
22854114 59 18412546505207311417
22892500 29 17274814788166584896
23184049 59 18410576175690384255
23402539 116 18342170081765240151
23557571 272 17773880972535682807
23558518 356 17682680979747269074
23559900 14 18413389822146813342
2748010 2 18337666399911122230
3004659 81 18260835844047909814
335352 9 18410013195572088855
34934 24 18411133675799850702
350125 39 18409735045496469133
351380 180 18409730664571278687
3545911 37 18411703192367818988
4214541 1 18409167684326479901
465052 167 17967541176940287083
495365 180 17346587600050392546
5104073 3 18409449150412323065
542803 24 17346883342628774985
59755656 215 18335983048405458773
69090 78 18341891905091661271
77779 3 18409450271409361990
7832392 63 18341046427736201710
9709674 26 18410862087368844367
9999458 23 17967819357476725574

> <PUBCHEM_SHAPE_MULTIPOLES>
399.85
9.72
2.11
0.84
3.73
0.39
0.22
-1.2
1.2
-0.24
-0.15
-0.38
-0.13
0.32

> <PUBCHEM_SHAPE_SELFOVERLAP>
871.414

> <PUBCHEM_SHAPE_VOLUME>
217.1

> <PUBCHEM_COORDINATE_TYPE>
2
5
10

> <Energy>
58.4396

> <minimizedAffinity>
-8.68775

> <CNNscore>
0.7894350290

> <CNNaffinity>
7.8437347412

> <CNN_VS>
6.1921191216

> <CNNaffinity_variance>
0.8788318634

$$$$
5757


 22 25  0  0  0  0  0  0  0  0999 V2000
  100.1319   16.9352   23.9490 O   0  0  0  0  0  0  0  0  0  0  0  0
  109.0099   10.7014   22.3624 O   0  0  0  0  0  0  0  0  0  0  0  0
  102.3230   15.8255   23.7313 C   0  0  0  0  0  0  0  0  0  0  0  0
  103.7260   16.3429   24.1072 C   0  0  0  0  0  0  0  0  0  0  0  0
  104.7677   15.2245   24.1259 C   0  0  0  0  0  0  0  0  0  0  0  0
  104.8666   14.6105   22.6963 C   0  0  0  0  0  0  0  0  0  0  0  0
  101.5289   17.1390   23.8667 C   0  0  0  0  0  0  0  0  0  0  0  0
  102.3897   15.2559   22.3090 C   0  0  0  0  0  0  0  0  0  0  0  0
  103.4773   17.1545   25.3754 C   0  0  0  0  0  0  0  0  0  0  0  0
  103.4719   14.1665   22.1781 C   0  0  0  0  0  0  0  0  0  0  0  0
  102.0900   17.7830   25.1495 C   0  0  0  0  0  0  0  0  0  0  0  0
  106.1522   15.7166   24.5523 C   0  0  0  0  0  0  0  0  0  0  0  0
  101.7496   14.7484   24.6874 C   0  0  0  0  0  0  0  0  0  0  0  0
  105.9548   13.5402   22.6278 C   0  0  0  0  0  0  0  0  0  0  0  0
  107.1059   14.5322   24.6886 C   0  0  0  0  0  0  0  0  0  0  0  0
  107.0263   13.5438   23.5481 C   0  0  0  0  0  0  0  0  0  0  0  0
  105.9669   12.5836   21.5967 C   0  0  0  0  0  0  0  0  0  0  0  0
  108.0386   12.5711   23.4490 C   0  0  0  0  0  0  0  0  0  0  0  0
  106.9824   11.6291   21.5019 C   0  0  0  0  0  0  0  0  0  0  0  0
  108.0088   11.6261   22.4316 C   0  0  0  0  0  0  0  0  0  0  0  0
   99.8152   16.5296   23.1267 H   0  0  0  0  0  0  0  0  0  0  0  0
  109.6993   10.7089   22.9970 H   0  0  0  0  0  0  0  0  0  0  0  0
  1  7  1  0
  1 21  1  0
  2 20  1  0
  2 22  1  0
  3  4  1  0
  3  7  1  0
  3  8  1  0
  3 13  1  0
  4  5  1  0
  4  9  1  0
  5  6  1  0
  5 12  1  0
  6 10  1  0
  6 14  1  0
  7 11  1  0
  8 10  1  0
  9 11  1  0
 12 15  1  0
 14 16  2  0
 14 17  1  0
 15 16  1  0
 16 18  1  0
 17 19  2  0
 18 20  2  0
 19 20  1  0
M  END
> <PUBCHEM_COMPOUND_CID>
5757

> <PUBCHEM_CONFORMER_RMSD>
0.6

> <PUBCHEM_CONFORMER_DIVERSEORDER>
1

> <PUBCHEM_MMFF94_PARTIAL_CHARGES>
16
1 -0.68
14 -0.14
15 0.14
16 -0.14
17 -0.15
18 -0.15
19 -0.15
2 -0.53
20 0.08
40 0.4
41 0.15
42 0.15
43 0.15
44 0.45
6 0.14
7 0.28

> <PUBCHEM_EFFECTIVE_ROTOR_COUNT>
1.4

> <PUBCHEM_PHARMACOPHORE_FEATURES>
7
1 1 acceptor
1 1 donor
1 2 donor
5 3 4 7 9 11 rings
6 14 16 17 18 19 20 rings
6 3 4 5 6 8 10 rings
6 5 6 12 14 15 16 rings

> <PUBCHEM_HEAVY_ATOM_COUNT>
20

> <PUBCHEM_ATOM_DEF_STEREO_COUNT>
5

> <PUBCHEM_ATOM_UDEF_STEREO_COUNT>
0

> <PUBCHEM_BOND_DEF_STEREO_COUNT>
0

> <PUBCHEM_BOND_UDEF_STEREO_COUNT>
0

> <PUBCHEM_ISOTOPIC_ATOM_COUNT>
0

> <PUBCHEM_COMPONENT_COUNT>
1

> <PUBCHEM_CACTVS_TAUTO_COUNT>
9

> <PUBCHEM_CONFORMER_ID>
0000167D00000001

> <PUBCHEM_MMFF94_ENERGY>
68.4596

> <PUBCHEM_FEATURE_SELFOVERLAP>
35.62

> <PUBCHEM_SHAPE_FINGERPRINT>
10 15 18262512710780645640
10411042 1 16969703283687688743
10616163 171 18338239395883154686
10967382 1 18410012100429229070
11132069 177 18409162216832884669
11578080 2 17201347718505248258
12011746 2 18410859841042374310
12107183 9 17690845558000159065
12236239 1 13470690338792453460
12251169 10 18335139816864396069
12403259 415 18410852127603240605
12403814 3 17530960289353343621
12500047 106 18271238421624861530
12592029 89 18334859377112304987
12788726 201 17703518696578858128
128620 24 11818992989152349105
13140716 1 18192429898953651512
13533116 47 17846218813073552003
13544592 145 18272379637759764926
13675066 3 18341893012844745609
14178342 30 18123731313450613666
14341114 176 18409738343777605753
14866123 147 17046555868986690930
15042514 8 18263932206156989787
15196674 1 18410012108982090935
15256400 18 18410857620686823693
15295992 7 17845930826899781123
15536298 74 18413671296627645270
1601671 61 18409168826940819996
16945 1 18266170819592368622
17349148 13 18412820287929204701
17804303 29 18410296916890392117
1813 80 16950285091842931756
18186145 218 17417805158171412875
19141452 34 18413108389914235807
192875 21 13830133918406568194
19591789 44 18192993725128068838
200 152 18131627885965453901
20028762 73 18272929458099065015
20261772 1 18410856577167961319
20510252 161 18341895147623301209
20645477 70 18200878374956666302
21033648 29 18271512131406579929
21267235 1 18337399244825179854
21279426 13 18124035632930519374
21421861 104 17895744090149736410
22854114 59 18412546505207311417
22892500 29 17274814788166584896
23184049 59 18410576175690384255
23402539 116 18342170081765240151
23557571 272 17773880972535682807
23558518 356 17682680979747269074
23559900 14 18413389822146813342
2748010 2 18337666399911122230
3004659 81 18260835844047909814
335352 9 18410013195572088855
34934 24 18411133675799850702
350125 39 18409735045496469133
351380 180 18409730664571278687
3545911 37 18411703192367818988
4214541 1 18409167684326479901
465052 167 17967541176940287083
495365 180 17346587600050392546
5104073 3 18409449150412323065
542803 24 17346883342628774985
59755656 215 18335983048405458773
69090 78 18341891905091661271
77779 3 18409450271409361990
7832392 63 18341046427736201710
9709674 26 18410862087368844367
9999458 23 17967819357476725574

> <PUBCHEM_SHAPE_MULTIPOLES>
399.85
9.72
2.11
0.84
3.73
0.39
0.22
-1.2
1.2
-0.24
-0.15
-0.38
-0.13
0.32

> <PUBCHEM_SHAPE_SELFOVERLAP>
871.414

> <PUBCHEM_SHAPE_VOLUME>
217.1

> <PUBCHEM_COORDINATE_TYPE>
2
5
10

> <Energy>
58.4396

> <minimizedAffinity>
-8.94918

> <CNNscore>
0.4990503490

> <CNNaffinity>
7.1995658875

> <CNN_VS>
3.5929458141

> <CNNaffinity_variance>
0.4310102165

$$$$
5757


 22 25  0  0  0  0  0  0  0  0999 V2000
  100.8466   17.6674   25.7595 O   0  0  0  0  0  0  0  0  0  0  0  0
  110.3008   13.2237   22.4326 O   0  0  0  0  0  0  0  0  0  0  0  0
  102.7641   16.4885   24.7528 C   0  0  0  0  0  0  0  0  0  0  0  0
  102.7980   15.5086   23.5628 C   0  0  0  0  0  0  0  0  0  0  0  0
  104.2187   15.2704   23.0517 C   0  0  0  0  0  0  0  0  0  0  0  0
  105.0624   14.6368   24.1994 C   0  0  0  0  0  0  0  0  0  0  0  0
  101.2407   16.5604   24.9726 C   0  0  0  0  0  0  0  0  0  0  0  0
  103.5537   15.8627   25.9089 C   0  0  0  0  0  0  0  0  0  0  0  0
  101.7451   16.0691   22.6110 C   0  0  0  0  0  0  0  0  0  0  0  0
  104.9911   15.4975   25.4898 C   0  0  0  0  0  0  0  0  0  0  0  0
  100.6618   16.6368   23.5464 C   0  0  0  0  0  0  0  0  0  0  0  0
  104.2590   14.3435   21.8352 C   0  0  0  0  0  0  0  0  0  0  0  0
  103.3318   17.8989   24.4500 C   0  0  0  0  0  0  0  0  0  0  0  0
  106.4740   14.2953   23.7249 C   0  0  0  0  0  0  0  0  0  0  0  0
  105.6829   14.2625   21.2900 C   0  0  0  0  0  0  0  0  0  0  0  0
  106.7398   14.0796   22.3545 C   0  0  0  0  0  0  0  0  0  0  0  0
  107.5201   14.0984   24.6443 C   0  0  0  0  0  0  0  0  0  0  0  0
  108.0386   13.7318   21.9388 C   0  0  0  0  0  0  0  0  0  0  0  0
  108.8031   13.7430   24.2212 C   0  0  0  0  0  0  0  0  0  0  0  0
  109.0550   13.5669   22.8708 C   0  0  0  0  0  0  0  0  0  0  0  0
  101.2286   17.5853   26.6474 H   0  0  0  0  0  0  0  0  0  0  0  0
  110.4597   13.1073   21.5166 H   0  0  0  0  0  0  0  0  0  0  0  0
  1  7  1  0
  1 21  1  0
  2 20  1  0
  2 22  1  0
  3  4  1  0
  3  7  1  0
  3  8  1  0
  3 13  1  0
  4  5  1  0
  4  9  1  0
  5  6  1  0
  5 12  1  0
  6 10  1  0
  6 14  1  0
  7 11  1  0
  8 10  1  0
  9 11  1  0
 12 15  1  0
 14 16  2  0
 14 17  1  0
 15 16  1  0
 16 18  1  0
 17 19  2  0
 18 20  2  0
 19 20  1  0
M  END
> <PUBCHEM_COMPOUND_CID>
5757

> <PUBCHEM_CONFORMER_RMSD>
0.6

> <PUBCHEM_CONFORMER_DIVERSEORDER>
1

> <PUBCHEM_MMFF94_PARTIAL_CHARGES>
16
1 -0.68
14 -0.14
15 0.14
16 -0.14
17 -0.15
18 -0.15
19 -0.15
2 -0.53
20 0.08
40 0.4
41 0.15
42 0.15
43 0.15
44 0.45
6 0.14
7 0.28

> <PUBCHEM_EFFECTIVE_ROTOR_COUNT>
1.4

> <PUBCHEM_PHARMACOPHORE_FEATURES>
7
1 1 acceptor
1 1 donor
1 2 donor
5 3 4 7 9 11 rings
6 14 16 17 18 19 20 rings
6 3 4 5 6 8 10 rings
6 5 6 12 14 15 16 rings

> <PUBCHEM_HEAVY_ATOM_COUNT>
20

> <PUBCHEM_ATOM_DEF_STEREO_COUNT>
5

> <PUBCHEM_ATOM_UDEF_STEREO_COUNT>
0

> <PUBCHEM_BOND_DEF_STEREO_COUNT>
0

> <PUBCHEM_BOND_UDEF_STEREO_COUNT>
0

> <PUBCHEM_ISOTOPIC_ATOM_COUNT>
0

> <PUBCHEM_COMPONENT_COUNT>
1

> <PUBCHEM_CACTVS_TAUTO_COUNT>
9

> <PUBCHEM_CONFORMER_ID>
0000167D00000001

> <PUBCHEM_MMFF94_ENERGY>
68.4596

> <PUBCHEM_FEATURE_SELFOVERLAP>
35.62

> <PUBCHEM_SHAPE_FINGERPRINT>
10 15 18262512710780645640
10411042 1 16969703283687688743
10616163 171 18338239395883154686
10967382 1 18410012100429229070
11132069 177 18409162216832884669
11578080 2 17201347718505248258
12011746 2 18410859841042374310
12107183 9 17690845558000159065
12236239 1 13470690338792453460
12251169 10 18335139816864396069
12403259 415 18410852127603240605
12403814 3 17530960289353343621
12500047 106 18271238421624861530
12592029 89 18334859377112304987
12788726 201 17703518696578858128
128620 24 11818992989152349105
13140716 1 18192429898953651512
13533116 47 17846218813073552003
13544592 145 18272379637759764926
13675066 3 18341893012844745609
14178342 30 18123731313450613666
14341114 176 18409738343777605753
14866123 147 17046555868986690930
15042514 8 18263932206156989787
15196674 1 18410012108982090935
15256400 18 18410857620686823693
15295992 7 17845930826899781123
15536298 74 18413671296627645270
1601671 61 18409168826940819996
16945 1 18266170819592368622
17349148 13 18412820287929204701
17804303 29 18410296916890392117
1813 80 16950285091842931756
18186145 218 17417805158171412875
19141452 34 18413108389914235807
192875 21 13830133918406568194
19591789 44 18192993725128068838
200 152 18131627885965453901
20028762 73 18272929458099065015
20261772 1 18410856577167961319
20510252 161 18341895147623301209
20645477 70 18200878374956666302
21033648 29 18271512131406579929
21267235 1 18337399244825179854
21279426 13 18124035632930519374
21421861 104 17895744090149736410
22854114 59 18412546505207311417
22892500 29 17274814788166584896
23184049 59 18410576175690384255
23402539 116 18342170081765240151
23557571 272 17773880972535682807
23558518 356 17682680979747269074
23559900 14 18413389822146813342
2748010 2 18337666399911122230
3004659 81 18260835844047909814
335352 9 18410013195572088855
34934 24 18411133675799850702
350125 39 18409735045496469133
351380 180 18409730664571278687
3545911 37 18411703192367818988
4214541 1 18409167684326479901
465052 167 17967541176940287083
495365 180 17346587600050392546
5104073 3 18409449150412323065
542803 24 17346883342628774985
59755656 215 18335983048405458773
69090 78 18341891905091661271
77779 3 18409450271409361990
7832392 63 18341046427736201710
9709674 26 18410862087368844367
9999458 23 17967819357476725574

> <PUBCHEM_SHAPE_MULTIPOLES>
399.85
9.72
2.11
0.84
3.73
0.39
0.22
-1.2
1.2
-0.24
-0.15
-0.38
-0.13
0.32

> <PUBCHEM_SHAPE_SELFOVERLAP>
871.414

> <PUBCHEM_SHAPE_VOLUME>
217.1

> <PUBCHEM_COORDINATE_TYPE>
2
5
10

> <Energy>
58.4396

> <minimizedAffinity>
-8.32542

> <CNNscore>
0.4232483208

> <CNNaffinity>
7.3145556450

> <CNN_VS>
3.0958733559

> <CNNaffinity_variance>
0.7582774162

$$$$
5757


 22 25  0  0  0  0  0  0  0  0999 V2000
  102.9734   18.3562   26.4175 O   0  0  0  0  0  0  0  0  0  0  0  0
  108.2272   10.4896   20.8759 O   0  0  0  0  0  0  0  0  0  0  0  0
  103.8126   16.4843   25.0496 C   0  0  0  0  0  0  0  0  0  0  0  0
  103.0348   15.4946   24.1591 C   0  0  0  0  0  0  0  0  0  0  0  0
  103.9572   14.7088   23.2273 C   0  0  0  0  0  0  0  0  0  0  0  0
  104.9485   13.8739   24.0939 C   0  0  0  0  0  0  0  0  0  0  0  0
  102.6287   17.1374   25.7885 C   0  0  0  0  0  0  0  0  0  0  0  0
  104.7637   15.6774   25.9418 C   0  0  0  0  0  0  0  0  0  0  0  0
  101.9230   16.3524   23.5617 C   0  0  0  0  0  0  0  0  0  0  0  0
  105.6978   14.7735   25.1138 C   0  0  0  0  0  0  0  0  0  0  0  0
  101.5692   17.3409   24.6879 C   0  0  0  0  0  0  0  0  0  0  0  0
  103.1909   13.7641   22.2995 C   0  0  0  0  0  0  0  0  0  0  0  0
  104.6225   17.5563   24.2763 C   0  0  0  0  0  0  0  0  0  0  0  0
  105.8452   12.9984   23.2200 C   0  0  0  0  0  0  0  0  0  0  0  0
  104.1522   13.1206   21.3031 C   0  0  0  0  0  0  0  0  0  0  0  0
  105.4350   12.6171   21.9233 C   0  0  0  0  0  0  0  0  0  0  0  0
  107.0542   12.4773   23.7152 C   0  0  0  0  0  0  0  0  0  0  0  0
  106.2579   11.7816   21.1452 C   0  0  0  0  0  0  0  0  0  0  0  0
  107.8583   11.6404   22.9378 C   0  0  0  0  0  0  0  0  0  0  0  0
  107.4571   11.3022   21.6561 C   0  0  0  0  0  0  0  0  0  0  0  0
  103.6403   18.1895   27.1020 H   0  0  0  0  0  0  0  0  0  0  0  0
  107.9458   10.2674   20.0102 H   0  0  0  0  0  0  0  0  0  0  0  0
  1  7  1  0
  1 21  1  0
  2 20  1  0
  2 22  1  0
  3  4  1  0
  3  7  1  0
  3  8  1  0
  3 13  1  0
  4  5  1  0
  4  9  1  0
  5  6  1  0
  5 12  1  0
  6 10  1  0
  6 14  1  0
  7 11  1  0
  8 10  1  0
  9 11  1  0
 12 15  1  0
 14 16  2  0
 14 17  1  0
 15 16  1  0
 16 18  1  0
 17 19  2  0
 18 20  2  0
 19 20  1  0
M  END
> <PUBCHEM_COMPOUND_CID>
5757

> <PUBCHEM_CONFORMER_RMSD>
0.6

> <PUBCHEM_CONFORMER_DIVERSEORDER>
1

> <PUBCHEM_MMFF94_PARTIAL_CHARGES>
16
1 -0.68
14 -0.14
15 0.14
16 -0.14
17 -0.15
18 -0.15
19 -0.15
2 -0.53
20 0.08
40 0.4
41 0.15
42 0.15
43 0.15
44 0.45
6 0.14
7 0.28

> <PUBCHEM_EFFECTIVE_ROTOR_COUNT>
1.4

> <PUBCHEM_PHARMACOPHORE_FEATURES>
7
1 1 acceptor
1 1 donor
1 2 donor
5 3 4 7 9 11 rings
6 14 16 17 18 19 20 rings
6 3 4 5 6 8 10 rings
6 5 6 12 14 15 16 rings

> <PUBCHEM_HEAVY_ATOM_COUNT>
20

> <PUBCHEM_ATOM_DEF_STEREO_COUNT>
5

> <PUBCHEM_ATOM_UDEF_STEREO_COUNT>
0

> <PUBCHEM_BOND_DEF_STEREO_COUNT>
0

> <PUBCHEM_BOND_UDEF_STEREO_COUNT>
0

> <PUBCHEM_ISOTOPIC_ATOM_COUNT>
0

> <PUBCHEM_COMPONENT_COUNT>
1

> <PUBCHEM_CACTVS_TAUTO_COUNT>
9

> <PUBCHEM_CONFORMER_ID>
0000167D00000001

> <PUBCHEM_MMFF94_ENERGY>
68.4596

> <PUBCHEM_FEATURE_SELFOVERLAP>
35.62

> <PUBCHEM_SHAPE_FINGERPRINT>
10 15 18262512710780645640
10411042 1 16969703283687688743
10616163 171 18338239395883154686
10967382 1 18410012100429229070
11132069 177 18409162216832884669
11578080 2 17201347718505248258
12011746 2 18410859841042374310
12107183 9 17690845558000159065
12236239 1 13470690338792453460
12251169 10 18335139816864396069
12403259 415 18410852127603240605
12403814 3 17530960289353343621
12500047 106 18271238421624861530
12592029 89 18334859377112304987
12788726 201 17703518696578858128
128620 24 11818992989152349105
13140716 1 18192429898953651512
13533116 47 17846218813073552003
13544592 145 18272379637759764926
13675066 3 18341893012844745609
14178342 30 18123731313450613666
14341114 176 18409738343777605753
14866123 147 17046555868986690930
15042514 8 18263932206156989787
15196674 1 18410012108982090935
15256400 18 18410857620686823693
15295992 7 17845930826899781123
15536298 74 18413671296627645270
1601671 61 18409168826940819996
16945 1 18266170819592368622
17349148 13 18412820287929204701
17804303 29 18410296916890392117
1813 80 16950285091842931756
18186145 218 17417805158171412875
19141452 34 18413108389914235807
192875 21 13830133918406568194
19591789 44 18192993725128068838
200 152 18131627885965453901
20028762 73 18272929458099065015
20261772 1 18410856577167961319
20510252 161 18341895147623301209
20645477 70 18200878374956666302
21033648 29 18271512131406579929
21267235 1 18337399244825179854
21279426 13 18124035632930519374
21421861 104 17895744090149736410
22854114 59 18412546505207311417
22892500 29 17274814788166584896
23184049 59 18410576175690384255
23402539 116 18342170081765240151
23557571 272 17773880972535682807
23558518 356 17682680979747269074
23559900 14 18413389822146813342
2748010 2 18337666399911122230
3004659 81 18260835844047909814
335352 9 18410013195572088855
34934 24 18411133675799850702
350125 39 18409735045496469133
351380 180 18409730664571278687
3545911 37 18411703192367818988
4214541 1 18409167684326479901
465052 167 17967541176940287083
495365 180 17346587600050392546
5104073 3 18409449150412323065
542803 24 17346883342628774985
59755656 215 18335983048405458773
69090 78 18341891905091661271
77779 3 18409450271409361990
7832392 63 18341046427736201710
9709674 26 18410862087368844367
9999458 23 17967819357476725574

> <PUBCHEM_SHAPE_MULTIPOLES>
399.85
9.72
2.11
0.84
3.73
0.39
0.22
-1.2
1.2
-0.24
-0.15
-0.38
-0.13
0.32

> <PUBCHEM_SHAPE_SELFOVERLAP>
871.414

> <PUBCHEM_SHAPE_VOLUME>
217.1

> <PUBCHEM_COORDINATE_TYPE>
2
5
10

> <Energy>
58.4396

> <minimizedAffinity>
-9.21680

> <CNNscore>
0.4203028381

> <CNNaffinity>
7.4122176170

> <CNN_VS>
3.1153759956

> <CNNaffinity_variance>
0.7179832458

$$$$
5757


 22 25  0  0  0  0  0  0  0  0999 V2000
  101.4676   18.2569   24.8288 O   0  0  0  0  0  0  0  0  0  0  0  0
  108.6917   10.3408   22.5172 O   0  0  0  0  0  0  0  0  0  0  0  0
  103.3155   16.7558   24.1873 C   0  0  0  0  0  0  0  0  0  0  0  0
  104.6935   17.0982   23.5863 C   0  0  0  0  0  0  0  0  0  0  0  0
  105.6615   15.9170   23.6521 C   0  0  0  0  0  0  0  0  0  0  0  0
  105.0702   14.7401   22.8178 C   0  0  0  0  0  0  0  0  0  0  0  0
  102.6291   18.1266   24.0327 C   0  0  0  0  0  0  0  0  0  0  0  0
  102.6978   15.6274   23.3523 C   0  0  0  0  0  0  0  0  0  0  0  0
  105.0653   18.4087   24.2741 C   0  0  0  0  0  0  0  0  0  0  0  0
  103.6254   14.3993   23.2731 C   0  0  0  0  0  0  0  0  0  0  0  0
  103.7190   19.1370   24.4407 C   0  0  0  0  0  0  0  0  0  0  0  0
  107.0496   16.2625   23.1097 C   0  0  0  0  0  0  0  0  0  0  0  0
  103.3435   16.3324   25.6783 C   0  0  0  0  0  0  0  0  0  0  0  0
  106.0330   13.5545   22.7739 C   0  0  0  0  0  0  0  0  0  0  0  0
  108.0026   15.0911   23.3355 C   0  0  0  0  0  0  0  0  0  0  0  0
  107.4178   13.7445   22.9773 C   0  0  0  0  0  0  0  0  0  0  0  0
  105.5803   12.2650   22.4415 C   0  0  0  0  0  0  0  0  0  0  0  0
  108.2947   12.6465   22.8990 C   0  0  0  0  0  0  0  0  0  0  0  0
  106.4613   11.1842   22.3564 C   0  0  0  0  0  0  0  0  0  0  0  0
  107.8119   11.3813   22.5906 C   0  0  0  0  0  0  0  0  0  0  0  0
  100.8059   17.6071   24.5442 H   0  0  0  0  0  0  0  0  0  0  0  0
  109.6033   10.4858   22.6777 H   0  0  0  0  0  0  0  0  0  0  0  0
  1  7  1  0
  1 21  1  0
  2 20  1  0
  2 22  1  0
  3  4  1  0
  3  7  1  0
  3  8  1  0
  3 13  1  0
  4  5  1  0
  4  9  1  0
  5  6  1  0
  5 12  1  0
  6 10  1  0
  6 14  1  0
  7 11  1  0
  8 10  1  0
  9 11  1  0
 12 15  1  0
 14 16  2  0
 14 17  1  0
 15 16  1  0
 16 18  1  0
 17 19  2  0
 18 20  2  0
 19 20  1  0
M  END
> <PUBCHEM_COMPOUND_CID>
5757

> <PUBCHEM_CONFORMER_RMSD>
0.6

> <PUBCHEM_CONFORMER_DIVERSEORDER>
1

> <PUBCHEM_MMFF94_PARTIAL_CHARGES>
16
1 -0.68
14 -0.14
15 0.14
16 -0.14
17 -0.15
18 -0.15
19 -0.15
2 -0.53
20 0.08
40 0.4
41 0.15
42 0.15
43 0.15
44 0.45
6 0.14
7 0.28

> <PUBCHEM_EFFECTIVE_ROTOR_COUNT>
1.4

> <PUBCHEM_PHARMACOPHORE_FEATURES>
7
1 1 acceptor
1 1 donor
1 2 donor
5 3 4 7 9 11 rings
6 14 16 17 18 19 20 rings
6 3 4 5 6 8 10 rings
6 5 6 12 14 15 16 rings

> <PUBCHEM_HEAVY_ATOM_COUNT>
20

> <PUBCHEM_ATOM_DEF_STEREO_COUNT>
5

> <PUBCHEM_ATOM_UDEF_STEREO_COUNT>
0

> <PUBCHEM_BOND_DEF_STEREO_COUNT>
0

> <PUBCHEM_BOND_UDEF_STEREO_COUNT>
0

> <PUBCHEM_ISOTOPIC_ATOM_COUNT>
0

> <PUBCHEM_COMPONENT_COUNT>
1

> <PUBCHEM_CACTVS_TAUTO_COUNT>
9

> <PUBCHEM_CONFORMER_ID>
0000167D00000001

> <PUBCHEM_MMFF94_ENERGY>
68.4596

> <PUBCHEM_FEATURE_SELFOVERLAP>
35.62

> <PUBCHEM_SHAPE_FINGERPRINT>
10 15 18262512710780645640
10411042 1 16969703283687688743
10616163 171 18338239395883154686
10967382 1 18410012100429229070
11132069 177 18409162216832884669
11578080 2 17201347718505248258
12011746 2 18410859841042374310
12107183 9 17690845558000159065
12236239 1 13470690338792453460
12251169 10 18335139816864396069
12403259 415 18410852127603240605
12403814 3 17530960289353343621
12500047 106 18271238421624861530
12592029 89 18334859377112304987
12788726 201 17703518696578858128
128620 24 11818992989152349105
13140716 1 18192429898953651512
13533116 47 17846218813073552003
13544592 145 18272379637759764926
13675066 3 18341893012844745609
14178342 30 18123731313450613666
14341114 176 18409738343777605753
14866123 147 17046555868986690930
15042514 8 18263932206156989787
15196674 1 18410012108982090935
15256400 18 18410857620686823693
15295992 7 17845930826899781123
15536298 74 18413671296627645270
1601671 61 18409168826940819996
16945 1 18266170819592368622
17349148 13 18412820287929204701
17804303 29 18410296916890392117
1813 80 16950285091842931756
18186145 218 17417805158171412875
19141452 34 18413108389914235807
192875 21 13830133918406568194
19591789 44 18192993725128068838
200 152 18131627885965453901
20028762 73 18272929458099065015
20261772 1 18410856577167961319
20510252 161 18341895147623301209
20645477 70 18200878374956666302
21033648 29 18271512131406579929
21267235 1 18337399244825179854
21279426 13 18124035632930519374
21421861 104 17895744090149736410
22854114 59 18412546505207311417
22892500 29 17274814788166584896
23184049 59 18410576175690384255
23402539 116 18342170081765240151
23557571 272 17773880972535682807
23558518 356 17682680979747269074
23559900 14 18413389822146813342
2748010 2 18337666399911122230
3004659 81 18260835844047909814
335352 9 18410013195572088855
34934 24 18411133675799850702
350125 39 18409735045496469133
351380 180 18409730664571278687
3545911 37 18411703192367818988
4214541 1 18409167684326479901
465052 167 17967541176940287083
495365 180 17346587600050392546
5104073 3 18409449150412323065
542803 24 17346883342628774985
59755656 215 18335983048405458773
69090 78 18341891905091661271
77779 3 18409450271409361990
7832392 63 18341046427736201710
9709674 26 18410862087368844367
9999458 23 17967819357476725574

> <PUBCHEM_SHAPE_MULTIPOLES>
399.85
9.72
2.11
0.84
3.73
0.39
0.22
-1.2
1.2
-0.24
-0.15
-0.38
-0.13
0.32

> <PUBCHEM_SHAPE_SELFOVERLAP>
871.414

> <PUBCHEM_SHAPE_VOLUME>
217.1

> <PUBCHEM_COORDINATE_TYPE>
2
5
10

> <Energy>
58.4396

> <minimizedAffinity>
-5.25554

> <CNNscore>
0.2309194654

> <CNNaffinity>
6.9856414795

> <CNN_VS>
1.6131205559

> <CNNaffinity_variance>
0.5556300282

$$$$
5757


 22 25  0  0  0  0  0  0  0  0999 V2000
  100.0106   16.0881   23.5368 O   0  0  0  0  0  0  0  0  0  0  0  0
  110.4799   12.9153   22.8130 O   0  0  0  0  0  0  0  0  0  0  0  0
  102.4425   15.6829   23.5777 C   0  0  0  0  0  0  0  0  0  0  0  0
  103.5621   16.5028   24.2498 C   0  0  0  0  0  0  0  0  0  0  0  0
  104.8796   15.7311   24.3205 C   0  0  0  0  0  0  0  0  0  0  0  0
  105.3476   15.4083   22.8688 C   0  0  0  0  0  0  0  0  0  0  0  0
  101.2797   16.6834   23.7234 C   0  0  0  0  0  0  0  0  0  0  0  0
  102.8658   15.3921   22.1327 C   0  0  0  0  0  0  0  0  0  0  0  0
  102.9148   16.9969   25.5404 C   0  0  0  0  0  0  0  0  0  0  0  0
  104.2326   14.6832   22.0675 C   0  0  0  0  0  0  0  0  0  0  0  0
  101.4456   17.2422   25.1502 C   0  0  0  0  0  0  0  0  0  0  0  0
  105.9826   16.5136   25.0358 C   0  0  0  0  0  0  0  0  0  0  0  0
  102.0975   14.3490   24.2881 C   0  0  0  0  0  0  0  0  0  0  0  0
  106.7061   14.7092   22.8679 C   0  0  0  0  0  0  0  0  0  0  0  0
  107.2212   15.6359   25.1985 C   0  0  0  0  0  0  0  0  0  0  0  0
  107.5947   14.8623   23.9551 C   0  0  0  0  0  0  0  0  0  0  0  0
  107.1420   13.9735   21.7512 C   0  0  0  0  0  0  0  0  0  0  0  0
  108.8562   14.2393   23.9223 C   0  0  0  0  0  0  0  0  0  0  0  0
  108.4006   13.3679   21.7252 C   0  0  0  0  0  0  0  0  0  0  0  0
  109.2473   13.5008   22.8130 C   0  0  0  0  0  0  0  0  0  0  0  0
   99.9428   15.7488   22.6305 H   0  0  0  0  0  0  0  0  0  0  0  0
  111.0444   13.0119   23.5547 H   0  0  0  0  0  0  0  0  0  0  0  0
  1  7  1  0
  1 21  1  0
  2 20  1  0
  2 22  1  0
  3  4  1  0
  3  7  1  0
  3  8  1  0
  3 13  1  0
  4  5  1  0
  4  9  1  0
  5  6  1  0
  5 12  1  0
  6 10  1  0
  6 14  1  0
  7 11  1  0
  8 10  1  0
  9 11  1  0
 12 15  1  0
 14 16  2  0
 14 17  1  0
 15 16  1  0
 16 18  1  0
 17 19  2  0
 18 20  2  0
 19 20  1  0
M  END
> <PUBCHEM_COMPOUND_CID>
5757

> <PUBCHEM_CONFORMER_RMSD>
0.6

> <PUBCHEM_CONFORMER_DIVERSEORDER>
1

> <PUBCHEM_MMFF94_PARTIAL_CHARGES>
16
1 -0.68
14 -0.14
15 0.14
16 -0.14
17 -0.15
18 -0.15
19 -0.15
2 -0.53
20 0.08
40 0.4
41 0.15
42 0.15
43 0.15
44 0.45
6 0.14
7 0.28

> <PUBCHEM_EFFECTIVE_ROTOR_COUNT>
1.4

> <PUBCHEM_PHARMACOPHORE_FEATURES>
7
1 1 acceptor
1 1 donor
1 2 donor
5 3 4 7 9 11 rings
6 14 16 17 18 19 20 rings
6 3 4 5 6 8 10 rings
6 5 6 12 14 15 16 rings

> <PUBCHEM_HEAVY_ATOM_COUNT>
20

> <PUBCHEM_ATOM_DEF_STEREO_COUNT>
5

> <PUBCHEM_ATOM_UDEF_STEREO_COUNT>
0

> <PUBCHEM_BOND_DEF_STEREO_COUNT>
0

> <PUBCHEM_BOND_UDEF_STEREO_COUNT>
0

> <PUBCHEM_ISOTOPIC_ATOM_COUNT>
0

> <PUBCHEM_COMPONENT_COUNT>
1

> <PUBCHEM_CACTVS_TAUTO_COUNT>
9

> <PUBCHEM_CONFORMER_ID>
0000167D00000001

> <PUBCHEM_MMFF94_ENERGY>
68.4596

> <PUBCHEM_FEATURE_SELFOVERLAP>
35.62

> <PUBCHEM_SHAPE_FINGERPRINT>
10 15 18262512710780645640
10411042 1 16969703283687688743
10616163 171 18338239395883154686
10967382 1 18410012100429229070
11132069 177 18409162216832884669
11578080 2 17201347718505248258
12011746 2 18410859841042374310
12107183 9 17690845558000159065
12236239 1 13470690338792453460
12251169 10 18335139816864396069
12403259 415 18410852127603240605
12403814 3 17530960289353343621
12500047 106 18271238421624861530
12592029 89 18334859377112304987
12788726 201 17703518696578858128
128620 24 11818992989152349105
13140716 1 18192429898953651512
13533116 47 17846218813073552003
13544592 145 18272379637759764926
13675066 3 18341893012844745609
14178342 30 18123731313450613666
14341114 176 18409738343777605753
14866123 147 17046555868986690930
15042514 8 18263932206156989787
15196674 1 18410012108982090935
15256400 18 18410857620686823693
15295992 7 17845930826899781123
15536298 74 18413671296627645270
1601671 61 18409168826940819996
16945 1 18266170819592368622
17349148 13 18412820287929204701
17804303 29 18410296916890392117
1813 80 16950285091842931756
18186145 218 17417805158171412875
19141452 34 18413108389914235807
192875 21 13830133918406568194
19591789 44 18192993725128068838
200 152 18131627885965453901
20028762 73 18272929458099065015
20261772 1 18410856577167961319
20510252 161 18341895147623301209
20645477 70 18200878374956666302
21033648 29 18271512131406579929
21267235 1 18337399244825179854
21279426 13 18124035632930519374
21421861 104 17895744090149736410
22854114 59 18412546505207311417
22892500 29 17274814788166584896
23184049 59 18410576175690384255
23402539 116 18342170081765240151
23557571 272 17773880972535682807
23558518 356 17682680979747269074
23559900 14 18413389822146813342
2748010 2 18337666399911122230
3004659 81 18260835844047909814
335352 9 18410013195572088855
34934 24 18411133675799850702
350125 39 18409735045496469133
351380 180 18409730664571278687
3545911 37 18411703192367818988
4214541 1 18409167684326479901
465052 167 17967541176940287083
495365 180 17346587600050392546
5104073 3 18409449150412323065
542803 24 17346883342628774985
59755656 215 18335983048405458773
69090 78 18341891905091661271
77779 3 18409450271409361990
7832392 63 18341046427736201710
9709674 26 18410862087368844367
9999458 23 17967819357476725574

> <PUBCHEM_SHAPE_MULTIPOLES>
399.85
9.72
2.11
0.84
3.73
0.39
0.22
-1.2
1.2
-0.24
-0.15
-0.38
-0.13
0.32

> <PUBCHEM_SHAPE_SELFOVERLAP>
871.414

> <PUBCHEM_SHAPE_VOLUME>
217.1

> <PUBCHEM_COORDINATE_TYPE>
2
5
10

> <Energy>
58.4396

> <minimizedAffinity>
-9.07912

> <CNNscore>
0.2291255891

> <CNNaffinity>
6.8176255226

> <CNN_VS>
1.5620924234

> <CNNaffinity_variance>
0.2722122371

$$$$
5757


 22 25  0  0  0  0  0  0  0  0999 V2000
  104.9663   12.8443   18.3306 O   0  0  0  0  0  0  0  0  0  0  0  0
  102.4806   18.1547   27.5943 O   0  0  0  0  0  0  0  0  0  0  0  0
  104.5872   13.7568   20.5896 C   0  0  0  0  0  0  0  0  0  0  0  0
  105.0330   13.2039   21.9582 C   0  0  0  0  0  0  0  0  0  0  0  0
  104.8877   14.2387   23.0738 C   0  0  0  0  0  0  0  0  0  0  0  0
  103.3839   14.6305   23.1985 C   0  0  0  0  0  0  0  0  0  0  0  0
  104.9131   12.5349   19.7094 C   0  0  0  0  0  0  0  0  0  0  0  0
  103.0972   14.1081   20.6793 C   0  0  0  0  0  0  0  0  0  0  0  0
  106.4061   12.6041   21.6688 C   0  0  0  0  0  0  0  0  0  0  0  0
  102.8080   15.0898   21.8316 C   0  0  0  0  0  0  0  0  0  0  0  0
  106.2754   12.0466   20.2395 C   0  0  0  0  0  0  0  0  0  0  0  0
  105.3798   13.7195   24.4261 C   0  0  0  0  0  0  0  0  0  0  0  0
  105.3770   14.9983   20.1014 C   0  0  0  0  0  0  0  0  0  0  0  0
  103.1593   15.6019   24.3561 C   0  0  0  0  0  0  0  0  0  0  0  0
  105.3413   14.8425   25.4597 C   0  0  0  0  0  0  0  0  0  0  0  0
  104.0693   15.6580   25.4350 C   0  0  0  0  0  0  0  0  0  0  0  0
  102.0000   16.3957   24.4220 C   0  0  0  0  0  0  0  0  0  0  0  0
  103.8287   16.5339   26.5100 C   0  0  0  0  0  0  0  0  0  0  0  0
  101.7663   17.2540   25.4989 C   0  0  0  0  0  0  0  0  0  0  0  0
  102.6846   17.3211   26.5334 C   0  0  0  0  0  0  0  0  0  0  0  0
  104.0941   13.1471   18.0332 H   0  0  0  0  0  0  0  0  0  0  0  0
  103.1088   18.1918   28.2885 H   0  0  0  0  0  0  0  0  0  0  0  0
  1  7  1  0
  1 21  1  0
  2 20  1  0
  2 22  1  0
  3  4  1  0
  3  7  1  0
  3  8  1  0
  3 13  1  0
  4  5  1  0
  4  9  1  0
  5  6  1  0
  5 12  1  0
  6 10  1  0
  6 14  1  0
  7 11  1  0
  8 10  1  0
  9 11  1  0
 12 15  1  0
 14 16  2  0
 14 17  1  0
 15 16  1  0
 16 18  1  0
 17 19  2  0
 18 20  2  0
 19 20  1  0
M  END
> <PUBCHEM_COMPOUND_CID>
5757

> <PUBCHEM_CONFORMER_RMSD>
0.6

> <PUBCHEM_CONFORMER_DIVERSEORDER>
1

> <PUBCHEM_MMFF94_PARTIAL_CHARGES>
16
1 -0.68
14 -0.14
15 0.14
16 -0.14
17 -0.15
18 -0.15
19 -0.15
2 -0.53
20 0.08
40 0.4
41 0.15
42 0.15
43 0.15
44 0.45
6 0.14
7 0.28

> <PUBCHEM_EFFECTIVE_ROTOR_COUNT>
1.4

> <PUBCHEM_PHARMACOPHORE_FEATURES>
7
1 1 acceptor
1 1 donor
1 2 donor
5 3 4 7 9 11 rings
6 14 16 17 18 19 20 rings
6 3 4 5 6 8 10 rings
6 5 6 12 14 15 16 rings

> <PUBCHEM_HEAVY_ATOM_COUNT>
20

> <PUBCHEM_ATOM_DEF_STEREO_COUNT>
5

> <PUBCHEM_ATOM_UDEF_STEREO_COUNT>
0

> <PUBCHEM_BOND_DEF_STEREO_COUNT>
0

> <PUBCHEM_BOND_UDEF_STEREO_COUNT>
0

> <PUBCHEM_ISOTOPIC_ATOM_COUNT>
0

> <PUBCHEM_COMPONENT_COUNT>
1

> <PUBCHEM_CACTVS_TAUTO_COUNT>
9

> <PUBCHEM_CONFORMER_ID>
0000167D00000001

> <PUBCHEM_MMFF94_ENERGY>
68.4596

> <PUBCHEM_FEATURE_SELFOVERLAP>
35.62

> <PUBCHEM_SHAPE_FINGERPRINT>
10 15 18262512710780645640
10411042 1 16969703283687688743
10616163 171 18338239395883154686
10967382 1 18410012100429229070
11132069 177 18409162216832884669
11578080 2 17201347718505248258
12011746 2 18410859841042374310
12107183 9 17690845558000159065
12236239 1 13470690338792453460
12251169 10 18335139816864396069
12403259 415 18410852127603240605
12403814 3 17530960289353343621
12500047 106 18271238421624861530
12592029 89 18334859377112304987
12788726 201 17703518696578858128
128620 24 11818992989152349105
13140716 1 18192429898953651512
13533116 47 17846218813073552003
13544592 145 18272379637759764926
13675066 3 18341893012844745609
14178342 30 18123731313450613666
14341114 176 18409738343777605753
14866123 147 17046555868986690930
15042514 8 18263932206156989787
15196674 1 18410012108982090935
15256400 18 18410857620686823693
15295992 7 17845930826899781123
15536298 74 18413671296627645270
1601671 61 18409168826940819996
16945 1 18266170819592368622
17349148 13 18412820287929204701
17804303 29 18410296916890392117
1813 80 16950285091842931756
18186145 218 17417805158171412875
19141452 34 18413108389914235807
192875 21 13830133918406568194
19591789 44 18192993725128068838
200 152 18131627885965453901
20028762 73 18272929458099065015
20261772 1 18410856577167961319
20510252 161 18341895147623301209
20645477 70 18200878374956666302
21033648 29 18271512131406579929
21267235 1 18337399244825179854
21279426 13 18124035632930519374
21421861 104 17895744090149736410
22854114 59 18412546505207311417
22892500 29 17274814788166584896
23184049 59 18410576175690384255
23402539 116 18342170081765240151
23557571 272 17773880972535682807
23558518 356 17682680979747269074
23559900 14 18413389822146813342
2748010 2 18337666399911122230
3004659 81 18260835844047909814
335352 9 18410013195572088855
34934 24 18411133675799850702
350125 39 18409735045496469133
351380 180 18409730664571278687
3545911 37 18411703192367818988
4214541 1 18409167684326479901
465052 167 17967541176940287083
495365 180 17346587600050392546
5104073 3 18409449150412323065
542803 24 17346883342628774985
59755656 215 18335983048405458773
69090 78 18341891905091661271
77779 3 18409450271409361990
7832392 63 18341046427736201710
9709674 26 18410862087368844367
9999458 23 17967819357476725574

> <PUBCHEM_SHAPE_MULTIPOLES>
399.85
9.72
2.11
0.84
3.73
0.39
0.22
-1.2
1.2
-0.24
-0.15
-0.38
-0.13
0.32

> <PUBCHEM_SHAPE_SELFOVERLAP>
871.414

> <PUBCHEM_SHAPE_VOLUME>
217.1

> <PUBCHEM_COORDINATE_TYPE>
2
5
10

> <Energy>
58.4396

> <minimizedAffinity>
-2.77872

> <CNNscore>
0.2285379618

> <CNNaffinity>
7.1221251488

> <CNN_VS>
1.6276760101

> <CNNaffinity_variance>
1.0110701323

$$$$
