2999413


 26 27  0  0  0  0  0  0  0  0999 V2000
   -9.3582   -3.7528   22.6419 O   0  0  0  0  0  0  0  0  0  0  0  0
   -3.8285   -1.8895   23.6580 O   0  0  0  0  0  0  0  0  0  0  0  0
   -3.3719   -4.0383   24.3719 O   0  0  0  0  0  0  0  0  0  0  0  0
   -0.9128   -1.4824   23.7010 O   0  0  0  0  0  0  0  0  0  0  0  0
    0.5023   -3.0187   19.3987 O   0  0  0  0  0  0  0  0  0  0  0  0
   -8.4436   -2.7494   22.2022 C   0  0  0  0  0  0  0  0  0  0  0  0
   -7.6706   -3.2890   20.9901 C   0  0  0  0  0  0  0  0  0  0  0  0
   -7.5664   -2.3178   23.3875 C   0  0  0  0  0  0  0  0  0  0  0  0
   -6.9327   -4.6112   21.2492 C   0  0  0  0  0  0  0  0  0  0  0  0
   -6.6131   -1.1695   23.0481 C   0  0  0  0  0  0  0  0  0  0  0  0
   -5.9780   -4.9783   20.1061 C   0  0  0  0  0  0  0  0  0  0  0  0
   -5.8095   -0.6782   24.2593 C   0  0  0  0  0  0  0  0  0  0  0  0
   -4.6515   -4.2075   20.1472 C   0  0  0  0  0  0  0  0  0  0  0  0
   -4.7513   -1.6807   24.7415 C   0  0  0  0  0  0  0  0  0  0  0  0
   -3.6734   -4.7704   21.1894 C   0  0  0  0  0  0  0  0  0  0  0  0
   -2.4580   -3.8857   21.3630 C   0  0  0  0  0  0  0  0  0  0  0  0
   -3.9888   -1.1163   25.9379 C   0  0  0  0  0  0  0  0  0  0  0  0
   -2.2504   -3.0742   22.4984 C   0  0  0  0  0  0  0  0  0  0  0  0
   -3.1933   -3.0864   23.6323 C   0  0  0  0  0  0  0  0  0  0  0  0
   -1.5006   -3.8427   20.3336 C   0  0  0  0  0  0  0  0  0  0  0  0
   -1.1153   -2.2513   22.5862 C   0  0  0  0  0  0  0  0  0  0  0  0
   -0.3844   -3.0151   20.4351 C   0  0  0  0  0  0  0  0  0  0  0  0
   -0.1813   -2.2144   21.5528 C   0  0  0  0  0  0  0  0  0  0  0  0
   -9.9157   -4.0304   21.8983 H   0  0  0  0  0  0  0  0  0  0  0  0
   -1.5349   -1.5000   24.4015 H   0  0  0  0  0  0  0  0  0  0  0  0
    0.3491   -3.5650   18.6530 H   0  0  0  0  0  0  0  0  0  0  0  0
  1  6  1  0
  1 24  1  0
  2 14  1  0
  2 19  1  0
  3 19  2  0
  4 21  1  0
  4 25  1  0
  5 22  1  0
  5 26  1  0
  6  7  1  0
  6  8  1  0
  7  9  1  0
  8 10  1  0
  9 11  1  0
 10 12  1  0
 11 13  1  0
 12 14  1  0
 13 15  1  0
 14 17  1  0
 15 16  1  0
 16 18  2  0
 16 20  1  0
 18 19  1  0
 18 21  1  0
 20 22  2  0
 21 23  2  0
 22 23  1  0
M  END
> <PUBCHEM_COMPOUND_CID>
2999413

> <PUBCHEM_CONFORMER_RMSD>
0.6

> <PUBCHEM_CONFORMER_DIVERSEORDER>
1
6
14
27
9
16
11
26
8
2
22
5
20
28
18
17
29
3
24
19
21
13
15
7
23
4
25
12
10

> <PUBCHEM_MMFF94_PARTIAL_CHARGES>
20
1 -0.68
14 0.28
15 0.14
16 -0.14
18 0.09
19 0.63
2 -0.43
20 -0.15
21 0.08
22 0.08
23 -0.15
3 -0.57
4 -0.53
45 0.4
46 0.15
47 0.15
48 0.45
49 0.45
5 -0.53
6 0.28

> <PUBCHEM_EFFECTIVE_ROTOR_COUNT>
2.2

> <PUBCHEM_PHARMACOPHORE_FEATURES>
6
1 1 acceptor
1 1 donor
1 3 acceptor
1 4 donor
1 5 donor
6 16 18 20 21 22 23 rings

> <PUBCHEM_HEAVY_ATOM_COUNT>
23

> <PUBCHEM_ATOM_DEF_STEREO_COUNT>
2

> <PUBCHEM_ATOM_UDEF_STEREO_COUNT>
0

> <PUBCHEM_BOND_DEF_STEREO_COUNT>
0

> <PUBCHEM_BOND_UDEF_STEREO_COUNT>
0

> <PUBCHEM_ISOTOPIC_ATOM_COUNT>
0

> <PUBCHEM_COMPONENT_COUNT>
1

> <PUBCHEM_CACTVS_TAUTO_COUNT>
25

> <PUBCHEM_CONFORMER_ID>
002DC47500000001

> <PUBCHEM_MMFF94_ENERGY>
51.6521

> <PUBCHEM_FEATURE_SELFOVERLAP>
30.446

> <PUBCHEM_SHAPE_FINGERPRINT>
104564 63 18340206271993051459
10498660 4 18187631549186102207
10577160 183 17606693423048979742
10616163 171 18266175029013727061
10759866 29 17750229218859711762
108634 29 18411143511243732574
1100329 8 17185877190433830119
11578080 2 17058915861662947194
116883 192 18412832382636582198
12011746 2 18335696144590423807
12054548 360 18337387261554875763
12156800 1 11695045847065978403
12553582 1 18337941355723699521
12788726 201 18339079272527017530
12954195 1 18196384628153038830
13402501 40 18410292523613913767
13533116 47 17911794988931237615
13941206 138 17823424798885047762
14178342 30 17618481208803059632
14251740 79 18268155262187636390
14251745 187 18265888240930317283
14251751 93 18337386020182837502
14251757 17 18340208496912958262
14251757 5 18336274478600052878
14289585 56 17025448677686211638
14363568 33 17831602116089395611
14790565 3 18338242566191680045
14931854 50 18192983829844991199
15081414 286 18267592488269592273
15210252 30 18041841838786063412
17093844 170 18338788043621724272
17357779 13 18338788026679147463
19591789 44 18410009931708134251
20775438 99 17121094438368206175
21141583 151 18411697703262438637
21634736 98 18410570674064001468
221357 26 18411697699342485711
221490 88 18411139126039522364
22393880 68 18190738627232927852
22907989 373 17973200346140242700
23379529 103 18202007594804787190
23419403 2 17703496796872386008
23559900 14 18341611543049219120
23566358 2 18411982468764321124
238 59 17976219553578124023
2871803 45 18335692832737868381
3014063 31 18410290320121227783
6287921 2 17544481216121896507

> <PUBCHEM_SHAPE_MULTIPOLES>
443.98
8.13
4.23
1.13
0.08
1.63
0.2
-3.4
-2.74
-1.52
0.36
0
0.19
0.73

> <PUBCHEM_SHAPE_SELFOVERLAP>
910.639

> <PUBCHEM_SHAPE_VOLUME>
254.2

> <PUBCHEM_COORDINATE_TYPE>
2
5
10

> <Energy>
43.3336

> <minimizedAffinity>
-2.24132

> <CNNscore>
0.6564658880

> <CNNaffinity>
6.8573112488

> <CNN_VS>
4.5015907288

> <CNNaffinity_variance>
0.5151547790

$$$$
2999413


 26 27  0  0  0  0  0  0  0  0999 V2000
   -9.2048   -3.7818   24.1588 O   0  0  0  0  0  0  0  0  0  0  0  0
   -3.7033   -1.8734   23.0756 O   0  0  0  0  0  0  0  0  0  0  0  0
   -2.9739   -3.9060   23.8951 O   0  0  0  0  0  0  0  0  0  0  0  0
   -0.9419   -1.5062   22.1226 O   0  0  0  0  0  0  0  0  0  0  0  0
   -0.9301   -3.6555   17.8501 O   0  0  0  0  0  0  0  0  0  0  0  0
   -8.5116   -2.8639   23.3140 C   0  0  0  0  0  0  0  0  0  0  0  0
   -8.1505   -3.5804   22.0048 C   0  0  0  0  0  0  0  0  0  0  0  0
   -7.3155   -2.2817   24.0828 C   0  0  0  0  0  0  0  0  0  0  0  0
   -7.3267   -4.8633   22.1935 C   0  0  0  0  0  0  0  0  0  0  0  0
   -6.5581   -1.2067   23.2995 C   0  0  0  0  0  0  0  0  0  0  0  0
   -6.7769   -5.4019   20.8667 C   0  0  0  0  0  0  0  0  0  0  0  0
   -5.4253   -0.5608   24.1079 C   0  0  0  0  0  0  0  0  0  0  0  0
   -5.5324   -4.6523   20.3721 C   0  0  0  0  0  0  0  0  0  0  0  0
   -4.2369   -1.5002   24.3582 C   0  0  0  0  0  0  0  0  0  0  0  0
   -4.2546   -5.0762   21.1120 C   0  0  0  0  0  0  0  0  0  0  0  0
   -3.0766   -4.1934   20.7616 C   0  0  0  0  0  0  0  0  0  0  0  0
   -3.1500   -0.7834   25.1558 C   0  0  0  0  0  0  0  0  0  0  0  0
   -2.5424   -3.2326   21.6462 C   0  0  0  0  0  0  0  0  0  0  0  0
   -3.0719   -3.0708   23.0131 C   0  0  0  0  0  0  0  0  0  0  0  0
   -2.5009   -4.3101   19.4837 C   0  0  0  0  0  0  0  0  0  0  0  0
   -1.4659   -2.4220   21.2497 C   0  0  0  0  0  0  0  0  0  0  0  0
   -1.4381   -3.4926   19.1055 C   0  0  0  0  0  0  0  0  0  0  0  0
   -0.9135   -2.5450   19.9764 C   0  0  0  0  0  0  0  0  0  0  0  0
   -9.9619   -4.1536   23.6798 H   0  0  0  0  0  0  0  0  0  0  0  0
   -1.3062   -1.4157   22.9811 H   0  0  0  0  0  0  0  0  0  0  0  0
   -1.2964   -4.2994   17.2764 H   0  0  0  0  0  0  0  0  0  0  0  0
  1  6  1  0
  1 24  1  0
  2 14  1  0
  2 19  1  0
  3 19  2  0
  4 21  1  0
  4 25  1  0
  5 22  1  0
  5 26  1  0
  6  7  1  0
  6  8  1  0
  7  9  1  0
  8 10  1  0
  9 11  1  0
 10 12  1  0
 11 13  1  0
 12 14  1  0
 13 15  1  0
 14 17  1  0
 15 16  1  0
 16 18  2  0
 16 20  1  0
 18 19  1  0
 18 21  1  0
 20 22  2  0
 21 23  2  0
 22 23  1  0
M  END
> <PUBCHEM_COMPOUND_CID>
2999413

> <PUBCHEM_CONFORMER_RMSD>
0.6

> <PUBCHEM_CONFORMER_DIVERSEORDER>
1
6
14
27
9
16
11
26
8
2
22
5
20
28
18
17
29
3
24
19
21
13
15
7
23
4
25
12
10

> <PUBCHEM_MMFF94_PARTIAL_CHARGES>
20
1 -0.68
14 0.28
15 0.14
16 -0.14
18 0.09
19 0.63
2 -0.43
20 -0.15
21 0.08
22 0.08
23 -0.15
3 -0.57
4 -0.53
45 0.4
46 0.15
47 0.15
48 0.45
49 0.45
5 -0.53
6 0.28

> <PUBCHEM_EFFECTIVE_ROTOR_COUNT>
2.2

> <PUBCHEM_PHARMACOPHORE_FEATURES>
6
1 1 acceptor
1 1 donor
1 3 acceptor
1 4 donor
1 5 donor
6 16 18 20 21 22 23 rings

> <PUBCHEM_HEAVY_ATOM_COUNT>
23

> <PUBCHEM_ATOM_DEF_STEREO_COUNT>
2

> <PUBCHEM_ATOM_UDEF_STEREO_COUNT>
0

> <PUBCHEM_BOND_DEF_STEREO_COUNT>
0

> <PUBCHEM_BOND_UDEF_STEREO_COUNT>
0

> <PUBCHEM_ISOTOPIC_ATOM_COUNT>
0

> <PUBCHEM_COMPONENT_COUNT>
1

> <PUBCHEM_CACTVS_TAUTO_COUNT>
25

> <PUBCHEM_CONFORMER_ID>
002DC47500000001

> <PUBCHEM_MMFF94_ENERGY>
51.6521

> <PUBCHEM_FEATURE_SELFOVERLAP>
30.446

> <PUBCHEM_SHAPE_FINGERPRINT>
104564 63 18340206271993051459
10498660 4 18187631549186102207
10577160 183 17606693423048979742
10616163 171 18266175029013727061
10759866 29 17750229218859711762
108634 29 18411143511243732574
1100329 8 17185877190433830119
11578080 2 17058915861662947194
116883 192 18412832382636582198
12011746 2 18335696144590423807
12054548 360 18337387261554875763
12156800 1 11695045847065978403
12553582 1 18337941355723699521
12788726 201 18339079272527017530
12954195 1 18196384628153038830
13402501 40 18410292523613913767
13533116 47 17911794988931237615
13941206 138 17823424798885047762
14178342 30 17618481208803059632
14251740 79 18268155262187636390
14251745 187 18265888240930317283
14251751 93 18337386020182837502
14251757 17 18340208496912958262
14251757 5 18336274478600052878
14289585 56 17025448677686211638
14363568 33 17831602116089395611
14790565 3 18338242566191680045
14931854 50 18192983829844991199
15081414 286 18267592488269592273
15210252 30 18041841838786063412
17093844 170 18338788043621724272
17357779 13 18338788026679147463
19591789 44 18410009931708134251
20775438 99 17121094438368206175
21141583 151 18411697703262438637
21634736 98 18410570674064001468
221357 26 18411697699342485711
221490 88 18411139126039522364
22393880 68 18190738627232927852
22907989 373 17973200346140242700
23379529 103 18202007594804787190
23419403 2 17703496796872386008
23559900 14 18341611543049219120
23566358 2 18411982468764321124
238 59 17976219553578124023
2871803 45 18335692832737868381
3014063 31 18410290320121227783
6287921 2 17544481216121896507

> <PUBCHEM_SHAPE_MULTIPOLES>
443.98
8.13
4.23
1.13
0.08
1.63
0.2
-3.4
-2.74
-1.52
0.36
0
0.19
0.73

> <PUBCHEM_SHAPE_SELFOVERLAP>
910.639

> <PUBCHEM_SHAPE_VOLUME>
254.2

> <PUBCHEM_COORDINATE_TYPE>
2
5
10

> <Energy>
43.3336

> <minimizedAffinity>
-5.22502

> <CNNscore>
0.6108493209

> <CNNaffinity>
6.7330946922

> <CNN_VS>
4.1129064560

> <CNNaffinity_variance>
0.3561163843

$$$$
2999413


 26 27  0  0  0  0  0  0  0  0999 V2000
   -9.4471   -5.5771   22.3721 O   0  0  0  0  0  0  0  0  0  0  0  0
   -4.6629   -2.2611   23.4660 O   0  0  0  0  0  0  0  0  0  0  0  0
   -3.8702   -4.0411   24.7062 O   0  0  0  0  0  0  0  0  0  0  0  0
   -1.9427   -1.1593   23.7015 O   0  0  0  0  0  0  0  0  0  0  0  0
    0.4018   -3.1566   20.0426 O   0  0  0  0  0  0  0  0  0  0  0  0
   -8.7128   -4.4943   21.8021 C   0  0  0  0  0  0  0  0  0  0  0  0
   -7.6682   -5.0675   20.8335 C   0  0  0  0  0  0  0  0  0  0  0  0
   -8.1378   -3.6289   22.9339 C   0  0  0  0  0  0  0  0  0  0  0  0
   -6.7122   -6.0891   21.4678 C   0  0  0  0  0  0  0  0  0  0  0  0
   -7.4122   -2.3787   22.4307 C   0  0  0  0  0  0  0  0  0  0  0  0
   -5.5396   -6.4404   20.5435 C   0  0  0  0  0  0  0  0  0  0  0  0
   -6.9248   -1.4693   23.5663 C   0  0  0  0  0  0  0  0  0  0  0  0
   -4.4306   -5.3796   20.5339 C   0  0  0  0  0  0  0  0  0  0  0  0
   -5.7618   -2.0642   24.3730 C   0  0  0  0  0  0  0  0  0  0  0  0
   -3.5236   -5.4621   21.7709 C   0  0  0  0  0  0  0  0  0  0  0  0
   -2.5663   -4.2929   21.8517 C   0  0  0  0  0  0  0  0  0  0  0  0
   -5.3275   -1.0985   25.4730 C   0  0  0  0  0  0  0  0  0  0  0  0
   -2.7112   -3.2399   22.7796 C   0  0  0  0  0  0  0  0  0  0  0  0
   -3.7898   -3.2471   23.7853 C   0  0  0  0  0  0  0  0  0  0  0  0
   -1.4960   -4.2315   20.9413 C   0  0  0  0  0  0  0  0  0  0  0  0
   -1.8051   -2.1664   22.7839 C   0  0  0  0  0  0  0  0  0  0  0  0
   -0.6113   -3.1553   20.9559 C   0  0  0  0  0  0  0  0  0  0  0  0
   -0.7555   -2.1173   21.8688 C   0  0  0  0  0  0  0  0  0  0  0  0
   -9.8135   -6.1282   21.6629 H   0  0  0  0  0  0  0  0  0  0  0  0
   -2.6451   -1.1829   24.3211 H   0  0  0  0  0  0  0  0  0  0  0  0
    0.4835   -3.8649   19.4346 H   0  0  0  0  0  0  0  0  0  0  0  0
  1  6  1  0
  1 24  1  0
  2 14  1  0
  2 19  1  0
  3 19  2  0
  4 21  1  0
  4 25  1  0
  5 22  1  0
  5 26  1  0
  6  7  1  0
  6  8  1  0
  7  9  1  0
  8 10  1  0
  9 11  1  0
 10 12  1  0
 11 13  1  0
 12 14  1  0
 13 15  1  0
 14 17  1  0
 15 16  1  0
 16 18  2  0
 16 20  1  0
 18 19  1  0
 18 21  1  0
 20 22  2  0
 21 23  2  0
 22 23  1  0
M  END
> <PUBCHEM_COMPOUND_CID>
2999413

> <PUBCHEM_CONFORMER_RMSD>
0.6

> <PUBCHEM_CONFORMER_DIVERSEORDER>
1
6
14
27
9
16
11
26
8
2
22
5
20
28
18
17
29
3
24
19
21
13
15
7
23
4
25
12
10

> <PUBCHEM_MMFF94_PARTIAL_CHARGES>
20
1 -0.68
14 0.28
15 0.14
16 -0.14
18 0.09
19 0.63
2 -0.43
20 -0.15
21 0.08
22 0.08
23 -0.15
3 -0.57
4 -0.53
45 0.4
46 0.15
47 0.15
48 0.45
49 0.45
5 -0.53
6 0.28

> <PUBCHEM_EFFECTIVE_ROTOR_COUNT>
2.2

> <PUBCHEM_PHARMACOPHORE_FEATURES>
6
1 1 acceptor
1 1 donor
1 3 acceptor
1 4 donor
1 5 donor
6 16 18 20 21 22 23 rings

> <PUBCHEM_HEAVY_ATOM_COUNT>
23

> <PUBCHEM_ATOM_DEF_STEREO_COUNT>
2

> <PUBCHEM_ATOM_UDEF_STEREO_COUNT>
0

> <PUBCHEM_BOND_DEF_STEREO_COUNT>
0

> <PUBCHEM_BOND_UDEF_STEREO_COUNT>
0

> <PUBCHEM_ISOTOPIC_ATOM_COUNT>
0

> <PUBCHEM_COMPONENT_COUNT>
1

> <PUBCHEM_CACTVS_TAUTO_COUNT>
25

> <PUBCHEM_CONFORMER_ID>
002DC47500000001

> <PUBCHEM_MMFF94_ENERGY>
51.6521

> <PUBCHEM_FEATURE_SELFOVERLAP>
30.446

> <PUBCHEM_SHAPE_FINGERPRINT>
104564 63 18340206271993051459
10498660 4 18187631549186102207
10577160 183 17606693423048979742
10616163 171 18266175029013727061
10759866 29 17750229218859711762
108634 29 18411143511243732574
1100329 8 17185877190433830119
11578080 2 17058915861662947194
116883 192 18412832382636582198
12011746 2 18335696144590423807
12054548 360 18337387261554875763
12156800 1 11695045847065978403
12553582 1 18337941355723699521
12788726 201 18339079272527017530
12954195 1 18196384628153038830
13402501 40 18410292523613913767
13533116 47 17911794988931237615
13941206 138 17823424798885047762
14178342 30 17618481208803059632
14251740 79 18268155262187636390
14251745 187 18265888240930317283
14251751 93 18337386020182837502
14251757 17 18340208496912958262
14251757 5 18336274478600052878
14289585 56 17025448677686211638
14363568 33 17831602116089395611
14790565 3 18338242566191680045
14931854 50 18192983829844991199
15081414 286 18267592488269592273
15210252 30 18041841838786063412
17093844 170 18338788043621724272
17357779 13 18338788026679147463
19591789 44 18410009931708134251
20775438 99 17121094438368206175
21141583 151 18411697703262438637
21634736 98 18410570674064001468
221357 26 18411697699342485711
221490 88 18411139126039522364
22393880 68 18190738627232927852
22907989 373 17973200346140242700
23379529 103 18202007594804787190
23419403 2 17703496796872386008
23559900 14 18341611543049219120
23566358 2 18411982468764321124
238 59 17976219553578124023
2871803 45 18335692832737868381
3014063 31 18410290320121227783
6287921 2 17544481216121896507

> <PUBCHEM_SHAPE_MULTIPOLES>
443.98
8.13
4.23
1.13
0.08
1.63
0.2
-3.4
-2.74
-1.52
0.36
0
0.19
0.73

> <PUBCHEM_SHAPE_SELFOVERLAP>
910.639

> <PUBCHEM_SHAPE_VOLUME>
254.2

> <PUBCHEM_COORDINATE_TYPE>
2
5
10

> <Energy>
43.3336

> <minimizedAffinity>
-3.41387

> <CNNscore>
0.5680937767

> <CNNaffinity>
6.3782773018

> <CNN_VS>
3.6234595776

> <CNNaffinity_variance>
0.3053995073

$$$$
2999413


 26 27  0  0  0  0  0  0  0  0999 V2000
   -9.1943   -0.9549   23.4220 O   0  0  0  0  0  0  0  0  0  0  0  0
   -3.2957   -1.3719   23.0846 O   0  0  0  0  0  0  0  0  0  0  0  0
   -3.5270   -3.5125   23.9208 O   0  0  0  0  0  0  0  0  0  0  0  0
   -0.5142   -2.1322   22.4899 O   0  0  0  0  0  0  0  0  0  0  0  0
   -0.8059   -4.1921   18.1836 O   0  0  0  0  0  0  0  0  0  0  0  0
   -8.0976   -0.3970   22.6990 C   0  0  0  0  0  0  0  0  0  0  0  0
   -7.8836   -1.2215   21.4214 C   0  0  0  0  0  0  0  0  0  0  0  0
   -6.8760   -0.3155   23.6272 C   0  0  0  0  0  0  0  0  0  0  0  0
   -7.6568   -2.7207   21.6678 C   0  0  0  0  0  0  0  0  0  0  0  0
   -5.6671    0.3628   22.9781 C   0  0  0  0  0  0  0  0  0  0  0  0
   -7.1991   -3.4557   20.4017 C   0  0  0  0  0  0  0  0  0  0  0  0
   -4.4833    0.5285   23.9399 C   0  0  0  0  0  0  0  0  0  0  0  0
   -5.7092   -3.2621   20.0882 C   0  0  0  0  0  0  0  0  0  0  0  0
   -3.7977   -0.7963   24.3035 C   0  0  0  0  0  0  0  0  0  0  0  0
   -4.8024   -4.1387   20.9650 C   0  0  0  0  0  0  0  0  0  0  0  0
   -3.3393   -3.7939   20.7907 C   0  0  0  0  0  0  0  0  0  0  0  0
   -2.6268   -0.5477   25.2513 C   0  0  0  0  0  0  0  0  0  0  0  0
   -2.5881   -3.1028   21.7649 C   0  0  0  0  0  0  0  0  0  0  0  0
   -3.1795   -2.7218   23.0611 C   0  0  0  0  0  0  0  0  0  0  0  0
   -2.6993   -4.1499   19.5899 C   0  0  0  0  0  0  0  0  0  0  0  0
   -1.2400   -2.7856   21.5301 C   0  0  0  0  0  0  0  0  0  0  0  0
   -1.3633   -3.8206   19.3718 C   0  0  0  0  0  0  0  0  0  0  0  0
   -0.6243   -3.1382   20.3308 C   0  0  0  0  0  0  0  0  0  0  0  0
   -9.9698   -1.0094   22.8420 H   0  0  0  0  0  0  0  0  0  0  0  0
   -0.9188   -1.8906   23.2997 H   0  0  0  0  0  0  0  0  0  0  0  0
   -1.3194   -4.6516   17.5487 H   0  0  0  0  0  0  0  0  0  0  0  0
  1  6  1  0
  1 24  1  0
  2 14  1  0
  2 19  1  0
  3 19  2  0
  4 21  1  0
  4 25  1  0
  5 22  1  0
  5 26  1  0
  6  7  1  0
  6  8  1  0
  7  9  1  0
  8 10  1  0
  9 11  1  0
 10 12  1  0
 11 13  1  0
 12 14  1  0
 13 15  1  0
 14 17  1  0
 15 16  1  0
 16 18  2  0
 16 20  1  0
 18 19  1  0
 18 21  1  0
 20 22  2  0
 21 23  2  0
 22 23  1  0
M  END
> <PUBCHEM_COMPOUND_CID>
2999413

> <PUBCHEM_CONFORMER_RMSD>
0.6

> <PUBCHEM_CONFORMER_DIVERSEORDER>
1
6
14
27
9
16
11
26
8
2
22
5
20
28
18
17
29
3
24
19
21
13
15
7
23
4
25
12
10

> <PUBCHEM_MMFF94_PARTIAL_CHARGES>
20
1 -0.68
14 0.28
15 0.14
16 -0.14
18 0.09
19 0.63
2 -0.43
20 -0.15
21 0.08
22 0.08
23 -0.15
3 -0.57
4 -0.53
45 0.4
46 0.15
47 0.15
48 0.45
49 0.45
5 -0.53
6 0.28

> <PUBCHEM_EFFECTIVE_ROTOR_COUNT>
2.2

> <PUBCHEM_PHARMACOPHORE_FEATURES>
6
1 1 acceptor
1 1 donor
1 3 acceptor
1 4 donor
1 5 donor
6 16 18 20 21 22 23 rings

> <PUBCHEM_HEAVY_ATOM_COUNT>
23

> <PUBCHEM_ATOM_DEF_STEREO_COUNT>
2

> <PUBCHEM_ATOM_UDEF_STEREO_COUNT>
0

> <PUBCHEM_BOND_DEF_STEREO_COUNT>
0

> <PUBCHEM_BOND_UDEF_STEREO_COUNT>
0

> <PUBCHEM_ISOTOPIC_ATOM_COUNT>
0

> <PUBCHEM_COMPONENT_COUNT>
1

> <PUBCHEM_CACTVS_TAUTO_COUNT>
25

> <PUBCHEM_CONFORMER_ID>
002DC47500000001

> <PUBCHEM_MMFF94_ENERGY>
51.6521

> <PUBCHEM_FEATURE_SELFOVERLAP>
30.446

> <PUBCHEM_SHAPE_FINGERPRINT>
104564 63 18340206271993051459
10498660 4 18187631549186102207
10577160 183 17606693423048979742
10616163 171 18266175029013727061
10759866 29 17750229218859711762
108634 29 18411143511243732574
1100329 8 17185877190433830119
11578080 2 17058915861662947194
116883 192 18412832382636582198
12011746 2 18335696144590423807
12054548 360 18337387261554875763
12156800 1 11695045847065978403
12553582 1 18337941355723699521
12788726 201 18339079272527017530
12954195 1 18196384628153038830
13402501 40 18410292523613913767
13533116 47 17911794988931237615
13941206 138 17823424798885047762
14178342 30 17618481208803059632
14251740 79 18268155262187636390
14251745 187 18265888240930317283
14251751 93 18337386020182837502
14251757 17 18340208496912958262
14251757 5 18336274478600052878
14289585 56 17025448677686211638
14363568 33 17831602116089395611
14790565 3 18338242566191680045
14931854 50 18192983829844991199
15081414 286 18267592488269592273
15210252 30 18041841838786063412
17093844 170 18338788043621724272
17357779 13 18338788026679147463
19591789 44 18410009931708134251
20775438 99 17121094438368206175
21141583 151 18411697703262438637
21634736 98 18410570674064001468
221357 26 18411697699342485711
221490 88 18411139126039522364
22393880 68 18190738627232927852
22907989 373 17973200346140242700
23379529 103 18202007594804787190
23419403 2 17703496796872386008
23559900 14 18341611543049219120
23566358 2 18411982468764321124
238 59 17976219553578124023
2871803 45 18335692832737868381
3014063 31 18410290320121227783
6287921 2 17544481216121896507

> <PUBCHEM_SHAPE_MULTIPOLES>
443.98
8.13
4.23
1.13
0.08
1.63
0.2
-3.4
-2.74
-1.52
0.36
0
0.19
0.73

> <PUBCHEM_SHAPE_SELFOVERLAP>
910.639

> <PUBCHEM_SHAPE_VOLUME>
254.2

> <PUBCHEM_COORDINATE_TYPE>
2
5
10

> <Energy>
43.3336

> <minimizedAffinity>
-1.11505

> <CNNscore>
0.4429340065

> <CNNaffinity>
6.3111515045

> <CNN_VS>
2.7954235077

> <CNNaffinity_variance>
0.2867830098

$$$$
2999413


 26 27  0  0  0  0  0  0  0  0999 V2000
  -10.2424   -2.4837   24.6068 O   0  0  0  0  0  0  0  0  0  0  0  0
   -4.8625   -0.8364   22.7559 O   0  0  0  0  0  0  0  0  0  0  0  0
   -4.0801   -1.5383   24.8126 O   0  0  0  0  0  0  0  0  0  0  0  0
   -2.0308   -0.7035   21.9608 O   0  0  0  0  0  0  0  0  0  0  0  0
   -1.0613   -5.1529   20.4996 O   0  0  0  0  0  0  0  0  0  0  0  0
   -9.5121   -2.2962   23.3951 C   0  0  0  0  0  0  0  0  0  0  0  0
   -8.8588   -3.6303   23.0059 C   0  0  0  0  0  0  0  0  0  0  0  0
   -8.5328   -1.1264   23.5769 C   0  0  0  0  0  0  0  0  0  0  0  0
   -7.9523   -4.2300   24.0915 C   0  0  0  0  0  0  0  0  0  0  0  0
   -7.7664   -0.7748   22.2995 C   0  0  0  0  0  0  0  0  0  0  0  0
   -7.1295   -5.4158   23.5725 C   0  0  0  0  0  0  0  0  0  0  0  0
   -6.8625    0.4545   22.4607 C   0  0  0  0  0  0  0  0  0  0  0  0
   -5.9022   -4.9952   22.7526 C   0  0  0  0  0  0  0  0  0  0  0  0
   -5.6449    0.2071   23.3626 C   0  0  0  0  0  0  0  0  0  0  0  0
   -4.7344   -4.5282   23.6346 C   0  0  0  0  0  0  0  0  0  0  0  0
   -3.6107   -3.9283   22.8177 C   0  0  0  0  0  0  0  0  0  0  0  0
   -4.7914    1.4691   23.4635 C   0  0  0  0  0  0  0  0  0  0  0  0
   -3.3389   -2.5442   22.7790 C   0  0  0  0  0  0  0  0  0  0  0  0
   -4.1100   -1.5883   23.5954 C   0  0  0  0  0  0  0  0  0  0  0  0
   -2.8144   -4.7823   22.0337 C   0  0  0  0  0  0  0  0  0  0  0  0
   -2.2993   -2.0461   21.9762 C   0  0  0  0  0  0  0  0  0  0  0  0
   -1.7921   -4.2693   21.2382 C   0  0  0  0  0  0  0  0  0  0  0  0
   -1.5260   -2.9058   21.1988 C   0  0  0  0  0  0  0  0  0  0  0  0
  -10.8632   -3.2212   24.4994 H   0  0  0  0  0  0  0  0  0  0  0  0
   -2.5450   -0.1169   22.4799 H   0  0  0  0  0  0  0  0  0  0  0  0
   -1.2550   -6.0688   20.5385 H   0  0  0  0  0  0  0  0  0  0  0  0
  1  6  1  0
  1 24  1  0
  2 14  1  0
  2 19  1  0
  3 19  2  0
  4 21  1  0
  4 25  1  0
  5 22  1  0
  5 26  1  0
  6  7  1  0
  6  8  1  0
  7  9  1  0
  8 10  1  0
  9 11  1  0
 10 12  1  0
 11 13  1  0
 12 14  1  0
 13 15  1  0
 14 17  1  0
 15 16  1  0
 16 18  2  0
 16 20  1  0
 18 19  1  0
 18 21  1  0
 20 22  2  0
 21 23  2  0
 22 23  1  0
M  END
> <PUBCHEM_COMPOUND_CID>
2999413

> <PUBCHEM_CONFORMER_RMSD>
0.6

> <PUBCHEM_CONFORMER_DIVERSEORDER>
1
6
14
27
9
16
11
26
8
2
22
5
20
28
18
17
29
3
24
19
21
13
15
7
23
4
25
12
10

> <PUBCHEM_MMFF94_PARTIAL_CHARGES>
20
1 -0.68
14 0.28
15 0.14
16 -0.14
18 0.09
19 0.63
2 -0.43
20 -0.15
21 0.08
22 0.08
23 -0.15
3 -0.57
4 -0.53
45 0.4
46 0.15
47 0.15
48 0.45
49 0.45
5 -0.53
6 0.28

> <PUBCHEM_EFFECTIVE_ROTOR_COUNT>
2.2

> <PUBCHEM_PHARMACOPHORE_FEATURES>
6
1 1 acceptor
1 1 donor
1 3 acceptor
1 4 donor
1 5 donor
6 16 18 20 21 22 23 rings

> <PUBCHEM_HEAVY_ATOM_COUNT>
23

> <PUBCHEM_ATOM_DEF_STEREO_COUNT>
2

> <PUBCHEM_ATOM_UDEF_STEREO_COUNT>
0

> <PUBCHEM_BOND_DEF_STEREO_COUNT>
0

> <PUBCHEM_BOND_UDEF_STEREO_COUNT>
0

> <PUBCHEM_ISOTOPIC_ATOM_COUNT>
0

> <PUBCHEM_COMPONENT_COUNT>
1

> <PUBCHEM_CACTVS_TAUTO_COUNT>
25

> <PUBCHEM_CONFORMER_ID>
002DC47500000001

> <PUBCHEM_MMFF94_ENERGY>
51.6521

> <PUBCHEM_FEATURE_SELFOVERLAP>
30.446

> <PUBCHEM_SHAPE_FINGERPRINT>
104564 63 18340206271993051459
10498660 4 18187631549186102207
10577160 183 17606693423048979742
10616163 171 18266175029013727061
10759866 29 17750229218859711762
108634 29 18411143511243732574
1100329 8 17185877190433830119
11578080 2 17058915861662947194
116883 192 18412832382636582198
12011746 2 18335696144590423807
12054548 360 18337387261554875763
12156800 1 11695045847065978403
12553582 1 18337941355723699521
12788726 201 18339079272527017530
12954195 1 18196384628153038830
13402501 40 18410292523613913767
13533116 47 17911794988931237615
13941206 138 17823424798885047762
14178342 30 17618481208803059632
14251740 79 18268155262187636390
14251745 187 18265888240930317283
14251751 93 18337386020182837502
14251757 17 18340208496912958262
14251757 5 18336274478600052878
14289585 56 17025448677686211638
14363568 33 17831602116089395611
14790565 3 18338242566191680045
14931854 50 18192983829844991199
15081414 286 18267592488269592273
15210252 30 18041841838786063412
17093844 170 18338788043621724272
17357779 13 18338788026679147463
19591789 44 18410009931708134251
20775438 99 17121094438368206175
21141583 151 18411697703262438637
21634736 98 18410570674064001468
221357 26 18411697699342485711
221490 88 18411139126039522364
22393880 68 18190738627232927852
22907989 373 17973200346140242700
23379529 103 18202007594804787190
23419403 2 17703496796872386008
23559900 14 18341611543049219120
23566358 2 18411982468764321124
238 59 17976219553578124023
2871803 45 18335692832737868381
3014063 31 18410290320121227783
6287921 2 17544481216121896507

> <PUBCHEM_SHAPE_MULTIPOLES>
443.98
8.13
4.23
1.13
0.08
1.63
0.2
-3.4
-2.74
-1.52
0.36
0
0.19
0.73

> <PUBCHEM_SHAPE_SELFOVERLAP>
910.639

> <PUBCHEM_SHAPE_VOLUME>
254.2

> <PUBCHEM_COORDINATE_TYPE>
2
5
10

> <Energy>
43.3336

> <minimizedAffinity>
-2.68914

> <CNNscore>
0.3520803750

> <CNNaffinity>
5.4826278687

> <CNN_VS>
1.9303256273

> <CNNaffinity_variance>
0.1583430767

$$$$
2999413


 26 27  0  0  0  0  0  0  0  0999 V2000
   -0.2033   -4.6591   23.0390 O   0  0  0  0  0  0  0  0  0  0  0  0
   -6.0175   -4.2313   21.9931 O   0  0  0  0  0  0  0  0  0  0  0  0
   -6.3320   -4.9818   24.1548 O   0  0  0  0  0  0  0  0  0  0  0  0
   -8.8866   -3.5713   22.0301 O   0  0  0  0  0  0  0  0  0  0  0  0
   -9.0092    0.8119   23.9393 O   0  0  0  0  0  0  0  0  0  0  0  0
   -1.1153   -3.9459   22.2045 C   0  0  0  0  0  0  0  0  0  0  0  0
   -1.4950   -2.6330   22.9044 C   0  0  0  0  0  0  0  0  0  0  0  0
   -2.3007   -4.8614   21.8619 C   0  0  0  0  0  0  0  0  0  0  0  0
   -2.0848   -2.8148   24.3112 C   0  0  0  0  0  0  0  0  0  0  0  0
   -3.2938   -4.2257   20.8860 C   0  0  0  0  0  0  0  0  0  0  0  0
   -2.6794   -1.5140   24.8653 C   0  0  0  0  0  0  0  0  0  0  0  0
   -4.4228   -5.1787   20.4723 C   0  0  0  0  0  0  0  0  0  0  0  0
   -4.0702   -1.1902   24.3030 C   0  0  0  0  0  0  0  0  0  0  0  0
   -5.4177   -5.4790   21.6025 C   0  0  0  0  0  0  0  0  0  0  0  0
   -5.1820   -2.0189   24.9638 C   0  0  0  0  0  0  0  0  0  0  0  0
   -6.5133   -1.8406   24.2667 C   0  0  0  0  0  0  0  0  0  0  0  0
   -6.5137   -6.4215   21.1109 C   0  0  0  0  0  0  0  0  0  0  0  0
   -7.0953   -2.8330   23.4496 C   0  0  0  0  0  0  0  0  0  0  0  0
   -6.4578   -4.1510   23.2722 C   0  0  0  0  0  0  0  0  0  0  0  0
   -7.1939   -0.6184   24.4115 C   0  0  0  0  0  0  0  0  0  0  0  0
   -8.3204   -2.5946   22.8049 C   0  0  0  0  0  0  0  0  0  0  0  0
   -8.4047   -0.3973   23.7587 C   0  0  0  0  0  0  0  0  0  0  0  0
   -8.9766   -1.3742   22.9525 C   0  0  0  0  0  0  0  0  0  0  0  0
    0.5482   -4.0870   23.2596 H   0  0  0  0  0  0  0  0  0  0  0  0
   -8.4533   -4.3954   21.9244 H   0  0  0  0  0  0  0  0  0  0  0  0
   -8.6090    1.4588   24.4864 H   0  0  0  0  0  0  0  0  0  0  0  0
  1  6  1  0
  1 24  1  0
  2 14  1  0
  2 19  1  0
  3 19  2  0
  4 21  1  0
  4 25  1  0
  5 22  1  0
  5 26  1  0
  6  7  1  0
  6  8  1  0
  7  9  1  0
  8 10  1  0
  9 11  1  0
 10 12  1  0
 11 13  1  0
 12 14  1  0
 13 15  1  0
 14 17  1  0
 15 16  1  0
 16 18  2  0
 16 20  1  0
 18 19  1  0
 18 21  1  0
 20 22  2  0
 21 23  2  0
 22 23  1  0
M  END
> <PUBCHEM_COMPOUND_CID>
2999413

> <PUBCHEM_CONFORMER_RMSD>
0.6

> <PUBCHEM_CONFORMER_DIVERSEORDER>
1
6
14
27
9
16
11
26
8
2
22
5
20
28
18
17
29
3
24
19
21
13
15
7
23
4
25
12
10

> <PUBCHEM_MMFF94_PARTIAL_CHARGES>
20
1 -0.68
14 0.28
15 0.14
16 -0.14
18 0.09
19 0.63
2 -0.43
20 -0.15
21 0.08
22 0.08
23 -0.15
3 -0.57
4 -0.53
45 0.4
46 0.15
47 0.15
48 0.45
49 0.45
5 -0.53
6 0.28

> <PUBCHEM_EFFECTIVE_ROTOR_COUNT>
2.2

> <PUBCHEM_PHARMACOPHORE_FEATURES>
6
1 1 acceptor
1 1 donor
1 3 acceptor
1 4 donor
1 5 donor
6 16 18 20 21 22 23 rings

> <PUBCHEM_HEAVY_ATOM_COUNT>
23

> <PUBCHEM_ATOM_DEF_STEREO_COUNT>
2

> <PUBCHEM_ATOM_UDEF_STEREO_COUNT>
0

> <PUBCHEM_BOND_DEF_STEREO_COUNT>
0

> <PUBCHEM_BOND_UDEF_STEREO_COUNT>
0

> <PUBCHEM_ISOTOPIC_ATOM_COUNT>
0

> <PUBCHEM_COMPONENT_COUNT>
1

> <PUBCHEM_CACTVS_TAUTO_COUNT>
25

> <PUBCHEM_CONFORMER_ID>
002DC47500000001

> <PUBCHEM_MMFF94_ENERGY>
51.6521

> <PUBCHEM_FEATURE_SELFOVERLAP>
30.446

> <PUBCHEM_SHAPE_FINGERPRINT>
104564 63 18340206271993051459
10498660 4 18187631549186102207
10577160 183 17606693423048979742
10616163 171 18266175029013727061
10759866 29 17750229218859711762
108634 29 18411143511243732574
1100329 8 17185877190433830119
11578080 2 17058915861662947194
116883 192 18412832382636582198
12011746 2 18335696144590423807
12054548 360 18337387261554875763
12156800 1 11695045847065978403
12553582 1 18337941355723699521
12788726 201 18339079272527017530
12954195 1 18196384628153038830
13402501 40 18410292523613913767
13533116 47 17911794988931237615
13941206 138 17823424798885047762
14178342 30 17618481208803059632
14251740 79 18268155262187636390
14251745 187 18265888240930317283
14251751 93 18337386020182837502
14251757 17 18340208496912958262
14251757 5 18336274478600052878
14289585 56 17025448677686211638
14363568 33 17831602116089395611
14790565 3 18338242566191680045
14931854 50 18192983829844991199
15081414 286 18267592488269592273
15210252 30 18041841838786063412
17093844 170 18338788043621724272
17357779 13 18338788026679147463
19591789 44 18410009931708134251
20775438 99 17121094438368206175
21141583 151 18411697703262438637
21634736 98 18410570674064001468
221357 26 18411697699342485711
221490 88 18411139126039522364
22393880 68 18190738627232927852
22907989 373 17973200346140242700
23379529 103 18202007594804787190
23419403 2 17703496796872386008
23559900 14 18341611543049219120
23566358 2 18411982468764321124
238 59 17976219553578124023
2871803 45 18335692832737868381
3014063 31 18410290320121227783
6287921 2 17544481216121896507

> <PUBCHEM_SHAPE_MULTIPOLES>
443.98
8.13
4.23
1.13
0.08
1.63
0.2
-3.4
-2.74
-1.52
0.36
0
0.19
0.73

> <PUBCHEM_SHAPE_SELFOVERLAP>
910.639

> <PUBCHEM_SHAPE_VOLUME>
254.2

> <PUBCHEM_COORDINATE_TYPE>
2
5
10

> <Energy>
43.3336

> <minimizedAffinity>
1.46284

> <CNNscore>
0.3264175951

> <CNNaffinity>
5.5370221138

> <CNN_VS>
1.8073813915

> <CNNaffinity_variance>
0.0539846718

$$$$
2999413


 26 27  0  0  0  0  0  0  0  0999 V2000
   -9.2700   -3.4106   24.5427 O   0  0  0  0  0  0  0  0  0  0  0  0
   -4.2564   -5.4337   22.1233 O   0  0  0  0  0  0  0  0  0  0  0  0
   -4.9825   -4.4923   20.1431 O   0  0  0  0  0  0  0  0  0  0  0  0
   -1.6578   -5.7476   20.7753 O   0  0  0  0  0  0  0  0  0  0  0  0
    0.5157   -1.5547   21.5291 O   0  0  0  0  0  0  0  0  0  0  0  0
   -7.9424   -3.7743   24.9194 C   0  0  0  0  0  0  0  0  0  0  0  0
   -7.0571   -2.5209   24.8639 C   0  0  0  0  0  0  0  0  0  0  0  0
   -7.4715   -4.9374   24.0327 C   0  0  0  0  0  0  0  0  0  0  0  0
   -7.0528   -1.8106   23.5018 C   0  0  0  0  0  0  0  0  0  0  0  0
   -6.0912   -5.4733   24.4204 C   0  0  0  0  0  0  0  0  0  0  0  0
   -5.9721   -0.7256   23.4149 C   0  0  0  0  0  0  0  0  0  0  0  0
   -5.6683   -6.6958   23.5954 C   0  0  0  0  0  0  0  0  0  0  0  0
   -4.5669   -1.2833   23.1503 C   0  0  0  0  0  0  0  0  0  0  0  0
   -5.3507   -6.3672   22.1296 C   0  0  0  0  0  0  0  0  0  0  0  0
   -4.3502   -1.6639   21.6779 C   0  0  0  0  0  0  0  0  0  0  0  0
   -3.0426   -2.3960   21.4676 C   0  0  0  0  0  0  0  0  0  0  0  0
   -4.9281   -7.6287   21.3803 C   0  0  0  0  0  0  0  0  0  0  0  0
   -2.9671   -3.7804   21.2053 C   0  0  0  0  0  0  0  0  0  0  0  0
   -4.1840   -4.6002   21.0572 C   0  0  0  0  0  0  0  0  0  0  0  0
   -1.8399   -1.6738   21.5669 C   0  0  0  0  0  0  0  0  0  0  0  0
   -1.7198   -4.4075   21.0494 C   0  0  0  0  0  0  0  0  0  0  0  0
   -0.6117   -2.3141   21.4163 C   0  0  0  0  0  0  0  0  0  0  0  0
   -0.5377   -3.6780   21.1599 C   0  0  0  0  0  0  0  0  0  0  0  0
   -9.5742   -2.6764   25.0987 H   0  0  0  0  0  0  0  0  0  0  0  0
   -2.4469   -6.2471   20.6991 H   0  0  0  0  0  0  0  0  0  0  0  0
    0.4467   -0.6365   21.7023 H   0  0  0  0  0  0  0  0  0  0  0  0
  1  6  1  0
  1 24  1  0
  2 14  1  0
  2 19  1  0
  3 19  2  0
  4 21  1  0
  4 25  1  0
  5 22  1  0
  5 26  1  0
  6  7  1  0
  6  8  1  0
  7  9  1  0
  8 10  1  0
  9 11  1  0
 10 12  1  0
 11 13  1  0
 12 14  1  0
 13 15  1  0
 14 17  1  0
 15 16  1  0
 16 18  2  0
 16 20  1  0
 18 19  1  0
 18 21  1  0
 20 22  2  0
 21 23  2  0
 22 23  1  0
M  END
> <PUBCHEM_COMPOUND_CID>
2999413

> <PUBCHEM_CONFORMER_RMSD>
0.6

> <PUBCHEM_CONFORMER_DIVERSEORDER>
1
6
14
27
9
16
11
26
8
2
22
5
20
28
18
17
29
3
24
19
21
13
15
7
23
4
25
12
10

> <PUBCHEM_MMFF94_PARTIAL_CHARGES>
20
1 -0.68
14 0.28
15 0.14
16 -0.14
18 0.09
19 0.63
2 -0.43
20 -0.15
21 0.08
22 0.08
23 -0.15
3 -0.57
4 -0.53
45 0.4
46 0.15
47 0.15
48 0.45
49 0.45
5 -0.53
6 0.28

> <PUBCHEM_EFFECTIVE_ROTOR_COUNT>
2.2

> <PUBCHEM_PHARMACOPHORE_FEATURES>
6
1 1 acceptor
1 1 donor
1 3 acceptor
1 4 donor
1 5 donor
6 16 18 20 21 22 23 rings

> <PUBCHEM_HEAVY_ATOM_COUNT>
23

> <PUBCHEM_ATOM_DEF_STEREO_COUNT>
2

> <PUBCHEM_ATOM_UDEF_STEREO_COUNT>
0

> <PUBCHEM_BOND_DEF_STEREO_COUNT>
0

> <PUBCHEM_BOND_UDEF_STEREO_COUNT>
0

> <PUBCHEM_ISOTOPIC_ATOM_COUNT>
0

> <PUBCHEM_COMPONENT_COUNT>
1

> <PUBCHEM_CACTVS_TAUTO_COUNT>
25

> <PUBCHEM_CONFORMER_ID>
002DC47500000001

> <PUBCHEM_MMFF94_ENERGY>
51.6521

> <PUBCHEM_FEATURE_SELFOVERLAP>
30.446

> <PUBCHEM_SHAPE_FINGERPRINT>
104564 63 18340206271993051459
10498660 4 18187631549186102207
10577160 183 17606693423048979742
10616163 171 18266175029013727061
10759866 29 17750229218859711762
108634 29 18411143511243732574
1100329 8 17185877190433830119
11578080 2 17058915861662947194
116883 192 18412832382636582198
12011746 2 18335696144590423807
12054548 360 18337387261554875763
12156800 1 11695045847065978403
12553582 1 18337941355723699521
12788726 201 18339079272527017530
12954195 1 18196384628153038830
13402501 40 18410292523613913767
13533116 47 17911794988931237615
13941206 138 17823424798885047762
14178342 30 17618481208803059632
14251740 79 18268155262187636390
14251745 187 18265888240930317283
14251751 93 18337386020182837502
14251757 17 18340208496912958262
14251757 5 18336274478600052878
14289585 56 17025448677686211638
14363568 33 17831602116089395611
14790565 3 18338242566191680045
14931854 50 18192983829844991199
15081414 286 18267592488269592273
15210252 30 18041841838786063412
17093844 170 18338788043621724272
17357779 13 18338788026679147463
19591789 44 18410009931708134251
20775438 99 17121094438368206175
21141583 151 18411697703262438637
21634736 98 18410570674064001468
221357 26 18411697699342485711
221490 88 18411139126039522364
22393880 68 18190738627232927852
22907989 373 17973200346140242700
23379529 103 18202007594804787190
23419403 2 17703496796872386008
23559900 14 18341611543049219120
23566358 2 18411982468764321124
238 59 17976219553578124023
2871803 45 18335692832737868381
3014063 31 18410290320121227783
6287921 2 17544481216121896507

> <PUBCHEM_SHAPE_MULTIPOLES>
443.98
8.13
4.23
1.13
0.08
1.63
0.2
-3.4
-2.74
-1.52
0.36
0
0.19
0.73

> <PUBCHEM_SHAPE_SELFOVERLAP>
910.639

> <PUBCHEM_SHAPE_VOLUME>
254.2

> <PUBCHEM_COORDINATE_TYPE>
2
5
10

> <Energy>
43.3336

> <minimizedAffinity>
-7.47722

> <CNNscore>
0.3074823320

> <CNNaffinity>
5.5000147820

> <CNN_VS>
1.6911573410

> <CNNaffinity_variance>
0.2192683667

$$$$
2999413


 26 27  0  0  0  0  0  0  0  0999 V2000
   -4.0811   -2.6615   26.0151 O   0  0  0  0  0  0  0  0  0  0  0  0
   -6.8865   -2.5814   20.7992 O   0  0  0  0  0  0  0  0  0  0  0  0
   -8.7257   -3.4156   21.9201 O   0  0  0  0  0  0  0  0  0  0  0  0
   -8.7327   -2.1108   18.5546 O   0  0  0  0  0  0  0  0  0  0  0  0
  -10.5841    2.1956   19.5031 O   0  0  0  0  0  0  0  0  0  0  0  0
   -4.0375   -1.9843   24.7596 C   0  0  0  0  0  0  0  0  0  0  0  0
   -4.9045   -0.7205   24.8547 C   0  0  0  0  0  0  0  0  0  0  0  0
   -4.4440   -2.9642   23.6482 C   0  0  0  0  0  0  0  0  0  0  0  0
   -6.3593   -0.9827   25.2727 C   0  0  0  0  0  0  0  0  0  0  0  0
   -4.3349   -2.3652   22.2438 C   0  0  0  0  0  0  0  0  0  0  0  0
   -7.2444    0.2594   25.1095 C   0  0  0  0  0  0  0  0  0  0  0  0
   -4.6484   -3.3767   21.1336 C   0  0  0  0  0  0  0  0  0  0  0  0
   -7.6852    0.5089   23.6608 C   0  0  0  0  0  0  0  0  0  0  0  0
   -6.1296   -3.7750   21.0664 C   0  0  0  0  0  0  0  0  0  0  0  0
   -8.8374   -0.4100   23.2275 C   0  0  0  0  0  0  0  0  0  0  0  0
   -9.1266   -0.2977   21.7463 C   0  0  0  0  0  0  0  0  0  0  0  0
   -6.3625   -4.7716   19.9334 C   0  0  0  0  0  0  0  0  0  0  0  0
   -8.7833   -1.3007   20.8151 C   0  0  0  0  0  0  0  0  0  0  0  0
   -8.1656   -2.5685   21.2465 C   0  0  0  0  0  0  0  0  0  0  0  0
   -9.7393    0.8728   21.2640 C   0  0  0  0  0  0  0  0  0  0  0  0
   -9.0516   -1.1231   19.4477 C   0  0  0  0  0  0  0  0  0  0  0  0
   -9.9913    1.0342   19.9033 C   0  0  0  0  0  0  0  0  0  0  0  0
   -9.6513    0.0469   18.9862 C   0  0  0  0  0  0  0  0  0  0  0  0
   -3.8255   -2.0486   26.7221 H   0  0  0  0  0  0  0  0  0  0  0  0
   -8.3292   -2.9014   18.8547 H   0  0  0  0  0  0  0  0  0  0  0  0
  -10.8063    2.8503   20.1355 H   0  0  0  0  0  0  0  0  0  0  0  0
  1  6  1  0
  1 24  1  0
  2 14  1  0
  2 19  1  0
  3 19  2  0
  4 21  1  0
  4 25  1  0
  5 22  1  0
  5 26  1  0
  6  7  1  0
  6  8  1  0
  7  9  1  0
  8 10  1  0
  9 11  1  0
 10 12  1  0
 11 13  1  0
 12 14  1  0
 13 15  1  0
 14 17  1  0
 15 16  1  0
 16 18  2  0
 16 20  1  0
 18 19  1  0
 18 21  1  0
 20 22  2  0
 21 23  2  0
 22 23  1  0
M  END
> <PUBCHEM_COMPOUND_CID>
2999413

> <PUBCHEM_CONFORMER_RMSD>
0.6

> <PUBCHEM_CONFORMER_DIVERSEORDER>
1
6
14
27
9
16
11
26
8
2
22
5
20
28
18
17
29
3
24
19
21
13
15
7
23
4
25
12
10

> <PUBCHEM_MMFF94_PARTIAL_CHARGES>
20
1 -0.68
14 0.28
15 0.14
16 -0.14
18 0.09
19 0.63
2 -0.43
20 -0.15
21 0.08
22 0.08
23 -0.15
3 -0.57
4 -0.53
45 0.4
46 0.15
47 0.15
48 0.45
49 0.45
5 -0.53
6 0.28

> <PUBCHEM_EFFECTIVE_ROTOR_COUNT>
2.2

> <PUBCHEM_PHARMACOPHORE_FEATURES>
6
1 1 acceptor
1 1 donor
1 3 acceptor
1 4 donor
1 5 donor
6 16 18 20 21 22 23 rings

> <PUBCHEM_HEAVY_ATOM_COUNT>
23

> <PUBCHEM_ATOM_DEF_STEREO_COUNT>
2

> <PUBCHEM_ATOM_UDEF_STEREO_COUNT>
0

> <PUBCHEM_BOND_DEF_STEREO_COUNT>
0

> <PUBCHEM_BOND_UDEF_STEREO_COUNT>
0

> <PUBCHEM_ISOTOPIC_ATOM_COUNT>
0

> <PUBCHEM_COMPONENT_COUNT>
1

> <PUBCHEM_CACTVS_TAUTO_COUNT>
25

> <PUBCHEM_CONFORMER_ID>
002DC47500000001

> <PUBCHEM_MMFF94_ENERGY>
51.6521

> <PUBCHEM_FEATURE_SELFOVERLAP>
30.446

> <PUBCHEM_SHAPE_FINGERPRINT>
104564 63 18340206271993051459
10498660 4 18187631549186102207
10577160 183 17606693423048979742
10616163 171 18266175029013727061
10759866 29 17750229218859711762
108634 29 18411143511243732574
1100329 8 17185877190433830119
11578080 2 17058915861662947194
116883 192 18412832382636582198
12011746 2 18335696144590423807
12054548 360 18337387261554875763
12156800 1 11695045847065978403
12553582 1 18337941355723699521
12788726 201 18339079272527017530
12954195 1 18196384628153038830
13402501 40 18410292523613913767
13533116 47 17911794988931237615
13941206 138 17823424798885047762
14178342 30 17618481208803059632
14251740 79 18268155262187636390
14251745 187 18265888240930317283
14251751 93 18337386020182837502
14251757 17 18340208496912958262
14251757 5 18336274478600052878
14289585 56 17025448677686211638
14363568 33 17831602116089395611
14790565 3 18338242566191680045
14931854 50 18192983829844991199
15081414 286 18267592488269592273
15210252 30 18041841838786063412
17093844 170 18338788043621724272
17357779 13 18338788026679147463
19591789 44 18410009931708134251
20775438 99 17121094438368206175
21141583 151 18411697703262438637
21634736 98 18410570674064001468
221357 26 18411697699342485711
221490 88 18411139126039522364
22393880 68 18190738627232927852
22907989 373 17973200346140242700
23379529 103 18202007594804787190
23419403 2 17703496796872386008
23559900 14 18341611543049219120
23566358 2 18411982468764321124
238 59 17976219553578124023
2871803 45 18335692832737868381
3014063 31 18410290320121227783
6287921 2 17544481216121896507

> <PUBCHEM_SHAPE_MULTIPOLES>
443.98
8.13
4.23
1.13
0.08
1.63
0.2
-3.4
-2.74
-1.52
0.36
0
0.19
0.73

> <PUBCHEM_SHAPE_SELFOVERLAP>
910.639

> <PUBCHEM_SHAPE_VOLUME>
254.2

> <PUBCHEM_COORDINATE_TYPE>
2
5
10

> <Energy>
43.3336

> <minimizedAffinity>
22.59953

> <CNNscore>
0.3061850369

> <CNNaffinity>
4.8701844215

> <CNN_VS>
1.4911775589

> <CNNaffinity_variance>
1.5708283186

$$$$
2999413


 26 27  0  0  0  0  0  0  0  0999 V2000
   -1.4726   -4.1578   19.5278 O   0  0  0  0  0  0  0  0  0  0  0  0
   -6.2935   -5.4456   22.7189 O   0  0  0  0  0  0  0  0  0  0  0  0
   -5.0051   -5.0402   24.5926 O   0  0  0  0  0  0  0  0  0  0  0  0
   -8.5942   -5.4233   24.5559 O   0  0  0  0  0  0  0  0  0  0  0  0
   -9.7706   -0.7958   24.8313 O   0  0  0  0  0  0  0  0  0  0  0  0
   -2.8949   -4.1570   19.4102 C   0  0  0  0  0  0  0  0  0  0  0  0
   -3.4188   -2.7718   19.8162 C   0  0  0  0  0  0  0  0  0  0  0  0
   -3.4651   -5.3276   20.2258 C   0  0  0  0  0  0  0  0  0  0  0  0
   -2.9965   -2.3245   21.2238 C   0  0  0  0  0  0  0  0  0  0  0  0
   -4.9819   -5.4791   20.0877 C   0  0  0  0  0  0  0  0  0  0  0  0
   -3.7420   -1.0647   21.6820 C   0  0  0  0  0  0  0  0  0  0  0  0
   -5.5325   -6.7064   20.8256 C   0  0  0  0  0  0  0  0  0  0  0  0
   -5.1672   -1.3449   22.1776 C   0  0  0  0  0  0  0  0  0  0  0  0
   -5.4830   -6.5767   22.3547 C   0  0  0  0  0  0  0  0  0  0  0  0
   -5.1950   -1.9197   23.6018 C   0  0  0  0  0  0  0  0  0  0  0  0
   -6.5804   -2.3791   24.0015 C   0  0  0  0  0  0  0  0  0  0  0  0
   -6.0569   -7.8284   23.0144 C   0  0  0  0  0  0  0  0  0  0  0  0
   -6.9441   -3.7390   24.0983 C   0  0  0  0  0  0  0  0  0  0  0  0
   -5.9604   -4.8139   23.8706 C   0  0  0  0  0  0  0  0  0  0  0  0
   -7.5655   -1.4095   24.2609 C   0  0  0  0  0  0  0  0  0  0  0  0
   -8.2564   -4.1009   24.4452 C   0  0  0  0  0  0  0  0  0  0  0  0
   -8.8637   -1.7873   24.5968 C   0  0  0  0  0  0  0  0  0  0  0  0
   -9.2222   -3.1268   24.6902 C   0  0  0  0  0  0  0  0  0  0  0  0
   -1.1053   -3.4209   19.0151 H   0  0  0  0  0  0  0  0  0  0  0  0
   -7.9522   -6.0860   24.3932 H   0  0  0  0  0  0  0  0  0  0  0  0
   -9.5111    0.1019   24.7637 H   0  0  0  0  0  0  0  0  0  0  0  0
  1  6  1  0
  1 24  1  0
  2 14  1  0
  2 19  1  0
  3 19  2  0
  4 21  1  0
  4 25  1  0
  5 22  1  0
  5 26  1  0
  6  7  1  0
  6  8  1  0
  7  9  1  0
  8 10  1  0
  9 11  1  0
 10 12  1  0
 11 13  1  0
 12 14  1  0
 13 15  1  0
 14 17  1  0
 15 16  1  0
 16 18  2  0
 16 20  1  0
 18 19  1  0
 18 21  1  0
 20 22  2  0
 21 23  2  0
 22 23  1  0
M  END
> <PUBCHEM_COMPOUND_CID>
2999413

> <PUBCHEM_CONFORMER_RMSD>
0.6

> <PUBCHEM_CONFORMER_DIVERSEORDER>
1
6
14
27
9
16
11
26
8
2
22
5
20
28
18
17
29
3
24
19
21
13
15
7
23
4
25
12
10

> <PUBCHEM_MMFF94_PARTIAL_CHARGES>
20
1 -0.68
14 0.28
15 0.14
16 -0.14
18 0.09
19 0.63
2 -0.43
20 -0.15
21 0.08
22 0.08
23 -0.15
3 -0.57
4 -0.53
45 0.4
46 0.15
47 0.15
48 0.45
49 0.45
5 -0.53
6 0.28

> <PUBCHEM_EFFECTIVE_ROTOR_COUNT>
2.2

> <PUBCHEM_PHARMACOPHORE_FEATURES>
6
1 1 acceptor
1 1 donor
1 3 acceptor
1 4 donor
1 5 donor
6 16 18 20 21 22 23 rings

> <PUBCHEM_HEAVY_ATOM_COUNT>
23

> <PUBCHEM_ATOM_DEF_STEREO_COUNT>
2

> <PUBCHEM_ATOM_UDEF_STEREO_COUNT>
0

> <PUBCHEM_BOND_DEF_STEREO_COUNT>
0

> <PUBCHEM_BOND_UDEF_STEREO_COUNT>
0

> <PUBCHEM_ISOTOPIC_ATOM_COUNT>
0

> <PUBCHEM_COMPONENT_COUNT>
1

> <PUBCHEM_CACTVS_TAUTO_COUNT>
25

> <PUBCHEM_CONFORMER_ID>
002DC47500000001

> <PUBCHEM_MMFF94_ENERGY>
51.6521

> <PUBCHEM_FEATURE_SELFOVERLAP>
30.446

> <PUBCHEM_SHAPE_FINGERPRINT>
104564 63 18340206271993051459
10498660 4 18187631549186102207
10577160 183 17606693423048979742
10616163 171 18266175029013727061
10759866 29 17750229218859711762
108634 29 18411143511243732574
1100329 8 17185877190433830119
11578080 2 17058915861662947194
116883 192 18412832382636582198
12011746 2 18335696144590423807
12054548 360 18337387261554875763
12156800 1 11695045847065978403
12553582 1 18337941355723699521
12788726 201 18339079272527017530
12954195 1 18196384628153038830
13402501 40 18410292523613913767
13533116 47 17911794988931237615
13941206 138 17823424798885047762
14178342 30 17618481208803059632
14251740 79 18268155262187636390
14251745 187 18265888240930317283
14251751 93 18337386020182837502
14251757 17 18340208496912958262
14251757 5 18336274478600052878
14289585 56 17025448677686211638
14363568 33 17831602116089395611
14790565 3 18338242566191680045
14931854 50 18192983829844991199
15081414 286 18267592488269592273
15210252 30 18041841838786063412
17093844 170 18338788043621724272
17357779 13 18338788026679147463
19591789 44 18410009931708134251
20775438 99 17121094438368206175
21141583 151 18411697703262438637
21634736 98 18410570674064001468
221357 26 18411697699342485711
221490 88 18411139126039522364
22393880 68 18190738627232927852
22907989 373 17973200346140242700
23379529 103 18202007594804787190
23419403 2 17703496796872386008
23559900 14 18341611543049219120
23566358 2 18411982468764321124
238 59 17976219553578124023
2871803 45 18335692832737868381
3014063 31 18410290320121227783
6287921 2 17544481216121896507

> <PUBCHEM_SHAPE_MULTIPOLES>
443.98
8.13
4.23
1.13
0.08
1.63
0.2
-3.4
-2.74
-1.52
0.36
0
0.19
0.73

> <PUBCHEM_SHAPE_SELFOVERLAP>
910.639

> <PUBCHEM_SHAPE_VOLUME>
254.2

> <PUBCHEM_COORDINATE_TYPE>
2
5
10

> <Energy>
43.3336

> <minimizedAffinity>
0.48278

> <CNNscore>
0.3029228449

> <CNNaffinity>
5.4318413734

> <CNN_VS>
1.6454288960

> <CNNaffinity_variance>
0.0480342396

$$$$
