896


 19 20  0  0  0  0  0  0  0  0999 V2000
   -4.5015   -4.5719   19.7158 N   0  0  0  0  0  0  0  0  0  0  0  0
   -3.6615   -3.4770   21.4689 C   0  0  0  0  0  0  0  0  0  0  0  0
   -4.7871   -4.2504   21.8997 C   0  0  0  0  0  0  0  0  0  0  0  0
   -5.2976   -4.9109   20.7848 C   0  0  0  0  0  0  0  0  0  0  0  0
   -3.5168   -3.7053   20.1142 C   0  0  0  0  0  0  0  0  0  0  0  0
   -5.4172   -4.4383   23.1488 C   0  0  0  0  0  0  0  0  0  0  0  0
   -6.4150   -5.7487   20.8525 C   0  0  0  0  0  0  0  0  0  0  0  0
   -6.5431   -5.2624   23.2428 C   0  0  0  0  0  0  0  0  0  0  0  0
   -7.0272   -5.9056   22.1033 C   0  0  0  0  0  0  0  0  0  0  0  0
   -4.6214   -4.9039   18.7968 H   0  0  0  0  0  0  0  0  0  0  0  0
   -7.2484   -5.5106   24.3905 O   0  0  0  0  0  0  0  0  0  0  0  0
   -8.1746   -4.5097   24.7984 C   0  0  0  0  0  0  0  0  0  0  0  0
   -2.8114   -2.5935   22.3336 C   0  0  0  0  0  0  0  0  0  0  0  0
   -1.3984   -2.3872   21.7764 C   0  0  0  0  0  0  0  0  0  0  0  0
   -0.0395   -2.0190   19.3075 O   0  0  0  0  0  0  0  0  0  0  0  0
   -0.9697   -3.4323   20.8611 N   0  0  0  0  0  0  0  0  0  0  0  0
   -0.3426   -3.1495   19.6698 C   0  0  0  0  0  0  0  0  0  0  0  0
   -0.0292   -4.3732   18.8520 C   0  0  0  0  0  0  0  0  0  0  0  0
   -1.1336   -4.3729   21.1016 H   0  0  0  0  0  0  0  0  0  0  0  0
 11  8  1  0
 11 12  1  0
 15 17  2  0
  1  4  1  0
  1  5  1  0
  1 10  1  0
 16 14  1  0
 16 17  1  0
 16 19  1  0
  2  3  1  0
  2 13  1  0
  2  5  2  0
  3  4  2  0
  3  6  1  0
 13 14  1  0
  4  7  1  0
  6  8  2  0
  7  9  2  0
  8  9  1  0
 17 18  1  0
M  END
> <PUBCHEM_COMPOUND_CID>
896

> <PUBCHEM_CONFORMER_RMSD>
0.6

> <PUBCHEM_CONFORMER_DIVERSEORDER>
1
13
50
55
28
16
42
48
27
15
62
60
65
61
36
4
20
58
41
17
59
21
2
63
47
57
40
56
22
64
54
37
51
7
31
53
26
8
49
39
32
11
5
33
38
52
23
45
43
12
14
9
34
44
35
10
25
29
46
6
30
24
3
19
18

> <PUBCHEM_MMFF94_PARTIAL_CHARGES>
22
1 -0.36
10 0.3
11 -0.15
12 -0.15
13 0.08
14 -0.15
15 0.57
16 0.06
17 0.28
2 -0.57
20 0.15
23 0.27
24 0.15
25 0.15
26 0.15
27 0.37
3 0.03
4 -0.73
5 -0.18
7 0.18
8 -0.15
9 -0.3

> <PUBCHEM_EFFECTIVE_ROTOR_COUNT>
5

> <PUBCHEM_PHARMACOPHORE_FEATURES>
7
1 1 acceptor
1 2 acceptor
1 3 cation
1 3 donor
1 4 donor
5 3 5 6 8 9 rings
6 6 8 11 12 13 14 rings

> <PUBCHEM_HEAVY_ATOM_COUNT>
17

> <PUBCHEM_ATOM_DEF_STEREO_COUNT>
0

> <PUBCHEM_ATOM_UDEF_STEREO_COUNT>
0

> <PUBCHEM_BOND_DEF_STEREO_COUNT>
0

> <PUBCHEM_BOND_UDEF_STEREO_COUNT>
0

> <PUBCHEM_ISOTOPIC_ATOM_COUNT>
0

> <PUBCHEM_COMPONENT_COUNT>
1

> <PUBCHEM_CACTVS_TAUTO_COUNT>
2

> <PUBCHEM_CONFORMER_ID>
0000038000000001

> <PUBCHEM_MMFF94_ENERGY>
32.7119

> <PUBCHEM_FEATURE_SELFOVERLAP>
35.612

> <PUBCHEM_SHAPE_FINGERPRINT>
10967382 1 18410853274190255273
11640471 11 17676780867509025316
13027679 85 18194690495324420133
13140716 1 17978229692519098697
13965767 371 16608554374032828400
1420 336 18266184924512803916
14787075 74 17896612875907719035
14790565 3 18341057316043312793
15006816 218 16754940689043299904
16945 1 18195239147136872059
19591789 44 18120376712306458779
19765921 60 17749382706469569763
20510252 161 18342458093286620745
21141583 151 18124894583888822372
21524375 3 17972887951224859043
2334 1 18410572855759727185
23419403 2 17326855944455494142
23557571 272 18201719608641642450
23559900 14 18342173410755765088
2748010 2 18337115553281152647
353137 74 18409164389875307419
44154327 71 18267028250037128041
526903 126 18410576235872810256
537710 114 18408601466050490037
7832392 63 17187566044572678455
9981440 41 18116712022929254594

> <PUBCHEM_SHAPE_MULTIPOLES>
328.15
4.94
3.77
0.97
2.92
1.2
-0.06
0.99
-1.27
-0.81
0.74
0.39
0.23
-0.66

> <PUBCHEM_SHAPE_SELFOVERLAP>
695.133

> <PUBCHEM_SHAPE_VOLUME>
185.3

> <PUBCHEM_COORDINATE_TYPE>
2
5
10

> <Energy>
0.232708

> <minimizedAffinity>
-5.92653

> <CNNscore>
0.6889897585

> <CNNaffinity>
6.6965079308

> <CNN_VS>
4.6138253212

> <CNNaffinity_variance>
0.6261053681

$$$$
896


 19 20  0  0  0  0  0  0  0  0999 V2000
   -5.8943   -1.6585   23.7666 N   0  0  0  0  0  0  0  0  0  0  0  0
   -4.0733   -2.9061   23.4419 C   0  0  0  0  0  0  0  0  0  0  0  0
   -5.1822   -3.7669   23.7252 C   0  0  0  0  0  0  0  0  0  0  0  0
   -6.2990   -2.9619   23.9359 C   0  0  0  0  0  0  0  0  0  0  0  0
   -4.5557   -1.6120   23.4744 C   0  0  0  0  0  0  0  0  0  0  0  0
   -5.3252   -5.1677   23.8246 C   0  0  0  0  0  0  0  0  0  0  0  0
   -7.5567   -3.4866   24.2490 C   0  0  0  0  0  0  0  0  0  0  0  0
   -6.5695   -5.7185   24.1472 C   0  0  0  0  0  0  0  0  0  0  0  0
   -7.6651   -4.8799   24.3538 C   0  0  0  0  0  0  0  0  0  0  0  0
   -6.4813   -0.8721   23.8441 H   0  0  0  0  0  0  0  0  0  0  0  0
   -6.8304   -7.0559   24.2874 O   0  0  0  0  0  0  0  0  0  0  0  0
   -5.9645   -7.9500   23.5969 C   0  0  0  0  0  0  0  0  0  0  0  0
   -2.6641   -3.3399   23.1645 C   0  0  0  0  0  0  0  0  0  0  0  0
   -1.9972   -2.5348   22.0435 C   0  0  0  0  0  0  0  0  0  0  0  0
    0.0037   -2.0397   20.0868 O   0  0  0  0  0  0  0  0  0  0  0  0
   -1.7690   -3.2987   20.8276 N   0  0  0  0  0  0  0  0  0  0  0  0
   -0.7890   -2.9596   19.9237 C   0  0  0  0  0  0  0  0  0  0  0  0
   -0.7565   -3.8514   18.7120 C   0  0  0  0  0  0  0  0  0  0  0  0
   -2.3341   -4.0840   20.6453 H   0  0  0  0  0  0  0  0  0  0  0  0
 11  8  1  0
 11 12  1  0
 15 17  2  0
  1  4  1  0
  1  5  1  0
  1 10  1  0
 16 14  1  0
 16 17  1  0
 16 19  1  0
  2  3  1  0
  2 13  1  0
  2  5  2  0
  3  4  2  0
  3  6  1  0
 13 14  1  0
  4  7  1  0
  6  8  2  0
  7  9  2  0
  8  9  1  0
 17 18  1  0
M  END
> <PUBCHEM_COMPOUND_CID>
896

> <PUBCHEM_CONFORMER_RMSD>
0.6

> <PUBCHEM_CONFORMER_DIVERSEORDER>
1
13
50
55
28
16
42
48
27
15
62
60
65
61
36
4
20
58
41
17
59
21
2
63
47
57
40
56
22
64
54
37
51
7
31
53
26
8
49
39
32
11
5
33
38
52
23
45
43
12
14
9
34
44
35
10
25
29
46
6
30
24
3
19
18

> <PUBCHEM_MMFF94_PARTIAL_CHARGES>
22
1 -0.36
10 0.3
11 -0.15
12 -0.15
13 0.08
14 -0.15
15 0.57
16 0.06
17 0.28
2 -0.57
20 0.15
23 0.27
24 0.15
25 0.15
26 0.15
27 0.37
3 0.03
4 -0.73
5 -0.18
7 0.18
8 -0.15
9 -0.3

> <PUBCHEM_EFFECTIVE_ROTOR_COUNT>
5

> <PUBCHEM_PHARMACOPHORE_FEATURES>
7
1 1 acceptor
1 2 acceptor
1 3 cation
1 3 donor
1 4 donor
5 3 5 6 8 9 rings
6 6 8 11 12 13 14 rings

> <PUBCHEM_HEAVY_ATOM_COUNT>
17

> <PUBCHEM_ATOM_DEF_STEREO_COUNT>
0

> <PUBCHEM_ATOM_UDEF_STEREO_COUNT>
0

> <PUBCHEM_BOND_DEF_STEREO_COUNT>
0

> <PUBCHEM_BOND_UDEF_STEREO_COUNT>
0

> <PUBCHEM_ISOTOPIC_ATOM_COUNT>
0

> <PUBCHEM_COMPONENT_COUNT>
1

> <PUBCHEM_CACTVS_TAUTO_COUNT>
2

> <PUBCHEM_CONFORMER_ID>
0000038000000001

> <PUBCHEM_MMFF94_ENERGY>
32.7119

> <PUBCHEM_FEATURE_SELFOVERLAP>
35.612

> <PUBCHEM_SHAPE_FINGERPRINT>
10967382 1 18410853274190255273
11640471 11 17676780867509025316
13027679 85 18194690495324420133
13140716 1 17978229692519098697
13965767 371 16608554374032828400
1420 336 18266184924512803916
14787075 74 17896612875907719035
14790565 3 18341057316043312793
15006816 218 16754940689043299904
16945 1 18195239147136872059
19591789 44 18120376712306458779
19765921 60 17749382706469569763
20510252 161 18342458093286620745
21141583 151 18124894583888822372
21524375 3 17972887951224859043
2334 1 18410572855759727185
23419403 2 17326855944455494142
23557571 272 18201719608641642450
23559900 14 18342173410755765088
2748010 2 18337115553281152647
353137 74 18409164389875307419
44154327 71 18267028250037128041
526903 126 18410576235872810256
537710 114 18408601466050490037
7832392 63 17187566044572678455
9981440 41 18116712022929254594

> <PUBCHEM_SHAPE_MULTIPOLES>
328.15
4.94
3.77
0.97
2.92
1.2
-0.06
0.99
-1.27
-0.81
0.74
0.39
0.23
-0.66

> <PUBCHEM_SHAPE_SELFOVERLAP>
695.133

> <PUBCHEM_SHAPE_VOLUME>
185.3

> <PUBCHEM_COORDINATE_TYPE>
2
5
10

> <Energy>
0.232708

> <minimizedAffinity>
-6.65942

> <CNNscore>
0.6344109178

> <CNNaffinity>
6.5873107910

> <CNN_VS>
4.1790618896

> <CNNaffinity_variance>
0.3511985540

$$$$
896


 19 20  0  0  0  0  0  0  0  0999 V2000
   -5.2431   -6.5009   19.7802 N   0  0  0  0  0  0  0  0  0  0  0  0
   -5.3050   -6.9664   21.9613 C   0  0  0  0  0  0  0  0  0  0  0  0
   -4.7152   -5.6744   21.7782 C   0  0  0  0  0  0  0  0  0  0  0  0
   -4.6778   -5.4169   20.4100 C   0  0  0  0  0  0  0  0  0  0  0  0
   -5.6195   -7.4422   20.7030 C   0  0  0  0  0  0  0  0  0  0  0  0
   -4.2048   -4.7036   22.6669 C   0  0  0  0  0  0  0  0  0  0  0  0
   -4.1478   -4.2363   19.8805 C   0  0  0  0  0  0  0  0  0  0  0  0
   -3.6589   -3.5186   22.1635 C   0  0  0  0  0  0  0  0  0  0  0  0
   -3.6365   -3.2971   20.7863 C   0  0  0  0  0  0  0  0  0  0  0  0
   -5.3606   -6.5884   18.8067 H   0  0  0  0  0  0  0  0  0  0  0  0
   -3.1205   -2.5116   22.9200 O   0  0  0  0  0  0  0  0  0  0  0  0
   -3.9999   -1.4575   23.2967 C   0  0  0  0  0  0  0  0  0  0  0  0
   -5.5323   -7.6580   23.2732 C   0  0  0  0  0  0  0  0  0  0  0  0
   -6.9194   -7.3834   23.8649 C   0  0  0  0  0  0  0  0  0  0  0  0
   -8.5451   -5.2355   22.9585 O   0  0  0  0  0  0  0  0  0  0  0  0
   -7.0453   -6.0735   24.4832 N   0  0  0  0  0  0  0  0  0  0  0  0
   -7.8392   -5.0854   23.9486 C   0  0  0  0  0  0  0  0  0  0  0  0
   -7.7868   -3.7928   24.7173 C   0  0  0  0  0  0  0  0  0  0  0  0
   -6.5461   -5.8876   25.3112 H   0  0  0  0  0  0  0  0  0  0  0  0
 11  8  1  0
 11 12  1  0
 15 17  2  0
  1  4  1  0
  1  5  1  0
  1 10  1  0
 16 14  1  0
 16 17  1  0
 16 19  1  0
  2  3  1  0
  2 13  1  0
  2  5  2  0
  3  4  2  0
  3  6  1  0
 13 14  1  0
  4  7  1  0
  6  8  2  0
  7  9  2  0
  8  9  1  0
 17 18  1  0
M  END
> <PUBCHEM_COMPOUND_CID>
896

> <PUBCHEM_CONFORMER_RMSD>
0.6

> <PUBCHEM_CONFORMER_DIVERSEORDER>
1
13
50
55
28
16
42
48
27
15
62
60
65
61
36
4
20
58
41
17
59
21
2
63
47
57
40
56
22
64
54
37
51
7
31
53
26
8
49
39
32
11
5
33
38
52
23
45
43
12
14
9
34
44
35
10
25
29
46
6
30
24
3
19
18

> <PUBCHEM_MMFF94_PARTIAL_CHARGES>
22
1 -0.36
10 0.3
11 -0.15
12 -0.15
13 0.08
14 -0.15
15 0.57
16 0.06
17 0.28
2 -0.57
20 0.15
23 0.27
24 0.15
25 0.15
26 0.15
27 0.37
3 0.03
4 -0.73
5 -0.18
7 0.18
8 -0.15
9 -0.3

> <PUBCHEM_EFFECTIVE_ROTOR_COUNT>
5

> <PUBCHEM_PHARMACOPHORE_FEATURES>
7
1 1 acceptor
1 2 acceptor
1 3 cation
1 3 donor
1 4 donor
5 3 5 6 8 9 rings
6 6 8 11 12 13 14 rings

> <PUBCHEM_HEAVY_ATOM_COUNT>
17

> <PUBCHEM_ATOM_DEF_STEREO_COUNT>
0

> <PUBCHEM_ATOM_UDEF_STEREO_COUNT>
0

> <PUBCHEM_BOND_DEF_STEREO_COUNT>
0

> <PUBCHEM_BOND_UDEF_STEREO_COUNT>
0

> <PUBCHEM_ISOTOPIC_ATOM_COUNT>
0

> <PUBCHEM_COMPONENT_COUNT>
1

> <PUBCHEM_CACTVS_TAUTO_COUNT>
2

> <PUBCHEM_CONFORMER_ID>
0000038000000001

> <PUBCHEM_MMFF94_ENERGY>
32.7119

> <PUBCHEM_FEATURE_SELFOVERLAP>
35.612

> <PUBCHEM_SHAPE_FINGERPRINT>
10967382 1 18410853274190255273
11640471 11 17676780867509025316
13027679 85 18194690495324420133
13140716 1 17978229692519098697
13965767 371 16608554374032828400
1420 336 18266184924512803916
14787075 74 17896612875907719035
14790565 3 18341057316043312793
15006816 218 16754940689043299904
16945 1 18195239147136872059
19591789 44 18120376712306458779
19765921 60 17749382706469569763
20510252 161 18342458093286620745
21141583 151 18124894583888822372
21524375 3 17972887951224859043
2334 1 18410572855759727185
23419403 2 17326855944455494142
23557571 272 18201719608641642450
23559900 14 18342173410755765088
2748010 2 18337115553281152647
353137 74 18409164389875307419
44154327 71 18267028250037128041
526903 126 18410576235872810256
537710 114 18408601466050490037
7832392 63 17187566044572678455
9981440 41 18116712022929254594

> <PUBCHEM_SHAPE_MULTIPOLES>
328.15
4.94
3.77
0.97
2.92
1.2
-0.06
0.99
-1.27
-0.81
0.74
0.39
0.23
-0.66

> <PUBCHEM_SHAPE_SELFOVERLAP>
695.133

> <PUBCHEM_SHAPE_VOLUME>
185.3

> <PUBCHEM_COORDINATE_TYPE>
2
5
10

> <Energy>
0.232708

> <minimizedAffinity>
-6.78406

> <CNNscore>
0.5826427937

> <CNNaffinity>
6.2331986427

> <CNN_VS>
3.6317281723

> <CNNaffinity_variance>
0.0917281210

$$$$
896


 19 20  0  0  0  0  0  0  0  0999 V2000
   -6.4309   -3.1224   24.3390 N   0  0  0  0  0  0  0  0  0  0  0  0
   -4.5022   -3.4411   23.2637 C   0  0  0  0  0  0  0  0  0  0  0  0
   -5.2368   -4.6704   23.2750 C   0  0  0  0  0  0  0  0  0  0  0  0
   -6.4270   -4.4451   23.9624 C   0  0  0  0  0  0  0  0  0  0  0  0
   -5.2754   -2.5093   23.9288 C   0  0  0  0  0  0  0  0  0  0  0  0
   -4.9829   -5.9598   22.7597 C   0  0  0  0  0  0  0  0  0  0  0  0
   -7.3787   -5.4485   24.1685 C   0  0  0  0  0  0  0  0  0  0  0  0
   -5.9129   -6.9846   22.9608 C   0  0  0  0  0  0  0  0  0  0  0  0
   -7.0931   -6.7216   23.6568 C   0  0  0  0  0  0  0  0  0  0  0  0
   -7.1588   -2.6795   24.8321 H   0  0  0  0  0  0  0  0  0  0  0  0
   -5.7742   -8.2757   22.5249 O   0  0  0  0  0  0  0  0  0  0  0  0
   -5.1378   -8.4581   21.2648 C   0  0  0  0  0  0  0  0  0  0  0  0
   -3.1534   -3.2215   22.6444 C   0  0  0  0  0  0  0  0  0  0  0  0
   -2.5327   -4.5066   22.0849 C   0  0  0  0  0  0  0  0  0  0  0  0
   -0.0140   -3.7477   21.0088 O   0  0  0  0  0  0  0  0  0  0  0  0
   -2.1835   -4.4250   20.6759 N   0  0  0  0  0  0  0  0  0  0  0  0
   -0.9401   -4.0160   20.2528 C   0  0  0  0  0  0  0  0  0  0  0  0
   -0.8063   -3.9557   18.7552 C   0  0  0  0  0  0  0  0  0  0  0  0
   -2.8588   -4.6705   20.0028 H   0  0  0  0  0  0  0  0  0  0  0  0
 11  8  1  0
 11 12  1  0
 15 17  2  0
  1  4  1  0
  1  5  1  0
  1 10  1  0
 16 14  1  0
 16 17  1  0
 16 19  1  0
  2  3  1  0
  2 13  1  0
  2  5  2  0
  3  4  2  0
  3  6  1  0
 13 14  1  0
  4  7  1  0
  6  8  2  0
  7  9  2  0
  8  9  1  0
 17 18  1  0
M  END
> <PUBCHEM_COMPOUND_CID>
896

> <PUBCHEM_CONFORMER_RMSD>
0.6

> <PUBCHEM_CONFORMER_DIVERSEORDER>
1
13
50
55
28
16
42
48
27
15
62
60
65
61
36
4
20
58
41
17
59
21
2
63
47
57
40
56
22
64
54
37
51
7
31
53
26
8
49
39
32
11
5
33
38
52
23
45
43
12
14
9
34
44
35
10
25
29
46
6
30
24
3
19
18

> <PUBCHEM_MMFF94_PARTIAL_CHARGES>
22
1 -0.36
10 0.3
11 -0.15
12 -0.15
13 0.08
14 -0.15
15 0.57
16 0.06
17 0.28
2 -0.57
20 0.15
23 0.27
24 0.15
25 0.15
26 0.15
27 0.37
3 0.03
4 -0.73
5 -0.18
7 0.18
8 -0.15
9 -0.3

> <PUBCHEM_EFFECTIVE_ROTOR_COUNT>
5

> <PUBCHEM_PHARMACOPHORE_FEATURES>
7
1 1 acceptor
1 2 acceptor
1 3 cation
1 3 donor
1 4 donor
5 3 5 6 8 9 rings
6 6 8 11 12 13 14 rings

> <PUBCHEM_HEAVY_ATOM_COUNT>
17

> <PUBCHEM_ATOM_DEF_STEREO_COUNT>
0

> <PUBCHEM_ATOM_UDEF_STEREO_COUNT>
0

> <PUBCHEM_BOND_DEF_STEREO_COUNT>
0

> <PUBCHEM_BOND_UDEF_STEREO_COUNT>
0

> <PUBCHEM_ISOTOPIC_ATOM_COUNT>
0

> <PUBCHEM_COMPONENT_COUNT>
1

> <PUBCHEM_CACTVS_TAUTO_COUNT>
2

> <PUBCHEM_CONFORMER_ID>
0000038000000001

> <PUBCHEM_MMFF94_ENERGY>
32.7119

> <PUBCHEM_FEATURE_SELFOVERLAP>
35.612

> <PUBCHEM_SHAPE_FINGERPRINT>
10967382 1 18410853274190255273
11640471 11 17676780867509025316
13027679 85 18194690495324420133
13140716 1 17978229692519098697
13965767 371 16608554374032828400
1420 336 18266184924512803916
14787075 74 17896612875907719035
14790565 3 18341057316043312793
15006816 218 16754940689043299904
16945 1 18195239147136872059
19591789 44 18120376712306458779
19765921 60 17749382706469569763
20510252 161 18342458093286620745
21141583 151 18124894583888822372
21524375 3 17972887951224859043
2334 1 18410572855759727185
23419403 2 17326855944455494142
23557571 272 18201719608641642450
23559900 14 18342173410755765088
2748010 2 18337115553281152647
353137 74 18409164389875307419
44154327 71 18267028250037128041
526903 126 18410576235872810256
537710 114 18408601466050490037
7832392 63 17187566044572678455
9981440 41 18116712022929254594

> <PUBCHEM_SHAPE_MULTIPOLES>
328.15
4.94
3.77
0.97
2.92
1.2
-0.06
0.99
-1.27
-0.81
0.74
0.39
0.23
-0.66

> <PUBCHEM_SHAPE_SELFOVERLAP>
695.133

> <PUBCHEM_SHAPE_VOLUME>
185.3

> <PUBCHEM_COORDINATE_TYPE>
2
5
10

> <Energy>
0.232708

> <minimizedAffinity>
-6.64878

> <CNNscore>
0.5400995612

> <CNNaffinity>
6.8671474457

> <CNN_VS>
3.7089433670

> <CNNaffinity_variance>
0.8782512546

$$$$
896


 19 20  0  0  0  0  0  0  0  0999 V2000
   -4.3902   -4.6422   19.8720 N   0  0  0  0  0  0  0  0  0  0  0  0
   -4.0507   -3.9319   21.9596 C   0  0  0  0  0  0  0  0  0  0  0  0
   -2.9462   -3.5240   21.1443 C   0  0  0  0  0  0  0  0  0  0  0  0
   -3.1788   -3.9915   19.8531 C   0  0  0  0  0  0  0  0  0  0  0  0
   -4.9218   -4.6176   21.1354 C   0  0  0  0  0  0  0  0  0  0  0  0
   -1.7632   -2.7983   21.4018 C   0  0  0  0  0  0  0  0  0  0  0  0
   -2.2825   -3.7759   18.8017 C   0  0  0  0  0  0  0  0  0  0  0  0
   -0.8444   -2.5776   20.3709 C   0  0  0  0  0  0  0  0  0  0  0  0
   -1.1107   -3.0636   19.0905 C   0  0  0  0  0  0  0  0  0  0  0  0
   -4.8146   -5.0649   19.0908 H   0  0  0  0  0  0  0  0  0  0  0  0
    0.3416   -1.9043   20.4987 O   0  0  0  0  0  0  0  0  0  0  0  0
    1.3550   -2.5392   21.2707 C   0  0  0  0  0  0  0  0  0  0  0  0
   -4.2170   -3.6594   23.4255 C   0  0  0  0  0  0  0  0  0  0  0  0
   -5.6839   -3.6354   23.8697 C   0  0  0  0  0  0  0  0  0  0  0  0
   -8.4851   -4.0852   24.0381 O   0  0  0  0  0  0  0  0  0  0  0  0
   -6.3661   -4.9097   23.7120 N   0  0  0  0  0  0  0  0  0  0  0  0
   -7.7302   -5.0302   23.8423 C   0  0  0  0  0  0  0  0  0  0  0  0
   -8.2244   -6.4434   23.6902 C   0  0  0  0  0  0  0  0  0  0  0  0
   -5.8346   -5.7122   23.5053 H   0  0  0  0  0  0  0  0  0  0  0  0
 11  8  1  0
 11 12  1  0
 15 17  2  0
  1  4  1  0
  1  5  1  0
  1 10  1  0
 16 14  1  0
 16 17  1  0
 16 19  1  0
  2  3  1  0
  2 13  1  0
  2  5  2  0
  3  4  2  0
  3  6  1  0
 13 14  1  0
  4  7  1  0
  6  8  2  0
  7  9  2  0
  8  9  1  0
 17 18  1  0
M  END
> <PUBCHEM_COMPOUND_CID>
896

> <PUBCHEM_CONFORMER_RMSD>
0.6

> <PUBCHEM_CONFORMER_DIVERSEORDER>
1
13
50
55
28
16
42
48
27
15
62
60
65
61
36
4
20
58
41
17
59
21
2
63
47
57
40
56
22
64
54
37
51
7
31
53
26
8
49
39
32
11
5
33
38
52
23
45
43
12
14
9
34
44
35
10
25
29
46
6
30
24
3
19
18

> <PUBCHEM_MMFF94_PARTIAL_CHARGES>
22
1 -0.36
10 0.3
11 -0.15
12 -0.15
13 0.08
14 -0.15
15 0.57
16 0.06
17 0.28
2 -0.57
20 0.15
23 0.27
24 0.15
25 0.15
26 0.15
27 0.37
3 0.03
4 -0.73
5 -0.18
7 0.18
8 -0.15
9 -0.3

> <PUBCHEM_EFFECTIVE_ROTOR_COUNT>
5

> <PUBCHEM_PHARMACOPHORE_FEATURES>
7
1 1 acceptor
1 2 acceptor
1 3 cation
1 3 donor
1 4 donor
5 3 5 6 8 9 rings
6 6 8 11 12 13 14 rings

> <PUBCHEM_HEAVY_ATOM_COUNT>
17

> <PUBCHEM_ATOM_DEF_STEREO_COUNT>
0

> <PUBCHEM_ATOM_UDEF_STEREO_COUNT>
0

> <PUBCHEM_BOND_DEF_STEREO_COUNT>
0

> <PUBCHEM_BOND_UDEF_STEREO_COUNT>
0

> <PUBCHEM_ISOTOPIC_ATOM_COUNT>
0

> <PUBCHEM_COMPONENT_COUNT>
1

> <PUBCHEM_CACTVS_TAUTO_COUNT>
2

> <PUBCHEM_CONFORMER_ID>
0000038000000001

> <PUBCHEM_MMFF94_ENERGY>
32.7119

> <PUBCHEM_FEATURE_SELFOVERLAP>
35.612

> <PUBCHEM_SHAPE_FINGERPRINT>
10967382 1 18410853274190255273
11640471 11 17676780867509025316
13027679 85 18194690495324420133
13140716 1 17978229692519098697
13965767 371 16608554374032828400
1420 336 18266184924512803916
14787075 74 17896612875907719035
14790565 3 18341057316043312793
15006816 218 16754940689043299904
16945 1 18195239147136872059
19591789 44 18120376712306458779
19765921 60 17749382706469569763
20510252 161 18342458093286620745
21141583 151 18124894583888822372
21524375 3 17972887951224859043
2334 1 18410572855759727185
23419403 2 17326855944455494142
23557571 272 18201719608641642450
23559900 14 18342173410755765088
2748010 2 18337115553281152647
353137 74 18409164389875307419
44154327 71 18267028250037128041
526903 126 18410576235872810256
537710 114 18408601466050490037
7832392 63 17187566044572678455
9981440 41 18116712022929254594

> <PUBCHEM_SHAPE_MULTIPOLES>
328.15
4.94
3.77
0.97
2.92
1.2
-0.06
0.99
-1.27
-0.81
0.74
0.39
0.23
-0.66

> <PUBCHEM_SHAPE_SELFOVERLAP>
695.133

> <PUBCHEM_SHAPE_VOLUME>
185.3

> <PUBCHEM_COORDINATE_TYPE>
2
5
10

> <Energy>
0.232708

> <minimizedAffinity>
-6.30961

> <CNNscore>
0.5322709084

> <CNNaffinity>
6.2189927101

> <CNN_VS>
3.3101890087

> <CNNaffinity_variance>
0.2028581947

$$$$
896


 19 20  0  0  0  0  0  0  0  0999 V2000
   -5.5296   -5.5514   19.7853 N   0  0  0  0  0  0  0  0  0  0  0  0
   -5.0308   -6.6426   21.6663 C   0  0  0  0  0  0  0  0  0  0  0  0
   -4.1003   -5.5682   21.4914 C   0  0  0  0  0  0  0  0  0  0  0  0
   -4.4272   -4.9147   20.3057 C   0  0  0  0  0  0  0  0  0  0  0  0
   -5.8987   -6.5962   20.5925 C   0  0  0  0  0  0  0  0  0  0  0  0
   -3.0015   -5.1011   22.2444 C   0  0  0  0  0  0  0  0  0  0  0  0
   -3.7052   -3.8170   19.8275 C   0  0  0  0  0  0  0  0  0  0  0  0
   -2.2554   -4.0117   21.7837 C   0  0  0  0  0  0  0  0  0  0  0  0
   -2.6117   -3.3841   20.5897 C   0  0  0  0  0  0  0  0  0  0  0  0
   -5.9878   -5.2939   18.9529 H   0  0  0  0  0  0  0  0  0  0  0  0
   -1.1628   -3.4776   22.4140 O   0  0  0  0  0  0  0  0  0  0  0  0
   -0.2712   -2.7154   21.6077 C   0  0  0  0  0  0  0  0  0  0  0  0
   -5.0484   -7.6224   22.8024 C   0  0  0  0  0  0  0  0  0  0  0  0
   -6.3150   -7.5251   23.6602 C   0  0  0  0  0  0  0  0  0  0  0  0
   -8.8820   -6.3077   23.7413 O   0  0  0  0  0  0  0  0  0  0  0  0
   -6.6183   -6.1757   24.1088 N   0  0  0  0  0  0  0  0  0  0  0  0
   -7.8955   -5.6654   24.0812 C   0  0  0  0  0  0  0  0  0  0  0  0
   -7.9797   -4.2353   24.5418 C   0  0  0  0  0  0  0  0  0  0  0  0
   -5.8860   -5.6089   24.4430 H   0  0  0  0  0  0  0  0  0  0  0  0
 11  8  1  0
 11 12  1  0
 15 17  2  0
  1  4  1  0
  1  5  1  0
  1 10  1  0
 16 14  1  0
 16 17  1  0
 16 19  1  0
  2  3  1  0
  2 13  1  0
  2  5  2  0
  3  4  2  0
  3  6  1  0
 13 14  1  0
  4  7  1  0
  6  8  2  0
  7  9  2  0
  8  9  1  0
 17 18  1  0
M  END
> <PUBCHEM_COMPOUND_CID>
896

> <PUBCHEM_CONFORMER_RMSD>
0.6

> <PUBCHEM_CONFORMER_DIVERSEORDER>
1
13
50
55
28
16
42
48
27
15
62
60
65
61
36
4
20
58
41
17
59
21
2
63
47
57
40
56
22
64
54
37
51
7
31
53
26
8
49
39
32
11
5
33
38
52
23
45
43
12
14
9
34
44
35
10
25
29
46
6
30
24
3
19
18

> <PUBCHEM_MMFF94_PARTIAL_CHARGES>
22
1 -0.36
10 0.3
11 -0.15
12 -0.15
13 0.08
14 -0.15
15 0.57
16 0.06
17 0.28
2 -0.57
20 0.15
23 0.27
24 0.15
25 0.15
26 0.15
27 0.37
3 0.03
4 -0.73
5 -0.18
7 0.18
8 -0.15
9 -0.3

> <PUBCHEM_EFFECTIVE_ROTOR_COUNT>
5

> <PUBCHEM_PHARMACOPHORE_FEATURES>
7
1 1 acceptor
1 2 acceptor
1 3 cation
1 3 donor
1 4 donor
5 3 5 6 8 9 rings
6 6 8 11 12 13 14 rings

> <PUBCHEM_HEAVY_ATOM_COUNT>
17

> <PUBCHEM_ATOM_DEF_STEREO_COUNT>
0

> <PUBCHEM_ATOM_UDEF_STEREO_COUNT>
0

> <PUBCHEM_BOND_DEF_STEREO_COUNT>
0

> <PUBCHEM_BOND_UDEF_STEREO_COUNT>
0

> <PUBCHEM_ISOTOPIC_ATOM_COUNT>
0

> <PUBCHEM_COMPONENT_COUNT>
1

> <PUBCHEM_CACTVS_TAUTO_COUNT>
2

> <PUBCHEM_CONFORMER_ID>
0000038000000001

> <PUBCHEM_MMFF94_ENERGY>
32.7119

> <PUBCHEM_FEATURE_SELFOVERLAP>
35.612

> <PUBCHEM_SHAPE_FINGERPRINT>
10967382 1 18410853274190255273
11640471 11 17676780867509025316
13027679 85 18194690495324420133
13140716 1 17978229692519098697
13965767 371 16608554374032828400
1420 336 18266184924512803916
14787075 74 17896612875907719035
14790565 3 18341057316043312793
15006816 218 16754940689043299904
16945 1 18195239147136872059
19591789 44 18120376712306458779
19765921 60 17749382706469569763
20510252 161 18342458093286620745
21141583 151 18124894583888822372
21524375 3 17972887951224859043
2334 1 18410572855759727185
23419403 2 17326855944455494142
23557571 272 18201719608641642450
23559900 14 18342173410755765088
2748010 2 18337115553281152647
353137 74 18409164389875307419
44154327 71 18267028250037128041
526903 126 18410576235872810256
537710 114 18408601466050490037
7832392 63 17187566044572678455
9981440 41 18116712022929254594

> <PUBCHEM_SHAPE_MULTIPOLES>
328.15
4.94
3.77
0.97
2.92
1.2
-0.06
0.99
-1.27
-0.81
0.74
0.39
0.23
-0.66

> <PUBCHEM_SHAPE_SELFOVERLAP>
695.133

> <PUBCHEM_SHAPE_VOLUME>
185.3

> <PUBCHEM_COORDINATE_TYPE>
2
5
10

> <Energy>
0.232708

> <minimizedAffinity>
-7.31583

> <CNNscore>
0.5079752207

> <CNNaffinity>
6.1512122154

> <CNN_VS>
3.1246633530

> <CNNaffinity_variance>
0.3832970858

$$$$
896


 19 20  0  0  0  0  0  0  0  0999 V2000
   -7.0537   -7.0375   23.9644 N   0  0  0  0  0  0  0  0  0  0  0  0
   -5.2478   -6.5783   22.7373 C   0  0  0  0  0  0  0  0  0  0  0  0
   -5.7825   -5.3543   23.2537 C   0  0  0  0  0  0  0  0  0  0  0  0
   -6.9135   -5.6699   24.0027 C   0  0  0  0  0  0  0  0  0  0  0  0
   -6.0603   -7.5947   23.2014 C   0  0  0  0  0  0  0  0  0  0  0  0
   -5.3982   -4.0008   23.1403 C   0  0  0  0  0  0  0  0  0  0  0  0
   -7.6884   -4.6974   24.6421 C   0  0  0  0  0  0  0  0  0  0  0  0
   -6.1615   -3.0068   23.7607 C   0  0  0  0  0  0  0  0  0  0  0  0
   -7.2898   -3.3613   24.5007 C   0  0  0  0  0  0  0  0  0  0  0  0
   -7.7650   -7.5436   24.4194 H   0  0  0  0  0  0  0  0  0  0  0  0
   -5.9012   -1.6629   23.7112 O   0  0  0  0  0  0  0  0  0  0  0  0
   -5.9385   -1.0534   22.4255 C   0  0  0  0  0  0  0  0  0  0  0  0
   -4.0369   -6.7159   21.8622 C   0  0  0  0  0  0  0  0  0  0  0  0
   -3.1414   -5.4719   21.8755 C   0  0  0  0  0  0  0  0  0  0  0  0
   -0.8024   -4.1304   20.9772 O   0  0  0  0  0  0  0  0  0  0  0  0
   -2.9317   -4.8852   20.5618 N   0  0  0  0  0  0  0  0  0  0  0  0
   -1.7698   -4.2270   20.2316 C   0  0  0  0  0  0  0  0  0  0  0  0
   -1.7802   -3.6535   18.8404 C   0  0  0  0  0  0  0  0  0  0  0  0
   -3.6443   -4.9614   19.8868 H   0  0  0  0  0  0  0  0  0  0  0  0
 11  8  1  0
 11 12  1  0
 15 17  2  0
  1  4  1  0
  1  5  1  0
  1 10  1  0
 16 14  1  0
 16 17  1  0
 16 19  1  0
  2  3  1  0
  2 13  1  0
  2  5  2  0
  3  4  2  0
  3  6  1  0
 13 14  1  0
  4  7  1  0
  6  8  2  0
  7  9  2  0
  8  9  1  0
 17 18  1  0
M  END
> <PUBCHEM_COMPOUND_CID>
896

> <PUBCHEM_CONFORMER_RMSD>
0.6

> <PUBCHEM_CONFORMER_DIVERSEORDER>
1
13
50
55
28
16
42
48
27
15
62
60
65
61
36
4
20
58
41
17
59
21
2
63
47
57
40
56
22
64
54
37
51
7
31
53
26
8
49
39
32
11
5
33
38
52
23
45
43
12
14
9
34
44
35
10
25
29
46
6
30
24
3
19
18

> <PUBCHEM_MMFF94_PARTIAL_CHARGES>
22
1 -0.36
10 0.3
11 -0.15
12 -0.15
13 0.08
14 -0.15
15 0.57
16 0.06
17 0.28
2 -0.57
20 0.15
23 0.27
24 0.15
25 0.15
26 0.15
27 0.37
3 0.03
4 -0.73
5 -0.18
7 0.18
8 -0.15
9 -0.3

> <PUBCHEM_EFFECTIVE_ROTOR_COUNT>
5

> <PUBCHEM_PHARMACOPHORE_FEATURES>
7
1 1 acceptor
1 2 acceptor
1 3 cation
1 3 donor
1 4 donor
5 3 5 6 8 9 rings
6 6 8 11 12 13 14 rings

> <PUBCHEM_HEAVY_ATOM_COUNT>
17

> <PUBCHEM_ATOM_DEF_STEREO_COUNT>
0

> <PUBCHEM_ATOM_UDEF_STEREO_COUNT>
0

> <PUBCHEM_BOND_DEF_STEREO_COUNT>
0

> <PUBCHEM_BOND_UDEF_STEREO_COUNT>
0

> <PUBCHEM_ISOTOPIC_ATOM_COUNT>
0

> <PUBCHEM_COMPONENT_COUNT>
1

> <PUBCHEM_CACTVS_TAUTO_COUNT>
2

> <PUBCHEM_CONFORMER_ID>
0000038000000001

> <PUBCHEM_MMFF94_ENERGY>
32.7119

> <PUBCHEM_FEATURE_SELFOVERLAP>
35.612

> <PUBCHEM_SHAPE_FINGERPRINT>
10967382 1 18410853274190255273
11640471 11 17676780867509025316
13027679 85 18194690495324420133
13140716 1 17978229692519098697
13965767 371 16608554374032828400
1420 336 18266184924512803916
14787075 74 17896612875907719035
14790565 3 18341057316043312793
15006816 218 16754940689043299904
16945 1 18195239147136872059
19591789 44 18120376712306458779
19765921 60 17749382706469569763
20510252 161 18342458093286620745
21141583 151 18124894583888822372
21524375 3 17972887951224859043
2334 1 18410572855759727185
23419403 2 17326855944455494142
23557571 272 18201719608641642450
23559900 14 18342173410755765088
2748010 2 18337115553281152647
353137 74 18409164389875307419
44154327 71 18267028250037128041
526903 126 18410576235872810256
537710 114 18408601466050490037
7832392 63 17187566044572678455
9981440 41 18116712022929254594

> <PUBCHEM_SHAPE_MULTIPOLES>
328.15
4.94
3.77
0.97
2.92
1.2
-0.06
0.99
-1.27
-0.81
0.74
0.39
0.23
-0.66

> <PUBCHEM_SHAPE_SELFOVERLAP>
695.133

> <PUBCHEM_SHAPE_VOLUME>
185.3

> <PUBCHEM_COORDINATE_TYPE>
2
5
10

> <Energy>
0.232708

> <minimizedAffinity>
-6.83522

> <CNNscore>
0.4832147956

> <CNNaffinity>
6.7739086151

> <CNN_VS>
3.2732529640

> <CNNaffinity_variance>
0.4581333697

$$$$
896


 19 20  0  0  0  0  0  0  0  0999 V2000
   -2.7647   -5.3530   21.9686 N   0  0  0  0  0  0  0  0  0  0  0  0
   -4.7049   -5.6384   20.9045 C   0  0  0  0  0  0  0  0  0  0  0  0
   -4.6656   -4.3161   21.4531 C   0  0  0  0  0  0  0  0  0  0  0  0
   -3.4520   -4.1716   22.1209 C   0  0  0  0  0  0  0  0  0  0  0  0
   -3.5109   -6.2453   21.2430 C   0  0  0  0  0  0  0  0  0  0  0  0
   -5.5679   -3.2306   21.4399 C   0  0  0  0  0  0  0  0  0  0  0  0
   -3.0941   -2.9945   22.7855 C   0  0  0  0  0  0  0  0  0  0  0  0
   -5.2398   -2.0455   22.1058 C   0  0  0  0  0  0  0  0  0  0  0  0
   -4.0155   -1.9387   22.7663 C   0  0  0  0  0  0  0  0  0  0  0  0
   -1.8662   -5.5323   22.3287 H   0  0  0  0  0  0  0  0  0  0  0  0
   -6.0347   -0.9323   22.1781 O   0  0  0  0  0  0  0  0  0  0  0  0
   -5.9950   -0.1989   23.3973 C   0  0  0  0  0  0  0  0  0  0  0  0
   -5.8322   -6.2363   20.1154 C   0  0  0  0  0  0  0  0  0  0  0  0
   -6.8570   -6.9668   20.9904 C   0  0  0  0  0  0  0  0  0  0  0  0
   -9.2533   -6.5142   22.4500 O   0  0  0  0  0  0  0  0  0  0  0  0
   -6.9602   -6.4371   22.3405 N   0  0  0  0  0  0  0  0  0  0  0  0
   -8.1739   -6.2251   22.9524 C   0  0  0  0  0  0  0  0  0  0  0  0
   -8.0554   -5.6255   24.3275 C   0  0  0  0  0  0  0  0  0  0  0  0
   -6.1348   -6.2233   22.8327 H   0  0  0  0  0  0  0  0  0  0  0  0
 11  8  1  0
 11 12  1  0
 15 17  2  0
  1  4  1  0
  1  5  1  0
  1 10  1  0
 16 14  1  0
 16 17  1  0
 16 19  1  0
  2  3  1  0
  2 13  1  0
  2  5  2  0
  3  4  2  0
  3  6  1  0
 13 14  1  0
  4  7  1  0
  6  8  2  0
  7  9  2  0
  8  9  1  0
 17 18  1  0
M  END
> <PUBCHEM_COMPOUND_CID>
896

> <PUBCHEM_CONFORMER_RMSD>
0.6

> <PUBCHEM_CONFORMER_DIVERSEORDER>
1
13
50
55
28
16
42
48
27
15
62
60
65
61
36
4
20
58
41
17
59
21
2
63
47
57
40
56
22
64
54
37
51
7
31
53
26
8
49
39
32
11
5
33
38
52
23
45
43
12
14
9
34
44
35
10
25
29
46
6
30
24
3
19
18

> <PUBCHEM_MMFF94_PARTIAL_CHARGES>
22
1 -0.36
10 0.3
11 -0.15
12 -0.15
13 0.08
14 -0.15
15 0.57
16 0.06
17 0.28
2 -0.57
20 0.15
23 0.27
24 0.15
25 0.15
26 0.15
27 0.37
3 0.03
4 -0.73
5 -0.18
7 0.18
8 -0.15
9 -0.3

> <PUBCHEM_EFFECTIVE_ROTOR_COUNT>
5

> <PUBCHEM_PHARMACOPHORE_FEATURES>
7
1 1 acceptor
1 2 acceptor
1 3 cation
1 3 donor
1 4 donor
5 3 5 6 8 9 rings
6 6 8 11 12 13 14 rings

> <PUBCHEM_HEAVY_ATOM_COUNT>
17

> <PUBCHEM_ATOM_DEF_STEREO_COUNT>
0

> <PUBCHEM_ATOM_UDEF_STEREO_COUNT>
0

> <PUBCHEM_BOND_DEF_STEREO_COUNT>
0

> <PUBCHEM_BOND_UDEF_STEREO_COUNT>
0

> <PUBCHEM_ISOTOPIC_ATOM_COUNT>
0

> <PUBCHEM_COMPONENT_COUNT>
1

> <PUBCHEM_CACTVS_TAUTO_COUNT>
2

> <PUBCHEM_CONFORMER_ID>
0000038000000001

> <PUBCHEM_MMFF94_ENERGY>
32.7119

> <PUBCHEM_FEATURE_SELFOVERLAP>
35.612

> <PUBCHEM_SHAPE_FINGERPRINT>
10967382 1 18410853274190255273
11640471 11 17676780867509025316
13027679 85 18194690495324420133
13140716 1 17978229692519098697
13965767 371 16608554374032828400
1420 336 18266184924512803916
14787075 74 17896612875907719035
14790565 3 18341057316043312793
15006816 218 16754940689043299904
16945 1 18195239147136872059
19591789 44 18120376712306458779
19765921 60 17749382706469569763
20510252 161 18342458093286620745
21141583 151 18124894583888822372
21524375 3 17972887951224859043
2334 1 18410572855759727185
23419403 2 17326855944455494142
23557571 272 18201719608641642450
23559900 14 18342173410755765088
2748010 2 18337115553281152647
353137 74 18409164389875307419
44154327 71 18267028250037128041
526903 126 18410576235872810256
537710 114 18408601466050490037
7832392 63 17187566044572678455
9981440 41 18116712022929254594

> <PUBCHEM_SHAPE_MULTIPOLES>
328.15
4.94
3.77
0.97
2.92
1.2
-0.06
0.99
-1.27
-0.81
0.74
0.39
0.23
-0.66

> <PUBCHEM_SHAPE_SELFOVERLAP>
695.133

> <PUBCHEM_SHAPE_VOLUME>
185.3

> <PUBCHEM_COORDINATE_TYPE>
2
5
10

> <Energy>
0.232708

> <minimizedAffinity>
-5.59581

> <CNNscore>
0.4262883961

> <CNNaffinity>
6.5492291451

> <CNN_VS>
2.7918603420

> <CNNaffinity_variance>
0.2444066554

$$$$
896


 19 20  0  0  0  0  0  0  0  0999 V2000
   -3.7332   -2.0620   24.0438 N   0  0  0  0  0  0  0  0  0  0  0  0
   -4.8798   -2.9109   22.3284 C   0  0  0  0  0  0  0  0  0  0  0  0
   -3.4806   -3.1070   22.0948 C   0  0  0  0  0  0  0  0  0  0  0  0
   -2.7911   -2.5569   23.1726 C   0  0  0  0  0  0  0  0  0  0  0  0
   -4.9936   -2.2644   23.5439 C   0  0  0  0  0  0  0  0  0  0  0  0
   -2.7435   -3.7044   21.0497 C   0  0  0  0  0  0  0  0  0  0  0  0
   -1.3954   -2.5669   23.2575 C   0  0  0  0  0  0  0  0  0  0  0  0
   -1.3462   -3.7184   21.1039 C   0  0  0  0  0  0  0  0  0  0  0  0
   -0.6902   -3.1551   22.1988 C   0  0  0  0  0  0  0  0  0  0  0  0
   -3.5316   -1.6252   24.9027 H   0  0  0  0  0  0  0  0  0  0  0  0
   -0.5225   -4.2520   20.1483 O   0  0  0  0  0  0  0  0  0  0  0  0
   -0.8341   -3.9435   18.7941 C   0  0  0  0  0  0  0  0  0  0  0  0
   -5.9966   -3.3323   21.4195 C   0  0  0  0  0  0  0  0  0  0  0  0
   -7.0345   -4.2206   22.1147 C   0  0  0  0  0  0  0  0  0  0  0  0
   -8.4011   -6.1086   23.7413 O   0  0  0  0  0  0  0  0  0  0  0  0
   -6.4834   -5.4496   22.6621 N   0  0  0  0  0  0  0  0  0  0  0  0
   -7.2202   -6.2868   23.4675 C   0  0  0  0  0  0  0  0  0  0  0  0
   -6.4440   -7.4758   23.9656 C   0  0  0  0  0  0  0  0  0  0  0  0
   -5.5528   -5.6906   22.4494 H   0  0  0  0  0  0  0  0  0  0  0  0
 11  8  1  0
 11 12  1  0
 15 17  2  0
  1  4  1  0
  1  5  1  0
  1 10  1  0
 16 14  1  0
 16 17  1  0
 16 19  1  0
  2  3  1  0
  2 13  1  0
  2  5  2  0
  3  4  2  0
  3  6  1  0
 13 14  1  0
  4  7  1  0
  6  8  2  0
  7  9  2  0
  8  9  1  0
 17 18  1  0
M  END
> <PUBCHEM_COMPOUND_CID>
896

> <PUBCHEM_CONFORMER_RMSD>
0.6

> <PUBCHEM_CONFORMER_DIVERSEORDER>
1
13
50
55
28
16
42
48
27
15
62
60
65
61
36
4
20
58
41
17
59
21
2
63
47
57
40
56
22
64
54
37
51
7
31
53
26
8
49
39
32
11
5
33
38
52
23
45
43
12
14
9
34
44
35
10
25
29
46
6
30
24
3
19
18

> <PUBCHEM_MMFF94_PARTIAL_CHARGES>
22
1 -0.36
10 0.3
11 -0.15
12 -0.15
13 0.08
14 -0.15
15 0.57
16 0.06
17 0.28
2 -0.57
20 0.15
23 0.27
24 0.15
25 0.15
26 0.15
27 0.37
3 0.03
4 -0.73
5 -0.18
7 0.18
8 -0.15
9 -0.3

> <PUBCHEM_EFFECTIVE_ROTOR_COUNT>
5

> <PUBCHEM_PHARMACOPHORE_FEATURES>
7
1 1 acceptor
1 2 acceptor
1 3 cation
1 3 donor
1 4 donor
5 3 5 6 8 9 rings
6 6 8 11 12 13 14 rings

> <PUBCHEM_HEAVY_ATOM_COUNT>
17

> <PUBCHEM_ATOM_DEF_STEREO_COUNT>
0

> <PUBCHEM_ATOM_UDEF_STEREO_COUNT>
0

> <PUBCHEM_BOND_DEF_STEREO_COUNT>
0

> <PUBCHEM_BOND_UDEF_STEREO_COUNT>
0

> <PUBCHEM_ISOTOPIC_ATOM_COUNT>
0

> <PUBCHEM_COMPONENT_COUNT>
1

> <PUBCHEM_CACTVS_TAUTO_COUNT>
2

> <PUBCHEM_CONFORMER_ID>
0000038000000001

> <PUBCHEM_MMFF94_ENERGY>
32.7119

> <PUBCHEM_FEATURE_SELFOVERLAP>
35.612

> <PUBCHEM_SHAPE_FINGERPRINT>
10967382 1 18410853274190255273
11640471 11 17676780867509025316
13027679 85 18194690495324420133
13140716 1 17978229692519098697
13965767 371 16608554374032828400
1420 336 18266184924512803916
14787075 74 17896612875907719035
14790565 3 18341057316043312793
15006816 218 16754940689043299904
16945 1 18195239147136872059
19591789 44 18120376712306458779
19765921 60 17749382706469569763
20510252 161 18342458093286620745
21141583 151 18124894583888822372
21524375 3 17972887951224859043
2334 1 18410572855759727185
23419403 2 17326855944455494142
23557571 272 18201719608641642450
23559900 14 18342173410755765088
2748010 2 18337115553281152647
353137 74 18409164389875307419
44154327 71 18267028250037128041
526903 126 18410576235872810256
537710 114 18408601466050490037
7832392 63 17187566044572678455
9981440 41 18116712022929254594

> <PUBCHEM_SHAPE_MULTIPOLES>
328.15
4.94
3.77
0.97
2.92
1.2
-0.06
0.99
-1.27
-0.81
0.74
0.39
0.23
-0.66

> <PUBCHEM_SHAPE_SELFOVERLAP>
695.133

> <PUBCHEM_SHAPE_VOLUME>
185.3

> <PUBCHEM_COORDINATE_TYPE>
2
5
10

> <Energy>
0.232708

> <minimizedAffinity>
-7.00687

> <CNNscore>
0.4014296830

> <CNNaffinity>
6.3464107513

> <CNN_VS>
2.5476377010

> <CNNaffinity_variance>
0.1596592665

$$$$
