5284645


 26 27  0  0  0  0  0  0  0  0999 V2000
   11.7399   43.8157  134.6875 O   0  0  0  0  0  0  0  0  0  0  0  0
    9.4463   45.8444  129.5144 O   0  0  0  0  0  0  0  0  0  0  0  0
    7.2631   45.1627  129.7896 O   0  0  0  0  0  0  0  0  0  0  0  0
    6.1476   47.2469  128.2024 O   0  0  0  0  0  0  0  0  0  0  0  0
    6.8452   51.4772  130.1501 O   0  0  0  0  0  0  0  0  0  0  0  0
   10.3760   43.1001  132.8389 C   0  0  0  0  0  0  0  0  0  0  0  0
   10.8687   44.3010  133.6645 C   0  0  0  0  0  0  0  0  0  0  0  0
    9.6598   43.4822  131.5407 C   0  0  0  0  0  0  0  0  0  0  0  0
    9.7213   45.0785  134.3275 C   0  0  0  0  0  0  0  0  0  0  0  0
   10.6250   43.9599  130.4508 C   0  0  0  0  0  0  0  0  0  0  0  0
   10.1706   46.3865  134.9959 C   0  0  0  0  0  0  0  0  0  0  0  0
    9.8921   44.5039  129.2200 C   0  0  0  0  0  0  0  0  0  0  0  0
   10.6311   47.4767  134.0211 C   0  0  0  0  0  0  0  0  0  0  0  0
   10.8405   44.6187  128.0303 C   0  0  0  0  0  0  0  0  0  0  0  0
    9.5410   47.9333  133.0900 C   0  0  0  0  0  0  0  0  0  0  0  0
    7.8522   47.4553  129.9406 C   0  0  0  0  0  0  0  0  0  0  0  0
    8.5307   48.2798  130.8603 C   0  0  0  0  0  0  0  0  0  0  0  0
    8.1404   46.0129  129.7998 C   0  0  0  0  0  0  0  0  0  0  0  0
    9.5948   47.7976  131.7552 C   0  0  0  0  0  0  0  0  0  0  0  0
    6.8402   47.9898  129.1269 C   0  0  0  0  0  0  0  0  0  0  0  0
    8.1883   49.6452  130.9170 C   0  0  0  0  0  0  0  0  0  0  0  0
    7.1845   50.1580  130.0986 C   0  0  0  0  0  0  0  0  0  0  0  0
    6.5044   49.3384  129.2056 C   0  0  0  0  0  0  0  0  0  0  0  0
   12.4702   43.3221  134.2829 H   0  0  0  0  0  0  0  0  0  0  0  0
    6.3301   46.3331  128.1040 H   0  0  0  0  0  0  0  0  0  0  0  0
    7.2878   52.0520  130.7430 H   0  0  0  0  0  0  0  0  0  0  0  0
  1  7  1  0
  1 24  1  0
  2 12  1  0
  2 18  1  0
  3 18  2  0
  4 20  1  0
  4 25  1  0
  5 22  1  0
  5 26  1  0
  6  7  1  0
  6  8  1  0
  7  9  1  0
  8 10  1  0
  9 11  1  0
 10 12  1  0
 11 13  1  0
 12 14  1  0
 13 15  1  0
 15 19  2  0
 16 17  2  0
 16 18  1  0
 16 20  1  0
 17 19  1  0
 17 21  1  0
 20 23  2  0
 21 22  2  0
 22 23  1  0
M  END
> <PUBCHEM_COMPOUND_CID>
5284645

> <PUBCHEM_CONFORMER_RMSD>
0.6

> <PUBCHEM_CONFORMER_DIVERSEORDER>
1

> <PUBCHEM_MMFF94_PARTIAL_CHARGES>
24
1 -0.68
12 0.28
13 0.14
15 -0.29
16 0.09
17 0.03
18 0.63
19 -0.18
2 -0.43
20 0.08
21 -0.15
22 0.08
23 -0.15
3 -0.57
4 -0.53
41 0.4
42 0.15
43 0.15
44 0.15
45 0.15
46 0.45
47 0.45
5 -0.53
7 0.28

> <PUBCHEM_EFFECTIVE_ROTOR_COUNT>
1.8

> <PUBCHEM_PHARMACOPHORE_FEATURES>
6
1 1 acceptor
1 1 donor
1 3 acceptor
1 4 donor
1 5 donor
6 16 17 20 21 22 23 rings

> <PUBCHEM_HEAVY_ATOM_COUNT>
23

> <PUBCHEM_ATOM_DEF_STEREO_COUNT>
2

> <PUBCHEM_ATOM_UDEF_STEREO_COUNT>
0

> <PUBCHEM_BOND_DEF_STEREO_COUNT>
1

> <PUBCHEM_BOND_UDEF_STEREO_COUNT>
0

> <PUBCHEM_ISOTOPIC_ATOM_COUNT>
0

> <PUBCHEM_COMPONENT_COUNT>
1

> <PUBCHEM_CACTVS_TAUTO_COUNT>
12

> <PUBCHEM_CONFORMER_ID>
0050A32500000001

> <PUBCHEM_MMFF94_ENERGY>
56.9454

> <PUBCHEM_FEATURE_SELFOVERLAP>
30.446

> <PUBCHEM_SHAPE_FINGERPRINT>
1100329 8 17836085568009856625
11112241 14 16986289841619931392
11578080 2 16734366241365874279
12166972 35 17967822613537111974
12403259 226 18337670931286267939
12506688 2 18412827975731104564
12596599 1 17914633677902020662
12788726 201 17627507133988941776
13140716 1 18267582403486064363
13402501 40 18336828697047978282
13533116 47 18056766653224983451
14251757 17 18262232209996353437
14787075 74 18336834185758012246
14790565 3 17545883724776523813
14866123 147 17767415573386001256
14931854 50 18336551491284682350
15196674 1 18334859415888043750
15322687 12 17104511174142344237
19591789 44 18337109089556020683
19930381 70 18413393137471364090
20028762 73 17044582808783771111
20691752 17 17022900138402631537
20715895 44 17609482839964013085
20832881 197 18343306989256920753
20905425 154 18409167675446349782
22182313 1 18041826412212926463
23227448 37 18189331260828617463
23352939 185 18342462530415398027
23557571 272 17910374109985112994
23559900 14 18335978778501818797
238 59 18196346307921625956
2748010 2 18117544331403189953
3323516 105 18411138077713944259
350125 39 18336268960321048513
3524813 1 18334011700965522918
3680242 22 18116995477305685354
463206 1 18269557311053435927
5265222 85 17471861776259798556
57527585 103 17390829632986241626
59755656 215 18188762977069237031
6443956 14 18340493347406701473
81228 2 17476913559209296171

> <PUBCHEM_SHAPE_MULTIPOLES>
443.98
8.21
4.09
1.18
1.54
0.84
-0.09
-3.84
1.51
-1.8
-1.33
-0.11
0.8
1.1

> <PUBCHEM_SHAPE_SELFOVERLAP>
916.908

> <PUBCHEM_SHAPE_VOLUME>
252.3

> <PUBCHEM_COORDINATE_TYPE>
2
5
10

> <Energy>
40.5071

> <minimizedAffinity>
-10.33540

> <CNNscore>
0.7976063490

> <CNNaffinity>
6.7833099365

> <CNN_VS>
5.4104108810

> <CNNaffinity_variance>
0.5407607555

$$$$
5284645


 26 27  0  0  0  0  0  0  0  0999 V2000
   11.6200   41.6307  132.1243 O   0  0  0  0  0  0  0  0  0  0  0  0
    9.1580   47.0409  133.0221 O   0  0  0  0  0  0  0  0  0  0  0  0
   10.6369   48.3223  131.8066 O   0  0  0  0  0  0  0  0  0  0  0  0
    8.7385   50.3398  131.1483 O   0  0  0  0  0  0  0  0  0  0  0  0
    5.3076   48.6642  128.3920 O   0  0  0  0  0  0  0  0  0  0  0  0
   12.2131   43.8702  132.7744 C   0  0  0  0  0  0  0  0  0  0  0  0
   11.2109   42.9942  132.0031 C   0  0  0  0  0  0  0  0  0  0  0  0
   11.7588   45.3190  132.9711 C   0  0  0  0  0  0  0  0  0  0  0  0
   11.1340   43.3508  130.5106 C   0  0  0  0  0  0  0  0  0  0  0  0
   10.6677   45.4576  134.0378 C   0  0  0  0  0  0  0  0  0  0  0  0
   10.0072   42.6232  129.7618 C   0  0  0  0  0  0  0  0  0  0  0  0
   10.0959   46.8775  134.1065 C   0  0  0  0  0  0  0  0  0  0  0  0
    8.5916   43.0589  130.1581 C   0  0  0  0  0  0  0  0  0  0  0  0
    9.3028   47.0816  135.3940 C   0  0  0  0  0  0  0  0  0  0  0  0
    8.3145   44.5066  129.8561 C   0  0  0  0  0  0  0  0  0  0  0  0
    8.4378   47.9186  131.0149 C   0  0  0  0  0  0  0  0  0  0  0  0
    7.7283   46.8276  130.4742 C   0  0  0  0  0  0  0  0  0  0  0  0
    9.5679   47.7490  131.9516 C   0  0  0  0  0  0  0  0  0  0  0  0
    8.0270   45.4226  130.7949 C   0  0  0  0  0  0  0  0  0  0  0  0
    8.0974   49.2315  130.6512 C   0  0  0  0  0  0  0  0  0  0  0  0
    6.6616   47.0914  129.5926 C   0  0  0  0  0  0  0  0  0  0  0  0
    6.3360   48.4009  129.2471 C   0  0  0  0  0  0  0  0  0  0  0  0
    7.0496   49.4741  129.7675 C   0  0  0  0  0  0  0  0  0  0  0  0
   11.6729   41.3913  133.0627 H   0  0  0  0  0  0  0  0  0  0  0  0
    9.4518   50.2390  131.7475 H   0  0  0  0  0  0  0  0  0  0  0  0
    4.8101   47.9593  128.0266 H   0  0  0  0  0  0  0  0  0  0  0  0
  1  7  1  0
  1 24  1  0
  2 12  1  0
  2 18  1  0
  3 18  2  0
  4 20  1  0
  4 25  1  0
  5 22  1  0
  5 26  1  0
  6  7  1  0
  6  8  1  0
  7  9  1  0
  8 10  1  0
  9 11  1  0
 10 12  1  0
 11 13  1  0
 12 14  1  0
 13 15  1  0
 15 19  2  0
 16 17  2  0
 16 18  1  0
 16 20  1  0
 17 19  1  0
 17 21  1  0
 20 23  2  0
 21 22  2  0
 22 23  1  0
M  END
> <PUBCHEM_COMPOUND_CID>
5284645

> <PUBCHEM_CONFORMER_RMSD>
0.6

> <PUBCHEM_CONFORMER_DIVERSEORDER>
1

> <PUBCHEM_MMFF94_PARTIAL_CHARGES>
24
1 -0.68
12 0.28
13 0.14
15 -0.29
16 0.09
17 0.03
18 0.63
19 -0.18
2 -0.43
20 0.08
21 -0.15
22 0.08
23 -0.15
3 -0.57
4 -0.53
41 0.4
42 0.15
43 0.15
44 0.15
45 0.15
46 0.45
47 0.45
5 -0.53
7 0.28

> <PUBCHEM_EFFECTIVE_ROTOR_COUNT>
1.8

> <PUBCHEM_PHARMACOPHORE_FEATURES>
6
1 1 acceptor
1 1 donor
1 3 acceptor
1 4 donor
1 5 donor
6 16 17 20 21 22 23 rings

> <PUBCHEM_HEAVY_ATOM_COUNT>
23

> <PUBCHEM_ATOM_DEF_STEREO_COUNT>
2

> <PUBCHEM_ATOM_UDEF_STEREO_COUNT>
0

> <PUBCHEM_BOND_DEF_STEREO_COUNT>
1

> <PUBCHEM_BOND_UDEF_STEREO_COUNT>
0

> <PUBCHEM_ISOTOPIC_ATOM_COUNT>
0

> <PUBCHEM_COMPONENT_COUNT>
1

> <PUBCHEM_CACTVS_TAUTO_COUNT>
12

> <PUBCHEM_CONFORMER_ID>
0050A32500000001

> <PUBCHEM_MMFF94_ENERGY>
56.9454

> <PUBCHEM_FEATURE_SELFOVERLAP>
30.446

> <PUBCHEM_SHAPE_FINGERPRINT>
1100329 8 17836085568009856625
11112241 14 16986289841619931392
11578080 2 16734366241365874279
12166972 35 17967822613537111974
12403259 226 18337670931286267939
12506688 2 18412827975731104564
12596599 1 17914633677902020662
12788726 201 17627507133988941776
13140716 1 18267582403486064363
13402501 40 18336828697047978282
13533116 47 18056766653224983451
14251757 17 18262232209996353437
14787075 74 18336834185758012246
14790565 3 17545883724776523813
14866123 147 17767415573386001256
14931854 50 18336551491284682350
15196674 1 18334859415888043750
15322687 12 17104511174142344237
19591789 44 18337109089556020683
19930381 70 18413393137471364090
20028762 73 17044582808783771111
20691752 17 17022900138402631537
20715895 44 17609482839964013085
20832881 197 18343306989256920753
20905425 154 18409167675446349782
22182313 1 18041826412212926463
23227448 37 18189331260828617463
23352939 185 18342462530415398027
23557571 272 17910374109985112994
23559900 14 18335978778501818797
238 59 18196346307921625956
2748010 2 18117544331403189953
3323516 105 18411138077713944259
350125 39 18336268960321048513
3524813 1 18334011700965522918
3680242 22 18116995477305685354
463206 1 18269557311053435927
5265222 85 17471861776259798556
57527585 103 17390829632986241626
59755656 215 18188762977069237031
6443956 14 18340493347406701473
81228 2 17476913559209296171

> <PUBCHEM_SHAPE_MULTIPOLES>
443.98
8.21
4.09
1.18
1.54
0.84
-0.09
-3.84
1.51
-1.8
-1.33
-0.11
0.8
1.1

> <PUBCHEM_SHAPE_SELFOVERLAP>
916.908

> <PUBCHEM_SHAPE_VOLUME>
252.3

> <PUBCHEM_COORDINATE_TYPE>
2
5
10

> <Energy>
40.5071

> <minimizedAffinity>
-10.58228

> <CNNscore>
0.7545832992

> <CNNaffinity>
6.9471325874

> <CNN_VS>
5.2421903610

> <CNNaffinity_variance>
0.5899017453

$$$$
5284645


 26 27  0  0  0  0  0  0  0  0999 V2000
   10.2999   41.4237  131.8878 O   0  0  0  0  0  0  0  0  0  0  0  0
    9.0054   47.1005  133.3827 O   0  0  0  0  0  0  0  0  0  0  0  0
   10.9372   48.1209  132.6526 O   0  0  0  0  0  0  0  0  0  0  0  0
    9.7038   50.6271  132.1000 O   0  0  0  0  0  0  0  0  0  0  0  0
    6.5616   50.2849  128.6092 O   0  0  0  0  0  0  0  0  0  0  0  0
   11.2526   43.3239  133.0151 C   0  0  0  0  0  0  0  0  0  0  0  0
   10.2408   42.8494  131.9579 C   0  0  0  0  0  0  0  0  0  0  0  0
   11.1101   44.7981  133.4032 C   0  0  0  0  0  0  0  0  0  0  0  0
   10.5280   43.4200  130.5606 C   0  0  0  0  0  0  0  0  0  0  0  0
    9.8987   45.0585  134.3045 C   0  0  0  0  0  0  0  0  0  0  0  0
    9.4266   43.1161  129.5340 C   0  0  0  0  0  0  0  0  0  0  0  0
    9.6613   46.5530  134.5455 C   0  0  0  0  0  0  0  0  0  0  0  0
    8.0981   43.8376  129.7898 C   0  0  0  0  0  0  0  0  0  0  0  0
    8.7082   46.7691  135.7174 C   0  0  0  0  0  0  0  0  0  0  0  0
    8.2181   45.3357  129.7190 C   0  0  0  0  0  0  0  0  0  0  0  0
    8.8924   48.4058  131.4850 C   0  0  0  0  0  0  0  0  0  0  0  0
    8.0682   47.6187  130.6561 C   0  0  0  0  0  0  0  0  0  0  0  0
    9.7584   47.8242  132.5315 C   0  0  0  0  0  0  0  0  0  0  0  0
    7.9751   46.1533  130.7560 C   0  0  0  0  0  0  0  0  0  0  0  0
    8.9329   49.7998  131.3204 C   0  0  0  0  0  0  0  0  0  0  0  0
    7.2739   48.2666  129.6897 C   0  0  0  0  0  0  0  0  0  0  0  0
    7.3245   49.6510  129.5443 C   0  0  0  0  0  0  0  0  0  0  0  0
    8.1522   50.4230  130.3510 C   0  0  0  0  0  0  0  0  0  0  0  0
   10.1202   41.0492  132.7642 H   0  0  0  0  0  0  0  0  0  0  0  0
   10.2502   50.2648  132.7694 H   0  0  0  0  0  0  0  0  0  0  0  0
    5.9948   49.7886  128.0522 H   0  0  0  0  0  0  0  0  0  0  0  0
  1  7  1  0
  1 24  1  0
  2 12  1  0
  2 18  1  0
  3 18  2  0
  4 20  1  0
  4 25  1  0
  5 22  1  0
  5 26  1  0
  6  7  1  0
  6  8  1  0
  7  9  1  0
  8 10  1  0
  9 11  1  0
 10 12  1  0
 11 13  1  0
 12 14  1  0
 13 15  1  0
 15 19  2  0
 16 17  2  0
 16 18  1  0
 16 20  1  0
 17 19  1  0
 17 21  1  0
 20 23  2  0
 21 22  2  0
 22 23  1  0
M  END
> <PUBCHEM_COMPOUND_CID>
5284645

> <PUBCHEM_CONFORMER_RMSD>
0.6

> <PUBCHEM_CONFORMER_DIVERSEORDER>
1

> <PUBCHEM_MMFF94_PARTIAL_CHARGES>
24
1 -0.68
12 0.28
13 0.14
15 -0.29
16 0.09
17 0.03
18 0.63
19 -0.18
2 -0.43
20 0.08
21 -0.15
22 0.08
23 -0.15
3 -0.57
4 -0.53
41 0.4
42 0.15
43 0.15
44 0.15
45 0.15
46 0.45
47 0.45
5 -0.53
7 0.28

> <PUBCHEM_EFFECTIVE_ROTOR_COUNT>
1.8

> <PUBCHEM_PHARMACOPHORE_FEATURES>
6
1 1 acceptor
1 1 donor
1 3 acceptor
1 4 donor
1 5 donor
6 16 17 20 21 22 23 rings

> <PUBCHEM_HEAVY_ATOM_COUNT>
23

> <PUBCHEM_ATOM_DEF_STEREO_COUNT>
2

> <PUBCHEM_ATOM_UDEF_STEREO_COUNT>
0

> <PUBCHEM_BOND_DEF_STEREO_COUNT>
1

> <PUBCHEM_BOND_UDEF_STEREO_COUNT>
0

> <PUBCHEM_ISOTOPIC_ATOM_COUNT>
0

> <PUBCHEM_COMPONENT_COUNT>
1

> <PUBCHEM_CACTVS_TAUTO_COUNT>
12

> <PUBCHEM_CONFORMER_ID>
0050A32500000001

> <PUBCHEM_MMFF94_ENERGY>
56.9454

> <PUBCHEM_FEATURE_SELFOVERLAP>
30.446

> <PUBCHEM_SHAPE_FINGERPRINT>
1100329 8 17836085568009856625
11112241 14 16986289841619931392
11578080 2 16734366241365874279
12166972 35 17967822613537111974
12403259 226 18337670931286267939
12506688 2 18412827975731104564
12596599 1 17914633677902020662
12788726 201 17627507133988941776
13140716 1 18267582403486064363
13402501 40 18336828697047978282
13533116 47 18056766653224983451
14251757 17 18262232209996353437
14787075 74 18336834185758012246
14790565 3 17545883724776523813
14866123 147 17767415573386001256
14931854 50 18336551491284682350
15196674 1 18334859415888043750
15322687 12 17104511174142344237
19591789 44 18337109089556020683
19930381 70 18413393137471364090
20028762 73 17044582808783771111
20691752 17 17022900138402631537
20715895 44 17609482839964013085
20832881 197 18343306989256920753
20905425 154 18409167675446349782
22182313 1 18041826412212926463
23227448 37 18189331260828617463
23352939 185 18342462530415398027
23557571 272 17910374109985112994
23559900 14 18335978778501818797
238 59 18196346307921625956
2748010 2 18117544331403189953
3323516 105 18411138077713944259
350125 39 18336268960321048513
3524813 1 18334011700965522918
3680242 22 18116995477305685354
463206 1 18269557311053435927
5265222 85 17471861776259798556
57527585 103 17390829632986241626
59755656 215 18188762977069237031
6443956 14 18340493347406701473
81228 2 17476913559209296171

> <PUBCHEM_SHAPE_MULTIPOLES>
443.98
8.21
4.09
1.18
1.54
0.84
-0.09
-3.84
1.51
-1.8
-1.33
-0.11
0.8
1.1

> <PUBCHEM_SHAPE_SELFOVERLAP>
916.908

> <PUBCHEM_SHAPE_VOLUME>
252.3

> <PUBCHEM_COORDINATE_TYPE>
2
5
10

> <Energy>
40.5071

> <minimizedAffinity>
-6.91396

> <CNNscore>
0.5406780243

> <CNNaffinity>
6.8417754173

> <CNN_VS>
3.6991975307

> <CNNaffinity_variance>
0.5355612636

$$$$
5284645


 26 27  0  0  0  0  0  0  0  0999 V2000
   12.3007   41.9344  133.0419 O   0  0  0  0  0  0  0  0  0  0  0  0
    9.7868   45.7135  129.1003 O   0  0  0  0  0  0  0  0  0  0  0  0
    7.5783   45.4537  129.7015 O   0  0  0  0  0  0  0  0  0  0  0  0
    6.7928   48.0734  128.9091 O   0  0  0  0  0  0  0  0  0  0  0  0
    8.8720   51.3806  131.5387 O   0  0  0  0  0  0  0  0  0  0  0  0
   10.5120   42.0440  131.4362 C   0  0  0  0  0  0  0  0  0  0  0  0
   11.4278   42.8480  132.3751 C   0  0  0  0  0  0  0  0  0  0  0  0
    9.7145   42.9023  130.4506 C   0  0  0  0  0  0  0  0  0  0  0  0
   10.6463   43.6396  133.4349 C   0  0  0  0  0  0  0  0  0  0  0  0
   10.5764   43.4437  129.3053 C   0  0  0  0  0  0  0  0  0  0  0  0
   11.5225   44.5957  134.2582 C   0  0  0  0  0  0  0  0  0  0  0  0
    9.8160   44.4396  128.4233 C   0  0  0  0  0  0  0  0  0  0  0  0
   12.0814   45.7872  133.4716 C   0  0  0  0  0  0  0  0  0  0  0  0
   10.5517   44.6702  127.1065 C   0  0  0  0  0  0  0  0  0  0  0  0
   11.0080   46.6946  132.9348 C   0  0  0  0  0  0  0  0  0  0  0  0
    8.7564   47.4457  130.2208 C   0  0  0  0  0  0  0  0  0  0  0  0
    9.7673   47.8317  131.1237 C   0  0  0  0  0  0  0  0  0  0  0  0
    8.6346   46.0674  129.7023 C   0  0  0  0  0  0  0  0  0  0  0  0
   10.8035   46.9154  131.6263 C   0  0  0  0  0  0  0  0  0  0  0  0
    7.7969   48.3784  129.7952 C   0  0  0  0  0  0  0  0  0  0  0  0
    9.8037   49.1715  131.5575 C   0  0  0  0  0  0  0  0  0  0  0  0
    8.8456   50.0834  131.1207 C   0  0  0  0  0  0  0  0  0  0  0  0
    7.8388   49.6952  130.2447 C   0  0  0  0  0  0  0  0  0  0  0  0
   12.8013   41.4271  132.3842 H   0  0  0  0  0  0  0  0  0  0  0  0
    6.7141   47.2027  128.5719 H   0  0  0  0  0  0  0  0  0  0  0  0
    9.5399   51.6690  132.1292 H   0  0  0  0  0  0  0  0  0  0  0  0
  1  7  1  0
  1 24  1  0
  2 12  1  0
  2 18  1  0
  3 18  2  0
  4 20  1  0
  4 25  1  0
  5 22  1  0
  5 26  1  0
  6  7  1  0
  6  8  1  0
  7  9  1  0
  8 10  1  0
  9 11  1  0
 10 12  1  0
 11 13  1  0
 12 14  1  0
 13 15  1  0
 15 19  2  0
 16 17  2  0
 16 18  1  0
 16 20  1  0
 17 19  1  0
 17 21  1  0
 20 23  2  0
 21 22  2  0
 22 23  1  0
M  END
> <PUBCHEM_COMPOUND_CID>
5284645

> <PUBCHEM_CONFORMER_RMSD>
0.6

> <PUBCHEM_CONFORMER_DIVERSEORDER>
1

> <PUBCHEM_MMFF94_PARTIAL_CHARGES>
24
1 -0.68
12 0.28
13 0.14
15 -0.29
16 0.09
17 0.03
18 0.63
19 -0.18
2 -0.43
20 0.08
21 -0.15
22 0.08
23 -0.15
3 -0.57
4 -0.53
41 0.4
42 0.15
43 0.15
44 0.15
45 0.15
46 0.45
47 0.45
5 -0.53
7 0.28

> <PUBCHEM_EFFECTIVE_ROTOR_COUNT>
1.8

> <PUBCHEM_PHARMACOPHORE_FEATURES>
6
1 1 acceptor
1 1 donor
1 3 acceptor
1 4 donor
1 5 donor
6 16 17 20 21 22 23 rings

> <PUBCHEM_HEAVY_ATOM_COUNT>
23

> <PUBCHEM_ATOM_DEF_STEREO_COUNT>
2

> <PUBCHEM_ATOM_UDEF_STEREO_COUNT>
0

> <PUBCHEM_BOND_DEF_STEREO_COUNT>
1

> <PUBCHEM_BOND_UDEF_STEREO_COUNT>
0

> <PUBCHEM_ISOTOPIC_ATOM_COUNT>
0

> <PUBCHEM_COMPONENT_COUNT>
1

> <PUBCHEM_CACTVS_TAUTO_COUNT>
12

> <PUBCHEM_CONFORMER_ID>
0050A32500000001

> <PUBCHEM_MMFF94_ENERGY>
56.9454

> <PUBCHEM_FEATURE_SELFOVERLAP>
30.446

> <PUBCHEM_SHAPE_FINGERPRINT>
1100329 8 17836085568009856625
11112241 14 16986289841619931392
11578080 2 16734366241365874279
12166972 35 17967822613537111974
12403259 226 18337670931286267939
12506688 2 18412827975731104564
12596599 1 17914633677902020662
12788726 201 17627507133988941776
13140716 1 18267582403486064363
13402501 40 18336828697047978282
13533116 47 18056766653224983451
14251757 17 18262232209996353437
14787075 74 18336834185758012246
14790565 3 17545883724776523813
14866123 147 17767415573386001256
14931854 50 18336551491284682350
15196674 1 18334859415888043750
15322687 12 17104511174142344237
19591789 44 18337109089556020683
19930381 70 18413393137471364090
20028762 73 17044582808783771111
20691752 17 17022900138402631537
20715895 44 17609482839964013085
20832881 197 18343306989256920753
20905425 154 18409167675446349782
22182313 1 18041826412212926463
23227448 37 18189331260828617463
23352939 185 18342462530415398027
23557571 272 17910374109985112994
23559900 14 18335978778501818797
238 59 18196346307921625956
2748010 2 18117544331403189953
3323516 105 18411138077713944259
350125 39 18336268960321048513
3524813 1 18334011700965522918
3680242 22 18116995477305685354
463206 1 18269557311053435927
5265222 85 17471861776259798556
57527585 103 17390829632986241626
59755656 215 18188762977069237031
6443956 14 18340493347406701473
81228 2 17476913559209296171

> <PUBCHEM_SHAPE_MULTIPOLES>
443.98
8.21
4.09
1.18
1.54
0.84
-0.09
-3.84
1.51
-1.8
-1.33
-0.11
0.8
1.1

> <PUBCHEM_SHAPE_SELFOVERLAP>
916.908

> <PUBCHEM_SHAPE_VOLUME>
252.3

> <PUBCHEM_COORDINATE_TYPE>
2
5
10

> <Energy>
40.5071

> <minimizedAffinity>
-6.51400

> <CNNscore>
0.5061990023

> <CNNaffinity>
6.4872088432

> <CNN_VS>
3.2838187218

> <CNNaffinity_variance>
0.0853529274

$$$$
5284645


 26 27  0  0  0  0  0  0  0  0999 V2000
    7.6203   50.4435  130.2775 O   0  0  0  0  0  0  0  0  0  0  0  0
    9.7511   44.8277  130.5237 O   0  0  0  0  0  0  0  0  0  0  0  0
   11.9803   45.2650  130.1422 O   0  0  0  0  0  0  0  0  0  0  0  0
   12.9316   43.0197  131.6123 O   0  0  0  0  0  0  0  0  0  0  0  0
   11.9084   43.3832  136.1945 O   0  0  0  0  0  0  0  0  0  0  0  0
    9.0359   48.9258  129.0600 C   0  0  0  0  0  0  0  0  0  0  0  0
    8.4516   49.2923  130.4350 C   0  0  0  0  0  0  0  0  0  0  0  0
    9.7206   47.5571  129.0134 C   0  0  0  0  0  0  0  0  0  0  0  0
    9.5352   49.6104  131.4767 C   0  0  0  0  0  0  0  0  0  0  0  0
    8.7215   46.3954  129.0071 C   0  0  0  0  0  0  0  0  0  0  0  0
    8.9860   49.7911  132.8999 C   0  0  0  0  0  0  0  0  0  0  0  0
    9.4104   45.0328  129.1366 C   0  0  0  0  0  0  0  0  0  0  0  0
    8.4426   48.5094  133.5424 C   0  0  0  0  0  0  0  0  0  0  0  0
    8.4561   43.9040  128.7578 C   0  0  0  0  0  0  0  0  0  0  0  0
    9.4943   47.4483  133.7212 C   0  0  0  0  0  0  0  0  0  0  0  0
   11.2156   44.6206  132.2929 C   0  0  0  0  0  0  0  0  0  0  0  0
   10.4752   45.2118  133.3361 C   0  0  0  0  0  0  0  0  0  0  0  0
   11.0400   45.0008  130.8759 C   0  0  0  0  0  0  0  0  0  0  0  0
    9.4514   46.2472  133.1225 C   0  0  0  0  0  0  0  0  0  0  0  0
   12.1834   43.6444  132.5800 C   0  0  0  0  0  0  0  0  0  0  0  0
   10.7109   44.7783  134.6556 C   0  0  0  0  0  0  0  0  0  0  0  0
   11.6721   43.8054  134.9201 C   0  0  0  0  0  0  0  0  0  0  0  0
   12.4138   43.2375  133.8911 C   0  0  0  0  0  0  0  0  0  0  0  0
    6.9305   50.2569  129.6218 H   0  0  0  0  0  0  0  0  0  0  0  0
   12.8203   43.2520  130.7114 H   0  0  0  0  0  0  0  0  0  0  0  0
   11.4225   43.7495  136.9071 H   0  0  0  0  0  0  0  0  0  0  0  0
  1  7  1  0
  1 24  1  0
  2 12  1  0
  2 18  1  0
  3 18  2  0
  4 20  1  0
  4 25  1  0
  5 22  1  0
  5 26  1  0
  6  7  1  0
  6  8  1  0
  7  9  1  0
  8 10  1  0
  9 11  1  0
 10 12  1  0
 11 13  1  0
 12 14  1  0
 13 15  1  0
 15 19  2  0
 16 17  2  0
 16 18  1  0
 16 20  1  0
 17 19  1  0
 17 21  1  0
 20 23  2  0
 21 22  2  0
 22 23  1  0
M  END
> <PUBCHEM_COMPOUND_CID>
5284645

> <PUBCHEM_CONFORMER_RMSD>
0.6

> <PUBCHEM_CONFORMER_DIVERSEORDER>
1

> <PUBCHEM_MMFF94_PARTIAL_CHARGES>
24
1 -0.68
12 0.28
13 0.14
15 -0.29
16 0.09
17 0.03
18 0.63
19 -0.18
2 -0.43
20 0.08
21 -0.15
22 0.08
23 -0.15
3 -0.57
4 -0.53
41 0.4
42 0.15
43 0.15
44 0.15
45 0.15
46 0.45
47 0.45
5 -0.53
7 0.28

> <PUBCHEM_EFFECTIVE_ROTOR_COUNT>
1.8

> <PUBCHEM_PHARMACOPHORE_FEATURES>
6
1 1 acceptor
1 1 donor
1 3 acceptor
1 4 donor
1 5 donor
6 16 17 20 21 22 23 rings

> <PUBCHEM_HEAVY_ATOM_COUNT>
23

> <PUBCHEM_ATOM_DEF_STEREO_COUNT>
2

> <PUBCHEM_ATOM_UDEF_STEREO_COUNT>
0

> <PUBCHEM_BOND_DEF_STEREO_COUNT>
1

> <PUBCHEM_BOND_UDEF_STEREO_COUNT>
0

> <PUBCHEM_ISOTOPIC_ATOM_COUNT>
0

> <PUBCHEM_COMPONENT_COUNT>
1

> <PUBCHEM_CACTVS_TAUTO_COUNT>
12

> <PUBCHEM_CONFORMER_ID>
0050A32500000001

> <PUBCHEM_MMFF94_ENERGY>
56.9454

> <PUBCHEM_FEATURE_SELFOVERLAP>
30.446

> <PUBCHEM_SHAPE_FINGERPRINT>
1100329 8 17836085568009856625
11112241 14 16986289841619931392
11578080 2 16734366241365874279
12166972 35 17967822613537111974
12403259 226 18337670931286267939
12506688 2 18412827975731104564
12596599 1 17914633677902020662
12788726 201 17627507133988941776
13140716 1 18267582403486064363
13402501 40 18336828697047978282
13533116 47 18056766653224983451
14251757 17 18262232209996353437
14787075 74 18336834185758012246
14790565 3 17545883724776523813
14866123 147 17767415573386001256
14931854 50 18336551491284682350
15196674 1 18334859415888043750
15322687 12 17104511174142344237
19591789 44 18337109089556020683
19930381 70 18413393137471364090
20028762 73 17044582808783771111
20691752 17 17022900138402631537
20715895 44 17609482839964013085
20832881 197 18343306989256920753
20905425 154 18409167675446349782
22182313 1 18041826412212926463
23227448 37 18189331260828617463
23352939 185 18342462530415398027
23557571 272 17910374109985112994
23559900 14 18335978778501818797
238 59 18196346307921625956
2748010 2 18117544331403189953
3323516 105 18411138077713944259
350125 39 18336268960321048513
3524813 1 18334011700965522918
3680242 22 18116995477305685354
463206 1 18269557311053435927
5265222 85 17471861776259798556
57527585 103 17390829632986241626
59755656 215 18188762977069237031
6443956 14 18340493347406701473
81228 2 17476913559209296171

> <PUBCHEM_SHAPE_MULTIPOLES>
443.98
8.21
4.09
1.18
1.54
0.84
-0.09
-3.84
1.51
-1.8
-1.33
-0.11
0.8
1.1

> <PUBCHEM_SHAPE_SELFOVERLAP>
916.908

> <PUBCHEM_SHAPE_VOLUME>
252.3

> <PUBCHEM_COORDINATE_TYPE>
2
5
10

> <Energy>
40.5071

> <minimizedAffinity>
-3.29011

> <CNNscore>
0.1530053914

> <CNNaffinity>
5.5968441963

> <CNN_VS>
0.8563473225

> <CNNaffinity_variance>
0.0374097116

$$$$
5284645


 26 27  0  0  0  0  0  0  0  0999 V2000
    8.5356   51.7341  131.2291 O   0  0  0  0  0  0  0  0  0  0  0  0
    6.7980   46.0493  130.3343 O   0  0  0  0  0  0  0  0  0  0  0  0
    8.3884   45.4189  128.7916 O   0  0  0  0  0  0  0  0  0  0  0  0
    8.3761   42.6685  129.5283 O   0  0  0  0  0  0  0  0  0  0  0  0
    9.9532   42.0391  133.9206 O   0  0  0  0  0  0  0  0  0  0  0  0
    8.0571   50.1828  129.4531 C   0  0  0  0  0  0  0  0  0  0  0  0
    8.4938   50.3399  130.9198 C   0  0  0  0  0  0  0  0  0  0  0  0
    7.6975   48.7487  129.0554 C   0  0  0  0  0  0  0  0  0  0  0  0
    9.8792   49.7359  131.1964 C   0  0  0  0  0  0  0  0  0  0  0  0
    6.3400   48.3036  129.6091 C   0  0  0  0  0  0  0  0  0  0  0  0
   10.2524   49.7100  132.6862 C   0  0  0  0  0  0  0  0  0  0  0  0
    6.0657   46.8174  129.3565 C   0  0  0  0  0  0  0  0  0  0  0  0
    9.4234   48.7394  133.5357 C   0  0  0  0  0  0  0  0  0  0  0  0
    4.5905   46.4932  129.5734 C   0  0  0  0  0  0  0  0  0  0  0  0
    9.5928   47.3026  133.1227 C   0  0  0  0  0  0  0  0  0  0  0  0
    8.4595   44.6036  131.0179 C   0  0  0  0  0  0  0  0  0  0  0  0
    8.7734   45.1239  132.2894 C   0  0  0  0  0  0  0  0  0  0  0  0
    7.9278   45.4413  129.9229 C   0  0  0  0  0  0  0  0  0  0  0  0
    8.5922   46.5370  132.6583 C   0  0  0  0  0  0  0  0  0  0  0  0
    8.6704   43.2433  130.7404 C   0  0  0  0  0  0  0  0  0  0  0  0
    9.2707   44.2437  133.2705 C   0  0  0  0  0  0  0  0  0  0  0  0
    9.4691   42.8964  132.9777 C   0  0  0  0  0  0  0  0  0  0  0  0
    9.1760   42.3899  131.7170 C   0  0  0  0  0  0  0  0  0  0  0  0
    7.6663   52.1292  131.0590 H   0  0  0  0  0  0  0  0  0  0  0  0
    8.0327   43.1932  128.8320 H   0  0  0  0  0  0  0  0  0  0  0  0
   10.1591   42.3542  134.7786 H   0  0  0  0  0  0  0  0  0  0  0  0
  1  7  1  0
  1 24  1  0
  2 12  1  0
  2 18  1  0
  3 18  2  0
  4 20  1  0
  4 25  1  0
  5 22  1  0
  5 26  1  0
  6  7  1  0
  6  8  1  0
  7  9  1  0
  8 10  1  0
  9 11  1  0
 10 12  1  0
 11 13  1  0
 12 14  1  0
 13 15  1  0
 15 19  2  0
 16 17  2  0
 16 18  1  0
 16 20  1  0
 17 19  1  0
 17 21  1  0
 20 23  2  0
 21 22  2  0
 22 23  1  0
M  END
> <PUBCHEM_COMPOUND_CID>
5284645

> <PUBCHEM_CONFORMER_RMSD>
0.6

> <PUBCHEM_CONFORMER_DIVERSEORDER>
1

> <PUBCHEM_MMFF94_PARTIAL_CHARGES>
24
1 -0.68
12 0.28
13 0.14
15 -0.29
16 0.09
17 0.03
18 0.63
19 -0.18
2 -0.43
20 0.08
21 -0.15
22 0.08
23 -0.15
3 -0.57
4 -0.53
41 0.4
42 0.15
43 0.15
44 0.15
45 0.15
46 0.45
47 0.45
5 -0.53
7 0.28

> <PUBCHEM_EFFECTIVE_ROTOR_COUNT>
1.8

> <PUBCHEM_PHARMACOPHORE_FEATURES>
6
1 1 acceptor
1 1 donor
1 3 acceptor
1 4 donor
1 5 donor
6 16 17 20 21 22 23 rings

> <PUBCHEM_HEAVY_ATOM_COUNT>
23

> <PUBCHEM_ATOM_DEF_STEREO_COUNT>
2

> <PUBCHEM_ATOM_UDEF_STEREO_COUNT>
0

> <PUBCHEM_BOND_DEF_STEREO_COUNT>
1

> <PUBCHEM_BOND_UDEF_STEREO_COUNT>
0

> <PUBCHEM_ISOTOPIC_ATOM_COUNT>
0

> <PUBCHEM_COMPONENT_COUNT>
1

> <PUBCHEM_CACTVS_TAUTO_COUNT>
12

> <PUBCHEM_CONFORMER_ID>
0050A32500000001

> <PUBCHEM_MMFF94_ENERGY>
56.9454

> <PUBCHEM_FEATURE_SELFOVERLAP>
30.446

> <PUBCHEM_SHAPE_FINGERPRINT>
1100329 8 17836085568009856625
11112241 14 16986289841619931392
11578080 2 16734366241365874279
12166972 35 17967822613537111974
12403259 226 18337670931286267939
12506688 2 18412827975731104564
12596599 1 17914633677902020662
12788726 201 17627507133988941776
13140716 1 18267582403486064363
13402501 40 18336828697047978282
13533116 47 18056766653224983451
14251757 17 18262232209996353437
14787075 74 18336834185758012246
14790565 3 17545883724776523813
14866123 147 17767415573386001256
14931854 50 18336551491284682350
15196674 1 18334859415888043750
15322687 12 17104511174142344237
19591789 44 18337109089556020683
19930381 70 18413393137471364090
20028762 73 17044582808783771111
20691752 17 17022900138402631537
20715895 44 17609482839964013085
20832881 197 18343306989256920753
20905425 154 18409167675446349782
22182313 1 18041826412212926463
23227448 37 18189331260828617463
23352939 185 18342462530415398027
23557571 272 17910374109985112994
23559900 14 18335978778501818797
238 59 18196346307921625956
2748010 2 18117544331403189953
3323516 105 18411138077713944259
350125 39 18336268960321048513
3524813 1 18334011700965522918
3680242 22 18116995477305685354
463206 1 18269557311053435927
5265222 85 17471861776259798556
57527585 103 17390829632986241626
59755656 215 18188762977069237031
6443956 14 18340493347406701473
81228 2 17476913559209296171

> <PUBCHEM_SHAPE_MULTIPOLES>
443.98
8.21
4.09
1.18
1.54
0.84
-0.09
-3.84
1.51
-1.8
-1.33
-0.11
0.8
1.1

> <PUBCHEM_SHAPE_SELFOVERLAP>
916.908

> <PUBCHEM_SHAPE_VOLUME>
252.3

> <PUBCHEM_COORDINATE_TYPE>
2
5
10

> <Energy>
40.5071

> <minimizedAffinity>
-4.77742

> <CNNscore>
0.1303347796

> <CNNaffinity>
4.8937950134

> <CNN_VS>
0.6378316879

> <CNNaffinity_variance>
0.7857577205

$$$$
5284645


 26 27  0  0  0  0  0  0  0  0999 V2000
   14.5133   42.8881  125.1525 O   0  0  0  0  0  0  0  0  0  0  0  0
   10.2066   43.8977  129.2232 O   0  0  0  0  0  0  0  0  0  0  0  0
   10.1952   41.8415  130.2616 O   0  0  0  0  0  0  0  0  0  0  0  0
    9.3314   42.8395  132.7846 O   0  0  0  0  0  0  0  0  0  0  0  0
   12.5472   45.6823  134.7219 O   0  0  0  0  0  0  0  0  0  0  0  0
   12.4998   41.9033  126.0276 C   0  0  0  0  0  0  0  0  0  0  0  0
   13.6782   42.8507  126.3111 C   0  0  0  0  0  0  0  0  0  0  0  0
   11.3750   41.9731  127.0639 C   0  0  0  0  0  0  0  0  0  0  0  0
   14.5267   42.4028  127.5112 C   0  0  0  0  0  0  0  0  0  0  0  0
   10.5194   43.2366  126.9248 C   0  0  0  0  0  0  0  0  0  0  0  0
   15.5895   43.4297  127.9302 C   0  0  0  0  0  0  0  0  0  0  0  0
    9.5098   43.3863  128.0677 C   0  0  0  0  0  0  0  0  0  0  0  0
   15.0265   44.7203  128.5372 C   0  0  0  0  0  0  0  0  0  0  0  0
    8.4432   44.4198  127.7177 C   0  0  0  0  0  0  0  0  0  0  0  0
   14.2639   44.4875  129.8131 C   0  0  0  0  0  0  0  0  0  0  0  0
   11.0864   43.7513  131.3498 C   0  0  0  0  0  0  0  0  0  0  0  0
   12.2381   44.5544  131.2289 C   0  0  0  0  0  0  0  0  0  0  0  0
   10.4985   43.0235  130.2060 C   0  0  0  0  0  0  0  0  0  0  0  0
   12.9576   44.7607  129.9617 C   0  0  0  0  0  0  0  0  0  0  0  0
   10.4619   43.5968  132.5979 C   0  0  0  0  0  0  0  0  0  0  0  0
   12.7204   45.2132  132.3770 C   0  0  0  0  0  0  0  0  0  0  0  0
   12.0846   45.0511  133.6057 C   0  0  0  0  0  0  0  0  0  0  0  0
   10.9597   44.2435  133.7256 C   0  0  0  0  0  0  0  0  0  0  0  0
   13.9901   43.1697  124.3859 H   0  0  0  0  0  0  0  0  0  0  0  0
    8.9503   42.3807  132.0620 H   0  0  0  0  0  0  0  0  0  0  0  0
   13.3037   46.2326  134.6692 H   0  0  0  0  0  0  0  0  0  0  0  0
  1  7  1  0
  1 24  1  0
  2 12  1  0
  2 18  1  0
  3 18  2  0
  4 20  1  0
  4 25  1  0
  5 22  1  0
  5 26  1  0
  6  7  1  0
  6  8  1  0
  7  9  1  0
  8 10  1  0
  9 11  1  0
 10 12  1  0
 11 13  1  0
 12 14  1  0
 13 15  1  0
 15 19  2  0
 16 17  2  0
 16 18  1  0
 16 20  1  0
 17 19  1  0
 17 21  1  0
 20 23  2  0
 21 22  2  0
 22 23  1  0
M  END
> <PUBCHEM_COMPOUND_CID>
5284645

> <PUBCHEM_CONFORMER_RMSD>
0.6

> <PUBCHEM_CONFORMER_DIVERSEORDER>
1

> <PUBCHEM_MMFF94_PARTIAL_CHARGES>
24
1 -0.68
12 0.28
13 0.14
15 -0.29
16 0.09
17 0.03
18 0.63
19 -0.18
2 -0.43
20 0.08
21 -0.15
22 0.08
23 -0.15
3 -0.57
4 -0.53
41 0.4
42 0.15
43 0.15
44 0.15
45 0.15
46 0.45
47 0.45
5 -0.53
7 0.28

> <PUBCHEM_EFFECTIVE_ROTOR_COUNT>
1.8

> <PUBCHEM_PHARMACOPHORE_FEATURES>
6
1 1 acceptor
1 1 donor
1 3 acceptor
1 4 donor
1 5 donor
6 16 17 20 21 22 23 rings

> <PUBCHEM_HEAVY_ATOM_COUNT>
23

> <PUBCHEM_ATOM_DEF_STEREO_COUNT>
2

> <PUBCHEM_ATOM_UDEF_STEREO_COUNT>
0

> <PUBCHEM_BOND_DEF_STEREO_COUNT>
1

> <PUBCHEM_BOND_UDEF_STEREO_COUNT>
0

> <PUBCHEM_ISOTOPIC_ATOM_COUNT>
0

> <PUBCHEM_COMPONENT_COUNT>
1

> <PUBCHEM_CACTVS_TAUTO_COUNT>
12

> <PUBCHEM_CONFORMER_ID>
0050A32500000001

> <PUBCHEM_MMFF94_ENERGY>
56.9454

> <PUBCHEM_FEATURE_SELFOVERLAP>
30.446

> <PUBCHEM_SHAPE_FINGERPRINT>
1100329 8 17836085568009856625
11112241 14 16986289841619931392
11578080 2 16734366241365874279
12166972 35 17967822613537111974
12403259 226 18337670931286267939
12506688 2 18412827975731104564
12596599 1 17914633677902020662
12788726 201 17627507133988941776
13140716 1 18267582403486064363
13402501 40 18336828697047978282
13533116 47 18056766653224983451
14251757 17 18262232209996353437
14787075 74 18336834185758012246
14790565 3 17545883724776523813
14866123 147 17767415573386001256
14931854 50 18336551491284682350
15196674 1 18334859415888043750
15322687 12 17104511174142344237
19591789 44 18337109089556020683
19930381 70 18413393137471364090
20028762 73 17044582808783771111
20691752 17 17022900138402631537
20715895 44 17609482839964013085
20832881 197 18343306989256920753
20905425 154 18409167675446349782
22182313 1 18041826412212926463
23227448 37 18189331260828617463
23352939 185 18342462530415398027
23557571 272 17910374109985112994
23559900 14 18335978778501818797
238 59 18196346307921625956
2748010 2 18117544331403189953
3323516 105 18411138077713944259
350125 39 18336268960321048513
3524813 1 18334011700965522918
3680242 22 18116995477305685354
463206 1 18269557311053435927
5265222 85 17471861776259798556
57527585 103 17390829632986241626
59755656 215 18188762977069237031
6443956 14 18340493347406701473
81228 2 17476913559209296171

> <PUBCHEM_SHAPE_MULTIPOLES>
443.98
8.21
4.09
1.18
1.54
0.84
-0.09
-3.84
1.51
-1.8
-1.33
-0.11
0.8
1.1

> <PUBCHEM_SHAPE_SELFOVERLAP>
916.908

> <PUBCHEM_SHAPE_VOLUME>
252.3

> <PUBCHEM_COORDINATE_TYPE>
2
5
10

> <Energy>
40.5071

> <minimizedAffinity>
31.55714

> <CNNscore>
0.1262086183

> <CNNaffinity>
4.5667138100

> <CNN_VS>
0.5763586164

> <CNNaffinity_variance>
0.0270439554

$$$$
5284645


 26 27  0  0  0  0  0  0  0  0999 V2000
    7.5840   49.6777  128.3706 O   0  0  0  0  0  0  0  0  0  0  0  0
   10.8618   45.0411  130.3441 O   0  0  0  0  0  0  0  0  0  0  0  0
   11.5488   45.9116  132.3632 O   0  0  0  0  0  0  0  0  0  0  0  0
   11.7719   43.3874  133.6617 O   0  0  0  0  0  0  0  0  0  0  0  0
    7.5850   41.2731  134.0808 O   0  0  0  0  0  0  0  0  0  0  0  0
    9.7401   49.1802  129.3158 C   0  0  0  0  0  0  0  0  0  0  0  0
    8.2756   48.7280  129.1834 C   0  0  0  0  0  0  0  0  0  0  0  0
   10.6702   48.1260  129.9221 C   0  0  0  0  0  0  0  0  0  0  0  0
    7.5582   48.6296  130.5384 C   0  0  0  0  0  0  0  0  0  0  0  0
   11.0054   46.9977  128.9411 C   0  0  0  0  0  0  0  0  0  0  0  0
    6.1602   47.9991  130.4496 C   0  0  0  0  0  0  0  0  0  0  0  0
   11.7905   45.8616  129.6048 C   0  0  0  0  0  0  0  0  0  0  0  0
    6.1535   46.5072  130.0962 C   0  0  0  0  0  0  0  0  0  0  0  0
   12.4234   44.9534  128.5545 C   0  0  0  0  0  0  0  0  0  0  0  0
    6.8409   45.6543  131.1276 C   0  0  0  0  0  0  0  0  0  0  0  0
    9.9278   44.1825  132.2698 C   0  0  0  0  0  0  0  0  0  0  0  0
    8.5746   44.0668  131.8936 C   0  0  0  0  0  0  0  0  0  0  0  0
   10.8349   45.1905  131.6828 C   0  0  0  0  0  0  0  0  0  0  0  0
    7.9362   44.9189  130.8776 C   0  0  0  0  0  0  0  0  0  0  0  0
   10.4607   43.3367  133.2559 C   0  0  0  0  0  0  0  0  0  0  0  0
    7.7905   43.0701  132.5070 C   0  0  0  0  0  0  0  0  0  0  0  0
    8.3382   42.2375  133.4802 C   0  0  0  0  0  0  0  0  0  0  0  0
    9.6682   42.3663  133.8625 C   0  0  0  0  0  0  0  0  0  0  0  0
    8.0265   49.7504  127.5106 H   0  0  0  0  0  0  0  0  0  0  0  0
   12.3536   44.0201  133.2886 H   0  0  0  0  0  0  0  0  0  0  0  0
    6.6856   41.1645  133.8419 H   0  0  0  0  0  0  0  0  0  0  0  0
  1  7  1  0
  1 24  1  0
  2 12  1  0
  2 18  1  0
  3 18  2  0
  4 20  1  0
  4 25  1  0
  5 22  1  0
  5 26  1  0
  6  7  1  0
  6  8  1  0
  7  9  1  0
  8 10  1  0
  9 11  1  0
 10 12  1  0
 11 13  1  0
 12 14  1  0
 13 15  1  0
 15 19  2  0
 16 17  2  0
 16 18  1  0
 16 20  1  0
 17 19  1  0
 17 21  1  0
 20 23  2  0
 21 22  2  0
 22 23  1  0
M  END
> <PUBCHEM_COMPOUND_CID>
5284645

> <PUBCHEM_CONFORMER_RMSD>
0.6

> <PUBCHEM_CONFORMER_DIVERSEORDER>
1

> <PUBCHEM_MMFF94_PARTIAL_CHARGES>
24
1 -0.68
12 0.28
13 0.14
15 -0.29
16 0.09
17 0.03
18 0.63
19 -0.18
2 -0.43
20 0.08
21 -0.15
22 0.08
23 -0.15
3 -0.57
4 -0.53
41 0.4
42 0.15
43 0.15
44 0.15
45 0.15
46 0.45
47 0.45
5 -0.53
7 0.28

> <PUBCHEM_EFFECTIVE_ROTOR_COUNT>
1.8

> <PUBCHEM_PHARMACOPHORE_FEATURES>
6
1 1 acceptor
1 1 donor
1 3 acceptor
1 4 donor
1 5 donor
6 16 17 20 21 22 23 rings

> <PUBCHEM_HEAVY_ATOM_COUNT>
23

> <PUBCHEM_ATOM_DEF_STEREO_COUNT>
2

> <PUBCHEM_ATOM_UDEF_STEREO_COUNT>
0

> <PUBCHEM_BOND_DEF_STEREO_COUNT>
1

> <PUBCHEM_BOND_UDEF_STEREO_COUNT>
0

> <PUBCHEM_ISOTOPIC_ATOM_COUNT>
0

> <PUBCHEM_COMPONENT_COUNT>
1

> <PUBCHEM_CACTVS_TAUTO_COUNT>
12

> <PUBCHEM_CONFORMER_ID>
0050A32500000001

> <PUBCHEM_MMFF94_ENERGY>
56.9454

> <PUBCHEM_FEATURE_SELFOVERLAP>
30.446

> <PUBCHEM_SHAPE_FINGERPRINT>
1100329 8 17836085568009856625
11112241 14 16986289841619931392
11578080 2 16734366241365874279
12166972 35 17967822613537111974
12403259 226 18337670931286267939
12506688 2 18412827975731104564
12596599 1 17914633677902020662
12788726 201 17627507133988941776
13140716 1 18267582403486064363
13402501 40 18336828697047978282
13533116 47 18056766653224983451
14251757 17 18262232209996353437
14787075 74 18336834185758012246
14790565 3 17545883724776523813
14866123 147 17767415573386001256
14931854 50 18336551491284682350
15196674 1 18334859415888043750
15322687 12 17104511174142344237
19591789 44 18337109089556020683
19930381 70 18413393137471364090
20028762 73 17044582808783771111
20691752 17 17022900138402631537
20715895 44 17609482839964013085
20832881 197 18343306989256920753
20905425 154 18409167675446349782
22182313 1 18041826412212926463
23227448 37 18189331260828617463
23352939 185 18342462530415398027
23557571 272 17910374109985112994
23559900 14 18335978778501818797
238 59 18196346307921625956
2748010 2 18117544331403189953
3323516 105 18411138077713944259
350125 39 18336268960321048513
3524813 1 18334011700965522918
3680242 22 18116995477305685354
463206 1 18269557311053435927
5265222 85 17471861776259798556
57527585 103 17390829632986241626
59755656 215 18188762977069237031
6443956 14 18340493347406701473
81228 2 17476913559209296171

> <PUBCHEM_SHAPE_MULTIPOLES>
443.98
8.21
4.09
1.18
1.54
0.84
-0.09
-3.84
1.51
-1.8
-1.33
-0.11
0.8
1.1

> <PUBCHEM_SHAPE_SELFOVERLAP>
916.908

> <PUBCHEM_SHAPE_VOLUME>
252.3

> <PUBCHEM_COORDINATE_TYPE>
2
5
10

> <Energy>
40.5071

> <minimizedAffinity>
3.82375

> <CNNscore>
0.1151650548

> <CNNaffinity>
5.4758744240

> <CNN_VS>
0.6306293607

> <CNNaffinity_variance>
0.0394452699

$$$$
5284645


 26 27  0  0  0  0  0  0  0  0999 V2000
    7.0750   51.3108  128.8514 O   0  0  0  0  0  0  0  0  0  0  0  0
   10.0206   46.9756  131.7953 O   0  0  0  0  0  0  0  0  0  0  0  0
    8.6304   46.7624  133.6197 O   0  0  0  0  0  0  0  0  0  0  0  0
    9.2281   44.0152  134.0708 O   0  0  0  0  0  0  0  0  0  0  0  0
    7.7542   41.3091  130.5098 O   0  0  0  0  0  0  0  0  0  0  0  0
    7.9079   50.7730  131.0438 C   0  0  0  0  0  0  0  0  0  0  0  0
    7.4237   50.2123  129.6955 C   0  0  0  0  0  0  0  0  0  0  0  0
    8.5769   49.7367  131.9508 C   0  0  0  0  0  0  0  0  0  0  0  0
    6.1984   49.2963  129.8373 C   0  0  0  0  0  0  0  0  0  0  0  0
    9.9896   49.3675  131.4862 C   0  0  0  0  0  0  0  0  0  0  0  0
    5.8156   48.5756  128.5359 C   0  0  0  0  0  0  0  0  0  0  0  0
   10.5843   48.2077  132.2918 C   0  0  0  0  0  0  0  0  0  0  0  0
    6.8218   47.5152  128.0731 C   0  0  0  0  0  0  0  0  0  0  0  0
   12.0909   48.1099  132.0711 C   0  0  0  0  0  0  0  0  0  0  0  0
    6.9753   46.3821  129.0510 C   0  0  0  0  0  0  0  0  0  0  0  0
    8.7020   45.0893  131.9400 C   0  0  0  0  0  0  0  0  0  0  0  0
    8.2619   44.9562  130.6079 C   0  0  0  0  0  0  0  0  0  0  0  0
    9.0567   46.3942  132.5357 C   0  0  0  0  0  0  0  0  0  0  0  0
    8.1258   46.0890  129.6783 C   0  0  0  0  0  0  0  0  0  0  0  0
    8.7962   43.9592  132.7682 C   0  0  0  0  0  0  0  0  0  0  0  0
    7.9519   43.6680  130.1291 C   0  0  0  0  0  0  0  0  0  0  0  0
    8.0557   42.5583  130.9646 C   0  0  0  0  0  0  0  0  0  0  0  0
    8.4723   42.6951  132.2835 C   0  0  0  0  0  0  0  0  0  0  0  0
    7.8403   51.8984  128.7527 H   0  0  0  0  0  0  0  0  0  0  0  0
    9.4605   44.8390  134.4523 H   0  0  0  0  0  0  0  0  0  0  0  0
    7.4709   41.1885  129.6249 H   0  0  0  0  0  0  0  0  0  0  0  0
  1  7  1  0
  1 24  1  0
  2 12  1  0
  2 18  1  0
  3 18  2  0
  4 20  1  0
  4 25  1  0
  5 22  1  0
  5 26  1  0
  6  7  1  0
  6  8  1  0
  7  9  1  0
  8 10  1  0
  9 11  1  0
 10 12  1  0
 11 13  1  0
 12 14  1  0
 13 15  1  0
 15 19  2  0
 16 17  2  0
 16 18  1  0
 16 20  1  0
 17 19  1  0
 17 21  1  0
 20 23  2  0
 21 22  2  0
 22 23  1  0
M  END
> <PUBCHEM_COMPOUND_CID>
5284645

> <PUBCHEM_CONFORMER_RMSD>
0.6

> <PUBCHEM_CONFORMER_DIVERSEORDER>
1

> <PUBCHEM_MMFF94_PARTIAL_CHARGES>
24
1 -0.68
12 0.28
13 0.14
15 -0.29
16 0.09
17 0.03
18 0.63
19 -0.18
2 -0.43
20 0.08
21 -0.15
22 0.08
23 -0.15
3 -0.57
4 -0.53
41 0.4
42 0.15
43 0.15
44 0.15
45 0.15
46 0.45
47 0.45
5 -0.53
7 0.28

> <PUBCHEM_EFFECTIVE_ROTOR_COUNT>
1.8

> <PUBCHEM_PHARMACOPHORE_FEATURES>
6
1 1 acceptor
1 1 donor
1 3 acceptor
1 4 donor
1 5 donor
6 16 17 20 21 22 23 rings

> <PUBCHEM_HEAVY_ATOM_COUNT>
23

> <PUBCHEM_ATOM_DEF_STEREO_COUNT>
2

> <PUBCHEM_ATOM_UDEF_STEREO_COUNT>
0

> <PUBCHEM_BOND_DEF_STEREO_COUNT>
1

> <PUBCHEM_BOND_UDEF_STEREO_COUNT>
0

> <PUBCHEM_ISOTOPIC_ATOM_COUNT>
0

> <PUBCHEM_COMPONENT_COUNT>
1

> <PUBCHEM_CACTVS_TAUTO_COUNT>
12

> <PUBCHEM_CONFORMER_ID>
0050A32500000001

> <PUBCHEM_MMFF94_ENERGY>
56.9454

> <PUBCHEM_FEATURE_SELFOVERLAP>
30.446

> <PUBCHEM_SHAPE_FINGERPRINT>
1100329 8 17836085568009856625
11112241 14 16986289841619931392
11578080 2 16734366241365874279
12166972 35 17967822613537111974
12403259 226 18337670931286267939
12506688 2 18412827975731104564
12596599 1 17914633677902020662
12788726 201 17627507133988941776
13140716 1 18267582403486064363
13402501 40 18336828697047978282
13533116 47 18056766653224983451
14251757 17 18262232209996353437
14787075 74 18336834185758012246
14790565 3 17545883724776523813
14866123 147 17767415573386001256
14931854 50 18336551491284682350
15196674 1 18334859415888043750
15322687 12 17104511174142344237
19591789 44 18337109089556020683
19930381 70 18413393137471364090
20028762 73 17044582808783771111
20691752 17 17022900138402631537
20715895 44 17609482839964013085
20832881 197 18343306989256920753
20905425 154 18409167675446349782
22182313 1 18041826412212926463
23227448 37 18189331260828617463
23352939 185 18342462530415398027
23557571 272 17910374109985112994
23559900 14 18335978778501818797
238 59 18196346307921625956
2748010 2 18117544331403189953
3323516 105 18411138077713944259
350125 39 18336268960321048513
3524813 1 18334011700965522918
3680242 22 18116995477305685354
463206 1 18269557311053435927
5265222 85 17471861776259798556
57527585 103 17390829632986241626
59755656 215 18188762977069237031
6443956 14 18340493347406701473
81228 2 17476913559209296171

> <PUBCHEM_SHAPE_MULTIPOLES>
443.98
8.21
4.09
1.18
1.54
0.84
-0.09
-3.84
1.51
-1.8
-1.33
-0.11
0.8
1.1

> <PUBCHEM_SHAPE_SELFOVERLAP>
916.908

> <PUBCHEM_SHAPE_VOLUME>
252.3

> <PUBCHEM_COORDINATE_TYPE>
2
5
10

> <Energy>
40.5071

> <minimizedAffinity>
-0.81364

> <CNNscore>
0.1041670069

> <CNNaffinity>
5.0728545189

> <CNN_VS>
0.5284240842

> <CNNaffinity_variance>
0.2093957663

$$$$
