896


 19 20  0  0  0  0  0  0  0  0999 V2000
   25.1867   -0.8442   10.8130 N   0  0  0  0  0  0  0  0  0  0  0  0
   25.1513   -0.8448    8.5822 C   0  0  0  0  0  0  0  0  0  0  0  0
   24.9599   -2.1845    9.0506 C   0  0  0  0  0  0  0  0  0  0  0  0
   24.9998   -2.1553   10.4425 C   0  0  0  0  0  0  0  0  0  0  0  0
   25.2847   -0.0470    9.7021 C   0  0  0  0  0  0  0  0  0  0  0  0
   24.7608   -3.4223    8.4020 C   0  0  0  0  0  0  0  0  0  0  0  0
   24.8568   -3.3060   11.2239 C   0  0  0  0  0  0  0  0  0  0  0  0
   24.6258   -4.5904    9.1590 C   0  0  0  0  0  0  0  0  0  0  0  0
   24.6736   -4.5220   10.5516 C   0  0  0  0  0  0  0  0  0  0  0  0
   25.2421   -0.5241   11.7423 H   0  0  0  0  0  0  0  0  0  0  0  0
   24.4445   -5.8481    8.6477 O   0  0  0  0  0  0  0  0  0  0  0  0
   23.2769   -6.5450    9.0686 C   0  0  0  0  0  0  0  0  0  0  0  0
   25.1955   -0.4062    7.1481 C   0  0  0  0  0  0  0  0  0  0  0  0
   24.0045   -0.9138    6.3275 C   0  0  0  0  0  0  0  0  0  0  0  0
   22.4417   -1.4833    4.0229 O   0  0  0  0  0  0  0  0  0  0  0  0
   24.3799   -1.7778    5.2200 N   0  0  0  0  0  0  0  0  0  0  0  0
   23.5371   -2.0150    4.1590 C   0  0  0  0  0  0  0  0  0  0  0  0
   24.1014   -2.9769    3.1486 C   0  0  0  0  0  0  0  0  0  0  0  0
   25.2659   -2.2070    5.2299 H   0  0  0  0  0  0  0  0  0  0  0  0
 11  8  1  0
 11 12  1  0
 15 17  2  0
  1  4  1  0
  1  5  1  0
  1 10  1  0
 16 14  1  0
 16 17  1  0
 16 19  1  0
  2  3  1  0
  2 13  1  0
  2  5  2  0
  3  4  2  0
  3  6  1  0
 13 14  1  0
  4  7  1  0
  6  8  2  0
  7  9  2  0
  8  9  1  0
 17 18  1  0
M  END
> <PUBCHEM_COMPOUND_CID>
896

> <PUBCHEM_CONFORMER_RMSD>
0.6

> <PUBCHEM_CONFORMER_DIVERSEORDER>
1
13
50
55
28
16
42
48
27
15
62
60
65
61
36
4
20
58
41
17
59
21
2
63
47
57
40
56
22
64
54
37
51
7
31
53
26
8
49
39
32
11
5
33
38
52
23
45
43
12
14
9
34
44
35
10
25
29
46
6
30
24
3
19
18

> <PUBCHEM_MMFF94_PARTIAL_CHARGES>
22
1 -0.36
10 0.3
11 -0.15
12 -0.15
13 0.08
14 -0.15
15 0.57
16 0.06
17 0.28
2 -0.57
20 0.15
23 0.27
24 0.15
25 0.15
26 0.15
27 0.37
3 0.03
4 -0.73
5 -0.18
7 0.18
8 -0.15
9 -0.3

> <PUBCHEM_EFFECTIVE_ROTOR_COUNT>
5

> <PUBCHEM_PHARMACOPHORE_FEATURES>
7
1 1 acceptor
1 2 acceptor
1 3 cation
1 3 donor
1 4 donor
5 3 5 6 8 9 rings
6 6 8 11 12 13 14 rings

> <PUBCHEM_HEAVY_ATOM_COUNT>
17

> <PUBCHEM_ATOM_DEF_STEREO_COUNT>
0

> <PUBCHEM_ATOM_UDEF_STEREO_COUNT>
0

> <PUBCHEM_BOND_DEF_STEREO_COUNT>
0

> <PUBCHEM_BOND_UDEF_STEREO_COUNT>
0

> <PUBCHEM_ISOTOPIC_ATOM_COUNT>
0

> <PUBCHEM_COMPONENT_COUNT>
1

> <PUBCHEM_CACTVS_TAUTO_COUNT>
2

> <PUBCHEM_CONFORMER_ID>
0000038000000001

> <PUBCHEM_MMFF94_ENERGY>
32.7119

> <PUBCHEM_FEATURE_SELFOVERLAP>
35.612

> <PUBCHEM_SHAPE_FINGERPRINT>
10967382 1 18410853274190255273
11640471 11 17676780867509025316
13027679 85 18194690495324420133
13140716 1 17978229692519098697
13965767 371 16608554374032828400
1420 336 18266184924512803916
14787075 74 17896612875907719035
14790565 3 18341057316043312793
15006816 218 16754940689043299904
16945 1 18195239147136872059
19591789 44 18120376712306458779
19765921 60 17749382706469569763
20510252 161 18342458093286620745
21141583 151 18124894583888822372
21524375 3 17972887951224859043
2334 1 18410572855759727185
23419403 2 17326855944455494142
23557571 272 18201719608641642450
23559900 14 18342173410755765088
2748010 2 18337115553281152647
353137 74 18409164389875307419
44154327 71 18267028250037128041
526903 126 18410576235872810256
537710 114 18408601466050490037
7832392 63 17187566044572678455
9981440 41 18116712022929254594

> <PUBCHEM_SHAPE_MULTIPOLES>
328.15
4.94
3.77
0.97
2.92
1.2
-0.06
0.99
-1.27
-0.81
0.74
0.39
0.23
-0.66

> <PUBCHEM_SHAPE_SELFOVERLAP>
695.133

> <PUBCHEM_SHAPE_VOLUME>
185.3

> <PUBCHEM_COORDINATE_TYPE>
2
5
10

> <Energy>
0.232708

> <minimizedAffinity>
-6.74813

> <CNNscore>
0.6644006968

> <CNNaffinity>
7.0149617195

> <CNN_VS>
4.6607456207

> <CNNaffinity_variance>
0.5286757946

$$$$
896


 19 20  0  0  0  0  0  0  0  0999 V2000
   25.5397   -2.3867    5.8054 N   0  0  0  0  0  0  0  0  0  0  0  0
   23.9016   -2.9485    7.2121 C   0  0  0  0  0  0  0  0  0  0  0  0
   23.3754   -2.9006    5.8810 C   0  0  0  0  0  0  0  0  0  0  0  0
   24.4146   -2.5355    5.0287 C   0  0  0  0  0  0  0  0  0  0  0  0
   25.2421   -2.6273    7.1218 C   0  0  0  0  0  0  0  0  0  0  0  0
   22.0959   -3.1336    5.3321 C   0  0  0  0  0  0  0  0  0  0  0  0
   24.2392   -2.3839    3.6498 C   0  0  0  0  0  0  0  0  0  0  0  0
   21.8901   -2.9785    3.9577 C   0  0  0  0  0  0  0  0  0  0  0  0
   22.9550   -2.6091    3.1356 C   0  0  0  0  0  0  0  0  0  0  0  0
   26.4306   -2.1425    5.4652 H   0  0  0  0  0  0  0  0  0  0  0  0
   20.6963   -3.1600    3.3109 O   0  0  0  0  0  0  0  0  0  0  0  0
   20.1516   -2.0243    2.6480 C   0  0  0  0  0  0  0  0  0  0  0  0
   23.1333   -3.2849    8.4561 C   0  0  0  0  0  0  0  0  0  0  0  0
   23.6058   -2.4999    9.6849 C   0  0  0  0  0  0  0  0  0  0  0  0
   25.2956   -3.5020   11.7387 O   0  0  0  0  0  0  0  0  0  0  0  0
   25.0497   -2.3501    9.7666 N   0  0  0  0  0  0  0  0  0  0  0  0
   25.7783   -2.8480   10.8219 C   0  0  0  0  0  0  0  0  0  0  0  0
   27.2486   -2.5397   10.7338 C   0  0  0  0  0  0  0  0  0  0  0  0
   25.5213   -1.8771    9.0433 H   0  0  0  0  0  0  0  0  0  0  0  0
 11  8  1  0
 11 12  1  0
 15 17  2  0
  1  4  1  0
  1  5  1  0
  1 10  1  0
 16 14  1  0
 16 17  1  0
 16 19  1  0
  2  3  1  0
  2 13  1  0
  2  5  2  0
  3  4  2  0
  3  6  1  0
 13 14  1  0
  4  7  1  0
  6  8  2  0
  7  9  2  0
  8  9  1  0
 17 18  1  0
M  END
> <PUBCHEM_COMPOUND_CID>
896

> <PUBCHEM_CONFORMER_RMSD>
0.6

> <PUBCHEM_CONFORMER_DIVERSEORDER>
1
13
50
55
28
16
42
48
27
15
62
60
65
61
36
4
20
58
41
17
59
21
2
63
47
57
40
56
22
64
54
37
51
7
31
53
26
8
49
39
32
11
5
33
38
52
23
45
43
12
14
9
34
44
35
10
25
29
46
6
30
24
3
19
18

> <PUBCHEM_MMFF94_PARTIAL_CHARGES>
22
1 -0.36
10 0.3
11 -0.15
12 -0.15
13 0.08
14 -0.15
15 0.57
16 0.06
17 0.28
2 -0.57
20 0.15
23 0.27
24 0.15
25 0.15
26 0.15
27 0.37
3 0.03
4 -0.73
5 -0.18
7 0.18
8 -0.15
9 -0.3

> <PUBCHEM_EFFECTIVE_ROTOR_COUNT>
5

> <PUBCHEM_PHARMACOPHORE_FEATURES>
7
1 1 acceptor
1 2 acceptor
1 3 cation
1 3 donor
1 4 donor
5 3 5 6 8 9 rings
6 6 8 11 12 13 14 rings

> <PUBCHEM_HEAVY_ATOM_COUNT>
17

> <PUBCHEM_ATOM_DEF_STEREO_COUNT>
0

> <PUBCHEM_ATOM_UDEF_STEREO_COUNT>
0

> <PUBCHEM_BOND_DEF_STEREO_COUNT>
0

> <PUBCHEM_BOND_UDEF_STEREO_COUNT>
0

> <PUBCHEM_ISOTOPIC_ATOM_COUNT>
0

> <PUBCHEM_COMPONENT_COUNT>
1

> <PUBCHEM_CACTVS_TAUTO_COUNT>
2

> <PUBCHEM_CONFORMER_ID>
0000038000000001

> <PUBCHEM_MMFF94_ENERGY>
32.7119

> <PUBCHEM_FEATURE_SELFOVERLAP>
35.612

> <PUBCHEM_SHAPE_FINGERPRINT>
10967382 1 18410853274190255273
11640471 11 17676780867509025316
13027679 85 18194690495324420133
13140716 1 17978229692519098697
13965767 371 16608554374032828400
1420 336 18266184924512803916
14787075 74 17896612875907719035
14790565 3 18341057316043312793
15006816 218 16754940689043299904
16945 1 18195239147136872059
19591789 44 18120376712306458779
19765921 60 17749382706469569763
20510252 161 18342458093286620745
21141583 151 18124894583888822372
21524375 3 17972887951224859043
2334 1 18410572855759727185
23419403 2 17326855944455494142
23557571 272 18201719608641642450
23559900 14 18342173410755765088
2748010 2 18337115553281152647
353137 74 18409164389875307419
44154327 71 18267028250037128041
526903 126 18410576235872810256
537710 114 18408601466050490037
7832392 63 17187566044572678455
9981440 41 18116712022929254594

> <PUBCHEM_SHAPE_MULTIPOLES>
328.15
4.94
3.77
0.97
2.92
1.2
-0.06
0.99
-1.27
-0.81
0.74
0.39
0.23
-0.66

> <PUBCHEM_SHAPE_SELFOVERLAP>
695.133

> <PUBCHEM_SHAPE_VOLUME>
185.3

> <PUBCHEM_COORDINATE_TYPE>
2
5
10

> <Energy>
0.232708

> <minimizedAffinity>
-6.41493

> <CNNscore>
0.6416643858

> <CNNaffinity>
6.6493163109

> <CNN_VS>
4.2666296959

> <CNNaffinity_variance>
0.4217818677

$$$$
896


 19 20  0  0  0  0  0  0  0  0999 V2000
   21.7523   -4.4374    8.1387 N   0  0  0  0  0  0  0  0  0  0  0  0
   23.0289   -2.9871    7.0230 C   0  0  0  0  0  0  0  0  0  0  0  0
   23.7801   -3.5199    8.1197 C   0  0  0  0  0  0  0  0  0  0  0  0
   22.9556   -4.4098    8.8040 C   0  0  0  0  0  0  0  0  0  0  0  0
   21.7826   -3.5813    7.0685 C   0  0  0  0  0  0  0  0  0  0  0  0
   25.0951   -3.3130    8.5895 C   0  0  0  0  0  0  0  0  0  0  0  0
   23.3771   -5.1023    9.9432 C   0  0  0  0  0  0  0  0  0  0  0  0
   25.5388   -3.9845    9.7331 C   0  0  0  0  0  0  0  0  0  0  0  0
   24.6831   -4.8666   10.3936 C   0  0  0  0  0  0  0  0  0  0  0  0
   20.9802   -4.9921    8.3943 H   0  0  0  0  0  0  0  0  0  0  0  0
   26.7820   -3.8563   10.2935 O   0  0  0  0  0  0  0  0  0  0  0  0
   27.1914   -2.5382   10.6416 C   0  0  0  0  0  0  0  0  0  0  0  0
   23.5149   -1.9787    6.0241 C   0  0  0  0  0  0  0  0  0  0  0  0
   23.4502   -2.4851    4.5788 C   0  0  0  0  0  0  0  0  0  0  0  0
   21.0033   -3.7147    3.8184 O   0  0  0  0  0  0  0  0  0  0  0  0
   22.3870   -1.8814    3.7920 N   0  0  0  0  0  0  0  0  0  0  0  0
   21.2482   -2.5725    3.4489 C   0  0  0  0  0  0  0  0  0  0  0  0
   20.3005   -1.7782    2.5912 C   0  0  0  0  0  0  0  0  0  0  0  0
   22.4854   -0.9478    3.4952 H   0  0  0  0  0  0  0  0  0  0  0  0
 11  8  1  0
 11 12  1  0
 15 17  2  0
  1  4  1  0
  1  5  1  0
  1 10  1  0
 16 14  1  0
 16 17  1  0
 16 19  1  0
  2  3  1  0
  2 13  1  0
  2  5  2  0
  3  4  2  0
  3  6  1  0
 13 14  1  0
  4  7  1  0
  6  8  2  0
  7  9  2  0
  8  9  1  0
 17 18  1  0
M  END
> <PUBCHEM_COMPOUND_CID>
896

> <PUBCHEM_CONFORMER_RMSD>
0.6

> <PUBCHEM_CONFORMER_DIVERSEORDER>
1
13
50
55
28
16
42
48
27
15
62
60
65
61
36
4
20
58
41
17
59
21
2
63
47
57
40
56
22
64
54
37
51
7
31
53
26
8
49
39
32
11
5
33
38
52
23
45
43
12
14
9
34
44
35
10
25
29
46
6
30
24
3
19
18

> <PUBCHEM_MMFF94_PARTIAL_CHARGES>
22
1 -0.36
10 0.3
11 -0.15
12 -0.15
13 0.08
14 -0.15
15 0.57
16 0.06
17 0.28
2 -0.57
20 0.15
23 0.27
24 0.15
25 0.15
26 0.15
27 0.37
3 0.03
4 -0.73
5 -0.18
7 0.18
8 -0.15
9 -0.3

> <PUBCHEM_EFFECTIVE_ROTOR_COUNT>
5

> <PUBCHEM_PHARMACOPHORE_FEATURES>
7
1 1 acceptor
1 2 acceptor
1 3 cation
1 3 donor
1 4 donor
5 3 5 6 8 9 rings
6 6 8 11 12 13 14 rings

> <PUBCHEM_HEAVY_ATOM_COUNT>
17

> <PUBCHEM_ATOM_DEF_STEREO_COUNT>
0

> <PUBCHEM_ATOM_UDEF_STEREO_COUNT>
0

> <PUBCHEM_BOND_DEF_STEREO_COUNT>
0

> <PUBCHEM_BOND_UDEF_STEREO_COUNT>
0

> <PUBCHEM_ISOTOPIC_ATOM_COUNT>
0

> <PUBCHEM_COMPONENT_COUNT>
1

> <PUBCHEM_CACTVS_TAUTO_COUNT>
2

> <PUBCHEM_CONFORMER_ID>
0000038000000001

> <PUBCHEM_MMFF94_ENERGY>
32.7119

> <PUBCHEM_FEATURE_SELFOVERLAP>
35.612

> <PUBCHEM_SHAPE_FINGERPRINT>
10967382 1 18410853274190255273
11640471 11 17676780867509025316
13027679 85 18194690495324420133
13140716 1 17978229692519098697
13965767 371 16608554374032828400
1420 336 18266184924512803916
14787075 74 17896612875907719035
14790565 3 18341057316043312793
15006816 218 16754940689043299904
16945 1 18195239147136872059
19591789 44 18120376712306458779
19765921 60 17749382706469569763
20510252 161 18342458093286620745
21141583 151 18124894583888822372
21524375 3 17972887951224859043
2334 1 18410572855759727185
23419403 2 17326855944455494142
23557571 272 18201719608641642450
23559900 14 18342173410755765088
2748010 2 18337115553281152647
353137 74 18409164389875307419
44154327 71 18267028250037128041
526903 126 18410576235872810256
537710 114 18408601466050490037
7832392 63 17187566044572678455
9981440 41 18116712022929254594

> <PUBCHEM_SHAPE_MULTIPOLES>
328.15
4.94
3.77
0.97
2.92
1.2
-0.06
0.99
-1.27
-0.81
0.74
0.39
0.23
-0.66

> <PUBCHEM_SHAPE_SELFOVERLAP>
695.133

> <PUBCHEM_SHAPE_VOLUME>
185.3

> <PUBCHEM_COORDINATE_TYPE>
2
5
10

> <Energy>
0.232708

> <minimizedAffinity>
-6.09090

> <CNNscore>
0.5574858189

> <CNNaffinity>
6.6127800941

> <CNN_VS>
3.6865310669

> <CNNaffinity_variance>
0.4904752076

$$$$
896


 19 20  0  0  0  0  0  0  0  0999 V2000
   26.8222   -2.3927   10.6910 N   0  0  0  0  0  0  0  0  0  0  0  0
   26.4873   -2.2594    8.4892 C   0  0  0  0  0  0  0  0  0  0  0  0
   25.3804   -2.9435    9.0872 C   0  0  0  0  0  0  0  0  0  0  0  0
   25.6227   -3.0233   10.4564 C   0  0  0  0  0  0  0  0  0  0  0  0
   27.3545   -1.9337    9.5140 C   0  0  0  0  0  0  0  0  0  0  0  0
   24.1925   -3.5067    8.5730 C   0  0  0  0  0  0  0  0  0  0  0  0
   24.7380   -3.6458   11.3423 C   0  0  0  0  0  0  0  0  0  0  0  0
   23.2954   -4.1448    9.4354 C   0  0  0  0  0  0  0  0  0  0  0  0
   23.5735   -4.2072   10.8011 C   0  0  0  0  0  0  0  0  0  0  0  0
   27.2386   -2.2863   11.5766 H   0  0  0  0  0  0  0  0  0  0  0  0
   22.1217   -4.7408    9.0565 O   0  0  0  0  0  0  0  0  0  0  0  0
   21.5448   -4.2927    7.8348 C   0  0  0  0  0  0  0  0  0  0  0  0
   26.6588   -1.9602    7.0290 C   0  0  0  0  0  0  0  0  0  0  0  0
   25.3905   -1.3970    6.3780 C   0  0  0  0  0  0  0  0  0  0  0  0
   22.8120   -1.6780    5.2159 O   0  0  0  0  0  0  0  0  0  0  0  0
   25.0848   -1.9837    5.0833 N   0  0  0  0  0  0  0  0  0  0  0  0
   23.7949   -2.1023    4.6200 C   0  0  0  0  0  0  0  0  0  0  0  0
   23.6990   -2.7825    3.2811 C   0  0  0  0  0  0  0  0  0  0  0  0
   25.8248   -2.3066    4.5199 H   0  0  0  0  0  0  0  0  0  0  0  0
 11  8  1  0
 11 12  1  0
 15 17  2  0
  1  4  1  0
  1  5  1  0
  1 10  1  0
 16 14  1  0
 16 17  1  0
 16 19  1  0
  2  3  1  0
  2 13  1  0
  2  5  2  0
  3  4  2  0
  3  6  1  0
 13 14  1  0
  4  7  1  0
  6  8  2  0
  7  9  2  0
  8  9  1  0
 17 18  1  0
M  END
> <PUBCHEM_COMPOUND_CID>
896

> <PUBCHEM_CONFORMER_RMSD>
0.6

> <PUBCHEM_CONFORMER_DIVERSEORDER>
1
13
50
55
28
16
42
48
27
15
62
60
65
61
36
4
20
58
41
17
59
21
2
63
47
57
40
56
22
64
54
37
51
7
31
53
26
8
49
39
32
11
5
33
38
52
23
45
43
12
14
9
34
44
35
10
25
29
46
6
30
24
3
19
18

> <PUBCHEM_MMFF94_PARTIAL_CHARGES>
22
1 -0.36
10 0.3
11 -0.15
12 -0.15
13 0.08
14 -0.15
15 0.57
16 0.06
17 0.28
2 -0.57
20 0.15
23 0.27
24 0.15
25 0.15
26 0.15
27 0.37
3 0.03
4 -0.73
5 -0.18
7 0.18
8 -0.15
9 -0.3

> <PUBCHEM_EFFECTIVE_ROTOR_COUNT>
5

> <PUBCHEM_PHARMACOPHORE_FEATURES>
7
1 1 acceptor
1 2 acceptor
1 3 cation
1 3 donor
1 4 donor
5 3 5 6 8 9 rings
6 6 8 11 12 13 14 rings

> <PUBCHEM_HEAVY_ATOM_COUNT>
17

> <PUBCHEM_ATOM_DEF_STEREO_COUNT>
0

> <PUBCHEM_ATOM_UDEF_STEREO_COUNT>
0

> <PUBCHEM_BOND_DEF_STEREO_COUNT>
0

> <PUBCHEM_BOND_UDEF_STEREO_COUNT>
0

> <PUBCHEM_ISOTOPIC_ATOM_COUNT>
0

> <PUBCHEM_COMPONENT_COUNT>
1

> <PUBCHEM_CACTVS_TAUTO_COUNT>
2

> <PUBCHEM_CONFORMER_ID>
0000038000000001

> <PUBCHEM_MMFF94_ENERGY>
32.7119

> <PUBCHEM_FEATURE_SELFOVERLAP>
35.612

> <PUBCHEM_SHAPE_FINGERPRINT>
10967382 1 18410853274190255273
11640471 11 17676780867509025316
13027679 85 18194690495324420133
13140716 1 17978229692519098697
13965767 371 16608554374032828400
1420 336 18266184924512803916
14787075 74 17896612875907719035
14790565 3 18341057316043312793
15006816 218 16754940689043299904
16945 1 18195239147136872059
19591789 44 18120376712306458779
19765921 60 17749382706469569763
20510252 161 18342458093286620745
21141583 151 18124894583888822372
21524375 3 17972887951224859043
2334 1 18410572855759727185
23419403 2 17326855944455494142
23557571 272 18201719608641642450
23559900 14 18342173410755765088
2748010 2 18337115553281152647
353137 74 18409164389875307419
44154327 71 18267028250037128041
526903 126 18410576235872810256
537710 114 18408601466050490037
7832392 63 17187566044572678455
9981440 41 18116712022929254594

> <PUBCHEM_SHAPE_MULTIPOLES>
328.15
4.94
3.77
0.97
2.92
1.2
-0.06
0.99
-1.27
-0.81
0.74
0.39
0.23
-0.66

> <PUBCHEM_SHAPE_SELFOVERLAP>
695.133

> <PUBCHEM_SHAPE_VOLUME>
185.3

> <PUBCHEM_COORDINATE_TYPE>
2
5
10

> <Energy>
0.232708

> <minimizedAffinity>
-6.56006

> <CNNscore>
0.4878587723

> <CNNaffinity>
6.5658302307

> <CNN_VS>
3.2031979561

> <CNNaffinity_variance>
0.3264589012

$$$$
896


 19 20  0  0  0  0  0  0  0  0999 V2000
   26.6177   -1.7438    6.3368 N   0  0  0  0  0  0  0  0  0  0  0  0
   25.3766   -0.7060    7.8732 C   0  0  0  0  0  0  0  0  0  0  0  0
   24.5126   -1.4250    6.9859 C   0  0  0  0  0  0  0  0  0  0  0  0
   25.3121   -2.0504    6.0322 C   0  0  0  0  0  0  0  0  0  0  0  0
   26.6688   -0.9308    7.4396 C   0  0  0  0  0  0  0  0  0  0  0  0
   23.1126   -1.5905    6.9136 C   0  0  0  0  0  0  0  0  0  0  0  0
   24.7819   -2.8314    5.0006 C   0  0  0  0  0  0  0  0  0  0  0  0
   22.5552   -2.3575    5.8858 C   0  0  0  0  0  0  0  0  0  0  0  0
   23.3881   -2.9668    4.9469 C   0  0  0  0  0  0  0  0  0  0  0  0
   27.4027   -2.0622    5.8353 H   0  0  0  0  0  0  0  0  0  0  0  0
   21.2161   -2.5787    5.7006 O   0  0  0  0  0  0  0  0  0  0  0  0
   20.8170   -3.0288    4.4105 C   0  0  0  0  0  0  0  0  0  0  0  0
   24.9473    0.1269    9.0450 C   0  0  0  0  0  0  0  0  0  0  0  0
   25.3646   -0.4718   10.3929 C   0  0  0  0  0  0  0  0  0  0  0  0
   26.7905   -2.6486   11.5357 O   0  0  0  0  0  0  0  0  0  0  0  0
   24.8552   -1.8142   10.6222 N   0  0  0  0  0  0  0  0  0  0  0  0
   25.6371   -2.8121   11.1560 C   0  0  0  0  0  0  0  0  0  0  0  0
   24.9296   -4.1359   11.2625 C   0  0  0  0  0  0  0  0  0  0  0  0
   23.9204   -2.0154   10.3878 H   0  0  0  0  0  0  0  0  0  0  0  0
 11  8  1  0
 11 12  1  0
 15 17  2  0
  1  4  1  0
  1  5  1  0
  1 10  1  0
 16 14  1  0
 16 17  1  0
 16 19  1  0
  2  3  1  0
  2 13  1  0
  2  5  2  0
  3  4  2  0
  3  6  1  0
 13 14  1  0
  4  7  1  0
  6  8  2  0
  7  9  2  0
  8  9  1  0
 17 18  1  0
M  END
> <PUBCHEM_COMPOUND_CID>
896

> <PUBCHEM_CONFORMER_RMSD>
0.6

> <PUBCHEM_CONFORMER_DIVERSEORDER>
1
13
50
55
28
16
42
48
27
15
62
60
65
61
36
4
20
58
41
17
59
21
2
63
47
57
40
56
22
64
54
37
51
7
31
53
26
8
49
39
32
11
5
33
38
52
23
45
43
12
14
9
34
44
35
10
25
29
46
6
30
24
3
19
18

> <PUBCHEM_MMFF94_PARTIAL_CHARGES>
22
1 -0.36
10 0.3
11 -0.15
12 -0.15
13 0.08
14 -0.15
15 0.57
16 0.06
17 0.28
2 -0.57
20 0.15
23 0.27
24 0.15
25 0.15
26 0.15
27 0.37
3 0.03
4 -0.73
5 -0.18
7 0.18
8 -0.15
9 -0.3

> <PUBCHEM_EFFECTIVE_ROTOR_COUNT>
5

> <PUBCHEM_PHARMACOPHORE_FEATURES>
7
1 1 acceptor
1 2 acceptor
1 3 cation
1 3 donor
1 4 donor
5 3 5 6 8 9 rings
6 6 8 11 12 13 14 rings

> <PUBCHEM_HEAVY_ATOM_COUNT>
17

> <PUBCHEM_ATOM_DEF_STEREO_COUNT>
0

> <PUBCHEM_ATOM_UDEF_STEREO_COUNT>
0

> <PUBCHEM_BOND_DEF_STEREO_COUNT>
0

> <PUBCHEM_BOND_UDEF_STEREO_COUNT>
0

> <PUBCHEM_ISOTOPIC_ATOM_COUNT>
0

> <PUBCHEM_COMPONENT_COUNT>
1

> <PUBCHEM_CACTVS_TAUTO_COUNT>
2

> <PUBCHEM_CONFORMER_ID>
0000038000000001

> <PUBCHEM_MMFF94_ENERGY>
32.7119

> <PUBCHEM_FEATURE_SELFOVERLAP>
35.612

> <PUBCHEM_SHAPE_FINGERPRINT>
10967382 1 18410853274190255273
11640471 11 17676780867509025316
13027679 85 18194690495324420133
13140716 1 17978229692519098697
13965767 371 16608554374032828400
1420 336 18266184924512803916
14787075 74 17896612875907719035
14790565 3 18341057316043312793
15006816 218 16754940689043299904
16945 1 18195239147136872059
19591789 44 18120376712306458779
19765921 60 17749382706469569763
20510252 161 18342458093286620745
21141583 151 18124894583888822372
21524375 3 17972887951224859043
2334 1 18410572855759727185
23419403 2 17326855944455494142
23557571 272 18201719608641642450
23559900 14 18342173410755765088
2748010 2 18337115553281152647
353137 74 18409164389875307419
44154327 71 18267028250037128041
526903 126 18410576235872810256
537710 114 18408601466050490037
7832392 63 17187566044572678455
9981440 41 18116712022929254594

> <PUBCHEM_SHAPE_MULTIPOLES>
328.15
4.94
3.77
0.97
2.92
1.2
-0.06
0.99
-1.27
-0.81
0.74
0.39
0.23
-0.66

> <PUBCHEM_SHAPE_SELFOVERLAP>
695.133

> <PUBCHEM_SHAPE_VOLUME>
185.3

> <PUBCHEM_COORDINATE_TYPE>
2
5
10

> <Energy>
0.232708

> <minimizedAffinity>
-6.97473

> <CNNscore>
0.4558204710

> <CNNaffinity>
6.0660700798

> <CNN_VS>
2.7650389671

> <CNNaffinity_variance>
0.4043892324

$$$$
896


 19 20  0  0  0  0  0  0  0  0999 V2000
   21.8640   -3.6495    8.5540 N   0  0  0  0  0  0  0  0  0  0  0  0
   23.6712   -2.4509    8.0293 C   0  0  0  0  0  0  0  0  0  0  0  0
   22.7916   -2.4845    6.8997 C   0  0  0  0  0  0  0  0  0  0  0  0
   21.6814   -3.2485    7.2512 C   0  0  0  0  0  0  0  0  0  0  0  0
   23.0604   -3.1801    9.0311 C   0  0  0  0  0  0  0  0  0  0  0  0
   22.8525   -1.9302    5.6029 C   0  0  0  0  0  0  0  0  0  0  0  0
   20.6263   -3.4942    6.3671 C   0  0  0  0  0  0  0  0  0  0  0  0
   21.8160   -2.1693    4.6951 C   0  0  0  0  0  0  0  0  0  0  0  0
   20.7209   -2.9419    5.0825 C   0  0  0  0  0  0  0  0  0  0  0  0
   21.2273   -4.1950    9.0697 H   0  0  0  0  0  0  0  0  0  0  0  0
   21.7673   -1.7014    3.4086 O   0  0  0  0  0  0  0  0  0  0  0  0
   20.5900   -1.9994    2.6662 C   0  0  0  0  0  0  0  0  0  0  0  0
   24.9978   -1.7533    8.0978 C   0  0  0  0  0  0  0  0  0  0  0  0
   25.5894   -1.7249    9.5116 C   0  0  0  0  0  0  0  0  0  0  0  0
   27.1380   -3.9720   10.3053 O   0  0  0  0  0  0  0  0  0  0  0  0
   25.1488   -2.8243   10.3549 N   0  0  0  0  0  0  0  0  0  0  0  0
   25.9680   -3.8868   10.6590 C   0  0  0  0  0  0  0  0  0  0  0  0
   25.2988   -4.9372   11.5034 C   0  0  0  0  0  0  0  0  0  0  0  0
   24.2346   -2.8079   10.7200 H   0  0  0  0  0  0  0  0  0  0  0  0
 11  8  1  0
 11 12  1  0
 15 17  2  0
  1  4  1  0
  1  5  1  0
  1 10  1  0
 16 14  1  0
 16 17  1  0
 16 19  1  0
  2  3  1  0
  2 13  1  0
  2  5  2  0
  3  4  2  0
  3  6  1  0
 13 14  1  0
  4  7  1  0
  6  8  2  0
  7  9  2  0
  8  9  1  0
 17 18  1  0
M  END
> <PUBCHEM_COMPOUND_CID>
896

> <PUBCHEM_CONFORMER_RMSD>
0.6

> <PUBCHEM_CONFORMER_DIVERSEORDER>
1
13
50
55
28
16
42
48
27
15
62
60
65
61
36
4
20
58
41
17
59
21
2
63
47
57
40
56
22
64
54
37
51
7
31
53
26
8
49
39
32
11
5
33
38
52
23
45
43
12
14
9
34
44
35
10
25
29
46
6
30
24
3
19
18

> <PUBCHEM_MMFF94_PARTIAL_CHARGES>
22
1 -0.36
10 0.3
11 -0.15
12 -0.15
13 0.08
14 -0.15
15 0.57
16 0.06
17 0.28
2 -0.57
20 0.15
23 0.27
24 0.15
25 0.15
26 0.15
27 0.37
3 0.03
4 -0.73
5 -0.18
7 0.18
8 -0.15
9 -0.3

> <PUBCHEM_EFFECTIVE_ROTOR_COUNT>
5

> <PUBCHEM_PHARMACOPHORE_FEATURES>
7
1 1 acceptor
1 2 acceptor
1 3 cation
1 3 donor
1 4 donor
5 3 5 6 8 9 rings
6 6 8 11 12 13 14 rings

> <PUBCHEM_HEAVY_ATOM_COUNT>
17

> <PUBCHEM_ATOM_DEF_STEREO_COUNT>
0

> <PUBCHEM_ATOM_UDEF_STEREO_COUNT>
0

> <PUBCHEM_BOND_DEF_STEREO_COUNT>
0

> <PUBCHEM_BOND_UDEF_STEREO_COUNT>
0

> <PUBCHEM_ISOTOPIC_ATOM_COUNT>
0

> <PUBCHEM_COMPONENT_COUNT>
1

> <PUBCHEM_CACTVS_TAUTO_COUNT>
2

> <PUBCHEM_CONFORMER_ID>
0000038000000001

> <PUBCHEM_MMFF94_ENERGY>
32.7119

> <PUBCHEM_FEATURE_SELFOVERLAP>
35.612

> <PUBCHEM_SHAPE_FINGERPRINT>
10967382 1 18410853274190255273
11640471 11 17676780867509025316
13027679 85 18194690495324420133
13140716 1 17978229692519098697
13965767 371 16608554374032828400
1420 336 18266184924512803916
14787075 74 17896612875907719035
14790565 3 18341057316043312793
15006816 218 16754940689043299904
16945 1 18195239147136872059
19591789 44 18120376712306458779
19765921 60 17749382706469569763
20510252 161 18342458093286620745
21141583 151 18124894583888822372
21524375 3 17972887951224859043
2334 1 18410572855759727185
23419403 2 17326855944455494142
23557571 272 18201719608641642450
23559900 14 18342173410755765088
2748010 2 18337115553281152647
353137 74 18409164389875307419
44154327 71 18267028250037128041
526903 126 18410576235872810256
537710 114 18408601466050490037
7832392 63 17187566044572678455
9981440 41 18116712022929254594

> <PUBCHEM_SHAPE_MULTIPOLES>
328.15
4.94
3.77
0.97
2.92
1.2
-0.06
0.99
-1.27
-0.81
0.74
0.39
0.23
-0.66

> <PUBCHEM_SHAPE_SELFOVERLAP>
695.133

> <PUBCHEM_SHAPE_VOLUME>
185.3

> <PUBCHEM_COORDINATE_TYPE>
2
5
10

> <Energy>
0.232708

> <minimizedAffinity>
-6.19084

> <CNNscore>
0.4533320665

> <CNNaffinity>
6.0155162811

> <CNN_VS>
2.7270264626

> <CNNaffinity_variance>
0.1022113189

$$$$
896


 19 20  0  0  0  0  0  0  0  0999 V2000
   26.1708   -1.9490    6.0461 N   0  0  0  0  0  0  0  0  0  0  0  0
   24.7834   -2.0588    7.7899 C   0  0  0  0  0  0  0  0  0  0  0  0
   24.0480   -2.3354    6.5926 C   0  0  0  0  0  0  0  0  0  0  0  0
   24.9347   -2.2470    5.5222 C   0  0  0  0  0  0  0  0  0  0  0  0
   26.0912   -1.8280    7.4093 C   0  0  0  0  0  0  0  0  0  0  0  0
   22.6967   -2.6492    6.3319 C   0  0  0  0  0  0  0  0  0  0  0  0
   24.5375   -2.4505    4.1970 C   0  0  0  0  0  0  0  0  0  0  0  0
   22.2702   -2.8470    5.0149 C   0  0  0  0  0  0  0  0  0  0  0  0
   23.1871   -2.7476    3.9681 C   0  0  0  0  0  0  0  0  0  0  0  0
   26.9944   -1.8385    5.5182 H   0  0  0  0  0  0  0  0  0  0  0  0
   20.9875   -3.1400    4.6341 O   0  0  0  0  0  0  0  0  0  0  0  0
   20.5465   -2.5847    3.3999 C   0  0  0  0  0  0  0  0  0  0  0  0
   24.2278   -2.0294    9.1832 C   0  0  0  0  0  0  0  0  0  0  0  0
   24.8150   -3.1190   10.0875 C   0  0  0  0  0  0  0  0  0  0  0  0
   22.4170   -4.4969    9.4326 O   0  0  0  0  0  0  0  0  0  0  0  0
   24.7115   -4.4598    9.5347 N   0  0  0  0  0  0  0  0  0  0  0  0
   23.4974   -5.0539    9.2789 C   0  0  0  0  0  0  0  0  0  0  0  0
   23.6164   -6.4600    8.7563 C   0  0  0  0  0  0  0  0  0  0  0  0
   25.5370   -4.9586    9.3370 H   0  0  0  0  0  0  0  0  0  0  0  0
 11  8  1  0
 11 12  1  0
 15 17  2  0
  1  4  1  0
  1  5  1  0
  1 10  1  0
 16 14  1  0
 16 17  1  0
 16 19  1  0
  2  3  1  0
  2 13  1  0
  2  5  2  0
  3  4  2  0
  3  6  1  0
 13 14  1  0
  4  7  1  0
  6  8  2  0
  7  9  2  0
  8  9  1  0
 17 18  1  0
M  END
> <PUBCHEM_COMPOUND_CID>
896

> <PUBCHEM_CONFORMER_RMSD>
0.6

> <PUBCHEM_CONFORMER_DIVERSEORDER>
1
13
50
55
28
16
42
48
27
15
62
60
65
61
36
4
20
58
41
17
59
21
2
63
47
57
40
56
22
64
54
37
51
7
31
53
26
8
49
39
32
11
5
33
38
52
23
45
43
12
14
9
34
44
35
10
25
29
46
6
30
24
3
19
18

> <PUBCHEM_MMFF94_PARTIAL_CHARGES>
22
1 -0.36
10 0.3
11 -0.15
12 -0.15
13 0.08
14 -0.15
15 0.57
16 0.06
17 0.28
2 -0.57
20 0.15
23 0.27
24 0.15
25 0.15
26 0.15
27 0.37
3 0.03
4 -0.73
5 -0.18
7 0.18
8 -0.15
9 -0.3

> <PUBCHEM_EFFECTIVE_ROTOR_COUNT>
5

> <PUBCHEM_PHARMACOPHORE_FEATURES>
7
1 1 acceptor
1 2 acceptor
1 3 cation
1 3 donor
1 4 donor
5 3 5 6 8 9 rings
6 6 8 11 12 13 14 rings

> <PUBCHEM_HEAVY_ATOM_COUNT>
17

> <PUBCHEM_ATOM_DEF_STEREO_COUNT>
0

> <PUBCHEM_ATOM_UDEF_STEREO_COUNT>
0

> <PUBCHEM_BOND_DEF_STEREO_COUNT>
0

> <PUBCHEM_BOND_UDEF_STEREO_COUNT>
0

> <PUBCHEM_ISOTOPIC_ATOM_COUNT>
0

> <PUBCHEM_COMPONENT_COUNT>
1

> <PUBCHEM_CACTVS_TAUTO_COUNT>
2

> <PUBCHEM_CONFORMER_ID>
0000038000000001

> <PUBCHEM_MMFF94_ENERGY>
32.7119

> <PUBCHEM_FEATURE_SELFOVERLAP>
35.612

> <PUBCHEM_SHAPE_FINGERPRINT>
10967382 1 18410853274190255273
11640471 11 17676780867509025316
13027679 85 18194690495324420133
13140716 1 17978229692519098697
13965767 371 16608554374032828400
1420 336 18266184924512803916
14787075 74 17896612875907719035
14790565 3 18341057316043312793
15006816 218 16754940689043299904
16945 1 18195239147136872059
19591789 44 18120376712306458779
19765921 60 17749382706469569763
20510252 161 18342458093286620745
21141583 151 18124894583888822372
21524375 3 17972887951224859043
2334 1 18410572855759727185
23419403 2 17326855944455494142
23557571 272 18201719608641642450
23559900 14 18342173410755765088
2748010 2 18337115553281152647
353137 74 18409164389875307419
44154327 71 18267028250037128041
526903 126 18410576235872810256
537710 114 18408601466050490037
7832392 63 17187566044572678455
9981440 41 18116712022929254594

> <PUBCHEM_SHAPE_MULTIPOLES>
328.15
4.94
3.77
0.97
2.92
1.2
-0.06
0.99
-1.27
-0.81
0.74
0.39
0.23
-0.66

> <PUBCHEM_SHAPE_SELFOVERLAP>
695.133

> <PUBCHEM_SHAPE_VOLUME>
185.3

> <PUBCHEM_COORDINATE_TYPE>
2
5
10

> <Energy>
0.232708

> <minimizedAffinity>
-6.14700

> <CNNscore>
0.4189815819

> <CNNaffinity>
6.0422420502

> <CNN_VS>
2.5315880775

> <CNNaffinity_variance>
0.0834736452

$$$$
896


 19 20  0  0  0  0  0  0  0  0999 V2000
   25.8732   -2.9359    6.5164 N   0  0  0  0  0  0  0  0  0  0  0  0
   24.3338   -3.9144    7.8011 C   0  0  0  0  0  0  0  0  0  0  0  0
   23.6942   -3.3728    6.6399 C   0  0  0  0  0  0  0  0  0  0  0  0
   24.6750   -2.7583    5.8652 C   0  0  0  0  0  0  0  0  0  0  0  0
   25.6797   -3.6256    7.6853 C   0  0  0  0  0  0  0  0  0  0  0  0
   22.3574   -3.3509    6.1870 C   0  0  0  0  0  0  0  0  0  0  0  0
   24.3868   -2.1140    4.6581 C   0  0  0  0  0  0  0  0  0  0  0  0
   22.0396   -2.7040    4.9887 C   0  0  0  0  0  0  0  0  0  0  0  0
   23.0490   -2.0973    4.2407 C   0  0  0  0  0  0  0  0  0  0  0  0
   26.7445   -2.6142    6.1902 H   0  0  0  0  0  0  0  0  0  0  0  0
   20.7827   -2.6016    4.4540 O   0  0  0  0  0  0  0  0  0  0  0  0
   20.7029   -2.2619    3.0740 C   0  0  0  0  0  0  0  0  0  0  0  0
   23.6595   -4.6521    8.9201 C   0  0  0  0  0  0  0  0  0  0  0  0
   23.5284   -3.8160   10.1981 C   0  0  0  0  0  0  0  0  0  0  0  0
   25.8386   -2.4752   11.1692 O   0  0  0  0  0  0  0  0  0  0  0  0
   23.8530   -2.4104   10.0161 N   0  0  0  0  0  0  0  0  0  0  0  0
   24.9865   -1.8458   10.5535 C   0  0  0  0  0  0  0  0  0  0  0  0
   25.1045   -0.3694   10.2880 C   0  0  0  0  0  0  0  0  0  0  0  0
   23.2418   -1.8445    9.4914 H   0  0  0  0  0  0  0  0  0  0  0  0
 11  8  1  0
 11 12  1  0
 15 17  2  0
  1  4  1  0
  1  5  1  0
  1 10  1  0
 16 14  1  0
 16 17  1  0
 16 19  1  0
  2  3  1  0
  2 13  1  0
  2  5  2  0
  3  4  2  0
  3  6  1  0
 13 14  1  0
  4  7  1  0
  6  8  2  0
  7  9  2  0
  8  9  1  0
 17 18  1  0
M  END
> <PUBCHEM_COMPOUND_CID>
896

> <PUBCHEM_CONFORMER_RMSD>
0.6

> <PUBCHEM_CONFORMER_DIVERSEORDER>
1
13
50
55
28
16
42
48
27
15
62
60
65
61
36
4
20
58
41
17
59
21
2
63
47
57
40
56
22
64
54
37
51
7
31
53
26
8
49
39
32
11
5
33
38
52
23
45
43
12
14
9
34
44
35
10
25
29
46
6
30
24
3
19
18

> <PUBCHEM_MMFF94_PARTIAL_CHARGES>
22
1 -0.36
10 0.3
11 -0.15
12 -0.15
13 0.08
14 -0.15
15 0.57
16 0.06
17 0.28
2 -0.57
20 0.15
23 0.27
24 0.15
25 0.15
26 0.15
27 0.37
3 0.03
4 -0.73
5 -0.18
7 0.18
8 -0.15
9 -0.3

> <PUBCHEM_EFFECTIVE_ROTOR_COUNT>
5

> <PUBCHEM_PHARMACOPHORE_FEATURES>
7
1 1 acceptor
1 2 acceptor
1 3 cation
1 3 donor
1 4 donor
5 3 5 6 8 9 rings
6 6 8 11 12 13 14 rings

> <PUBCHEM_HEAVY_ATOM_COUNT>
17

> <PUBCHEM_ATOM_DEF_STEREO_COUNT>
0

> <PUBCHEM_ATOM_UDEF_STEREO_COUNT>
0

> <PUBCHEM_BOND_DEF_STEREO_COUNT>
0

> <PUBCHEM_BOND_UDEF_STEREO_COUNT>
0

> <PUBCHEM_ISOTOPIC_ATOM_COUNT>
0

> <PUBCHEM_COMPONENT_COUNT>
1

> <PUBCHEM_CACTVS_TAUTO_COUNT>
2

> <PUBCHEM_CONFORMER_ID>
0000038000000001

> <PUBCHEM_MMFF94_ENERGY>
32.7119

> <PUBCHEM_FEATURE_SELFOVERLAP>
35.612

> <PUBCHEM_SHAPE_FINGERPRINT>
10967382 1 18410853274190255273
11640471 11 17676780867509025316
13027679 85 18194690495324420133
13140716 1 17978229692519098697
13965767 371 16608554374032828400
1420 336 18266184924512803916
14787075 74 17896612875907719035
14790565 3 18341057316043312793
15006816 218 16754940689043299904
16945 1 18195239147136872059
19591789 44 18120376712306458779
19765921 60 17749382706469569763
20510252 161 18342458093286620745
21141583 151 18124894583888822372
21524375 3 17972887951224859043
2334 1 18410572855759727185
23419403 2 17326855944455494142
23557571 272 18201719608641642450
23559900 14 18342173410755765088
2748010 2 18337115553281152647
353137 74 18409164389875307419
44154327 71 18267028250037128041
526903 126 18410576235872810256
537710 114 18408601466050490037
7832392 63 17187566044572678455
9981440 41 18116712022929254594

> <PUBCHEM_SHAPE_MULTIPOLES>
328.15
4.94
3.77
0.97
2.92
1.2
-0.06
0.99
-1.27
-0.81
0.74
0.39
0.23
-0.66

> <PUBCHEM_SHAPE_SELFOVERLAP>
695.133

> <PUBCHEM_SHAPE_VOLUME>
185.3

> <PUBCHEM_COORDINATE_TYPE>
2
5
10

> <Energy>
0.232708

> <minimizedAffinity>
-6.37723

> <CNNscore>
0.3769409359

> <CNNaffinity>
6.3148837090

> <CNN_VS>
2.3803381920

> <CNNaffinity_variance>
0.3081472218

$$$$
896


 19 20  0  0  0  0  0  0  0  0999 V2000
   25.0232   -0.3370    7.2073 N   0  0  0  0  0  0  0  0  0  0  0  0
   23.7278   -2.1487    7.0744 C   0  0  0  0  0  0  0  0  0  0  0  0
   24.4442   -2.1793    8.3141 C   0  0  0  0  0  0  0  0  0  0  0  0
   25.2523   -1.0460    8.3633 C   0  0  0  0  0  0  0  0  0  0  0  0
   24.1118   -0.9935    6.4214 C   0  0  0  0  0  0  0  0  0  0  0  0
   24.4744   -3.0834    9.3978 C   0  0  0  0  0  0  0  0  0  0  0  0
   26.0984   -0.7711    9.4420 C   0  0  0  0  0  0  0  0  0  0  0  0
   25.3198   -2.8384   10.4845 C   0  0  0  0  0  0  0  0  0  0  0  0
   26.1168   -1.6934   10.4971 C   0  0  0  0  0  0  0  0  0  0  0  0
   25.4520    0.5187    6.9773 H   0  0  0  0  0  0  0  0  0  0  0  0
   25.4494   -3.6452   11.5838 O   0  0  0  0  0  0  0  0  0  0  0  0
   25.1071   -5.0162   11.4120 C   0  0  0  0  0  0  0  0  0  0  0  0
   22.7508   -3.1795    6.5910 C   0  0  0  0  0  0  0  0  0  0  0  0
   21.2972   -2.6948    6.6303 C   0  0  0  0  0  0  0  0  0  0  0  0
   22.6031   -2.8986    4.1142 O   0  0  0  0  0  0  0  0  0  0  0  0
   20.6698   -2.6130    5.3212 N   0  0  0  0  0  0  0  0  0  0  0  0
   21.3959   -2.6935    4.1556 C   0  0  0  0  0  0  0  0  0  0  0  0
   20.5584   -2.5357    2.9154 C   0  0  0  0  0  0  0  0  0  0  0  0
   19.6937   -2.4961    5.2673 H   0  0  0  0  0  0  0  0  0  0  0  0
 11  8  1  0
 11 12  1  0
 15 17  2  0
  1  4  1  0
  1  5  1  0
  1 10  1  0
 16 14  1  0
 16 17  1  0
 16 19  1  0
  2  3  1  0
  2 13  1  0
  2  5  2  0
  3  4  2  0
  3  6  1  0
 13 14  1  0
  4  7  1  0
  6  8  2  0
  7  9  2  0
  8  9  1  0
 17 18  1  0
M  END
> <PUBCHEM_COMPOUND_CID>
896

> <PUBCHEM_CONFORMER_RMSD>
0.6

> <PUBCHEM_CONFORMER_DIVERSEORDER>
1
13
50
55
28
16
42
48
27
15
62
60
65
61
36
4
20
58
41
17
59
21
2
63
47
57
40
56
22
64
54
37
51
7
31
53
26
8
49
39
32
11
5
33
38
52
23
45
43
12
14
9
34
44
35
10
25
29
46
6
30
24
3
19
18

> <PUBCHEM_MMFF94_PARTIAL_CHARGES>
22
1 -0.36
10 0.3
11 -0.15
12 -0.15
13 0.08
14 -0.15
15 0.57
16 0.06
17 0.28
2 -0.57
20 0.15
23 0.27
24 0.15
25 0.15
26 0.15
27 0.37
3 0.03
4 -0.73
5 -0.18
7 0.18
8 -0.15
9 -0.3

> <PUBCHEM_EFFECTIVE_ROTOR_COUNT>
5

> <PUBCHEM_PHARMACOPHORE_FEATURES>
7
1 1 acceptor
1 2 acceptor
1 3 cation
1 3 donor
1 4 donor
5 3 5 6 8 9 rings
6 6 8 11 12 13 14 rings

> <PUBCHEM_HEAVY_ATOM_COUNT>
17

> <PUBCHEM_ATOM_DEF_STEREO_COUNT>
0

> <PUBCHEM_ATOM_UDEF_STEREO_COUNT>
0

> <PUBCHEM_BOND_DEF_STEREO_COUNT>
0

> <PUBCHEM_BOND_UDEF_STEREO_COUNT>
0

> <PUBCHEM_ISOTOPIC_ATOM_COUNT>
0

> <PUBCHEM_COMPONENT_COUNT>
1

> <PUBCHEM_CACTVS_TAUTO_COUNT>
2

> <PUBCHEM_CONFORMER_ID>
0000038000000001

> <PUBCHEM_MMFF94_ENERGY>
32.7119

> <PUBCHEM_FEATURE_SELFOVERLAP>
35.612

> <PUBCHEM_SHAPE_FINGERPRINT>
10967382 1 18410853274190255273
11640471 11 17676780867509025316
13027679 85 18194690495324420133
13140716 1 17978229692519098697
13965767 371 16608554374032828400
1420 336 18266184924512803916
14787075 74 17896612875907719035
14790565 3 18341057316043312793
15006816 218 16754940689043299904
16945 1 18195239147136872059
19591789 44 18120376712306458779
19765921 60 17749382706469569763
20510252 161 18342458093286620745
21141583 151 18124894583888822372
21524375 3 17972887951224859043
2334 1 18410572855759727185
23419403 2 17326855944455494142
23557571 272 18201719608641642450
23559900 14 18342173410755765088
2748010 2 18337115553281152647
353137 74 18409164389875307419
44154327 71 18267028250037128041
526903 126 18410576235872810256
537710 114 18408601466050490037
7832392 63 17187566044572678455
9981440 41 18116712022929254594

> <PUBCHEM_SHAPE_MULTIPOLES>
328.15
4.94
3.77
0.97
2.92
1.2
-0.06
0.99
-1.27
-0.81
0.74
0.39
0.23
-0.66

> <PUBCHEM_SHAPE_SELFOVERLAP>
695.133

> <PUBCHEM_SHAPE_VOLUME>
185.3

> <PUBCHEM_COORDINATE_TYPE>
2
5
10

> <Energy>
0.232708

> <minimizedAffinity>
-6.49872

> <CNNscore>
0.3507932127

> <CNNaffinity>
6.4608860016

> <CNN_VS>
2.2664349079

> <CNNaffinity_variance>
0.5596504211

$$$$
