2519


 14 15  0  0  0  0  0  0  0  0999 V2000
   22.4578    2.4715    9.3174 O   0  0  0  0  0  0  0  0  0  0  0  0
   26.3850    4.6687   10.4058 O   0  0  0  0  0  0  0  0  0  0  0  0
   25.3540    5.2232    8.4221 N   0  0  0  0  0  0  0  0  0  0  0  0
   22.4555    4.1274    6.8274 N   0  0  0  0  0  0  0  0  0  0  0  0
   24.4314    3.5625    9.8838 N   0  0  0  0  0  0  0  0  0  0  0  0
   24.0554    5.6102    6.3912 N   0  0  0  0  0  0  0  0  0  0  0  0
   23.3265    4.0767    7.8775 C   0  0  0  0  0  0  0  0  0  0  0  0
   24.2903    4.9916    7.5815 C   0  0  0  0  0  0  0  0  0  0  0  0
   23.3332    3.2927    9.0616 C   0  0  0  0  0  0  0  0  0  0  0  0
   25.4517    4.5013    9.6144 C   0  0  0  0  0  0  0  0  0  0  0  0
   22.9361    5.0672    5.9542 C   0  0  0  0  0  0  0  0  0  0  0  0
   26.3592    6.2094    8.0658 C   0  0  0  0  0  0  0  0  0  0  0  0
   21.2569    3.3458    6.6609 C   0  0  0  0  0  0  0  0  0  0  0  0
   24.5454    2.8215   11.1252 C   0  0  0  0  0  0  0  0  0  0  0  0
  1  9  2  0
  2 10  2  0
  3  8  1  0
  3 10  1  0
  3 12  1  0
  4  7  1  0
  4 11  1  0
  4 13  1  0
  5  9  1  0
  5 10  1  0
  5 14  1  0
  6  8  1  0
  6 11  2  0
  7  8  2  0
  7  9  1  0
M  END
> <PUBCHEM_COMPOUND_CID>
2519

> <PUBCHEM_CONFORMER_RMSD>
0.4

> <PUBCHEM_CONFORMER_DIVERSEORDER>
1

> <PUBCHEM_MMFF94_PARTIAL_CHARGES>
15
1 -0.57
10 0.69
11 0.04
12 0.3
13 0.26
14 0.3
15 0.15
2 -0.57
3 -0.42
4 0.05
5 -0.42
6 -0.57
7 -0.24
8 0.29
9 0.71

> <PUBCHEM_EFFECTIVE_ROTOR_COUNT>
0

> <PUBCHEM_PHARMACOPHORE_FEATURES>
5
1 1 acceptor
1 2 acceptor
3 4 6 11 cation
5 4 6 7 8 11 rings
6 3 5 7 8 9 10 rings

> <PUBCHEM_HEAVY_ATOM_COUNT>
14

> <PUBCHEM_ATOM_DEF_STEREO_COUNT>
0

> <PUBCHEM_ATOM_UDEF_STEREO_COUNT>
0

> <PUBCHEM_BOND_DEF_STEREO_COUNT>
0

> <PUBCHEM_BOND_UDEF_STEREO_COUNT>
0

> <PUBCHEM_ISOTOPIC_ATOM_COUNT>
0

> <PUBCHEM_COMPONENT_COUNT>
1

> <PUBCHEM_CACTVS_TAUTO_COUNT>
1

> <PUBCHEM_CONFORMER_ID>
000009D700000001

> <PUBCHEM_MMFF94_ENERGY>
22.901

> <PUBCHEM_FEATURE_SELFOVERLAP>
25.487

> <PUBCHEM_SHAPE_FINGERPRINT>
10967382 1 18338799025773621285
11132069 177 18339075025094499008
12524768 44 18342463625094026902
13140716 1 17978511158789908153
16945 1 18338517550775811621
193761 8 15816500986559935910
20588541 1 18339082691204868851
21501502 16 18338796715286957384
22802520 49 18128840606503503494
2334 1 18338516344016692929
23402539 116 18270382932679789735
23552423 10 18262240993325675966
23559900 14 18199193898169584358
241688 4 18266458702623303353
2748010 2 18266180539182415717
5084963 1 17698433339235542986
528886 8 18267580380709240570
53812653 166 18198902694142226312
66348 1 18339079396917369615

> <PUBCHEM_SHAPE_MULTIPOLES>
256.45
4.01
2.83
0.58
0.71
0.08
0
-0.48
0
-0.81
0
0.01
0
0

> <PUBCHEM_SHAPE_SELFOVERLAP>
550.88

> <PUBCHEM_SHAPE_VOLUME>
143.9

> <PUBCHEM_COORDINATE_TYPE>
2
5
10

> <Energy>
-122.511

> <minimizedAffinity>
-5.56554

> <CNNscore>
0.5732595921

> <CNNaffinity>
4.8409342766

> <CNN_VS>
2.7751119137

> <CNNaffinity_variance>
0.2256340384

$$$$
2519


 14 15  0  0  0  0  0  0  0  0999 V2000
   25.1865    5.4571    6.3261 O   0  0  0  0  0  0  0  0  0  0  0  0
   26.4690    3.5054   10.3238 O   0  0  0  0  0  0  0  0  0  0  0  0
   24.3256    3.1185    9.5744 N   0  0  0  0  0  0  0  0  0  0  0  0
   22.5371    4.1411    6.7636 N   0  0  0  0  0  0  0  0  0  0  0  0
   25.8517    4.4869    8.3316 N   0  0  0  0  0  0  0  0  0  0  0  0
   22.1235    2.8786    8.5478 N   0  0  0  0  0  0  0  0  0  0  0  0
   23.6820    4.1358    7.5074 C   0  0  0  0  0  0  0  0  0  0  0  0
   23.3975    3.3582    8.5881 C   0  0  0  0  0  0  0  0  0  0  0  0
   24.9421    4.7587    7.3052 C   0  0  0  0  0  0  0  0  0  0  0  0
   25.5974    3.6873    9.4678 C   0  0  0  0  0  0  0  0  0  0  0  0
   21.6231    3.3689    7.4308 C   0  0  0  0  0  0  0  0  0  0  0  0
   23.9783    2.2819   10.7099 C   0  0  0  0  0  0  0  0  0  0  0  0
   22.3221    4.8252    5.5141 C   0  0  0  0  0  0  0  0  0  0  0  0
   27.1760    5.0697    8.2340 C   0  0  0  0  0  0  0  0  0  0  0  0
  1  9  2  0
  2 10  2  0
  3  8  1  0
  3 10  1  0
  3 12  1  0
  4  7  1  0
  4 11  1  0
  4 13  1  0
  5  9  1  0
  5 10  1  0
  5 14  1  0
  6  8  1  0
  6 11  2  0
  7  8  2  0
  7  9  1  0
M  END
> <PUBCHEM_COMPOUND_CID>
2519

> <PUBCHEM_CONFORMER_RMSD>
0.4

> <PUBCHEM_CONFORMER_DIVERSEORDER>
1

> <PUBCHEM_MMFF94_PARTIAL_CHARGES>
15
1 -0.57
10 0.69
11 0.04
12 0.3
13 0.26
14 0.3
15 0.15
2 -0.57
3 -0.42
4 0.05
5 -0.42
6 -0.57
7 -0.24
8 0.29
9 0.71

> <PUBCHEM_EFFECTIVE_ROTOR_COUNT>
0

> <PUBCHEM_PHARMACOPHORE_FEATURES>
5
1 1 acceptor
1 2 acceptor
3 4 6 11 cation
5 4 6 7 8 11 rings
6 3 5 7 8 9 10 rings

> <PUBCHEM_HEAVY_ATOM_COUNT>
14

> <PUBCHEM_ATOM_DEF_STEREO_COUNT>
0

> <PUBCHEM_ATOM_UDEF_STEREO_COUNT>
0

> <PUBCHEM_BOND_DEF_STEREO_COUNT>
0

> <PUBCHEM_BOND_UDEF_STEREO_COUNT>
0

> <PUBCHEM_ISOTOPIC_ATOM_COUNT>
0

> <PUBCHEM_COMPONENT_COUNT>
1

> <PUBCHEM_CACTVS_TAUTO_COUNT>
1

> <PUBCHEM_CONFORMER_ID>
000009D700000001

> <PUBCHEM_MMFF94_ENERGY>
22.901

> <PUBCHEM_FEATURE_SELFOVERLAP>
25.487

> <PUBCHEM_SHAPE_FINGERPRINT>
10967382 1 18338799025773621285
11132069 177 18339075025094499008
12524768 44 18342463625094026902
13140716 1 17978511158789908153
16945 1 18338517550775811621
193761 8 15816500986559935910
20588541 1 18339082691204868851
21501502 16 18338796715286957384
22802520 49 18128840606503503494
2334 1 18338516344016692929
23402539 116 18270382932679789735
23552423 10 18262240993325675966
23559900 14 18199193898169584358
241688 4 18266458702623303353
2748010 2 18266180539182415717
5084963 1 17698433339235542986
528886 8 18267580380709240570
53812653 166 18198902694142226312
66348 1 18339079396917369615

> <PUBCHEM_SHAPE_MULTIPOLES>
256.45
4.01
2.83
0.58
0.71
0.08
0
-0.48
0
-0.81
0
0.01
0
0

> <PUBCHEM_SHAPE_SELFOVERLAP>
550.88

> <PUBCHEM_SHAPE_VOLUME>
143.9

> <PUBCHEM_COORDINATE_TYPE>
2
5
10

> <Energy>
-122.511

> <minimizedAffinity>
-5.49534

> <CNNscore>
0.5724743605

> <CNNaffinity>
4.8489532471

> <CNN_VS>
2.7759013176

> <CNNaffinity_variance>
0.3358600140

$$$$
2519


 14 15  0  0  0  0  0  0  0  0999 V2000
   23.5372    5.3759    5.6998 O   0  0  0  0  0  0  0  0  0  0  0  0
   21.6503    2.0051    8.2519 O   0  0  0  0  0  0  0  0  0  0  0  0
   23.1898    3.3888    9.2624 N   0  0  0  0  0  0  0  0  0  0  0  0
   25.0697    6.1087    8.1608 N   0  0  0  0  0  0  0  0  0  0  0  0
   22.5771    3.6762    6.9629 N   0  0  0  0  0  0  0  0  0  0  0  0
   24.8412    4.9942   10.0725 N   0  0  0  0  0  0  0  0  0  0  0  0
   24.1535    5.1238    7.9272 C   0  0  0  0  0  0  0  0  0  0  0  0
   24.0366    4.4620    9.1112 C   0  0  0  0  0  0  0  0  0  0  0  0
   23.4234    4.7708    6.7614 C   0  0  0  0  0  0  0  0  0  0  0  0
   22.4264    2.9627    8.1724 C   0  0  0  0  0  0  0  0  0  0  0  0
   25.4575    5.9918    9.4696 C   0  0  0  0  0  0  0  0  0  0  0  0
   23.0969    2.7126   10.5446 C   0  0  0  0  0  0  0  0  0  0  0  0
   25.5440    7.0886    7.2174 C   0  0  0  0  0  0  0  0  0  0  0  0
   21.7779    3.2233    5.8407 C   0  0  0  0  0  0  0  0  0  0  0  0
  1  9  2  0
  2 10  2  0
  3  8  1  0
  3 10  1  0
  3 12  1  0
  4  7  1  0
  4 11  1  0
  4 13  1  0
  5  9  1  0
  5 10  1  0
  5 14  1  0
  6  8  1  0
  6 11  2  0
  7  8  2  0
  7  9  1  0
M  END
> <PUBCHEM_COMPOUND_CID>
2519

> <PUBCHEM_CONFORMER_RMSD>
0.4

> <PUBCHEM_CONFORMER_DIVERSEORDER>
1

> <PUBCHEM_MMFF94_PARTIAL_CHARGES>
15
1 -0.57
10 0.69
11 0.04
12 0.3
13 0.26
14 0.3
15 0.15
2 -0.57
3 -0.42
4 0.05
5 -0.42
6 -0.57
7 -0.24
8 0.29
9 0.71

> <PUBCHEM_EFFECTIVE_ROTOR_COUNT>
0

> <PUBCHEM_PHARMACOPHORE_FEATURES>
5
1 1 acceptor
1 2 acceptor
3 4 6 11 cation
5 4 6 7 8 11 rings
6 3 5 7 8 9 10 rings

> <PUBCHEM_HEAVY_ATOM_COUNT>
14

> <PUBCHEM_ATOM_DEF_STEREO_COUNT>
0

> <PUBCHEM_ATOM_UDEF_STEREO_COUNT>
0

> <PUBCHEM_BOND_DEF_STEREO_COUNT>
0

> <PUBCHEM_BOND_UDEF_STEREO_COUNT>
0

> <PUBCHEM_ISOTOPIC_ATOM_COUNT>
0

> <PUBCHEM_COMPONENT_COUNT>
1

> <PUBCHEM_CACTVS_TAUTO_COUNT>
1

> <PUBCHEM_CONFORMER_ID>
000009D700000001

> <PUBCHEM_MMFF94_ENERGY>
22.901

> <PUBCHEM_FEATURE_SELFOVERLAP>
25.487

> <PUBCHEM_SHAPE_FINGERPRINT>
10967382 1 18338799025773621285
11132069 177 18339075025094499008
12524768 44 18342463625094026902
13140716 1 17978511158789908153
16945 1 18338517550775811621
193761 8 15816500986559935910
20588541 1 18339082691204868851
21501502 16 18338796715286957384
22802520 49 18128840606503503494
2334 1 18338516344016692929
23402539 116 18270382932679789735
23552423 10 18262240993325675966
23559900 14 18199193898169584358
241688 4 18266458702623303353
2748010 2 18266180539182415717
5084963 1 17698433339235542986
528886 8 18267580380709240570
53812653 166 18198902694142226312
66348 1 18339079396917369615

> <PUBCHEM_SHAPE_MULTIPOLES>
256.45
4.01
2.83
0.58
0.71
0.08
0
-0.48
0
-0.81
0
0.01
0
0

> <PUBCHEM_SHAPE_SELFOVERLAP>
550.88

> <PUBCHEM_SHAPE_VOLUME>
143.9

> <PUBCHEM_COORDINATE_TYPE>
2
5
10

> <Energy>
-122.511

> <minimizedAffinity>
-5.57065

> <CNNscore>
0.4534134567

> <CNNaffinity>
4.9806103706

> <CNN_VS>
2.2582757473

> <CNNaffinity_variance>
0.1665772796

$$$$
2519


 14 15  0  0  0  0  0  0  0  0999 V2000
   22.5615    2.6020    6.3705 O   0  0  0  0  0  0  0  0  0  0  0  0
   24.5313    6.7260    7.1109 O   0  0  0  0  0  0  0  0  0  0  0  0
   24.3578    5.2787    8.8943 N   0  0  0  0  0  0  0  0  0  0  0  0
   23.0628    2.0651    9.2692 N   0  0  0  0  0  0  0  0  0  0  0  0
   23.5472    4.6786    6.7198 N   0  0  0  0  0  0  0  0  0  0  0  0
   24.0447    3.5563   10.5961 N   0  0  0  0  0  0  0  0  0  0  0  0
   23.3368    3.1534    8.4917 C   0  0  0  0  0  0  0  0  0  0  0  0
   23.9345    4.0446    9.3295 C   0  0  0  0  0  0  0  0  0  0  0  0
   23.1008    3.4142    7.1159 C   0  0  0  0  0  0  0  0  0  0  0  0
   24.1708    5.6315    7.5553 C   0  0  0  0  0  0  0  0  0  0  0  0
   23.5078    2.3537   10.5323 C   0  0  0  0  0  0  0  0  0  0  0  0
   24.9912    6.1980    9.8237 C   0  0  0  0  0  0  0  0  0  0  0  0
   22.4275    0.8420    8.8500 C   0  0  0  0  0  0  0  0  0  0  0  0
   23.3607    5.0581    5.3326 C   0  0  0  0  0  0  0  0  0  0  0  0
  1  9  2  0
  2 10  2  0
  3  8  1  0
  3 10  1  0
  3 12  1  0
  4  7  1  0
  4 11  1  0
  4 13  1  0
  5  9  1  0
  5 10  1  0
  5 14  1  0
  6  8  1  0
  6 11  2  0
  7  8  2  0
  7  9  1  0
M  END
> <PUBCHEM_COMPOUND_CID>
2519

> <PUBCHEM_CONFORMER_RMSD>
0.4

> <PUBCHEM_CONFORMER_DIVERSEORDER>
1

> <PUBCHEM_MMFF94_PARTIAL_CHARGES>
15
1 -0.57
10 0.69
11 0.04
12 0.3
13 0.26
14 0.3
15 0.15
2 -0.57
3 -0.42
4 0.05
5 -0.42
6 -0.57
7 -0.24
8 0.29
9 0.71

> <PUBCHEM_EFFECTIVE_ROTOR_COUNT>
0

> <PUBCHEM_PHARMACOPHORE_FEATURES>
5
1 1 acceptor
1 2 acceptor
3 4 6 11 cation
5 4 6 7 8 11 rings
6 3 5 7 8 9 10 rings

> <PUBCHEM_HEAVY_ATOM_COUNT>
14

> <PUBCHEM_ATOM_DEF_STEREO_COUNT>
0

> <PUBCHEM_ATOM_UDEF_STEREO_COUNT>
0

> <PUBCHEM_BOND_DEF_STEREO_COUNT>
0

> <PUBCHEM_BOND_UDEF_STEREO_COUNT>
0

> <PUBCHEM_ISOTOPIC_ATOM_COUNT>
0

> <PUBCHEM_COMPONENT_COUNT>
1

> <PUBCHEM_CACTVS_TAUTO_COUNT>
1

> <PUBCHEM_CONFORMER_ID>
000009D700000001

> <PUBCHEM_MMFF94_ENERGY>
22.901

> <PUBCHEM_FEATURE_SELFOVERLAP>
25.487

> <PUBCHEM_SHAPE_FINGERPRINT>
10967382 1 18338799025773621285
11132069 177 18339075025094499008
12524768 44 18342463625094026902
13140716 1 17978511158789908153
16945 1 18338517550775811621
193761 8 15816500986559935910
20588541 1 18339082691204868851
21501502 16 18338796715286957384
22802520 49 18128840606503503494
2334 1 18338516344016692929
23402539 116 18270382932679789735
23552423 10 18262240993325675966
23559900 14 18199193898169584358
241688 4 18266458702623303353
2748010 2 18266180539182415717
5084963 1 17698433339235542986
528886 8 18267580380709240570
53812653 166 18198902694142226312
66348 1 18339079396917369615

> <PUBCHEM_SHAPE_MULTIPOLES>
256.45
4.01
2.83
0.58
0.71
0.08
0
-0.48
0
-0.81
0
0.01
0
0

> <PUBCHEM_SHAPE_SELFOVERLAP>
550.88

> <PUBCHEM_SHAPE_VOLUME>
143.9

> <PUBCHEM_COORDINATE_TYPE>
2
5
10

> <Energy>
-122.511

> <minimizedAffinity>
-5.53355

> <CNNscore>
0.4444111884

> <CNNaffinity>
4.9328064919

> <CNN_VS>
2.1921944618

> <CNNaffinity_variance>
0.0633561239

$$$$
2519


 14 15  0  0  0  0  0  0  0  0999 V2000
   24.6632    2.2766   10.3944 O   0  0  0  0  0  0  0  0  0  0  0  0
   26.0170    6.3284    8.6095 O   0  0  0  0  0  0  0  0  0  0  0  0
   24.2648    5.2337    7.5912 N   0  0  0  0  0  0  0  0  0  0  0  0
   22.6156    2.2278    8.2156 N   0  0  0  0  0  0  0  0  0  0  0  0
   25.3597    4.3129    9.5145 N   0  0  0  0  0  0  0  0  0  0  0  0
   22.4425    3.8636    6.7180 N   0  0  0  0  0  0  0  0  0  0  0  0
   23.5805    3.1418    8.5279 C   0  0  0  0  0  0  0  0  0  0  0  0
   23.4493    4.1262    7.5966 C   0  0  0  0  0  0  0  0  0  0  0  0
   24.5553    3.1702    9.5601 C   0  0  0  0  0  0  0  0  0  0  0  0
   25.2571    5.3556    8.5673 C   0  0  0  0  0  0  0  0  0  0  0  0
   21.9532    2.7056    7.1157 C   0  0  0  0  0  0  0  0  0  0  0  0
   24.0886    6.2598    6.5782 C   0  0  0  0  0  0  0  0  0  0  0  0
   22.3392    0.9938    8.9056 C   0  0  0  0  0  0  0  0  0  0  0  0
   26.3933    4.4536   10.5220 C   0  0  0  0  0  0  0  0  0  0  0  0
  1  9  2  0
  2 10  2  0
  3  8  1  0
  3 10  1  0
  3 12  1  0
  4  7  1  0
  4 11  1  0
  4 13  1  0
  5  9  1  0
  5 10  1  0
  5 14  1  0
  6  8  1  0
  6 11  2  0
  7  8  2  0
  7  9  1  0
M  END
> <PUBCHEM_COMPOUND_CID>
2519

> <PUBCHEM_CONFORMER_RMSD>
0.4

> <PUBCHEM_CONFORMER_DIVERSEORDER>
1

> <PUBCHEM_MMFF94_PARTIAL_CHARGES>
15
1 -0.57
10 0.69
11 0.04
12 0.3
13 0.26
14 0.3
15 0.15
2 -0.57
3 -0.42
4 0.05
5 -0.42
6 -0.57
7 -0.24
8 0.29
9 0.71

> <PUBCHEM_EFFECTIVE_ROTOR_COUNT>
0

> <PUBCHEM_PHARMACOPHORE_FEATURES>
5
1 1 acceptor
1 2 acceptor
3 4 6 11 cation
5 4 6 7 8 11 rings
6 3 5 7 8 9 10 rings

> <PUBCHEM_HEAVY_ATOM_COUNT>
14

> <PUBCHEM_ATOM_DEF_STEREO_COUNT>
0

> <PUBCHEM_ATOM_UDEF_STEREO_COUNT>
0

> <PUBCHEM_BOND_DEF_STEREO_COUNT>
0

> <PUBCHEM_BOND_UDEF_STEREO_COUNT>
0

> <PUBCHEM_ISOTOPIC_ATOM_COUNT>
0

> <PUBCHEM_COMPONENT_COUNT>
1

> <PUBCHEM_CACTVS_TAUTO_COUNT>
1

> <PUBCHEM_CONFORMER_ID>
000009D700000001

> <PUBCHEM_MMFF94_ENERGY>
22.901

> <PUBCHEM_FEATURE_SELFOVERLAP>
25.487

> <PUBCHEM_SHAPE_FINGERPRINT>
10967382 1 18338799025773621285
11132069 177 18339075025094499008
12524768 44 18342463625094026902
13140716 1 17978511158789908153
16945 1 18338517550775811621
193761 8 15816500986559935910
20588541 1 18339082691204868851
21501502 16 18338796715286957384
22802520 49 18128840606503503494
2334 1 18338516344016692929
23402539 116 18270382932679789735
23552423 10 18262240993325675966
23559900 14 18199193898169584358
241688 4 18266458702623303353
2748010 2 18266180539182415717
5084963 1 17698433339235542986
528886 8 18267580380709240570
53812653 166 18198902694142226312
66348 1 18339079396917369615

> <PUBCHEM_SHAPE_MULTIPOLES>
256.45
4.01
2.83
0.58
0.71
0.08
0
-0.48
0
-0.81
0
0.01
0
0

> <PUBCHEM_SHAPE_SELFOVERLAP>
550.88

> <PUBCHEM_SHAPE_VOLUME>
143.9

> <PUBCHEM_COORDINATE_TYPE>
2
5
10

> <Energy>
-122.511

> <minimizedAffinity>
-5.26601

> <CNNscore>
0.4236708283

> <CNNaffinity>
4.7077913284

> <CNN_VS>
1.9945538044

> <CNNaffinity_variance>
0.3696385324

$$$$
2519


 14 15  0  0  0  0  0  0  0  0999 V2000
   22.2837    2.2864    9.1557 O   0  0  0  0  0  0  0  0  0  0  0  0
   26.7379    3.3047    9.9032 O   0  0  0  0  0  0  0  0  0  0  0  0
   25.9041    3.6113    7.7780 N   0  0  0  0  0  0  0  0  0  0  0  0
   22.7726    3.1259    6.3277 N   0  0  0  0  0  0  0  0  0  0  0  0
   24.5181    2.7913    9.5535 N   0  0  0  0  0  0  0  0  0  0  0  0
   24.7616    3.8396    5.6324 N   0  0  0  0  0  0  0  0  0  0  0  0
   23.6009    3.0792    7.4119 C   0  0  0  0  0  0  0  0  0  0  0  0
   24.8056    3.5198    6.9555 C   0  0  0  0  0  0  0  0  0  0  0  0
   23.3748    2.6813    8.7563 C   0  0  0  0  0  0  0  0  0  0  0  0
   25.7845    3.2426    9.1204 C   0  0  0  0  0  0  0  0  0  0  0  0
   23.5168    3.5910    5.2756 C   0  0  0  0  0  0  0  0  0  0  0  0
   27.1700    4.0873    7.2479 C   0  0  0  0  0  0  0  0  0  0  0  0
   21.3802    2.7586    6.2879 C   0  0  0  0  0  0  0  0  0  0  0  0
   24.4087    2.4132   10.9493 C   0  0  0  0  0  0  0  0  0  0  0  0
  1  9  2  0
  2 10  2  0
  3  8  1  0
  3 10  1  0
  3 12  1  0
  4  7  1  0
  4 11  1  0
  4 13  1  0
  5  9  1  0
  5 10  1  0
  5 14  1  0
  6  8  1  0
  6 11  2  0
  7  8  2  0
  7  9  1  0
M  END
> <PUBCHEM_COMPOUND_CID>
2519

> <PUBCHEM_CONFORMER_RMSD>
0.4

> <PUBCHEM_CONFORMER_DIVERSEORDER>
1

> <PUBCHEM_MMFF94_PARTIAL_CHARGES>
15
1 -0.57
10 0.69
11 0.04
12 0.3
13 0.26
14 0.3
15 0.15
2 -0.57
3 -0.42
4 0.05
5 -0.42
6 -0.57
7 -0.24
8 0.29
9 0.71

> <PUBCHEM_EFFECTIVE_ROTOR_COUNT>
0

> <PUBCHEM_PHARMACOPHORE_FEATURES>
5
1 1 acceptor
1 2 acceptor
3 4 6 11 cation
5 4 6 7 8 11 rings
6 3 5 7 8 9 10 rings

> <PUBCHEM_HEAVY_ATOM_COUNT>
14

> <PUBCHEM_ATOM_DEF_STEREO_COUNT>
0

> <PUBCHEM_ATOM_UDEF_STEREO_COUNT>
0

> <PUBCHEM_BOND_DEF_STEREO_COUNT>
0

> <PUBCHEM_BOND_UDEF_STEREO_COUNT>
0

> <PUBCHEM_ISOTOPIC_ATOM_COUNT>
0

> <PUBCHEM_COMPONENT_COUNT>
1

> <PUBCHEM_CACTVS_TAUTO_COUNT>
1

> <PUBCHEM_CONFORMER_ID>
000009D700000001

> <PUBCHEM_MMFF94_ENERGY>
22.901

> <PUBCHEM_FEATURE_SELFOVERLAP>
25.487

> <PUBCHEM_SHAPE_FINGERPRINT>
10967382 1 18338799025773621285
11132069 177 18339075025094499008
12524768 44 18342463625094026902
13140716 1 17978511158789908153
16945 1 18338517550775811621
193761 8 15816500986559935910
20588541 1 18339082691204868851
21501502 16 18338796715286957384
22802520 49 18128840606503503494
2334 1 18338516344016692929
23402539 116 18270382932679789735
23552423 10 18262240993325675966
23559900 14 18199193898169584358
241688 4 18266458702623303353
2748010 2 18266180539182415717
5084963 1 17698433339235542986
528886 8 18267580380709240570
53812653 166 18198902694142226312
66348 1 18339079396917369615

> <PUBCHEM_SHAPE_MULTIPOLES>
256.45
4.01
2.83
0.58
0.71
0.08
0
-0.48
0
-0.81
0
0.01
0
0

> <PUBCHEM_SHAPE_SELFOVERLAP>
550.88

> <PUBCHEM_SHAPE_VOLUME>
143.9

> <PUBCHEM_COORDINATE_TYPE>
2
5
10

> <Energy>
-122.511

> <minimizedAffinity>
-5.55861

> <CNNscore>
0.3845199049

> <CNNaffinity>
5.0801086426

> <CNN_VS>
1.9534028769

> <CNNaffinity_variance>
0.2817848623

$$$$
2519


 14 15  0  0  0  0  0  0  0  0999 V2000
   23.7708    4.5859    5.8874 O   0  0  0  0  0  0  0  0  0  0  0  0
   22.1773    1.9700    9.3592 O   0  0  0  0  0  0  0  0  0  0  0  0
   24.2270    2.9857    9.6281 N   0  0  0  0  0  0  0  0  0  0  0  0
   26.1636    5.0692    7.6146 N   0  0  0  0  0  0  0  0  0  0  0  0
   22.9514    3.2674    7.6183 N   0  0  0  0  0  0  0  0  0  0  0  0
   26.3594    4.1745    9.6419 N   0  0  0  0  0  0  0  0  0  0  0  0
   25.0331    4.3327    7.8231 C   0  0  0  0  0  0  0  0  0  0  0  0
   25.1830    3.7999    9.0670 C   0  0  0  0  0  0  0  0  0  0  0  0
   23.8946    4.0992    7.0072 C   0  0  0  0  0  0  0  0  0  0  0  0
   23.0678    2.6948    8.9042 C   0  0  0  0  0  0  0  0  0  0  0  0
   26.9356    4.9441    8.7395 C   0  0  0  0  0  0  0  0  0  0  0  0
   24.4291    2.4394   10.9588 C   0  0  0  0  0  0  0  0  0  0  0  0
   26.4908    5.8352    6.4392 C   0  0  0  0  0  0  0  0  0  0  0  0
   21.7427    2.9576    6.8793 C   0  0  0  0  0  0  0  0  0  0  0  0
  1  9  2  0
  2 10  2  0
  3  8  1  0
  3 10  1  0
  3 12  1  0
  4  7  1  0
  4 11  1  0
  4 13  1  0
  5  9  1  0
  5 10  1  0
  5 14  1  0
  6  8  1  0
  6 11  2  0
  7  8  2  0
  7  9  1  0
M  END
> <PUBCHEM_COMPOUND_CID>
2519

> <PUBCHEM_CONFORMER_RMSD>
0.4

> <PUBCHEM_CONFORMER_DIVERSEORDER>
1

> <PUBCHEM_MMFF94_PARTIAL_CHARGES>
15
1 -0.57
10 0.69
11 0.04
12 0.3
13 0.26
14 0.3
15 0.15
2 -0.57
3 -0.42
4 0.05
5 -0.42
6 -0.57
7 -0.24
8 0.29
9 0.71

> <PUBCHEM_EFFECTIVE_ROTOR_COUNT>
0

> <PUBCHEM_PHARMACOPHORE_FEATURES>
5
1 1 acceptor
1 2 acceptor
3 4 6 11 cation
5 4 6 7 8 11 rings
6 3 5 7 8 9 10 rings

> <PUBCHEM_HEAVY_ATOM_COUNT>
14

> <PUBCHEM_ATOM_DEF_STEREO_COUNT>
0

> <PUBCHEM_ATOM_UDEF_STEREO_COUNT>
0

> <PUBCHEM_BOND_DEF_STEREO_COUNT>
0

> <PUBCHEM_BOND_UDEF_STEREO_COUNT>
0

> <PUBCHEM_ISOTOPIC_ATOM_COUNT>
0

> <PUBCHEM_COMPONENT_COUNT>
1

> <PUBCHEM_CACTVS_TAUTO_COUNT>
1

> <PUBCHEM_CONFORMER_ID>
000009D700000001

> <PUBCHEM_MMFF94_ENERGY>
22.901

> <PUBCHEM_FEATURE_SELFOVERLAP>
25.487

> <PUBCHEM_SHAPE_FINGERPRINT>
10967382 1 18338799025773621285
11132069 177 18339075025094499008
12524768 44 18342463625094026902
13140716 1 17978511158789908153
16945 1 18338517550775811621
193761 8 15816500986559935910
20588541 1 18339082691204868851
21501502 16 18338796715286957384
22802520 49 18128840606503503494
2334 1 18338516344016692929
23402539 116 18270382932679789735
23552423 10 18262240993325675966
23559900 14 18199193898169584358
241688 4 18266458702623303353
2748010 2 18266180539182415717
5084963 1 17698433339235542986
528886 8 18267580380709240570
53812653 166 18198902694142226312
66348 1 18339079396917369615

> <PUBCHEM_SHAPE_MULTIPOLES>
256.45
4.01
2.83
0.58
0.71
0.08
0
-0.48
0
-0.81
0
0.01
0
0

> <PUBCHEM_SHAPE_SELFOVERLAP>
550.88

> <PUBCHEM_SHAPE_VOLUME>
143.9

> <PUBCHEM_COORDINATE_TYPE>
2
5
10

> <Energy>
-122.511

> <minimizedAffinity>
-5.34779

> <CNNscore>
0.3692570031

> <CNNaffinity>
4.6014575958

> <CNN_VS>
1.6991204023

> <CNNaffinity_variance>
0.6678094864

$$$$
2519


 14 15  0  0  0  0  0  0  0  0999 V2000
   22.2147    2.5215    6.6636 O   0  0  0  0  0  0  0  0  0  0  0  0
   24.2491    2.1722   10.8078 O   0  0  0  0  0  0  0  0  0  0  0  0
   24.6672    4.0611    9.5577 N   0  0  0  0  0  0  0  0  0  0  0  0
   23.6097    5.1556    6.4226 N   0  0  0  0  0  0  0  0  0  0  0  0
   23.2262    2.3252    8.7479 N   0  0  0  0  0  0  0  0  0  0  0  0
   24.9315    5.9455    8.0280 N   0  0  0  0  0  0  0  0  0  0  0  0
   23.6073    4.2227    7.4195 C   0  0  0  0  0  0  0  0  0  0  0  0
   24.4223    4.7333    8.3831 C   0  0  0  0  0  0  0  0  0  0  0  0
   22.9478    2.9708    7.5393 C   0  0  0  0  0  0  0  0  0  0  0  0
   24.0643    2.8190    9.7719 C   0  0  0  0  0  0  0  0  0  0  0  0
   24.4230    6.1784    6.8340 C   0  0  0  0  0  0  0  0  0  0  0  0
   25.5438    4.6443   10.5584 C   0  0  0  0  0  0  0  0  0  0  0  0
   22.8959    5.0863    5.1732 C   0  0  0  0  0  0  0  0  0  0  0  0
   22.6067    1.0355    8.9845 C   0  0  0  0  0  0  0  0  0  0  0  0
  1  9  2  0
  2 10  2  0
  3  8  1  0
  3 10  1  0
  3 12  1  0
  4  7  1  0
  4 11  1  0
  4 13  1  0
  5  9  1  0
  5 10  1  0
  5 14  1  0
  6  8  1  0
  6 11  2  0
  7  8  2  0
  7  9  1  0
M  END
> <PUBCHEM_COMPOUND_CID>
2519

> <PUBCHEM_CONFORMER_RMSD>
0.4

> <PUBCHEM_CONFORMER_DIVERSEORDER>
1

> <PUBCHEM_MMFF94_PARTIAL_CHARGES>
15
1 -0.57
10 0.69
11 0.04
12 0.3
13 0.26
14 0.3
15 0.15
2 -0.57
3 -0.42
4 0.05
5 -0.42
6 -0.57
7 -0.24
8 0.29
9 0.71

> <PUBCHEM_EFFECTIVE_ROTOR_COUNT>
0

> <PUBCHEM_PHARMACOPHORE_FEATURES>
5
1 1 acceptor
1 2 acceptor
3 4 6 11 cation
5 4 6 7 8 11 rings
6 3 5 7 8 9 10 rings

> <PUBCHEM_HEAVY_ATOM_COUNT>
14

> <PUBCHEM_ATOM_DEF_STEREO_COUNT>
0

> <PUBCHEM_ATOM_UDEF_STEREO_COUNT>
0

> <PUBCHEM_BOND_DEF_STEREO_COUNT>
0

> <PUBCHEM_BOND_UDEF_STEREO_COUNT>
0

> <PUBCHEM_ISOTOPIC_ATOM_COUNT>
0

> <PUBCHEM_COMPONENT_COUNT>
1

> <PUBCHEM_CACTVS_TAUTO_COUNT>
1

> <PUBCHEM_CONFORMER_ID>
000009D700000001

> <PUBCHEM_MMFF94_ENERGY>
22.901

> <PUBCHEM_FEATURE_SELFOVERLAP>
25.487

> <PUBCHEM_SHAPE_FINGERPRINT>
10967382 1 18338799025773621285
11132069 177 18339075025094499008
12524768 44 18342463625094026902
13140716 1 17978511158789908153
16945 1 18338517550775811621
193761 8 15816500986559935910
20588541 1 18339082691204868851
21501502 16 18338796715286957384
22802520 49 18128840606503503494
2334 1 18338516344016692929
23402539 116 18270382932679789735
23552423 10 18262240993325675966
23559900 14 18199193898169584358
241688 4 18266458702623303353
2748010 2 18266180539182415717
5084963 1 17698433339235542986
528886 8 18267580380709240570
53812653 166 18198902694142226312
66348 1 18339079396917369615

> <PUBCHEM_SHAPE_MULTIPOLES>
256.45
4.01
2.83
0.58
0.71
0.08
0
-0.48
0
-0.81
0
0.01
0
0

> <PUBCHEM_SHAPE_SELFOVERLAP>
550.88

> <PUBCHEM_SHAPE_VOLUME>
143.9

> <PUBCHEM_COORDINATE_TYPE>
2
5
10

> <Energy>
-122.511

> <minimizedAffinity>
-5.40233

> <CNNscore>
0.3551345766

> <CNNaffinity>
4.7560114861

> <CNN_VS>
1.6890240908

> <CNNaffinity_variance>
0.2218544483

$$$$
2519


 14 15  0  0  0  0  0  0  0  0999 V2000
   25.5686    5.2936    9.9842 O   0  0  0  0  0  0  0  0  0  0  0  0
   22.7604    1.6175    9.7966 O   0  0  0  0  0  0  0  0  0  0  0  0
   22.7924    3.0427    7.9874 N   0  0  0  0  0  0  0  0  0  0  0  0
   24.5363    5.9712    7.2608 N   0  0  0  0  0  0  0  0  0  0  0  0
   24.1655    3.4411    9.9114 N   0  0  0  0  0  0  0  0  0  0  0  0
   23.0270    4.7110    6.2203 N   0  0  0  0  0  0  0  0  0  0  0  0
   24.2494    4.9362    8.1037 C   0  0  0  0  0  0  0  0  0  0  0  0
   23.3263    4.1864    7.4410 C   0  0  0  0  0  0  0  0  0  0  0  0
   24.7356    4.6097    9.3973 C   0  0  0  0  0  0  0  0  0  0  0  0
   23.2066    2.6356    9.2583 C   0  0  0  0  0  0  0  0  0  0  0  0
   23.7745    5.7938    6.1360 C   0  0  0  0  0  0  0  0  0  0  0  0
   21.8100    2.2733    7.2439 C   0  0  0  0  0  0  0  0  0  0  0  0
   25.4621    7.0487    7.4999 C   0  0  0  0  0  0  0  0  0  0  0  0
   24.5865    3.0058   11.2291 C   0  0  0  0  0  0  0  0  0  0  0  0
  1  9  2  0
  2 10  2  0
  3  8  1  0
  3 10  1  0
  3 12  1  0
  4  7  1  0
  4 11  1  0
  4 13  1  0
  5  9  1  0
  5 10  1  0
  5 14  1  0
  6  8  1  0
  6 11  2  0
  7  8  2  0
  7  9  1  0
M  END
> <PUBCHEM_COMPOUND_CID>
2519

> <PUBCHEM_CONFORMER_RMSD>
0.4

> <PUBCHEM_CONFORMER_DIVERSEORDER>
1

> <PUBCHEM_MMFF94_PARTIAL_CHARGES>
15
1 -0.57
10 0.69
11 0.04
12 0.3
13 0.26
14 0.3
15 0.15
2 -0.57
3 -0.42
4 0.05
5 -0.42
6 -0.57
7 -0.24
8 0.29
9 0.71

> <PUBCHEM_EFFECTIVE_ROTOR_COUNT>
0

> <PUBCHEM_PHARMACOPHORE_FEATURES>
5
1 1 acceptor
1 2 acceptor
3 4 6 11 cation
5 4 6 7 8 11 rings
6 3 5 7 8 9 10 rings

> <PUBCHEM_HEAVY_ATOM_COUNT>
14

> <PUBCHEM_ATOM_DEF_STEREO_COUNT>
0

> <PUBCHEM_ATOM_UDEF_STEREO_COUNT>
0

> <PUBCHEM_BOND_DEF_STEREO_COUNT>
0

> <PUBCHEM_BOND_UDEF_STEREO_COUNT>
0

> <PUBCHEM_ISOTOPIC_ATOM_COUNT>
0

> <PUBCHEM_COMPONENT_COUNT>
1

> <PUBCHEM_CACTVS_TAUTO_COUNT>
1

> <PUBCHEM_CONFORMER_ID>
000009D700000001

> <PUBCHEM_MMFF94_ENERGY>
22.901

> <PUBCHEM_FEATURE_SELFOVERLAP>
25.487

> <PUBCHEM_SHAPE_FINGERPRINT>
10967382 1 18338799025773621285
11132069 177 18339075025094499008
12524768 44 18342463625094026902
13140716 1 17978511158789908153
16945 1 18338517550775811621
193761 8 15816500986559935910
20588541 1 18339082691204868851
21501502 16 18338796715286957384
22802520 49 18128840606503503494
2334 1 18338516344016692929
23402539 116 18270382932679789735
23552423 10 18262240993325675966
23559900 14 18199193898169584358
241688 4 18266458702623303353
2748010 2 18266180539182415717
5084963 1 17698433339235542986
528886 8 18267580380709240570
53812653 166 18198902694142226312
66348 1 18339079396917369615

> <PUBCHEM_SHAPE_MULTIPOLES>
256.45
4.01
2.83
0.58
0.71
0.08
0
-0.48
0
-0.81
0
0.01
0
0

> <PUBCHEM_SHAPE_SELFOVERLAP>
550.88

> <PUBCHEM_SHAPE_VOLUME>
143.9

> <PUBCHEM_COORDINATE_TYPE>
2
5
10

> <Energy>
-122.511

> <minimizedAffinity>
-5.48689

> <CNNscore>
0.3456664085

> <CNNaffinity>
4.6994171143

> <CNN_VS>
1.6244306564

> <CNNaffinity_variance>
0.3993510008

$$$$
