6013


 22 25  0  0  0  0  0  0  0  0999 V2000
    0.6078   -1.5588   -3.7266 O   0  0  0  0  0  0  0  0  0  0  0  0
    9.9828    2.1232   -7.7758 O   0  0  0  0  0  0  0  0  0  0  0  0
    3.7910    0.2347   -3.7221 C   0  0  0  0  0  0  0  0  0  0  0  0
    2.9610   -0.9646   -4.2198 C   0  0  0  0  0  0  0  0  0  0  0  0
    5.2900    0.0631   -3.9853 C   0  0  0  0  0  0  0  0  0  0  0  0
    5.5164   -0.0850   -5.5231 C   0  0  0  0  0  0  0  0  0  0  0  0
    7.0393   -0.2254   -5.9064 C   0  0  0  0  0  0  0  0  0  0  0  0
    3.1273   -1.0561   -5.7421 C   0  0  0  0  0  0  0  0  0  0  0  0
    4.6088   -1.1852   -6.1402 C   0  0  0  0  0  0  0  0  0  0  0  0
    1.5625   -0.5146   -3.7503 C   0  0  0  0  0  0  0  0  0  0  0  0
    3.3058    0.4333   -2.2884 C   0  0  0  0  0  0  0  0  0  0  0  0
    6.0929    1.2537   -3.4460 C   0  0  0  0  0  0  0  0  0  0  0  0
    1.8098    0.0758   -2.3468 C   0  0  0  0  0  0  0  0  0  0  0  0
    7.8454    0.8804   -5.2104 C   0  0  0  0  0  0  0  0  0  0  0  0
    7.5789    1.0938   -3.7389 C   0  0  0  0  0  0  0  0  0  0  0  0
    3.3349   -2.3225   -3.5754 C   0  0  0  0  0  0  0  0  0  0  0  0
    7.1704   -0.0862   -7.4519 C   0  0  0  0  0  0  0  0  0  0  0  0
    7.6231   -1.5894   -5.4755 C   0  0  0  0  0  0  0  0  0  0  0  0
    8.5928    0.1741   -7.9254 C   0  0  0  0  0  0  0  0  0  0  0  0
    8.7704    1.6335   -5.8299 C   0  0  0  0  0  0  0  0  0  0  0  0
    9.1591    1.3886   -7.2387 C   0  0  0  0  0  0  0  0  0  0  0  0
    0.4813   -1.9019   -4.6250 H   0  0  0  0  0  0  0  0  0  0  0  0
  1 10  1  0
  1 22  1  0
  2 21  2  0
  3  4  1  0
  3  5  1  0
  3 11  1  0
  4  8  1  0
  4 10  1  0
  4 16  1  0
  5  6  1  0
  5 12  1  0
  6  7  1  0
  6  9  1  0
  7 14  1  0
  7 17  1  0
  7 18  1  0
  8  9  1  0
 10 13  1  0
 11 13  1  0
 12 15  1  0
 14 15  1  0
 14 20  2  0
 17 19  1  0
 19 21  1  0
 20 21  1  0
M  END
> <PUBCHEM_COMPOUND_CID>
6013

> <PUBCHEM_CONFORMER_RMSD>
0.6

> <PUBCHEM_CONFORMER_DIVERSEORDER>
1

> <PUBCHEM_MMFF94_PARTIAL_CHARGES>
11
1 -0.68
10 0.28
14 -0.28
15 0.14
19 0.06
2 -0.57
20 -0.14
21 0.49
48 0.15
49 0.4
7 0.14

> <PUBCHEM_EFFECTIVE_ROTOR_COUNT>
1.8

> <PUBCHEM_PHARMACOPHORE_FEATURES>
7
1 1 acceptor
1 1 donor
1 2 acceptor
5 3 4 10 11 13 rings
6 3 4 5 6 8 9 rings
6 5 6 7 12 14 15 rings
6 7 14 17 19 20 21 rings

> <PUBCHEM_HEAVY_ATOM_COUNT>
21

> <PUBCHEM_ATOM_DEF_STEREO_COUNT>
6

> <PUBCHEM_ATOM_UDEF_STEREO_COUNT>
0

> <PUBCHEM_BOND_DEF_STEREO_COUNT>
0

> <PUBCHEM_BOND_UDEF_STEREO_COUNT>
0

> <PUBCHEM_ISOTOPIC_ATOM_COUNT>
0

> <PUBCHEM_COMPONENT_COUNT>
1

> <PUBCHEM_CACTVS_TAUTO_COUNT>
5

> <PUBCHEM_CONFORMER_ID>
0000177D00000001

> <PUBCHEM_MMFF94_ENERGY>
67.5416

> <PUBCHEM_FEATURE_SELFOVERLAP>
35.618

> <PUBCHEM_SHAPE_FINGERPRINT>
10062212 137 18336825385559829163
10759866 29 17897457309511876188
10967382 1 18412548682291571786
11132069 177 18410018732180467827
11370993 70 18410569557056084199
11578080 2 16735503067342509174
12011746 2 18412547592124142406
12236239 1 18040155136873436768
12251169 10 18410008845387181634
12403259 226 18410006624652160988
12403259 415 18408880746209696412
12403260 363 18340481291412090749
12403814 3 17894914044785590877
12507557 5 18408881845467772304
12633257 1 18341888602346167976
12839892 36 18340758291450253690
13140716 1 18339643467883616216
13214271 11 18272369780793716703
13224815 77 18411987974316295335
13675066 3 18187087269080573787
14178342 30 18338527339117458393
14223421 5 18341052895787930134
14341114 176 18411985737129035682
14787075 74 18339640165090922602
14790565 3 18050014594947639924
15163728 17 14691189929019880809
15196674 1 18411420639180230811
15375358 24 18413110541697833299
15536298 74 18272376330249831326
15788980 27 17167859768361771669
16945 1 18267308633664624303
17349148 13 18260547844245275310
17492 89 18410012108956776131
1813 80 17168144512515476742
18186145 218 18411423903503023558
18522853 276 18412546492037592553
19050596 39 18410858775858764633
19784866 9 18412265021155473810
200 152 18202274819337965375
20715895 44 18116989984517715477
21033648 29 18262779827106925672
21267235 1 18410302427354843602
21421861 104 18042966467372004754
21637258 2 15647319828885568714
22182313 1 18189614934485510503
22854114 111 18409735070690792279
22854114 59 18343022189864506130
23402539 116 18272925046486162621
23557571 272 18059303161493107767
23559900 14 18343023255612643838
26918003 58 18409728456589012017
2748010 2 18410304609229794207
2838139 119 14835541671104639250
296302 2 16343984710473737934
335352 9 18411702045432157758
34934 24 18341610383102269379
350125 39 18410857681354741304
351380 180 18413386540454065762
3545911 37 18411703166439727155
42 15 18260548935156425576
5104073 3 18410294747868572393
59755656 215 18339930311854621398
633830 44 17988931080225984300
69090 78 18413386557386229218
7364860 26 18200601276388112774
9709674 26 18341058445033876271

> <PUBCHEM_SHAPE_MULTIPOLES>
420.43
9.43
2.1
1.06
1.16
0.42
0.43
-0.59
-2.56
-0.22
0.02
0.09
-0.22
0.11

> <PUBCHEM_SHAPE_SELFOVERLAP>
902.625

> <PUBCHEM_SHAPE_VOLUME>
230.1

> <PUBCHEM_COORDINATE_TYPE>
2
5
10

> <Energy>
71.9966

> <minimizedAffinity>
-10.15809

> <CNNscore>
0.9032886624

> <CNNaffinity>
7.7008280754

> <CNN_VS>
6.9560709000

> <CNNaffinity_variance>
0.3144400120

$$$$
6013


 22 25  0  0  0  0  0  0  0  0999 V2000
    9.8830    1.8985   -5.1612 O   0  0  0  0  0  0  0  0  0  0  0  0
   -0.4249   -1.4772   -4.7209 O   0  0  0  0  0  0  0  0  0  0  0  0
    6.8282    0.2809   -6.3449 C   0  0  0  0  0  0  0  0  0  0  0  0
    7.7476    0.6440   -5.1626 C   0  0  0  0  0  0  0  0  0  0  0  0
    5.7855   -0.7786   -5.9761 C   0  0  0  0  0  0  0  0  0  0  0  0
    4.8974   -0.2274   -4.8163 C   0  0  0  0  0  0  0  0  0  0  0  0
    3.7587   -1.2302   -4.3882 C   0  0  0  0  0  0  0  0  0  0  0  0
    6.8777    1.2565   -4.0573 C   0  0  0  0  0  0  0  0  0  0  0  0
    5.7525    0.2969   -3.6293 C   0  0  0  0  0  0  0  0  0  0  0  0
    8.6861    1.6419   -5.8712 C   0  0  0  0  0  0  0  0  0  0  0  0
    7.8060   -0.0024   -7.4826 C   0  0  0  0  0  0  0  0  0  0  0  0
    4.9109   -1.1464   -7.1814 C   0  0  0  0  0  0  0  0  0  0  0  0
    8.9554    0.9934   -7.2447 C   0  0  0  0  0  0  0  0  0  0  0  0
    3.0098   -1.7163   -5.6371 C   0  0  0  0  0  0  0  0  0  0  0  0
    3.8548   -2.1761   -6.8018 C   0  0  0  0  0  0  0  0  0  0  0  0
    8.5589   -0.5424   -4.5854 C   0  0  0  0  0  0  0  0  0  0  0  0
    2.7780   -0.4813   -3.4382 C   0  0  0  0  0  0  0  0  0  0  0  0
    4.3208   -2.4673   -3.6529 C   0  0  0  0  0  0  0  0  0  0  0  0
    1.4463   -1.1923   -3.2476 C   0  0  0  0  0  0  0  0  0  0  0  0
    1.6702   -1.7713   -5.7311 C   0  0  0  0  0  0  0  0  0  0  0  0
    0.7940   -1.4482   -4.5804 C   0  0  0  0  0  0  0  0  0  0  0  0
    9.6712    2.3047   -4.3063 H   0  0  0  0  0  0  0  0  0  0  0  0
  1 10  1  0
  1 22  1  0
  2 21  2  0
  3  4  1  0
  3  5  1  0
  3 11  1  0
  4  8  1  0
  4 10  1  0
  4 16  1  0
  5  6  1  0
  5 12  1  0
  6  7  1  0
  6  9  1  0
  7 14  1  0
  7 17  1  0
  7 18  1  0
  8  9  1  0
 10 13  1  0
 11 13  1  0
 12 15  1  0
 14 15  1  0
 14 20  2  0
 17 19  1  0
 19 21  1  0
 20 21  1  0
M  END
> <PUBCHEM_COMPOUND_CID>
6013

> <PUBCHEM_CONFORMER_RMSD>
0.6

> <PUBCHEM_CONFORMER_DIVERSEORDER>
1

> <PUBCHEM_MMFF94_PARTIAL_CHARGES>
11
1 -0.68
10 0.28
14 -0.28
15 0.14
19 0.06
2 -0.57
20 -0.14
21 0.49
48 0.15
49 0.4
7 0.14

> <PUBCHEM_EFFECTIVE_ROTOR_COUNT>
1.8

> <PUBCHEM_PHARMACOPHORE_FEATURES>
7
1 1 acceptor
1 1 donor
1 2 acceptor
5 3 4 10 11 13 rings
6 3 4 5 6 8 9 rings
6 5 6 7 12 14 15 rings
6 7 14 17 19 20 21 rings

> <PUBCHEM_HEAVY_ATOM_COUNT>
21

> <PUBCHEM_ATOM_DEF_STEREO_COUNT>
6

> <PUBCHEM_ATOM_UDEF_STEREO_COUNT>
0

> <PUBCHEM_BOND_DEF_STEREO_COUNT>
0

> <PUBCHEM_BOND_UDEF_STEREO_COUNT>
0

> <PUBCHEM_ISOTOPIC_ATOM_COUNT>
0

> <PUBCHEM_COMPONENT_COUNT>
1

> <PUBCHEM_CACTVS_TAUTO_COUNT>
5

> <PUBCHEM_CONFORMER_ID>
0000177D00000001

> <PUBCHEM_MMFF94_ENERGY>
67.5416

> <PUBCHEM_FEATURE_SELFOVERLAP>
35.618

> <PUBCHEM_SHAPE_FINGERPRINT>
10062212 137 18336825385559829163
10759866 29 17897457309511876188
10967382 1 18412548682291571786
11132069 177 18410018732180467827
11370993 70 18410569557056084199
11578080 2 16735503067342509174
12011746 2 18412547592124142406
12236239 1 18040155136873436768
12251169 10 18410008845387181634
12403259 226 18410006624652160988
12403259 415 18408880746209696412
12403260 363 18340481291412090749
12403814 3 17894914044785590877
12507557 5 18408881845467772304
12633257 1 18341888602346167976
12839892 36 18340758291450253690
13140716 1 18339643467883616216
13214271 11 18272369780793716703
13224815 77 18411987974316295335
13675066 3 18187087269080573787
14178342 30 18338527339117458393
14223421 5 18341052895787930134
14341114 176 18411985737129035682
14787075 74 18339640165090922602
14790565 3 18050014594947639924
15163728 17 14691189929019880809
15196674 1 18411420639180230811
15375358 24 18413110541697833299
15536298 74 18272376330249831326
15788980 27 17167859768361771669
16945 1 18267308633664624303
17349148 13 18260547844245275310
17492 89 18410012108956776131
1813 80 17168144512515476742
18186145 218 18411423903503023558
18522853 276 18412546492037592553
19050596 39 18410858775858764633
19784866 9 18412265021155473810
200 152 18202274819337965375
20715895 44 18116989984517715477
21033648 29 18262779827106925672
21267235 1 18410302427354843602
21421861 104 18042966467372004754
21637258 2 15647319828885568714
22182313 1 18189614934485510503
22854114 111 18409735070690792279
22854114 59 18343022189864506130
23402539 116 18272925046486162621
23557571 272 18059303161493107767
23559900 14 18343023255612643838
26918003 58 18409728456589012017
2748010 2 18410304609229794207
2838139 119 14835541671104639250
296302 2 16343984710473737934
335352 9 18411702045432157758
34934 24 18341610383102269379
350125 39 18410857681354741304
351380 180 18413386540454065762
3545911 37 18411703166439727155
42 15 18260548935156425576
5104073 3 18410294747868572393
59755656 215 18339930311854621398
633830 44 17988931080225984300
69090 78 18413386557386229218
7364860 26 18200601276388112774
9709674 26 18341058445033876271

> <PUBCHEM_SHAPE_MULTIPOLES>
420.43
9.43
2.1
1.06
1.16
0.42
0.43
-0.59
-2.56
-0.22
0.02
0.09
-0.22
0.11

> <PUBCHEM_SHAPE_SELFOVERLAP>
902.625

> <PUBCHEM_SHAPE_VOLUME>
230.1

> <PUBCHEM_COORDINATE_TYPE>
2
5
10

> <Energy>
71.9966

> <minimizedAffinity>
-10.37522

> <CNNscore>
0.8979980946

> <CNNaffinity>
7.4969801903

> <CNN_VS>
6.7322740555

> <CNNaffinity_variance>
0.2233550102

$$$$
6013


 22 25  0  0  0  0  0  0  0  0999 V2000
   10.5551    0.0718   -6.6993 O   0  0  0  0  0  0  0  0  0  0  0  0
    0.6546   -1.4832   -2.5274 O   0  0  0  0  0  0  0  0  0  0  0  0
    7.6163    0.8220   -4.6621 C   0  0  0  0  0  0  0  0  0  0  0  0
    8.1985    0.2080   -5.9501 C   0  0  0  0  0  0  0  0  0  0  0  0
    6.0966    1.0004   -4.7295 C   0  0  0  0  0  0  0  0  0  0  0  0
    5.4358   -0.3972   -4.9480 C   0  0  0  0  0  0  0  0  0  0  0  0
    3.8611   -0.3295   -4.9893 C   0  0  0  0  0  0  0  0  0  0  0  0
    7.6029   -1.1960   -6.1163 C   0  0  0  0  0  0  0  0  0  0  0  0
    6.0643   -1.1549   -6.1504 C   0  0  0  0  0  0  0  0  0  0  0  0
    9.6968    0.2333   -5.5858 C   0  0  0  0  0  0  0  0  0  0  0  0
    8.4985    2.0442   -4.4198 C   0  0  0  0  0  0  0  0  0  0  0  0
    5.5518    1.6474   -3.4498 C   0  0  0  0  0  0  0  0  0  0  0  0
    9.8926    1.5998   -4.8974 C   0  0  0  0  0  0  0  0  0  0  0  0
    3.3525    0.4749   -3.7848 C   0  0  0  0  0  0  0  0  0  0  0  0
    4.0368    1.7930   -3.5082 C   0  0  0  0  0  0  0  0  0  0  0  0
    7.9418    1.0347   -7.2346 C   0  0  0  0  0  0  0  0  0  0  0  0
    3.3066   -1.7835   -4.9299 C   0  0  0  0  0  0  0  0  0  0  0  0
    3.3429    0.3516   -6.2756 C   0  0  0  0  0  0  0  0  0  0  0  0
    1.8265   -1.8614   -4.5857 C   0  0  0  0  0  0  0  0  0  0  0  0
    2.3366    0.0806   -2.9980 C   0  0  0  0  0  0  0  0  0  0  0  0
    1.5512   -1.1409   -3.2925 C   0  0  0  0  0  0  0  0  0  0  0  0
   10.4014   -0.7968   -7.1027 H   0  0  0  0  0  0  0  0  0  0  0  0
  1 10  1  0
  1 22  1  0
  2 21  2  0
  3  4  1  0
  3  5  1  0
  3 11  1  0
  4  8  1  0
  4 10  1  0
  4 16  1  0
  5  6  1  0
  5 12  1  0
  6  7  1  0
  6  9  1  0
  7 14  1  0
  7 17  1  0
  7 18  1  0
  8  9  1  0
 10 13  1  0
 11 13  1  0
 12 15  1  0
 14 15  1  0
 14 20  2  0
 17 19  1  0
 19 21  1  0
 20 21  1  0
M  END
> <PUBCHEM_COMPOUND_CID>
6013

> <PUBCHEM_CONFORMER_RMSD>
0.6

> <PUBCHEM_CONFORMER_DIVERSEORDER>
1

> <PUBCHEM_MMFF94_PARTIAL_CHARGES>
11
1 -0.68
10 0.28
14 -0.28
15 0.14
19 0.06
2 -0.57
20 -0.14
21 0.49
48 0.15
49 0.4
7 0.14

> <PUBCHEM_EFFECTIVE_ROTOR_COUNT>
1.8

> <PUBCHEM_PHARMACOPHORE_FEATURES>
7
1 1 acceptor
1 1 donor
1 2 acceptor
5 3 4 10 11 13 rings
6 3 4 5 6 8 9 rings
6 5 6 7 12 14 15 rings
6 7 14 17 19 20 21 rings

> <PUBCHEM_HEAVY_ATOM_COUNT>
21

> <PUBCHEM_ATOM_DEF_STEREO_COUNT>
6

> <PUBCHEM_ATOM_UDEF_STEREO_COUNT>
0

> <PUBCHEM_BOND_DEF_STEREO_COUNT>
0

> <PUBCHEM_BOND_UDEF_STEREO_COUNT>
0

> <PUBCHEM_ISOTOPIC_ATOM_COUNT>
0

> <PUBCHEM_COMPONENT_COUNT>
1

> <PUBCHEM_CACTVS_TAUTO_COUNT>
5

> <PUBCHEM_CONFORMER_ID>
0000177D00000001

> <PUBCHEM_MMFF94_ENERGY>
67.5416

> <PUBCHEM_FEATURE_SELFOVERLAP>
35.618

> <PUBCHEM_SHAPE_FINGERPRINT>
10062212 137 18336825385559829163
10759866 29 17897457309511876188
10967382 1 18412548682291571786
11132069 177 18410018732180467827
11370993 70 18410569557056084199
11578080 2 16735503067342509174
12011746 2 18412547592124142406
12236239 1 18040155136873436768
12251169 10 18410008845387181634
12403259 226 18410006624652160988
12403259 415 18408880746209696412
12403260 363 18340481291412090749
12403814 3 17894914044785590877
12507557 5 18408881845467772304
12633257 1 18341888602346167976
12839892 36 18340758291450253690
13140716 1 18339643467883616216
13214271 11 18272369780793716703
13224815 77 18411987974316295335
13675066 3 18187087269080573787
14178342 30 18338527339117458393
14223421 5 18341052895787930134
14341114 176 18411985737129035682
14787075 74 18339640165090922602
14790565 3 18050014594947639924
15163728 17 14691189929019880809
15196674 1 18411420639180230811
15375358 24 18413110541697833299
15536298 74 18272376330249831326
15788980 27 17167859768361771669
16945 1 18267308633664624303
17349148 13 18260547844245275310
17492 89 18410012108956776131
1813 80 17168144512515476742
18186145 218 18411423903503023558
18522853 276 18412546492037592553
19050596 39 18410858775858764633
19784866 9 18412265021155473810
200 152 18202274819337965375
20715895 44 18116989984517715477
21033648 29 18262779827106925672
21267235 1 18410302427354843602
21421861 104 18042966467372004754
21637258 2 15647319828885568714
22182313 1 18189614934485510503
22854114 111 18409735070690792279
22854114 59 18343022189864506130
23402539 116 18272925046486162621
23557571 272 18059303161493107767
23559900 14 18343023255612643838
26918003 58 18409728456589012017
2748010 2 18410304609229794207
2838139 119 14835541671104639250
296302 2 16343984710473737934
335352 9 18411702045432157758
34934 24 18341610383102269379
350125 39 18410857681354741304
351380 180 18413386540454065762
3545911 37 18411703166439727155
42 15 18260548935156425576
5104073 3 18410294747868572393
59755656 215 18339930311854621398
633830 44 17988931080225984300
69090 78 18413386557386229218
7364860 26 18200601276388112774
9709674 26 18341058445033876271

> <PUBCHEM_SHAPE_MULTIPOLES>
420.43
9.43
2.1
1.06
1.16
0.42
0.43
-0.59
-2.56
-0.22
0.02
0.09
-0.22
0.11

> <PUBCHEM_SHAPE_SELFOVERLAP>
902.625

> <PUBCHEM_SHAPE_VOLUME>
230.1

> <PUBCHEM_COORDINATE_TYPE>
2
5
10

> <Energy>
71.9966

> <minimizedAffinity>
-8.00767

> <CNNscore>
0.8089998364

> <CNNaffinity>
7.5688433647

> <CNN_VS>
6.1231932640

> <CNNaffinity_variance>
0.4468466043

$$$$
6013


 22 25  0  0  0  0  0  0  0  0999 V2000
   10.0344    2.3925   -6.1188 O   0  0  0  0  0  0  0  0  0  0  0  0
    0.2208   -1.6180   -3.7836 O   0  0  0  0  0  0  0  0  0  0  0  0
    7.3810   -0.1153   -5.9767 C   0  0  0  0  0  0  0  0  0  0  0  0
    8.0779    1.0964   -5.3277 C   0  0  0  0  0  0  0  0  0  0  0  0
    6.4250   -0.8288   -5.0162 C   0  0  0  0  0  0  0  0  0  0  0  0
    5.3258    0.1813   -4.5587 C   0  0  0  0  0  0  0  0  0  0  0  0
    4.2604   -0.4689   -3.5953 C   0  0  0  0  0  0  0  0  0  0  0  0
    6.9972    2.1182   -4.9512 C   0  0  0  0  0  0  0  0  0  0  0  0
    5.9403    1.5018   -4.0169 C   0  0  0  0  0  0  0  0  0  0  0  0
    8.9862    1.5214   -6.4994 C   0  0  0  0  0  0  0  0  0  0  0  0
    8.5347   -0.8997   -6.5968 C   0  0  0  0  0  0  0  0  0  0  0  0
    5.7759   -2.0511   -5.6778 C   0  0  0  0  0  0  0  0  0  0  0  0
    9.5179    0.1882   -7.0648 C   0  0  0  0  0  0  0  0  0  0  0  0
    3.7547   -1.7836   -4.2057 C   0  0  0  0  0  0  0  0  0  0  0  0
    4.8017   -2.7381   -4.7298 C   0  0  0  0  0  0  0  0  0  0  0  0
    8.9305    0.7605   -4.0790 C   0  0  0  0  0  0  0  0  0  0  0  0
    3.0770    0.5295   -3.4284 C   0  0  0  0  0  0  0  0  0  0  0  0
    4.8516   -0.7816   -2.2025 C   0  0  0  0  0  0  0  0  0  0  0  0
    1.8219   -0.1002   -2.8424 C   0  0  0  0  0  0  0  0  0  0  0  0
    2.4567   -2.1257   -4.2730 C   0  0  0  0  0  0  0  0  0  0  0  0
    1.3966   -1.2856   -3.6676 C   0  0  0  0  0  0  0  0  0  0  0  0
    9.6597    3.2162   -5.7698 H   0  0  0  0  0  0  0  0  0  0  0  0
  1 10  1  0
  1 22  1  0
  2 21  2  0
  3  4  1  0
  3  5  1  0
  3 11  1  0
  4  8  1  0
  4 10  1  0
  4 16  1  0
  5  6  1  0
  5 12  1  0
  6  7  1  0
  6  9  1  0
  7 14  1  0
  7 17  1  0
  7 18  1  0
  8  9  1  0
 10 13  1  0
 11 13  1  0
 12 15  1  0
 14 15  1  0
 14 20  2  0
 17 19  1  0
 19 21  1  0
 20 21  1  0
M  END
> <PUBCHEM_COMPOUND_CID>
6013

> <PUBCHEM_CONFORMER_RMSD>
0.6

> <PUBCHEM_CONFORMER_DIVERSEORDER>
1

> <PUBCHEM_MMFF94_PARTIAL_CHARGES>
11
1 -0.68
10 0.28
14 -0.28
15 0.14
19 0.06
2 -0.57
20 -0.14
21 0.49
48 0.15
49 0.4
7 0.14

> <PUBCHEM_EFFECTIVE_ROTOR_COUNT>
1.8

> <PUBCHEM_PHARMACOPHORE_FEATURES>
7
1 1 acceptor
1 1 donor
1 2 acceptor
5 3 4 10 11 13 rings
6 3 4 5 6 8 9 rings
6 5 6 7 12 14 15 rings
6 7 14 17 19 20 21 rings

> <PUBCHEM_HEAVY_ATOM_COUNT>
21

> <PUBCHEM_ATOM_DEF_STEREO_COUNT>
6

> <PUBCHEM_ATOM_UDEF_STEREO_COUNT>
0

> <PUBCHEM_BOND_DEF_STEREO_COUNT>
0

> <PUBCHEM_BOND_UDEF_STEREO_COUNT>
0

> <PUBCHEM_ISOTOPIC_ATOM_COUNT>
0

> <PUBCHEM_COMPONENT_COUNT>
1

> <PUBCHEM_CACTVS_TAUTO_COUNT>
5

> <PUBCHEM_CONFORMER_ID>
0000177D00000001

> <PUBCHEM_MMFF94_ENERGY>
67.5416

> <PUBCHEM_FEATURE_SELFOVERLAP>
35.618

> <PUBCHEM_SHAPE_FINGERPRINT>
10062212 137 18336825385559829163
10759866 29 17897457309511876188
10967382 1 18412548682291571786
11132069 177 18410018732180467827
11370993 70 18410569557056084199
11578080 2 16735503067342509174
12011746 2 18412547592124142406
12236239 1 18040155136873436768
12251169 10 18410008845387181634
12403259 226 18410006624652160988
12403259 415 18408880746209696412
12403260 363 18340481291412090749
12403814 3 17894914044785590877
12507557 5 18408881845467772304
12633257 1 18341888602346167976
12839892 36 18340758291450253690
13140716 1 18339643467883616216
13214271 11 18272369780793716703
13224815 77 18411987974316295335
13675066 3 18187087269080573787
14178342 30 18338527339117458393
14223421 5 18341052895787930134
14341114 176 18411985737129035682
14787075 74 18339640165090922602
14790565 3 18050014594947639924
15163728 17 14691189929019880809
15196674 1 18411420639180230811
15375358 24 18413110541697833299
15536298 74 18272376330249831326
15788980 27 17167859768361771669
16945 1 18267308633664624303
17349148 13 18260547844245275310
17492 89 18410012108956776131
1813 80 17168144512515476742
18186145 218 18411423903503023558
18522853 276 18412546492037592553
19050596 39 18410858775858764633
19784866 9 18412265021155473810
200 152 18202274819337965375
20715895 44 18116989984517715477
21033648 29 18262779827106925672
21267235 1 18410302427354843602
21421861 104 18042966467372004754
21637258 2 15647319828885568714
22182313 1 18189614934485510503
22854114 111 18409735070690792279
22854114 59 18343022189864506130
23402539 116 18272925046486162621
23557571 272 18059303161493107767
23559900 14 18343023255612643838
26918003 58 18409728456589012017
2748010 2 18410304609229794207
2838139 119 14835541671104639250
296302 2 16343984710473737934
335352 9 18411702045432157758
34934 24 18341610383102269379
350125 39 18410857681354741304
351380 180 18413386540454065762
3545911 37 18411703166439727155
42 15 18260548935156425576
5104073 3 18410294747868572393
59755656 215 18339930311854621398
633830 44 17988931080225984300
69090 78 18413386557386229218
7364860 26 18200601276388112774
9709674 26 18341058445033876271

> <PUBCHEM_SHAPE_MULTIPOLES>
420.43
9.43
2.1
1.06
1.16
0.42
0.43
-0.59
-2.56
-0.22
0.02
0.09
-0.22
0.11

> <PUBCHEM_SHAPE_SELFOVERLAP>
902.625

> <PUBCHEM_SHAPE_VOLUME>
230.1

> <PUBCHEM_COORDINATE_TYPE>
2
5
10

> <Energy>
71.9966

> <minimizedAffinity>
-8.73595

> <CNNscore>
0.7116473317

> <CNNaffinity>
7.4057140350

> <CNN_VS>
5.2702565193

> <CNNaffinity_variance>
0.2101793289

$$$$
6013


 22 25  0  0  0  0  0  0  0  0999 V2000
    1.0947   -2.6807   -6.3494 O   0  0  0  0  0  0  0  0  0  0  0  0
   10.3986    2.9095   -6.5271 O   0  0  0  0  0  0  0  0  0  0  0  0
    3.7623   -0.5619   -5.0286 C   0  0  0  0  0  0  0  0  0  0  0  0
    3.3414   -1.7126   -5.9634 C   0  0  0  0  0  0  0  0  0  0  0  0
    5.2793   -0.4889   -4.8308 C   0  0  0  0  0  0  0  0  0  0  0  0
    5.9569   -0.2647   -6.2195 C   0  0  0  0  0  0  0  0  0  0  0  0
    7.5248   -0.1320   -6.1207 C   0  0  0  0  0  0  0  0  0  0  0  0
    3.9477   -1.4443   -7.3469 C   0  0  0  0  0  0  0  0  0  0  0  0
    5.4789   -1.3024   -7.2730 C   0  0  0  0  0  0  0  0  0  0  0  0
    1.8096   -1.5497   -5.8887 C   0  0  0  0  0  0  0  0  0  0  0  0
    2.8615   -0.7454   -3.8098 C   0  0  0  0  0  0  0  0  0  0  0  0
    5.6643    0.6408   -3.8673 C   0  0  0  0  0  0  0  0  0  0  0  0
    1.5353   -1.2590   -4.3987 C   0  0  0  0  0  0  0  0  0  0  0  0
    7.8838    0.8813   -5.0248 C   0  0  0  0  0  0  0  0  0  0  0  0
    7.1755    0.7302   -3.6992 C   0  0  0  0  0  0  0  0  0  0  0  0
    3.7576   -3.1241   -5.4804 C   0  0  0  0  0  0  0  0  0  0  0  0
    8.0624    0.3604   -7.4968 C   0  0  0  0  0  0  0  0  0  0  0  0
    8.2004   -1.4769   -5.7717 C   0  0  0  0  0  0  0  0  0  0  0  0
    9.4884    0.8887   -7.4443 C   0  0  0  0  0  0  0  0  0  0  0  0
    8.7933    1.8588   -5.1797 C   0  0  0  0  0  0  0  0  0  0  0  0
    9.6046    1.9804   -6.4138 C   0  0  0  0  0  0  0  0  0  0  0  0
    1.2938   -2.8292   -7.2871 H   0  0  0  0  0  0  0  0  0  0  0  0
  1 10  1  0
  1 22  1  0
  2 21  2  0
  3  4  1  0
  3  5  1  0
  3 11  1  0
  4  8  1  0
  4 10  1  0
  4 16  1  0
  5  6  1  0
  5 12  1  0
  6  7  1  0
  6  9  1  0
  7 14  1  0
  7 17  1  0
  7 18  1  0
  8  9  1  0
 10 13  1  0
 11 13  1  0
 12 15  1  0
 14 15  1  0
 14 20  2  0
 17 19  1  0
 19 21  1  0
 20 21  1  0
M  END
> <PUBCHEM_COMPOUND_CID>
6013

> <PUBCHEM_CONFORMER_RMSD>
0.6

> <PUBCHEM_CONFORMER_DIVERSEORDER>
1

> <PUBCHEM_MMFF94_PARTIAL_CHARGES>
11
1 -0.68
10 0.28
14 -0.28
15 0.14
19 0.06
2 -0.57
20 -0.14
21 0.49
48 0.15
49 0.4
7 0.14

> <PUBCHEM_EFFECTIVE_ROTOR_COUNT>
1.8

> <PUBCHEM_PHARMACOPHORE_FEATURES>
7
1 1 acceptor
1 1 donor
1 2 acceptor
5 3 4 10 11 13 rings
6 3 4 5 6 8 9 rings
6 5 6 7 12 14 15 rings
6 7 14 17 19 20 21 rings

> <PUBCHEM_HEAVY_ATOM_COUNT>
21

> <PUBCHEM_ATOM_DEF_STEREO_COUNT>
6

> <PUBCHEM_ATOM_UDEF_STEREO_COUNT>
0

> <PUBCHEM_BOND_DEF_STEREO_COUNT>
0

> <PUBCHEM_BOND_UDEF_STEREO_COUNT>
0

> <PUBCHEM_ISOTOPIC_ATOM_COUNT>
0

> <PUBCHEM_COMPONENT_COUNT>
1

> <PUBCHEM_CACTVS_TAUTO_COUNT>
5

> <PUBCHEM_CONFORMER_ID>
0000177D00000001

> <PUBCHEM_MMFF94_ENERGY>
67.5416

> <PUBCHEM_FEATURE_SELFOVERLAP>
35.618

> <PUBCHEM_SHAPE_FINGERPRINT>
10062212 137 18336825385559829163
10759866 29 17897457309511876188
10967382 1 18412548682291571786
11132069 177 18410018732180467827
11370993 70 18410569557056084199
11578080 2 16735503067342509174
12011746 2 18412547592124142406
12236239 1 18040155136873436768
12251169 10 18410008845387181634
12403259 226 18410006624652160988
12403259 415 18408880746209696412
12403260 363 18340481291412090749
12403814 3 17894914044785590877
12507557 5 18408881845467772304
12633257 1 18341888602346167976
12839892 36 18340758291450253690
13140716 1 18339643467883616216
13214271 11 18272369780793716703
13224815 77 18411987974316295335
13675066 3 18187087269080573787
14178342 30 18338527339117458393
14223421 5 18341052895787930134
14341114 176 18411985737129035682
14787075 74 18339640165090922602
14790565 3 18050014594947639924
15163728 17 14691189929019880809
15196674 1 18411420639180230811
15375358 24 18413110541697833299
15536298 74 18272376330249831326
15788980 27 17167859768361771669
16945 1 18267308633664624303
17349148 13 18260547844245275310
17492 89 18410012108956776131
1813 80 17168144512515476742
18186145 218 18411423903503023558
18522853 276 18412546492037592553
19050596 39 18410858775858764633
19784866 9 18412265021155473810
200 152 18202274819337965375
20715895 44 18116989984517715477
21033648 29 18262779827106925672
21267235 1 18410302427354843602
21421861 104 18042966467372004754
21637258 2 15647319828885568714
22182313 1 18189614934485510503
22854114 111 18409735070690792279
22854114 59 18343022189864506130
23402539 116 18272925046486162621
23557571 272 18059303161493107767
23559900 14 18343023255612643838
26918003 58 18409728456589012017
2748010 2 18410304609229794207
2838139 119 14835541671104639250
296302 2 16343984710473737934
335352 9 18411702045432157758
34934 24 18341610383102269379
350125 39 18410857681354741304
351380 180 18413386540454065762
3545911 37 18411703166439727155
42 15 18260548935156425576
5104073 3 18410294747868572393
59755656 215 18339930311854621398
633830 44 17988931080225984300
69090 78 18413386557386229218
7364860 26 18200601276388112774
9709674 26 18341058445033876271

> <PUBCHEM_SHAPE_MULTIPOLES>
420.43
9.43
2.1
1.06
1.16
0.42
0.43
-0.59
-2.56
-0.22
0.02
0.09
-0.22
0.11

> <PUBCHEM_SHAPE_SELFOVERLAP>
902.625

> <PUBCHEM_SHAPE_VOLUME>
230.1

> <PUBCHEM_COORDINATE_TYPE>
2
5
10

> <Energy>
71.9966

> <minimizedAffinity>
-7.05215

> <CNNscore>
0.5211865306

> <CNNaffinity>
7.0510497093

> <CNN_VS>
3.6749122143

> <CNNaffinity_variance>
0.2177162915

$$$$
6013


 22 25  0  0  0  0  0  0  0  0999 V2000
   -0.0652   -1.8192   -5.0580 O   0  0  0  0  0  0  0  0  0  0  0  0
   10.2732    1.3965   -4.2697 O   0  0  0  0  0  0  0  0  0  0  0  0
    3.3935   -1.3459   -6.1366 C   0  0  0  0  0  0  0  0  0  0  0  0
    2.1847   -0.8222   -5.3370 C   0  0  0  0  0  0  0  0  0  0  0  0
    4.4784   -0.2821   -6.3282 C   0  0  0  0  0  0  0  0  0  0  0  0
    4.9826    0.1799   -4.9245 C   0  0  0  0  0  0  0  0  0  0  0  0
    6.1376    1.2497   -5.0111 C   0  0  0  0  0  0  0  0  0  0  0  0
    2.6741   -0.4428   -3.9334 C   0  0  0  0  0  0  0  0  0  0  0  0
    3.8093    0.5954   -3.9941 C   0  0  0  0  0  0  0  0  0  0  0  0
    1.2866   -2.0748   -5.3895 C   0  0  0  0  0  0  0  0  0  0  0  0
    2.7560   -1.9878   -7.3664 C   0  0  0  0  0  0  0  0  0  0  0  0
    5.6502   -0.8209   -7.1586 C   0  0  0  0  0  0  0  0  0  0  0  0
    1.4410   -2.5869   -6.8364 C   0  0  0  0  0  0  0  0  0  0  0  0
    7.2169    0.7586   -5.9862 C   0  0  0  0  0  0  0  0  0  0  0  0
    6.7409    0.2300   -7.3189 C   0  0  0  0  0  0  0  0  0  0  0  0
    1.4602    0.3878   -5.9774 C   0  0  0  0  0  0  0  0  0  0  0  0
    6.7473    1.4284   -3.5893 C   0  0  0  0  0  0  0  0  0  0  0  0
    5.6247    2.6185   -5.5114 C   0  0  0  0  0  0  0  0  0  0  0  0
    8.0957    2.1334   -3.5849 C   0  0  0  0  0  0  0  0  0  0  0  0
    8.5345    0.7972   -5.7238 C   0  0  0  0  0  0  0  0  0  0  0  0
    9.0651    1.4148   -4.4856 C   0  0  0  0  0  0  0  0  0  0  0  0
   -0.1192   -1.5001   -4.1436 H   0  0  0  0  0  0  0  0  0  0  0  0
  1 10  1  0
  1 22  1  0
  2 21  2  0
  3  4  1  0
  3  5  1  0
  3 11  1  0
  4  8  1  0
  4 10  1  0
  4 16  1  0
  5  6  1  0
  5 12  1  0
  6  7  1  0
  6  9  1  0
  7 14  1  0
  7 17  1  0
  7 18  1  0
  8  9  1  0
 10 13  1  0
 11 13  1  0
 12 15  1  0
 14 15  1  0
 14 20  2  0
 17 19  1  0
 19 21  1  0
 20 21  1  0
M  END
> <PUBCHEM_COMPOUND_CID>
6013

> <PUBCHEM_CONFORMER_RMSD>
0.6

> <PUBCHEM_CONFORMER_DIVERSEORDER>
1

> <PUBCHEM_MMFF94_PARTIAL_CHARGES>
11
1 -0.68
10 0.28
14 -0.28
15 0.14
19 0.06
2 -0.57
20 -0.14
21 0.49
48 0.15
49 0.4
7 0.14

> <PUBCHEM_EFFECTIVE_ROTOR_COUNT>
1.8

> <PUBCHEM_PHARMACOPHORE_FEATURES>
7
1 1 acceptor
1 1 donor
1 2 acceptor
5 3 4 10 11 13 rings
6 3 4 5 6 8 9 rings
6 5 6 7 12 14 15 rings
6 7 14 17 19 20 21 rings

> <PUBCHEM_HEAVY_ATOM_COUNT>
21

> <PUBCHEM_ATOM_DEF_STEREO_COUNT>
6

> <PUBCHEM_ATOM_UDEF_STEREO_COUNT>
0

> <PUBCHEM_BOND_DEF_STEREO_COUNT>
0

> <PUBCHEM_BOND_UDEF_STEREO_COUNT>
0

> <PUBCHEM_ISOTOPIC_ATOM_COUNT>
0

> <PUBCHEM_COMPONENT_COUNT>
1

> <PUBCHEM_CACTVS_TAUTO_COUNT>
5

> <PUBCHEM_CONFORMER_ID>
0000177D00000001

> <PUBCHEM_MMFF94_ENERGY>
67.5416

> <PUBCHEM_FEATURE_SELFOVERLAP>
35.618

> <PUBCHEM_SHAPE_FINGERPRINT>
10062212 137 18336825385559829163
10759866 29 17897457309511876188
10967382 1 18412548682291571786
11132069 177 18410018732180467827
11370993 70 18410569557056084199
11578080 2 16735503067342509174
12011746 2 18412547592124142406
12236239 1 18040155136873436768
12251169 10 18410008845387181634
12403259 226 18410006624652160988
12403259 415 18408880746209696412
12403260 363 18340481291412090749
12403814 3 17894914044785590877
12507557 5 18408881845467772304
12633257 1 18341888602346167976
12839892 36 18340758291450253690
13140716 1 18339643467883616216
13214271 11 18272369780793716703
13224815 77 18411987974316295335
13675066 3 18187087269080573787
14178342 30 18338527339117458393
14223421 5 18341052895787930134
14341114 176 18411985737129035682
14787075 74 18339640165090922602
14790565 3 18050014594947639924
15163728 17 14691189929019880809
15196674 1 18411420639180230811
15375358 24 18413110541697833299
15536298 74 18272376330249831326
15788980 27 17167859768361771669
16945 1 18267308633664624303
17349148 13 18260547844245275310
17492 89 18410012108956776131
1813 80 17168144512515476742
18186145 218 18411423903503023558
18522853 276 18412546492037592553
19050596 39 18410858775858764633
19784866 9 18412265021155473810
200 152 18202274819337965375
20715895 44 18116989984517715477
21033648 29 18262779827106925672
21267235 1 18410302427354843602
21421861 104 18042966467372004754
21637258 2 15647319828885568714
22182313 1 18189614934485510503
22854114 111 18409735070690792279
22854114 59 18343022189864506130
23402539 116 18272925046486162621
23557571 272 18059303161493107767
23559900 14 18343023255612643838
26918003 58 18409728456589012017
2748010 2 18410304609229794207
2838139 119 14835541671104639250
296302 2 16343984710473737934
335352 9 18411702045432157758
34934 24 18341610383102269379
350125 39 18410857681354741304
351380 180 18413386540454065762
3545911 37 18411703166439727155
42 15 18260548935156425576
5104073 3 18410294747868572393
59755656 215 18339930311854621398
633830 44 17988931080225984300
69090 78 18413386557386229218
7364860 26 18200601276388112774
9709674 26 18341058445033876271

> <PUBCHEM_SHAPE_MULTIPOLES>
420.43
9.43
2.1
1.06
1.16
0.42
0.43
-0.59
-2.56
-0.22
0.02
0.09
-0.22
0.11

> <PUBCHEM_SHAPE_SELFOVERLAP>
902.625

> <PUBCHEM_SHAPE_VOLUME>
230.1

> <PUBCHEM_COORDINATE_TYPE>
2
5
10

> <Energy>
71.9966

> <minimizedAffinity>
-2.12606

> <CNNscore>
0.3520281613

> <CNNaffinity>
6.8351159096

> <CNN_VS>
2.4061532021

> <CNNaffinity_variance>
0.2820695341

$$$$
6013


 22 25  0  0  0  0  0  0  0  0999 V2000
    0.9197   -1.7679   -2.8320 O   0  0  0  0  0  0  0  0  0  0  0  0
   10.8998    0.7457   -6.2849 O   0  0  0  0  0  0  0  0  0  0  0  0
    3.5120   -0.8962   -5.2547 C   0  0  0  0  0  0  0  0  0  0  0  0
    2.9517   -0.7593   -3.8257 C   0  0  0  0  0  0  0  0  0  0  0  0
    4.5951    0.1415   -5.5645 C   0  0  0  0  0  0  0  0  0  0  0  0
    5.7728   -0.0452   -4.5565 C   0  0  0  0  0  0  0  0  0  0  0  0
    6.9655    0.9523   -4.8178 C   0  0  0  0  0  0  0  0  0  0  0  0
    4.0984   -1.0205   -2.8406 C   0  0  0  0  0  0  0  0  0  0  0  0
    5.2788   -0.0624   -3.0832 C   0  0  0  0  0  0  0  0  0  0  0  0
    1.8764   -1.8639   -3.8703 C   0  0  0  0  0  0  0  0  0  0  0  0
    2.2590   -0.9458   -6.1254 C   0  0  0  0  0  0  0  0  0  0  0  0
    5.1061    0.0044   -7.0043 C   0  0  0  0  0  0  0  0  0  0  0  0
    1.2352   -1.7074   -5.2646 C   0  0  0  0  0  0  0  0  0  0  0  0
    7.3413    0.9208   -6.3059 C   0  0  0  0  0  0  0  0  0  0  0  0
    6.2055    1.0169   -7.2973 C   0  0  0  0  0  0  0  0  0  0  0  0
    2.3031    0.6122   -3.5134 C   0  0  0  0  0  0  0  0  0  0  0  0
    8.1797    0.5014   -3.9532 C   0  0  0  0  0  0  0  0  0  0  0  0
    6.5984    2.4062   -4.4454 C   0  0  0  0  0  0  0  0  0  0  0  0
    9.4997    1.1294   -4.3755 C   0  0  0  0  0  0  0  0  0  0  0  0
    8.6050    0.8364   -6.7559 C   0  0  0  0  0  0  0  0  0  0  0  0
    9.7644    0.8611   -5.8333 C   0  0  0  0  0  0  0  0  0  0  0  0
    1.3614   -1.8711   -1.9747 H   0  0  0  0  0  0  0  0  0  0  0  0
  1 10  1  0
  1 22  1  0
  2 21  2  0
  3  4  1  0
  3  5  1  0
  3 11  1  0
  4  8  1  0
  4 10  1  0
  4 16  1  0
  5  6  1  0
  5 12  1  0
  6  7  1  0
  6  9  1  0
  7 14  1  0
  7 17  1  0
  7 18  1  0
  8  9  1  0
 10 13  1  0
 11 13  1  0
 12 15  1  0
 14 15  1  0
 14 20  2  0
 17 19  1  0
 19 21  1  0
 20 21  1  0
M  END
> <PUBCHEM_COMPOUND_CID>
6013

> <PUBCHEM_CONFORMER_RMSD>
0.6

> <PUBCHEM_CONFORMER_DIVERSEORDER>
1

> <PUBCHEM_MMFF94_PARTIAL_CHARGES>
11
1 -0.68
10 0.28
14 -0.28
15 0.14
19 0.06
2 -0.57
20 -0.14
21 0.49
48 0.15
49 0.4
7 0.14

> <PUBCHEM_EFFECTIVE_ROTOR_COUNT>
1.8

> <PUBCHEM_PHARMACOPHORE_FEATURES>
7
1 1 acceptor
1 1 donor
1 2 acceptor
5 3 4 10 11 13 rings
6 3 4 5 6 8 9 rings
6 5 6 7 12 14 15 rings
6 7 14 17 19 20 21 rings

> <PUBCHEM_HEAVY_ATOM_COUNT>
21

> <PUBCHEM_ATOM_DEF_STEREO_COUNT>
6

> <PUBCHEM_ATOM_UDEF_STEREO_COUNT>
0

> <PUBCHEM_BOND_DEF_STEREO_COUNT>
0

> <PUBCHEM_BOND_UDEF_STEREO_COUNT>
0

> <PUBCHEM_ISOTOPIC_ATOM_COUNT>
0

> <PUBCHEM_COMPONENT_COUNT>
1

> <PUBCHEM_CACTVS_TAUTO_COUNT>
5

> <PUBCHEM_CONFORMER_ID>
0000177D00000001

> <PUBCHEM_MMFF94_ENERGY>
67.5416

> <PUBCHEM_FEATURE_SELFOVERLAP>
35.618

> <PUBCHEM_SHAPE_FINGERPRINT>
10062212 137 18336825385559829163
10759866 29 17897457309511876188
10967382 1 18412548682291571786
11132069 177 18410018732180467827
11370993 70 18410569557056084199
11578080 2 16735503067342509174
12011746 2 18412547592124142406
12236239 1 18040155136873436768
12251169 10 18410008845387181634
12403259 226 18410006624652160988
12403259 415 18408880746209696412
12403260 363 18340481291412090749
12403814 3 17894914044785590877
12507557 5 18408881845467772304
12633257 1 18341888602346167976
12839892 36 18340758291450253690
13140716 1 18339643467883616216
13214271 11 18272369780793716703
13224815 77 18411987974316295335
13675066 3 18187087269080573787
14178342 30 18338527339117458393
14223421 5 18341052895787930134
14341114 176 18411985737129035682
14787075 74 18339640165090922602
14790565 3 18050014594947639924
15163728 17 14691189929019880809
15196674 1 18411420639180230811
15375358 24 18413110541697833299
15536298 74 18272376330249831326
15788980 27 17167859768361771669
16945 1 18267308633664624303
17349148 13 18260547844245275310
17492 89 18410012108956776131
1813 80 17168144512515476742
18186145 218 18411423903503023558
18522853 276 18412546492037592553
19050596 39 18410858775858764633
19784866 9 18412265021155473810
200 152 18202274819337965375
20715895 44 18116989984517715477
21033648 29 18262779827106925672
21267235 1 18410302427354843602
21421861 104 18042966467372004754
21637258 2 15647319828885568714
22182313 1 18189614934485510503
22854114 111 18409735070690792279
22854114 59 18343022189864506130
23402539 116 18272925046486162621
23557571 272 18059303161493107767
23559900 14 18343023255612643838
26918003 58 18409728456589012017
2748010 2 18410304609229794207
2838139 119 14835541671104639250
296302 2 16343984710473737934
335352 9 18411702045432157758
34934 24 18341610383102269379
350125 39 18410857681354741304
351380 180 18413386540454065762
3545911 37 18411703166439727155
42 15 18260548935156425576
5104073 3 18410294747868572393
59755656 215 18339930311854621398
633830 44 17988931080225984300
69090 78 18413386557386229218
7364860 26 18200601276388112774
9709674 26 18341058445033876271

> <PUBCHEM_SHAPE_MULTIPOLES>
420.43
9.43
2.1
1.06
1.16
0.42
0.43
-0.59
-2.56
-0.22
0.02
0.09
-0.22
0.11

> <PUBCHEM_SHAPE_SELFOVERLAP>
902.625

> <PUBCHEM_SHAPE_VOLUME>
230.1

> <PUBCHEM_COORDINATE_TYPE>
2
5
10

> <Energy>
71.9966

> <minimizedAffinity>
-9.05619

> <CNNscore>
0.3016029298

> <CNNaffinity>
7.1681962013

> <CNN_VS>
2.1619489193

> <CNNaffinity_variance>
0.2769201100

$$$$
6013


 22 25  0  0  0  0  0  0  0  0999 V2000
    1.5341   -0.1198   -2.6984 O   0  0  0  0  0  0  0  0  0  0  0  0
   11.6924    1.0478   -6.3437 O   0  0  0  0  0  0  0  0  0  0  0  0
    4.7542   -1.1829   -4.0587 C   0  0  0  0  0  0  0  0  0  0  0  0
    3.6596   -0.1018   -3.9695 C   0  0  0  0  0  0  0  0  0  0  0  0
    5.7407   -0.9290   -5.2024 C   0  0  0  0  0  0  0  0  0  0  0  0
    6.4331    0.4513   -4.9718 C   0  0  0  0  0  0  0  0  0  0  0  0
    7.5047    0.7903   -6.0774 C   0  0  0  0  0  0  0  0  0  0  0  0
    4.3417    1.2384   -3.6658 C   0  0  0  0  0  0  0  0  0  0  0  0
    5.3993    1.5859   -4.7291 C   0  0  0  0  0  0  0  0  0  0  0  0
    2.8290   -0.6803   -2.8059 C   0  0  0  0  0  0  0  0  0  0  0  0
    3.9665   -2.4904   -4.0325 C   0  0  0  0  0  0  0  0  0  0  0  0
    6.7947   -2.0401   -5.2893 C   0  0  0  0  0  0  0  0  0  0  0  0
    2.7821   -2.1948   -3.0950 C   0  0  0  0  0  0  0  0  0  0  0  0
    8.4426   -0.4104   -6.2653 C   0  0  0  0  0  0  0  0  0  0  0  0
    7.7924   -1.7666   -6.4072 C   0  0  0  0  0  0  0  0  0  0  0  0
    2.7838    0.0389   -5.2393 C   0  0  0  0  0  0  0  0  0  0  0  0
    8.3184    2.0318   -5.6065 C   0  0  0  0  0  0  0  0  0  0  0  0
    6.8514    1.1080   -7.4410 C   0  0  0  0  0  0  0  0  0  0  0  0
    9.6136    2.2438   -6.3765 C   0  0  0  0  0  0  0  0  0  0  0  0
    9.7813   -0.3101   -6.3302 C   0  0  0  0  0  0  0  0  0  0  0  0
   10.4661    1.0040   -6.3184 C   0  0  0  0  0  0  0  0  0  0  0  0
    1.6070    0.8303   -2.5171 H   0  0  0  0  0  0  0  0  0  0  0  0
  1 10  1  0
  1 22  1  0
  2 21  2  0
  3  4  1  0
  3  5  1  0
  3 11  1  0
  4  8  1  0
  4 10  1  0
  4 16  1  0
  5  6  1  0
  5 12  1  0
  6  7  1  0
  6  9  1  0
  7 14  1  0
  7 17  1  0
  7 18  1  0
  8  9  1  0
 10 13  1  0
 11 13  1  0
 12 15  1  0
 14 15  1  0
 14 20  2  0
 17 19  1  0
 19 21  1  0
 20 21  1  0
M  END
> <PUBCHEM_COMPOUND_CID>
6013

> <PUBCHEM_CONFORMER_RMSD>
0.6

> <PUBCHEM_CONFORMER_DIVERSEORDER>
1

> <PUBCHEM_MMFF94_PARTIAL_CHARGES>
11
1 -0.68
10 0.28
14 -0.28
15 0.14
19 0.06
2 -0.57
20 -0.14
21 0.49
48 0.15
49 0.4
7 0.14

> <PUBCHEM_EFFECTIVE_ROTOR_COUNT>
1.8

> <PUBCHEM_PHARMACOPHORE_FEATURES>
7
1 1 acceptor
1 1 donor
1 2 acceptor
5 3 4 10 11 13 rings
6 3 4 5 6 8 9 rings
6 5 6 7 12 14 15 rings
6 7 14 17 19 20 21 rings

> <PUBCHEM_HEAVY_ATOM_COUNT>
21

> <PUBCHEM_ATOM_DEF_STEREO_COUNT>
6

> <PUBCHEM_ATOM_UDEF_STEREO_COUNT>
0

> <PUBCHEM_BOND_DEF_STEREO_COUNT>
0

> <PUBCHEM_BOND_UDEF_STEREO_COUNT>
0

> <PUBCHEM_ISOTOPIC_ATOM_COUNT>
0

> <PUBCHEM_COMPONENT_COUNT>
1

> <PUBCHEM_CACTVS_TAUTO_COUNT>
5

> <PUBCHEM_CONFORMER_ID>
0000177D00000001

> <PUBCHEM_MMFF94_ENERGY>
67.5416

> <PUBCHEM_FEATURE_SELFOVERLAP>
35.618

> <PUBCHEM_SHAPE_FINGERPRINT>
10062212 137 18336825385559829163
10759866 29 17897457309511876188
10967382 1 18412548682291571786
11132069 177 18410018732180467827
11370993 70 18410569557056084199
11578080 2 16735503067342509174
12011746 2 18412547592124142406
12236239 1 18040155136873436768
12251169 10 18410008845387181634
12403259 226 18410006624652160988
12403259 415 18408880746209696412
12403260 363 18340481291412090749
12403814 3 17894914044785590877
12507557 5 18408881845467772304
12633257 1 18341888602346167976
12839892 36 18340758291450253690
13140716 1 18339643467883616216
13214271 11 18272369780793716703
13224815 77 18411987974316295335
13675066 3 18187087269080573787
14178342 30 18338527339117458393
14223421 5 18341052895787930134
14341114 176 18411985737129035682
14787075 74 18339640165090922602
14790565 3 18050014594947639924
15163728 17 14691189929019880809
15196674 1 18411420639180230811
15375358 24 18413110541697833299
15536298 74 18272376330249831326
15788980 27 17167859768361771669
16945 1 18267308633664624303
17349148 13 18260547844245275310
17492 89 18410012108956776131
1813 80 17168144512515476742
18186145 218 18411423903503023558
18522853 276 18412546492037592553
19050596 39 18410858775858764633
19784866 9 18412265021155473810
200 152 18202274819337965375
20715895 44 18116989984517715477
21033648 29 18262779827106925672
21267235 1 18410302427354843602
21421861 104 18042966467372004754
21637258 2 15647319828885568714
22182313 1 18189614934485510503
22854114 111 18409735070690792279
22854114 59 18343022189864506130
23402539 116 18272925046486162621
23557571 272 18059303161493107767
23559900 14 18343023255612643838
26918003 58 18409728456589012017
2748010 2 18410304609229794207
2838139 119 14835541671104639250
296302 2 16343984710473737934
335352 9 18411702045432157758
34934 24 18341610383102269379
350125 39 18410857681354741304
351380 180 18413386540454065762
3545911 37 18411703166439727155
42 15 18260548935156425576
5104073 3 18410294747868572393
59755656 215 18339930311854621398
633830 44 17988931080225984300
69090 78 18413386557386229218
7364860 26 18200601276388112774
9709674 26 18341058445033876271

> <PUBCHEM_SHAPE_MULTIPOLES>
420.43
9.43
2.1
1.06
1.16
0.42
0.43
-0.59
-2.56
-0.22
0.02
0.09
-0.22
0.11

> <PUBCHEM_SHAPE_SELFOVERLAP>
902.625

> <PUBCHEM_SHAPE_VOLUME>
230.1

> <PUBCHEM_COORDINATE_TYPE>
2
5
10

> <Energy>
71.9966

> <minimizedAffinity>
-7.52956

> <CNNscore>
0.2262924463

> <CNNaffinity>
6.7320923805

> <CNN_VS>
1.5234216452

> <CNNaffinity_variance>
0.2808865011

$$$$
6013


 22 25  0  0  0  0  0  0  0  0999 V2000
    8.0093   -3.8766   -4.7187 O   0  0  0  0  0  0  0  0  0  0  0  0
   -1.2475    1.7900   -4.5082 O   0  0  0  0  0  0  0  0  0  0  0  0
    4.7861   -2.6679   -5.9432 C   0  0  0  0  0  0  0  0  0  0  0  0
    5.6688   -3.0675   -4.7448 C   0  0  0  0  0  0  0  0  0  0  0  0
    3.3063   -2.5426   -5.5688 C   0  0  0  0  0  0  0  0  0  0  0  0
    3.1582   -1.4484   -4.4649 C   0  0  0  0  0  0  0  0  0  0  0  0
    1.6595   -1.2102   -4.0370 C   0  0  0  0  0  0  0  0  0  0  0  0
    5.5785   -1.9503   -3.6972 C   0  0  0  0  0  0  0  0  0  0  0  0
    4.1216   -1.6944   -3.2706 C   0  0  0  0  0  0  0  0  0  0  0  0
    7.0313   -3.1718   -5.4598 C   0  0  0  0  0  0  0  0  0  0  0  0
    5.1965   -3.6554   -7.0328 C   0  0  0  0  0  0  0  0  0  0  0  0
    2.4491   -2.1812   -6.7884 C   0  0  0  0  0  0  0  0  0  0  0  0
    6.7019   -3.8704   -6.7951 C   0  0  0  0  0  0  0  0  0  0  0  0
    0.7936   -1.0235   -5.2907 C   0  0  0  0  0  0  0  0  0  0  0  0
    0.9833   -2.0259   -6.4048 C   0  0  0  0  0  0  0  0  0  0  0  0
    5.2980   -4.4217   -4.0909 C   0  0  0  0  0  0  0  0  0  0  0  0
    1.5999    0.0712   -3.1540 C   0  0  0  0  0  0  0  0  0  0  0  0
    1.0897   -2.3995   -3.2320 C   0  0  0  0  0  0  0  0  0  0  0  0
    0.1960    0.6322   -2.9821 C   0  0  0  0  0  0  0  0  0  0  0  0
   -0.1188   -0.0465   -5.4301 C   0  0  0  0  0  0  0  0  0  0  0  0
   -0.4328    0.8903   -4.3256 C   0  0  0  0  0  0  0  0  0  0  0  0
    8.1876   -3.4065   -3.8892 H   0  0  0  0  0  0  0  0  0  0  0  0
  1 10  1  0
  1 22  1  0
  2 21  2  0
  3  4  1  0
  3  5  1  0
  3 11  1  0
  4  8  1  0
  4 10  1  0
  4 16  1  0
  5  6  1  0
  5 12  1  0
  6  7  1  0
  6  9  1  0
  7 14  1  0
  7 17  1  0
  7 18  1  0
  8  9  1  0
 10 13  1  0
 11 13  1  0
 12 15  1  0
 14 15  1  0
 14 20  2  0
 17 19  1  0
 19 21  1  0
 20 21  1  0
M  END
> <PUBCHEM_COMPOUND_CID>
6013

> <PUBCHEM_CONFORMER_RMSD>
0.6

> <PUBCHEM_CONFORMER_DIVERSEORDER>
1

> <PUBCHEM_MMFF94_PARTIAL_CHARGES>
11
1 -0.68
10 0.28
14 -0.28
15 0.14
19 0.06
2 -0.57
20 -0.14
21 0.49
48 0.15
49 0.4
7 0.14

> <PUBCHEM_EFFECTIVE_ROTOR_COUNT>
1.8

> <PUBCHEM_PHARMACOPHORE_FEATURES>
7
1 1 acceptor
1 1 donor
1 2 acceptor
5 3 4 10 11 13 rings
6 3 4 5 6 8 9 rings
6 5 6 7 12 14 15 rings
6 7 14 17 19 20 21 rings

> <PUBCHEM_HEAVY_ATOM_COUNT>
21

> <PUBCHEM_ATOM_DEF_STEREO_COUNT>
6

> <PUBCHEM_ATOM_UDEF_STEREO_COUNT>
0

> <PUBCHEM_BOND_DEF_STEREO_COUNT>
0

> <PUBCHEM_BOND_UDEF_STEREO_COUNT>
0

> <PUBCHEM_ISOTOPIC_ATOM_COUNT>
0

> <PUBCHEM_COMPONENT_COUNT>
1

> <PUBCHEM_CACTVS_TAUTO_COUNT>
5

> <PUBCHEM_CONFORMER_ID>
0000177D00000001

> <PUBCHEM_MMFF94_ENERGY>
67.5416

> <PUBCHEM_FEATURE_SELFOVERLAP>
35.618

> <PUBCHEM_SHAPE_FINGERPRINT>
10062212 137 18336825385559829163
10759866 29 17897457309511876188
10967382 1 18412548682291571786
11132069 177 18410018732180467827
11370993 70 18410569557056084199
11578080 2 16735503067342509174
12011746 2 18412547592124142406
12236239 1 18040155136873436768
12251169 10 18410008845387181634
12403259 226 18410006624652160988
12403259 415 18408880746209696412
12403260 363 18340481291412090749
12403814 3 17894914044785590877
12507557 5 18408881845467772304
12633257 1 18341888602346167976
12839892 36 18340758291450253690
13140716 1 18339643467883616216
13214271 11 18272369780793716703
13224815 77 18411987974316295335
13675066 3 18187087269080573787
14178342 30 18338527339117458393
14223421 5 18341052895787930134
14341114 176 18411985737129035682
14787075 74 18339640165090922602
14790565 3 18050014594947639924
15163728 17 14691189929019880809
15196674 1 18411420639180230811
15375358 24 18413110541697833299
15536298 74 18272376330249831326
15788980 27 17167859768361771669
16945 1 18267308633664624303
17349148 13 18260547844245275310
17492 89 18410012108956776131
1813 80 17168144512515476742
18186145 218 18411423903503023558
18522853 276 18412546492037592553
19050596 39 18410858775858764633
19784866 9 18412265021155473810
200 152 18202274819337965375
20715895 44 18116989984517715477
21033648 29 18262779827106925672
21267235 1 18410302427354843602
21421861 104 18042966467372004754
21637258 2 15647319828885568714
22182313 1 18189614934485510503
22854114 111 18409735070690792279
22854114 59 18343022189864506130
23402539 116 18272925046486162621
23557571 272 18059303161493107767
23559900 14 18343023255612643838
26918003 58 18409728456589012017
2748010 2 18410304609229794207
2838139 119 14835541671104639250
296302 2 16343984710473737934
335352 9 18411702045432157758
34934 24 18341610383102269379
350125 39 18410857681354741304
351380 180 18413386540454065762
3545911 37 18411703166439727155
42 15 18260548935156425576
5104073 3 18410294747868572393
59755656 215 18339930311854621398
633830 44 17988931080225984300
69090 78 18413386557386229218
7364860 26 18200601276388112774
9709674 26 18341058445033876271

> <PUBCHEM_SHAPE_MULTIPOLES>
420.43
9.43
2.1
1.06
1.16
0.42
0.43
-0.59
-2.56
-0.22
0.02
0.09
-0.22
0.11

> <PUBCHEM_SHAPE_SELFOVERLAP>
902.625

> <PUBCHEM_SHAPE_VOLUME>
230.1

> <PUBCHEM_COORDINATE_TYPE>
2
5
10

> <Energy>
71.9966

> <minimizedAffinity>
19.48363

> <CNNscore>
0.2161533535

> <CNNaffinity>
5.7464652061

> <CNN_VS>
1.2421177626

> <CNNaffinity_variance>
0.3927839994

$$$$
