5991


 24 27  0  0  0  0  0  0  0  0999 V2000
   -9.8311   -7.0681   22.9592 O   0  0  0  0  0  0  0  0  0  0  0  0
    0.6473   -5.3957   20.1397 O   0  0  0  0  0  0  0  0  0  0  0  0
   -7.5818   -6.2945   22.2836 C   0  0  0  0  0  0  0  0  0  0  0  0
   -6.9509   -4.8849   22.3576 C   0  0  0  0  0  0  0  0  0  0  0  0
   -5.4229   -4.9185   22.2745 C   0  0  0  0  0  0  0  0  0  0  0  0
   -9.0852   -5.9427   22.5117 C   0  0  0  0  0  0  0  0  0  0  0  0
   -5.0057   -5.5471   20.9111 C   0  0  0  0  0  0  0  0  0  0  0  0
   -7.1980   -6.9172   20.9279 C   0  0  0  0  0  0  0  0  0  0  0  0
   -7.6045   -4.2659   23.5905 C   0  0  0  0  0  0  0  0  0  0  0  0
   -5.6727   -6.9319   20.7042 C   0  0  0  0  0  0  0  0  0  0  0  0
   -9.0228   -4.8672   23.6288 C   0  0  0  0  0  0  0  0  0  0  0  0
   -4.7999   -3.5253   22.3912 C   0  0  0  0  0  0  0  0  0  0  0  0
   -7.0993   -7.2545   23.4111 C   0  0  0  0  0  0  0  0  0  0  0  0
   -3.4878   -5.5288   20.7345 C   0  0  0  0  0  0  0  0  0  0  0  0
   -3.2802   -3.6416   22.4522 C   0  0  0  0  0  0  0  0  0  0  0  0
   -2.6968   -4.5938   21.4380 C   0  0  0  0  0  0  0  0  0  0  0  0
   -2.8529   -6.3714   19.8059 C   0  0  0  0  0  0  0  0  0  0  0  0
   -1.3027   -4.5646   21.2422 C   0  0  0  0  0  0  0  0  0  0  0  0
   -1.4656   -6.3253   19.6126 C   0  0  0  0  0  0  0  0  0  0  0  0
   -0.7013   -5.4241   20.3374 C   0  0  0  0  0  0  0  0  0  0  0  0
   -9.4072   -7.4448   23.7462 H   0  0  0  0  0  0  0  0  0  0  0  0
    1.1787   -4.7927   20.6213 H   0  0  0  0  0  0  0  0  0  0  0  0
   -9.7559   -5.3960   21.3170 C   0  0  0  0  0  0  0  0  0  0  0  0
  -10.3009   -4.9635   20.3353 C   0  0  0  0  0  0  0  0  0  0  0  0
  1  6  1  0
  1 21  1  0
  2 20  1  0
  2 22  1  0
  3  4  1  0
  3  6  1  0
  3  8  1  0
  3 13  1  0
  4  5  1  0
  4  9  1  0
  5  7  1  0
  5 12  1  0
  6 11  1  0
  6 23  1  0
  7 10  1  0
  7 14  1  0
  8 10  1  0
  9 11  1  0
 12 15  1  0
 14 16  2  0
 14 17  1  0
 15 16  1  0
 16 18  1  0
 23 24  3  0
 17 19  2  0
 18 20  2  0
 19 20  1  0
M  END
> <PUBCHEM_COMPOUND_CID>
5991

> <PUBCHEM_CONFORMER_RMSD>
0.6

> <PUBCHEM_CONFORMER_DIVERSEORDER>
1

> <PUBCHEM_MMFF94_PARTIAL_CHARGES>
19
1 -0.68
14 -0.14
15 0.14
16 -0.14
17 -0.2
18 -0.15
19 -0.15
2 -0.53
20 -0.15
21 0.08
22 -0.18
41 0.4
42 0.15
43 0.15
44 0.15
45 0.18
46 0.45
6 0.48
7 0.14

> <PUBCHEM_EFFECTIVE_ROTOR_COUNT>
1.4

> <PUBCHEM_PHARMACOPHORE_FEATURES>
8
1 1 acceptor
1 1 donor
1 2 donor
1 22 hydrophobe
5 3 4 6 9 11 rings
6 14 16 18 19 20 21 rings
6 3 4 5 7 8 10 rings
6 5 7 12 14 15 16 rings

> <PUBCHEM_HEAVY_ATOM_COUNT>
22

> <PUBCHEM_ATOM_DEF_STEREO_COUNT>
5

> <PUBCHEM_ATOM_UDEF_STEREO_COUNT>
0

> <PUBCHEM_BOND_DEF_STEREO_COUNT>
0

> <PUBCHEM_BOND_UDEF_STEREO_COUNT>
0

> <PUBCHEM_ISOTOPIC_ATOM_COUNT>
0

> <PUBCHEM_COMPONENT_COUNT>
1

> <PUBCHEM_CACTVS_TAUTO_COUNT>
9

> <PUBCHEM_CONFORMER_ID>
0000176700000001

> <PUBCHEM_MMFF94_ENERGY>
75.3654

> <PUBCHEM_FEATURE_SELFOVERLAP>
40.689

> <PUBCHEM_SHAPE_FINGERPRINT>
10498660 4 18334565854482978588
10616163 171 18412261769892000550
10906281 52 18268729332496851400
10967382 1 18409163299196382730
11132069 177 18260823830106114581
11315181 36 17846777438100329984
11552529 35 18058445585631877095
11578080 2 16952518088400902894
11796584 16 15123796154675551020
12107183 9 17697047933183828707
12236239 1 17917992754997443209
12403259 415 18260540148118003532
12403814 3 17531241756051219503
12633257 1 18411416168188185458
12644460 14 18260827060354363322
12788726 201 17059505002047033793
128620 24 17385724690407290772
13140716 1 18264499557760559337
13224815 77 18408318891198213202
13675066 3 17749393654488776519
14790565 3 18338806709892665688
15163728 17 15481289097577292713
15183329 4 18408605830407435614
15196674 1 18337388339818468438
15209289 33 18341332270467662817
15209294 21 18059584555192331817
15309172 13 18409451371427638915
15536298 74 18341610425830279326
15788980 27 17749105603943632888
16945 1 18265320738190372627
17349148 13 18114176445825312880
1813 80 17530976782159466655
18186145 218 18409161126111612646
19489759 90 15410896249631894657
19591789 44 18193273216009210722
200 152 17918273168974754922
21033648 29 17968079933063946356
21267235 1 18338240469814837151
21623110 236 18263368155990106261
23402539 116 18410566319162361766
23402655 69 18201721773563375622
23559900 14 18341325700027887232
335352 9 18410007719541319564
34934 24 18335695014618288215
350125 39 18408603674022772468
3545911 37 18408602569419241710
3680242 22 18335416829913620042
4214541 1 18412824715549947695
474 4 18408605889666299408
5104073 3 18339077194179428906
542803 24 17561084709247609168
59755656 215 18335983078396721054
633830 44 18202282537272954908
9709674 26 18410014338397756278

> <PUBCHEM_SHAPE_MULTIPOLES>
441.01
10.64
2.03
1.22
7.18
0.55
-0.05
-1.94
-1.01
0.21
-0.15
-1.94
-0.33
-0.49

> <PUBCHEM_SHAPE_SELFOVERLAP>
961.464

> <PUBCHEM_SHAPE_VOLUME>
238.8

> <PUBCHEM_COORDINATE_TYPE>
2
5
10

> <Energy>
61.5647

> <minimizedAffinity>
-7.79833

> <CNNscore>
0.7632962465

> <CNNaffinity>
7.7320499420

> <CNN_VS>
5.9018445015

> <CNNaffinity_variance>
0.3298356831

$$$$
5991


 24 27  0  0  0  0  0  0  0  0999 V2000
   -9.5762   -7.3063   20.7181 O   0  0  0  0  0  0  0  0  0  0  0  0
    1.1087   -4.9195   19.8946 O   0  0  0  0  0  0  0  0  0  0  0  0
   -7.2477   -6.4805   20.8194 C   0  0  0  0  0  0  0  0  0  0  0  0
   -6.5138   -5.7092   21.9407 C   0  0  0  0  0  0  0  0  0  0  0  0
   -4.9908   -5.7893   21.8108 C   0  0  0  0  0  0  0  0  0  0  0  0
   -8.7278   -6.3165   21.2870 C   0  0  0  0  0  0  0  0  0  0  0  0
   -4.5665   -5.1559   20.4518 C   0  0  0  0  0  0  0  0  0  0  0  0
   -6.8566   -5.8467   19.4710 C   0  0  0  0  0  0  0  0  0  0  0  0
   -7.1688   -6.2280   23.2182 C   0  0  0  0  0  0  0  0  0  0  0  0
   -5.3289   -5.8055   19.2677 C   0  0  0  0  0  0  0  0  0  0  0  0
   -8.6296   -6.5183   22.8225 C   0  0  0  0  0  0  0  0  0  0  0  0
   -4.2677   -5.0609   22.9463 C   0  0  0  0  0  0  0  0  0  0  0  0
   -6.8883   -7.9949   20.7649 C   0  0  0  0  0  0  0  0  0  0  0  0
   -3.0456   -5.1301   20.3040 C   0  0  0  0  0  0  0  0  0  0  0  0
   -2.7654   -5.3038   22.8430 C   0  0  0  0  0  0  0  0  0  0  0  0
   -2.2151   -5.1572   21.4461 C   0  0  0  0  0  0  0  0  0  0  0  0
   -2.4391   -4.9858   19.0443 C   0  0  0  0  0  0  0  0  0  0  0  0
   -0.8160   -5.0998   21.2988 C   0  0  0  0  0  0  0  0  0  0  0  0
   -1.0455   -4.9192   18.9121 C   0  0  0  0  0  0  0  0  0  0  0  0
   -0.2451   -4.9817   20.0421 C   0  0  0  0  0  0  0  0  0  0  0  0
   -9.2160   -8.1873   20.9051 H   0  0  0  0  0  0  0  0  0  0  0  0
    1.6644   -4.9605   20.6479 H   0  0  0  0  0  0  0  0  0  0  0  0
   -9.3037   -4.9926   20.9843 C   0  0  0  0  0  0  0  0  0  0  0  0
   -9.7594   -3.9070   20.7358 C   0  0  0  0  0  0  0  0  0  0  0  0
  1  6  1  0
  1 21  1  0
  2 20  1  0
  2 22  1  0
  3  4  1  0
  3  6  1  0
  3  8  1  0
  3 13  1  0
  4  5  1  0
  4  9  1  0
  5  7  1  0
  5 12  1  0
  6 11  1  0
  6 23  1  0
  7 10  1  0
  7 14  1  0
  8 10  1  0
  9 11  1  0
 12 15  1  0
 14 16  2  0
 14 17  1  0
 15 16  1  0
 16 18  1  0
 23 24  3  0
 17 19  2  0
 18 20  2  0
 19 20  1  0
M  END
> <PUBCHEM_COMPOUND_CID>
5991

> <PUBCHEM_CONFORMER_RMSD>
0.6

> <PUBCHEM_CONFORMER_DIVERSEORDER>
1

> <PUBCHEM_MMFF94_PARTIAL_CHARGES>
19
1 -0.68
14 -0.14
15 0.14
16 -0.14
17 -0.2
18 -0.15
19 -0.15
2 -0.53
20 -0.15
21 0.08
22 -0.18
41 0.4
42 0.15
43 0.15
44 0.15
45 0.18
46 0.45
6 0.48
7 0.14

> <PUBCHEM_EFFECTIVE_ROTOR_COUNT>
1.4

> <PUBCHEM_PHARMACOPHORE_FEATURES>
8
1 1 acceptor
1 1 donor
1 2 donor
1 22 hydrophobe
5 3 4 6 9 11 rings
6 14 16 18 19 20 21 rings
6 3 4 5 7 8 10 rings
6 5 7 12 14 15 16 rings

> <PUBCHEM_HEAVY_ATOM_COUNT>
22

> <PUBCHEM_ATOM_DEF_STEREO_COUNT>
5

> <PUBCHEM_ATOM_UDEF_STEREO_COUNT>
0

> <PUBCHEM_BOND_DEF_STEREO_COUNT>
0

> <PUBCHEM_BOND_UDEF_STEREO_COUNT>
0

> <PUBCHEM_ISOTOPIC_ATOM_COUNT>
0

> <PUBCHEM_COMPONENT_COUNT>
1

> <PUBCHEM_CACTVS_TAUTO_COUNT>
9

> <PUBCHEM_CONFORMER_ID>
0000176700000001

> <PUBCHEM_MMFF94_ENERGY>
75.3654

> <PUBCHEM_FEATURE_SELFOVERLAP>
40.689

> <PUBCHEM_SHAPE_FINGERPRINT>
10498660 4 18334565854482978588
10616163 171 18412261769892000550
10906281 52 18268729332496851400
10967382 1 18409163299196382730
11132069 177 18260823830106114581
11315181 36 17846777438100329984
11552529 35 18058445585631877095
11578080 2 16952518088400902894
11796584 16 15123796154675551020
12107183 9 17697047933183828707
12236239 1 17917992754997443209
12403259 415 18260540148118003532
12403814 3 17531241756051219503
12633257 1 18411416168188185458
12644460 14 18260827060354363322
12788726 201 17059505002047033793
128620 24 17385724690407290772
13140716 1 18264499557760559337
13224815 77 18408318891198213202
13675066 3 17749393654488776519
14790565 3 18338806709892665688
15163728 17 15481289097577292713
15183329 4 18408605830407435614
15196674 1 18337388339818468438
15209289 33 18341332270467662817
15209294 21 18059584555192331817
15309172 13 18409451371427638915
15536298 74 18341610425830279326
15788980 27 17749105603943632888
16945 1 18265320738190372627
17349148 13 18114176445825312880
1813 80 17530976782159466655
18186145 218 18409161126111612646
19489759 90 15410896249631894657
19591789 44 18193273216009210722
200 152 17918273168974754922
21033648 29 17968079933063946356
21267235 1 18338240469814837151
21623110 236 18263368155990106261
23402539 116 18410566319162361766
23402655 69 18201721773563375622
23559900 14 18341325700027887232
335352 9 18410007719541319564
34934 24 18335695014618288215
350125 39 18408603674022772468
3545911 37 18408602569419241710
3680242 22 18335416829913620042
4214541 1 18412824715549947695
474 4 18408605889666299408
5104073 3 18339077194179428906
542803 24 17561084709247609168
59755656 215 18335983078396721054
633830 44 18202282537272954908
9709674 26 18410014338397756278

> <PUBCHEM_SHAPE_MULTIPOLES>
441.01
10.64
2.03
1.22
7.18
0.55
-0.05
-1.94
-1.01
0.21
-0.15
-1.94
-0.33
-0.49

> <PUBCHEM_SHAPE_SELFOVERLAP>
961.464

> <PUBCHEM_SHAPE_VOLUME>
238.8

> <PUBCHEM_COORDINATE_TYPE>
2
5
10

> <Energy>
61.5647

> <minimizedAffinity>
-6.23859

> <CNNscore>
0.7389979362

> <CNNaffinity>
7.9432525635

> <CNN_VS>
5.8700470924

> <CNNaffinity_variance>
0.8496267200

$$$$
5991


 24 27  0  0  0  0  0  0  0  0999 V2000
   -9.2391   -5.3764   23.7694 O   0  0  0  0  0  0  0  0  0  0  0  0
    0.4236   -4.0278   18.7339 O   0  0  0  0  0  0  0  0  0  0  0  0
   -7.1808   -5.3917   22.3992 C   0  0  0  0  0  0  0  0  0  0  0  0
   -6.9326   -5.9613   20.9833 C   0  0  0  0  0  0  0  0  0  0  0  0
   -5.6838   -5.3727   20.3224 C   0  0  0  0  0  0  0  0  0  0  0  0
   -8.5437   -6.0711   22.7412 C   0  0  0  0  0  0  0  0  0  0  0  0
   -4.4398   -5.7235   21.1929 C   0  0  0  0  0  0  0  0  0  0  0  0
   -5.9685   -5.7546   23.2775 C   0  0  0  0  0  0  0  0  0  0  0  0
   -8.2805   -5.7883   20.2880 C   0  0  0  0  0  0  0  0  0  0  0  0
   -4.6389   -5.2729   22.6635 C   0  0  0  0  0  0  0  0  0  0  0  0
   -9.3265   -5.9673   21.4053 C   0  0  0  0  0  0  0  0  0  0  0  0
   -5.4654   -5.9067   18.9048 C   0  0  0  0  0  0  0  0  0  0  0  0
   -7.3537   -3.8442   22.4281 C   0  0  0  0  0  0  0  0  0  0  0  0
   -3.1493   -5.2339   20.5368 C   0  0  0  0  0  0  0  0  0  0  0  0
   -4.2989   -5.1738   18.2499 C   0  0  0  0  0  0  0  0  0  0  0  0
   -3.0916   -5.0221   19.1415 C   0  0  0  0  0  0  0  0  0  0  0  0
   -1.9693   -5.0720   21.2830 C   0  0  0  0  0  0  0  0  0  0  0  0
   -1.8877   -4.6026   18.5438 C   0  0  0  0  0  0  0  0  0  0  0  0
   -0.7747   -4.6641   20.6744 C   0  0  0  0  0  0  0  0  0  0  0  0
   -0.7460   -4.4280   19.3087 C   0  0  0  0  0  0  0  0  0  0  0  0
   -9.3332   -4.4431   23.5225 H   0  0  0  0  0  0  0  0  0  0  0  0
    0.4605   -3.8639   17.8121 H   0  0  0  0  0  0  0  0  0  0  0  0
   -8.4186   -7.4833   23.1484 C   0  0  0  0  0  0  0  0  0  0  0  0
   -8.3019   -8.6354   23.4756 C   0  0  0  0  0  0  0  0  0  0  0  0
  1  6  1  0
  1 21  1  0
  2 20  1  0
  2 22  1  0
  3  4  1  0
  3  6  1  0
  3  8  1  0
  3 13  1  0
  4  5  1  0
  4  9  1  0
  5  7  1  0
  5 12  1  0
  6 11  1  0
  6 23  1  0
  7 10  1  0
  7 14  1  0
  8 10  1  0
  9 11  1  0
 12 15  1  0
 14 16  2  0
 14 17  1  0
 15 16  1  0
 16 18  1  0
 23 24  3  0
 17 19  2  0
 18 20  2  0
 19 20  1  0
M  END
> <PUBCHEM_COMPOUND_CID>
5991

> <PUBCHEM_CONFORMER_RMSD>
0.6

> <PUBCHEM_CONFORMER_DIVERSEORDER>
1

> <PUBCHEM_MMFF94_PARTIAL_CHARGES>
19
1 -0.68
14 -0.14
15 0.14
16 -0.14
17 -0.2
18 -0.15
19 -0.15
2 -0.53
20 -0.15
21 0.08
22 -0.18
41 0.4
42 0.15
43 0.15
44 0.15
45 0.18
46 0.45
6 0.48
7 0.14

> <PUBCHEM_EFFECTIVE_ROTOR_COUNT>
1.4

> <PUBCHEM_PHARMACOPHORE_FEATURES>
8
1 1 acceptor
1 1 donor
1 2 donor
1 22 hydrophobe
5 3 4 6 9 11 rings
6 14 16 18 19 20 21 rings
6 3 4 5 7 8 10 rings
6 5 7 12 14 15 16 rings

> <PUBCHEM_HEAVY_ATOM_COUNT>
22

> <PUBCHEM_ATOM_DEF_STEREO_COUNT>
5

> <PUBCHEM_ATOM_UDEF_STEREO_COUNT>
0

> <PUBCHEM_BOND_DEF_STEREO_COUNT>
0

> <PUBCHEM_BOND_UDEF_STEREO_COUNT>
0

> <PUBCHEM_ISOTOPIC_ATOM_COUNT>
0

> <PUBCHEM_COMPONENT_COUNT>
1

> <PUBCHEM_CACTVS_TAUTO_COUNT>
9

> <PUBCHEM_CONFORMER_ID>
0000176700000001

> <PUBCHEM_MMFF94_ENERGY>
75.3654

> <PUBCHEM_FEATURE_SELFOVERLAP>
40.689

> <PUBCHEM_SHAPE_FINGERPRINT>
10498660 4 18334565854482978588
10616163 171 18412261769892000550
10906281 52 18268729332496851400
10967382 1 18409163299196382730
11132069 177 18260823830106114581
11315181 36 17846777438100329984
11552529 35 18058445585631877095
11578080 2 16952518088400902894
11796584 16 15123796154675551020
12107183 9 17697047933183828707
12236239 1 17917992754997443209
12403259 415 18260540148118003532
12403814 3 17531241756051219503
12633257 1 18411416168188185458
12644460 14 18260827060354363322
12788726 201 17059505002047033793
128620 24 17385724690407290772
13140716 1 18264499557760559337
13224815 77 18408318891198213202
13675066 3 17749393654488776519
14790565 3 18338806709892665688
15163728 17 15481289097577292713
15183329 4 18408605830407435614
15196674 1 18337388339818468438
15209289 33 18341332270467662817
15209294 21 18059584555192331817
15309172 13 18409451371427638915
15536298 74 18341610425830279326
15788980 27 17749105603943632888
16945 1 18265320738190372627
17349148 13 18114176445825312880
1813 80 17530976782159466655
18186145 218 18409161126111612646
19489759 90 15410896249631894657
19591789 44 18193273216009210722
200 152 17918273168974754922
21033648 29 17968079933063946356
21267235 1 18338240469814837151
21623110 236 18263368155990106261
23402539 116 18410566319162361766
23402655 69 18201721773563375622
23559900 14 18341325700027887232
335352 9 18410007719541319564
34934 24 18335695014618288215
350125 39 18408603674022772468
3545911 37 18408602569419241710
3680242 22 18335416829913620042
4214541 1 18412824715549947695
474 4 18408605889666299408
5104073 3 18339077194179428906
542803 24 17561084709247609168
59755656 215 18335983078396721054
633830 44 18202282537272954908
9709674 26 18410014338397756278

> <PUBCHEM_SHAPE_MULTIPOLES>
441.01
10.64
2.03
1.22
7.18
0.55
-0.05
-1.94
-1.01
0.21
-0.15
-1.94
-0.33
-0.49

> <PUBCHEM_SHAPE_SELFOVERLAP>
961.464

> <PUBCHEM_SHAPE_VOLUME>
238.8

> <PUBCHEM_COORDINATE_TYPE>
2
5
10

> <Energy>
61.5647

> <minimizedAffinity>
-8.01695

> <CNNscore>
0.5693731308

> <CNNaffinity>
7.6766047478

> <CNN_VS>
4.3708524704

> <CNNaffinity_variance>
0.6203165054

$$$$
5991


 24 27  0  0  0  0  0  0  0  0999 V2000
  -10.5838   -5.7930   21.9673 O   0  0  0  0  0  0  0  0  0  0  0  0
   -0.8277   -5.7195   16.9319 O   0  0  0  0  0  0  0  0  0  0  0  0
   -8.2281   -5.7815   21.2157 C   0  0  0  0  0  0  0  0  0  0  0  0
   -6.9471   -6.2378   21.9515 C   0  0  0  0  0  0  0  0  0  0  0  0
   -5.7789   -6.4937   20.9962 C   0  0  0  0  0  0  0  0  0  0  0  0
   -9.2333   -5.7254   22.4085 C   0  0  0  0  0  0  0  0  0  0  0  0
   -5.4417   -5.1701   20.2461 C   0  0  0  0  0  0  0  0  0  0  0  0
   -7.9152   -4.4591   20.4905 C   0  0  0  0  0  0  0  0  0  0  0  0
   -7.4331   -7.3815   22.8380 C   0  0  0  0  0  0  0  0  0  0  0  0
   -6.6982   -4.5827   19.5522 C   0  0  0  0  0  0  0  0  0  0  0  0
   -8.8750   -6.9972   23.2225 C   0  0  0  0  0  0  0  0  0  0  0  0
   -4.5255   -6.9862   21.7237 C   0  0  0  0  0  0  0  0  0  0  0  0
   -8.7385   -6.8045   20.1581 C   0  0  0  0  0  0  0  0  0  0  0  0
   -4.2244   -5.3430   19.3383 C   0  0  0  0  0  0  0  0  0  0  0  0
   -3.4525   -7.3641   20.7075 C   0  0  0  0  0  0  0  0  0  0  0  0
   -3.2758   -6.3567   19.5988 C   0  0  0  0  0  0  0  0  0  0  0  0
   -3.9689   -4.4482   18.2851 C   0  0  0  0  0  0  0  0  0  0  0  0
   -2.1412   -6.4854   18.7749 C   0  0  0  0  0  0  0  0  0  0  0  0
   -2.8303   -4.5808   17.4789 C   0  0  0  0  0  0  0  0  0  0  0  0
   -1.9278   -5.6029   17.7286 C   0  0  0  0  0  0  0  0  0  0  0  0
  -10.7028   -6.5773   21.4091 H   0  0  0  0  0  0  0  0  0  0  0  0
   -0.2076   -6.4047   17.0867 H   0  0  0  0  0  0  0  0  0  0  0  0
   -9.0881   -4.5244   23.2524 C   0  0  0  0  0  0  0  0  0  0  0  0
   -8.9548   -3.5479   23.9429 C   0  0  0  0  0  0  0  0  0  0  0  0
  1  6  1  0
  1 21  1  0
  2 20  1  0
  2 22  1  0
  3  4  1  0
  3  6  1  0
  3  8  1  0
  3 13  1  0
  4  5  1  0
  4  9  1  0
  5  7  1  0
  5 12  1  0
  6 11  1  0
  6 23  1  0
  7 10  1  0
  7 14  1  0
  8 10  1  0
  9 11  1  0
 12 15  1  0
 14 16  2  0
 14 17  1  0
 15 16  1  0
 16 18  1  0
 23 24  3  0
 17 19  2  0
 18 20  2  0
 19 20  1  0
M  END
> <PUBCHEM_COMPOUND_CID>
5991

> <PUBCHEM_CONFORMER_RMSD>
0.6

> <PUBCHEM_CONFORMER_DIVERSEORDER>
1

> <PUBCHEM_MMFF94_PARTIAL_CHARGES>
19
1 -0.68
14 -0.14
15 0.14
16 -0.14
17 -0.2
18 -0.15
19 -0.15
2 -0.53
20 -0.15
21 0.08
22 -0.18
41 0.4
42 0.15
43 0.15
44 0.15
45 0.18
46 0.45
6 0.48
7 0.14

> <PUBCHEM_EFFECTIVE_ROTOR_COUNT>
1.4

> <PUBCHEM_PHARMACOPHORE_FEATURES>
8
1 1 acceptor
1 1 donor
1 2 donor
1 22 hydrophobe
5 3 4 6 9 11 rings
6 14 16 18 19 20 21 rings
6 3 4 5 7 8 10 rings
6 5 7 12 14 15 16 rings

> <PUBCHEM_HEAVY_ATOM_COUNT>
22

> <PUBCHEM_ATOM_DEF_STEREO_COUNT>
5

> <PUBCHEM_ATOM_UDEF_STEREO_COUNT>
0

> <PUBCHEM_BOND_DEF_STEREO_COUNT>
0

> <PUBCHEM_BOND_UDEF_STEREO_COUNT>
0

> <PUBCHEM_ISOTOPIC_ATOM_COUNT>
0

> <PUBCHEM_COMPONENT_COUNT>
1

> <PUBCHEM_CACTVS_TAUTO_COUNT>
9

> <PUBCHEM_CONFORMER_ID>
0000176700000001

> <PUBCHEM_MMFF94_ENERGY>
75.3654

> <PUBCHEM_FEATURE_SELFOVERLAP>
40.689

> <PUBCHEM_SHAPE_FINGERPRINT>
10498660 4 18334565854482978588
10616163 171 18412261769892000550
10906281 52 18268729332496851400
10967382 1 18409163299196382730
11132069 177 18260823830106114581
11315181 36 17846777438100329984
11552529 35 18058445585631877095
11578080 2 16952518088400902894
11796584 16 15123796154675551020
12107183 9 17697047933183828707
12236239 1 17917992754997443209
12403259 415 18260540148118003532
12403814 3 17531241756051219503
12633257 1 18411416168188185458
12644460 14 18260827060354363322
12788726 201 17059505002047033793
128620 24 17385724690407290772
13140716 1 18264499557760559337
13224815 77 18408318891198213202
13675066 3 17749393654488776519
14790565 3 18338806709892665688
15163728 17 15481289097577292713
15183329 4 18408605830407435614
15196674 1 18337388339818468438
15209289 33 18341332270467662817
15209294 21 18059584555192331817
15309172 13 18409451371427638915
15536298 74 18341610425830279326
15788980 27 17749105603943632888
16945 1 18265320738190372627
17349148 13 18114176445825312880
1813 80 17530976782159466655
18186145 218 18409161126111612646
19489759 90 15410896249631894657
19591789 44 18193273216009210722
200 152 17918273168974754922
21033648 29 17968079933063946356
21267235 1 18338240469814837151
21623110 236 18263368155990106261
23402539 116 18410566319162361766
23402655 69 18201721773563375622
23559900 14 18341325700027887232
335352 9 18410007719541319564
34934 24 18335695014618288215
350125 39 18408603674022772468
3545911 37 18408602569419241710
3680242 22 18335416829913620042
4214541 1 18412824715549947695
474 4 18408605889666299408
5104073 3 18339077194179428906
542803 24 17561084709247609168
59755656 215 18335983078396721054
633830 44 18202282537272954908
9709674 26 18410014338397756278

> <PUBCHEM_SHAPE_MULTIPOLES>
441.01
10.64
2.03
1.22
7.18
0.55
-0.05
-1.94
-1.01
0.21
-0.15
-1.94
-0.33
-0.49

> <PUBCHEM_SHAPE_SELFOVERLAP>
961.464

> <PUBCHEM_SHAPE_VOLUME>
238.8

> <PUBCHEM_COORDINATE_TYPE>
2
5
10

> <Energy>
61.5647

> <minimizedAffinity>
-4.57439

> <CNNscore>
0.2013562620

> <CNNaffinity>
6.6407246590

> <CNN_VS>
1.3371515274

> <CNNaffinity_variance>
0.2569028437

$$$$
5991


 24 27  0  0  0  0  0  0  0  0999 V2000
    0.1688   -5.2589   20.5032 O   0  0  0  0  0  0  0  0  0  0  0  0
  -10.3445   -5.5402   23.6551 O   0  0  0  0  0  0  0  0  0  0  0  0
   -2.2794   -5.4093   20.8164 C   0  0  0  0  0  0  0  0  0  0  0  0
   -3.3485   -6.1319   19.9647 C   0  0  0  0  0  0  0  0  0  0  0  0
   -4.6522   -6.3668   20.7316 C   0  0  0  0  0  0  0  0  0  0  0  0
   -1.0715   -5.4288   19.8280 C   0  0  0  0  0  0  0  0  0  0  0  0
   -5.2437   -4.9886   21.1547 C   0  0  0  0  0  0  0  0  0  0  0  0
   -2.8422   -4.0334   21.2198 C   0  0  0  0  0  0  0  0  0  0  0  0
   -2.6011   -7.3385   19.4026 C   0  0  0  0  0  0  0  0  0  0  0  0
   -4.2019   -4.1475   21.9374 C   0  0  0  0  0  0  0  0  0  0  0  0
   -1.1518   -6.8509   19.2120 C   0  0  0  0  0  0  0  0  0  0  0  0
   -5.6927   -7.1202   19.8995 C   0  0  0  0  0  0  0  0  0  0  0  0
   -1.8948   -6.1752   22.1168 C   0  0  0  0  0  0  0  0  0  0  0  0
   -6.5933   -5.1561   21.8518 C   0  0  0  0  0  0  0  0  0  0  0  0
   -6.9043   -7.4530   20.7644 C   0  0  0  0  0  0  0  0  0  0  0  0
   -7.3803   -6.3059   21.6206 C   0  0  0  0  0  0  0  0  0  0  0  0
   -7.1257   -4.1379   22.6612 C   0  0  0  0  0  0  0  0  0  0  0  0
   -8.6369   -6.4339   22.2428 C   0  0  0  0  0  0  0  0  0  0  0  0
   -8.3825   -4.2730   23.2665 C   0  0  0  0  0  0  0  0  0  0  0  0
   -9.1258   -5.4238   23.0553 C   0  0  0  0  0  0  0  0  0  0  0  0
    0.2464   -5.9206   21.2083 H   0  0  0  0  0  0  0  0  0  0  0  0
  -10.8599   -6.3115   23.5230 H   0  0  0  0  0  0  0  0  0  0  0  0
   -1.1563   -4.4093   18.7653 C   0  0  0  0  0  0  0  0  0  0  0  0
   -1.2141   -3.5847   17.8908 C   0  0  0  0  0  0  0  0  0  0  0  0
  1  6  1  0
  1 21  1  0
  2 20  1  0
  2 22  1  0
  3  4  1  0
  3  6  1  0
  3  8  1  0
  3 13  1  0
  4  5  1  0
  4  9  1  0
  5  7  1  0
  5 12  1  0
  6 11  1  0
  6 23  1  0
  7 10  1  0
  7 14  1  0
  8 10  1  0
  9 11  1  0
 12 15  1  0
 14 16  2  0
 14 17  1  0
 15 16  1  0
 16 18  1  0
 23 24  3  0
 17 19  2  0
 18 20  2  0
 19 20  1  0
M  END
> <PUBCHEM_COMPOUND_CID>
5991

> <PUBCHEM_CONFORMER_RMSD>
0.6

> <PUBCHEM_CONFORMER_DIVERSEORDER>
1

> <PUBCHEM_MMFF94_PARTIAL_CHARGES>
19
1 -0.68
14 -0.14
15 0.14
16 -0.14
17 -0.2
18 -0.15
19 -0.15
2 -0.53
20 -0.15
21 0.08
22 -0.18
41 0.4
42 0.15
43 0.15
44 0.15
45 0.18
46 0.45
6 0.48
7 0.14

> <PUBCHEM_EFFECTIVE_ROTOR_COUNT>
1.4

> <PUBCHEM_PHARMACOPHORE_FEATURES>
8
1 1 acceptor
1 1 donor
1 2 donor
1 22 hydrophobe
5 3 4 6 9 11 rings
6 14 16 18 19 20 21 rings
6 3 4 5 7 8 10 rings
6 5 7 12 14 15 16 rings

> <PUBCHEM_HEAVY_ATOM_COUNT>
22

> <PUBCHEM_ATOM_DEF_STEREO_COUNT>
5

> <PUBCHEM_ATOM_UDEF_STEREO_COUNT>
0

> <PUBCHEM_BOND_DEF_STEREO_COUNT>
0

> <PUBCHEM_BOND_UDEF_STEREO_COUNT>
0

> <PUBCHEM_ISOTOPIC_ATOM_COUNT>
0

> <PUBCHEM_COMPONENT_COUNT>
1

> <PUBCHEM_CACTVS_TAUTO_COUNT>
9

> <PUBCHEM_CONFORMER_ID>
0000176700000001

> <PUBCHEM_MMFF94_ENERGY>
75.3654

> <PUBCHEM_FEATURE_SELFOVERLAP>
40.689

> <PUBCHEM_SHAPE_FINGERPRINT>
10498660 4 18334565854482978588
10616163 171 18412261769892000550
10906281 52 18268729332496851400
10967382 1 18409163299196382730
11132069 177 18260823830106114581
11315181 36 17846777438100329984
11552529 35 18058445585631877095
11578080 2 16952518088400902894
11796584 16 15123796154675551020
12107183 9 17697047933183828707
12236239 1 17917992754997443209
12403259 415 18260540148118003532
12403814 3 17531241756051219503
12633257 1 18411416168188185458
12644460 14 18260827060354363322
12788726 201 17059505002047033793
128620 24 17385724690407290772
13140716 1 18264499557760559337
13224815 77 18408318891198213202
13675066 3 17749393654488776519
14790565 3 18338806709892665688
15163728 17 15481289097577292713
15183329 4 18408605830407435614
15196674 1 18337388339818468438
15209289 33 18341332270467662817
15209294 21 18059584555192331817
15309172 13 18409451371427638915
15536298 74 18341610425830279326
15788980 27 17749105603943632888
16945 1 18265320738190372627
17349148 13 18114176445825312880
1813 80 17530976782159466655
18186145 218 18409161126111612646
19489759 90 15410896249631894657
19591789 44 18193273216009210722
200 152 17918273168974754922
21033648 29 17968079933063946356
21267235 1 18338240469814837151
21623110 236 18263368155990106261
23402539 116 18410566319162361766
23402655 69 18201721773563375622
23559900 14 18341325700027887232
335352 9 18410007719541319564
34934 24 18335695014618288215
350125 39 18408603674022772468
3545911 37 18408602569419241710
3680242 22 18335416829913620042
4214541 1 18412824715549947695
474 4 18408605889666299408
5104073 3 18339077194179428906
542803 24 17561084709247609168
59755656 215 18335983078396721054
633830 44 18202282537272954908
9709674 26 18410014338397756278

> <PUBCHEM_SHAPE_MULTIPOLES>
441.01
10.64
2.03
1.22
7.18
0.55
-0.05
-1.94
-1.01
0.21
-0.15
-1.94
-0.33
-0.49

> <PUBCHEM_SHAPE_SELFOVERLAP>
961.464

> <PUBCHEM_SHAPE_VOLUME>
238.8

> <PUBCHEM_COORDINATE_TYPE>
2
5
10

> <Energy>
61.5647

> <minimizedAffinity>
-4.35327

> <CNNscore>
0.2010948062

> <CNNaffinity>
6.9654903412

> <CNN_VS>
1.4007239342

> <CNNaffinity_variance>
0.2012570649

$$$$
5991


 24 27  0  0  0  0  0  0  0  0999 V2000
   -9.1045   -1.5214   18.5033 O   0  0  0  0  0  0  0  0  0  0  0  0
   -0.5320   -7.5988   21.6845 O   0  0  0  0  0  0  0  0  0  0  0  0
   -7.1045   -2.5868   19.4929 C   0  0  0  0  0  0  0  0  0  0  0  0
   -6.4493   -2.3789   20.8779 C   0  0  0  0  0  0  0  0  0  0  0  0
   -5.5265   -3.5348   21.2721 C   0  0  0  0  0  0  0  0  0  0  0  0
   -8.0468   -1.3438   19.4377 C   0  0  0  0  0  0  0  0  0  0  0  0
   -4.3793   -3.6445   20.2233 C   0  0  0  0  0  0  0  0  0  0  0  0
   -5.9809   -2.6709   18.4426 C   0  0  0  0  0  0  0  0  0  0  0  0
   -7.6305   -2.0421   21.7843 C   0  0  0  0  0  0  0  0  0  0  0  0
   -4.9446   -3.7602   18.7836 C   0  0  0  0  0  0  0  0  0  0  0  0
   -8.6161   -1.2773   20.8798 C   0  0  0  0  0  0  0  0  0  0  0  0
   -4.9134   -3.3459   22.6618 C   0  0  0  0  0  0  0  0  0  0  0  0
   -7.9575   -3.8861   19.3944 C   0  0  0  0  0  0  0  0  0  0  0  0
   -3.3758   -4.7296   20.6120 C   0  0  0  0  0  0  0  0  0  0  0  0
   -4.1292   -4.5937   23.0552 C   0  0  0  0  0  0  0  0  0  0  0  0
   -3.2434   -5.1322   21.9594 C   0  0  0  0  0  0  0  0  0  0  0  0
   -2.5003   -5.2849   19.6631 C   0  0  0  0  0  0  0  0  0  0  0  0
   -2.2923   -6.1094   22.3102 C   0  0  0  0  0  0  0  0  0  0  0  0
   -1.5508   -6.2492   20.0271 C   0  0  0  0  0  0  0  0  0  0  0  0
   -1.4586   -6.6569   21.3488 C   0  0  0  0  0  0  0  0  0  0  0  0
   -9.5765   -2.3452   18.7019 H   0  0  0  0  0  0  0  0  0  0  0  0
   -0.4563   -7.8857   22.5733 H   0  0  0  0  0  0  0  0  0  0  0  0
   -7.3521   -0.0851   19.1072 C   0  0  0  0  0  0  0  0  0  0  0  0
   -6.7750    0.9386   18.8485 C   0  0  0  0  0  0  0  0  0  0  0  0
  1  6  1  0
  1 21  1  0
  2 20  1  0
  2 22  1  0
  3  4  1  0
  3  6  1  0
  3  8  1  0
  3 13  1  0
  4  5  1  0
  4  9  1  0
  5  7  1  0
  5 12  1  0
  6 11  1  0
  6 23  1  0
  7 10  1  0
  7 14  1  0
  8 10  1  0
  9 11  1  0
 12 15  1  0
 14 16  2  0
 14 17  1  0
 15 16  1  0
 16 18  1  0
 23 24  3  0
 17 19  2  0
 18 20  2  0
 19 20  1  0
M  END
> <PUBCHEM_COMPOUND_CID>
5991

> <PUBCHEM_CONFORMER_RMSD>
0.6

> <PUBCHEM_CONFORMER_DIVERSEORDER>
1

> <PUBCHEM_MMFF94_PARTIAL_CHARGES>
19
1 -0.68
14 -0.14
15 0.14
16 -0.14
17 -0.2
18 -0.15
19 -0.15
2 -0.53
20 -0.15
21 0.08
22 -0.18
41 0.4
42 0.15
43 0.15
44 0.15
45 0.18
46 0.45
6 0.48
7 0.14

> <PUBCHEM_EFFECTIVE_ROTOR_COUNT>
1.4

> <PUBCHEM_PHARMACOPHORE_FEATURES>
8
1 1 acceptor
1 1 donor
1 2 donor
1 22 hydrophobe
5 3 4 6 9 11 rings
6 14 16 18 19 20 21 rings
6 3 4 5 7 8 10 rings
6 5 7 12 14 15 16 rings

> <PUBCHEM_HEAVY_ATOM_COUNT>
22

> <PUBCHEM_ATOM_DEF_STEREO_COUNT>
5

> <PUBCHEM_ATOM_UDEF_STEREO_COUNT>
0

> <PUBCHEM_BOND_DEF_STEREO_COUNT>
0

> <PUBCHEM_BOND_UDEF_STEREO_COUNT>
0

> <PUBCHEM_ISOTOPIC_ATOM_COUNT>
0

> <PUBCHEM_COMPONENT_COUNT>
1

> <PUBCHEM_CACTVS_TAUTO_COUNT>
9

> <PUBCHEM_CONFORMER_ID>
0000176700000001

> <PUBCHEM_MMFF94_ENERGY>
75.3654

> <PUBCHEM_FEATURE_SELFOVERLAP>
40.689

> <PUBCHEM_SHAPE_FINGERPRINT>
10498660 4 18334565854482978588
10616163 171 18412261769892000550
10906281 52 18268729332496851400
10967382 1 18409163299196382730
11132069 177 18260823830106114581
11315181 36 17846777438100329984
11552529 35 18058445585631877095
11578080 2 16952518088400902894
11796584 16 15123796154675551020
12107183 9 17697047933183828707
12236239 1 17917992754997443209
12403259 415 18260540148118003532
12403814 3 17531241756051219503
12633257 1 18411416168188185458
12644460 14 18260827060354363322
12788726 201 17059505002047033793
128620 24 17385724690407290772
13140716 1 18264499557760559337
13224815 77 18408318891198213202
13675066 3 17749393654488776519
14790565 3 18338806709892665688
15163728 17 15481289097577292713
15183329 4 18408605830407435614
15196674 1 18337388339818468438
15209289 33 18341332270467662817
15209294 21 18059584555192331817
15309172 13 18409451371427638915
15536298 74 18341610425830279326
15788980 27 17749105603943632888
16945 1 18265320738190372627
17349148 13 18114176445825312880
1813 80 17530976782159466655
18186145 218 18409161126111612646
19489759 90 15410896249631894657
19591789 44 18193273216009210722
200 152 17918273168974754922
21033648 29 17968079933063946356
21267235 1 18338240469814837151
21623110 236 18263368155990106261
23402539 116 18410566319162361766
23402655 69 18201721773563375622
23559900 14 18341325700027887232
335352 9 18410007719541319564
34934 24 18335695014618288215
350125 39 18408603674022772468
3545911 37 18408602569419241710
3680242 22 18335416829913620042
4214541 1 18412824715549947695
474 4 18408605889666299408
5104073 3 18339077194179428906
542803 24 17561084709247609168
59755656 215 18335983078396721054
633830 44 18202282537272954908
9709674 26 18410014338397756278

> <PUBCHEM_SHAPE_MULTIPOLES>
441.01
10.64
2.03
1.22
7.18
0.55
-0.05
-1.94
-1.01
0.21
-0.15
-1.94
-0.33
-0.49

> <PUBCHEM_SHAPE_SELFOVERLAP>
961.464

> <PUBCHEM_SHAPE_VOLUME>
238.8

> <PUBCHEM_COORDINATE_TYPE>
2
5
10

> <Energy>
61.5647

> <minimizedAffinity>
57.03135

> <CNNscore>
0.1471274048

> <CNNaffinity>
5.9980406761

> <CNN_VS>
0.8824761510

> <CNNaffinity_variance>
0.5532686710

$$$$
5991


 24 27  0  0  0  0  0  0  0  0999 V2000
   -3.3573   -2.4210   22.5010 O   0  0  0  0  0  0  0  0  0  0  0  0
  -12.7136   -6.4985   18.4542 O   0  0  0  0  0  0  0  0  0  0  0  0
   -5.4113   -3.6427   21.8663 C   0  0  0  0  0  0  0  0  0  0  0  0
   -6.2521   -4.6604   22.6712 C   0  0  0  0  0  0  0  0  0  0  0  0
   -7.6666   -4.8293   22.1112 C   0  0  0  0  0  0  0  0  0  0  0  0
   -4.1122   -3.6045   22.7305 C   0  0  0  0  0  0  0  0  0  0  0  0
   -7.5700   -5.3554   20.6476 C   0  0  0  0  0  0  0  0  0  0  0  0
   -5.2863   -4.1647   20.4225 C   0  0  0  0  0  0  0  0  0  0  0  0
   -6.0864   -4.1965   24.1161 C   0  0  0  0  0  0  0  0  0  0  0  0
   -6.6609   -4.4440   19.7827 C   0  0  0  0  0  0  0  0  0  0  0  0
   -4.6620   -3.6121   24.1817 C   0  0  0  0  0  0  0  0  0  0  0  0
   -8.5096   -5.8050   22.9358 C   0  0  0  0  0  0  0  0  0  0  0  0
   -6.0383   -2.2180   21.8134 C   0  0  0  0  0  0  0  0  0  0  0  0
   -8.9563   -5.6252   20.0638 C   0  0  0  0  0  0  0  0  0  0  0  0
   -9.9444   -5.8144   22.4182 C   0  0  0  0  0  0  0  0  0  0  0  0
  -10.0537   -5.8819   20.9152 C   0  0  0  0  0  0  0  0  0  0  0  0
   -9.1563   -5.7169   18.6756 C   0  0  0  0  0  0  0  0  0  0  0  0
  -11.3193   -6.1617   20.3650 C   0  0  0  0  0  0  0  0  0  0  0  0
  -10.4188   -6.0066   18.1408 C   0  0  0  0  0  0  0  0  0  0  0  0
  -11.4917   -6.2219   18.9917 C   0  0  0  0  0  0  0  0  0  0  0  0
   -3.9237   -1.6451   22.6352 H   0  0  0  0  0  0  0  0  0  0  0  0
  -13.4494   -6.6467   19.0150 H   0  0  0  0  0  0  0  0  0  0  0  0
   -3.2225   -4.7619   22.5183 C   0  0  0  0  0  0  0  0  0  0  0  0
   -2.5061   -5.7109   22.3339 C   0  0  0  0  0  0  0  0  0  0  0  0
  1  6  1  0
  1 21  1  0
  2 20  1  0
  2 22  1  0
  3  4  1  0
  3  6  1  0
  3  8  1  0
  3 13  1  0
  4  5  1  0
  4  9  1  0
  5  7  1  0
  5 12  1  0
  6 11  1  0
  6 23  1  0
  7 10  1  0
  7 14  1  0
  8 10  1  0
  9 11  1  0
 12 15  1  0
 14 16  2  0
 14 17  1  0
 15 16  1  0
 16 18  1  0
 23 24  3  0
 17 19  2  0
 18 20  2  0
 19 20  1  0
M  END
> <PUBCHEM_COMPOUND_CID>
5991

> <PUBCHEM_CONFORMER_RMSD>
0.6

> <PUBCHEM_CONFORMER_DIVERSEORDER>
1

> <PUBCHEM_MMFF94_PARTIAL_CHARGES>
19
1 -0.68
14 -0.14
15 0.14
16 -0.14
17 -0.2
18 -0.15
19 -0.15
2 -0.53
20 -0.15
21 0.08
22 -0.18
41 0.4
42 0.15
43 0.15
44 0.15
45 0.18
46 0.45
6 0.48
7 0.14

> <PUBCHEM_EFFECTIVE_ROTOR_COUNT>
1.4

> <PUBCHEM_PHARMACOPHORE_FEATURES>
8
1 1 acceptor
1 1 donor
1 2 donor
1 22 hydrophobe
5 3 4 6 9 11 rings
6 14 16 18 19 20 21 rings
6 3 4 5 7 8 10 rings
6 5 7 12 14 15 16 rings

> <PUBCHEM_HEAVY_ATOM_COUNT>
22

> <PUBCHEM_ATOM_DEF_STEREO_COUNT>
5

> <PUBCHEM_ATOM_UDEF_STEREO_COUNT>
0

> <PUBCHEM_BOND_DEF_STEREO_COUNT>
0

> <PUBCHEM_BOND_UDEF_STEREO_COUNT>
0

> <PUBCHEM_ISOTOPIC_ATOM_COUNT>
0

> <PUBCHEM_COMPONENT_COUNT>
1

> <PUBCHEM_CACTVS_TAUTO_COUNT>
9

> <PUBCHEM_CONFORMER_ID>
0000176700000001

> <PUBCHEM_MMFF94_ENERGY>
75.3654

> <PUBCHEM_FEATURE_SELFOVERLAP>
40.689

> <PUBCHEM_SHAPE_FINGERPRINT>
10498660 4 18334565854482978588
10616163 171 18412261769892000550
10906281 52 18268729332496851400
10967382 1 18409163299196382730
11132069 177 18260823830106114581
11315181 36 17846777438100329984
11552529 35 18058445585631877095
11578080 2 16952518088400902894
11796584 16 15123796154675551020
12107183 9 17697047933183828707
12236239 1 17917992754997443209
12403259 415 18260540148118003532
12403814 3 17531241756051219503
12633257 1 18411416168188185458
12644460 14 18260827060354363322
12788726 201 17059505002047033793
128620 24 17385724690407290772
13140716 1 18264499557760559337
13224815 77 18408318891198213202
13675066 3 17749393654488776519
14790565 3 18338806709892665688
15163728 17 15481289097577292713
15183329 4 18408605830407435614
15196674 1 18337388339818468438
15209289 33 18341332270467662817
15209294 21 18059584555192331817
15309172 13 18409451371427638915
15536298 74 18341610425830279326
15788980 27 17749105603943632888
16945 1 18265320738190372627
17349148 13 18114176445825312880
1813 80 17530976782159466655
18186145 218 18409161126111612646
19489759 90 15410896249631894657
19591789 44 18193273216009210722
200 152 17918273168974754922
21033648 29 17968079933063946356
21267235 1 18338240469814837151
21623110 236 18263368155990106261
23402539 116 18410566319162361766
23402655 69 18201721773563375622
23559900 14 18341325700027887232
335352 9 18410007719541319564
34934 24 18335695014618288215
350125 39 18408603674022772468
3545911 37 18408602569419241710
3680242 22 18335416829913620042
4214541 1 18412824715549947695
474 4 18408605889666299408
5104073 3 18339077194179428906
542803 24 17561084709247609168
59755656 215 18335983078396721054
633830 44 18202282537272954908
9709674 26 18410014338397756278

> <PUBCHEM_SHAPE_MULTIPOLES>
441.01
10.64
2.03
1.22
7.18
0.55
-0.05
-1.94
-1.01
0.21
-0.15
-1.94
-0.33
-0.49

> <PUBCHEM_SHAPE_SELFOVERLAP>
961.464

> <PUBCHEM_SHAPE_VOLUME>
238.8

> <PUBCHEM_COORDINATE_TYPE>
2
5
10

> <Energy>
61.5647

> <minimizedAffinity>
-1.44003

> <CNNscore>
0.1294390261

> <CNNaffinity>
5.3877983093

> <CNN_VS>
0.6973913908

> <CNNaffinity_variance>
0.6726527810

$$$$
5991


 24 27  0  0  0  0  0  0  0  0999 V2000
   -0.4219   -5.0313   21.3462 O   0  0  0  0  0  0  0  0  0  0  0  0
  -11.3819   -5.6645   21.2018 O   0  0  0  0  0  0  0  0  0  0  0  0
   -2.8441   -5.2812   20.9164 C   0  0  0  0  0  0  0  0  0  0  0  0
   -3.5824   -6.0874   19.8230 C   0  0  0  0  0  0  0  0  0  0  0  0
   -5.0489   -6.3498   20.1740 C   0  0  0  0  0  0  0  0  0  0  0  0
   -1.3939   -5.2864   20.3395 C   0  0  0  0  0  0  0  0  0  0  0  0
   -5.7835   -4.9838   20.3247 C   0  0  0  0  0  0  0  0  0  0  0  0
   -3.5455   -3.9169   21.0571 C   0  0  0  0  0  0  0  0  0  0  0  0
   -2.6626   -7.2808   19.5776 C   0  0  0  0  0  0  0  0  0  0  0  0
   -5.0542   -4.0634   21.3378 C   0  0  0  0  0  0  0  0  0  0  0  0
   -1.2395   -6.7353   19.8055 C   0  0  0  0  0  0  0  0  0  0  0  0
   -5.7649   -7.1846   19.1095 C   0  0  0  0  0  0  0  0  0  0  0  0
   -2.8473   -5.9732   22.3116 C   0  0  0  0  0  0  0  0  0  0  0  0
   -7.2749   -5.1839   20.5918 C   0  0  0  0  0  0  0  0  0  0  0  0
   -7.1703   -7.5363   19.5867 C   0  0  0  0  0  0  0  0  0  0  0  0
   -7.9187   -6.3775   20.1970 C   0  0  0  0  0  0  0  0  0  0  0  0
   -8.0589   -4.1583   21.1475 C   0  0  0  0  0  0  0  0  0  0  0  0
   -9.3000   -6.5370   20.4186 C   0  0  0  0  0  0  0  0  0  0  0  0
   -9.4349   -4.3256   21.3533 C   0  0  0  0  0  0  0  0  0  0  0  0
  -10.0431   -5.5174   20.9908 C   0  0  0  0  0  0  0  0  0  0  0  0
   -0.5406   -5.6585   22.0766 H   0  0  0  0  0  0  0  0  0  0  0  0
  -11.8088   -6.4636   20.9626 H   0  0  0  0  0  0  0  0  0  0  0  0
   -1.1850   -4.3173   19.2471 C   0  0  0  0  0  0  0  0  0  0  0  0
   -1.0055   -3.5370   18.3489 C   0  0  0  0  0  0  0  0  0  0  0  0
  1  6  1  0
  1 21  1  0
  2 20  1  0
  2 22  1  0
  3  4  1  0
  3  6  1  0
  3  8  1  0
  3 13  1  0
  4  5  1  0
  4  9  1  0
  5  7  1  0
  5 12  1  0
  6 11  1  0
  6 23  1  0
  7 10  1  0
  7 14  1  0
  8 10  1  0
  9 11  1  0
 12 15  1  0
 14 16  2  0
 14 17  1  0
 15 16  1  0
 16 18  1  0
 23 24  3  0
 17 19  2  0
 18 20  2  0
 19 20  1  0
M  END
> <PUBCHEM_COMPOUND_CID>
5991

> <PUBCHEM_CONFORMER_RMSD>
0.6

> <PUBCHEM_CONFORMER_DIVERSEORDER>
1

> <PUBCHEM_MMFF94_PARTIAL_CHARGES>
19
1 -0.68
14 -0.14
15 0.14
16 -0.14
17 -0.2
18 -0.15
19 -0.15
2 -0.53
20 -0.15
21 0.08
22 -0.18
41 0.4
42 0.15
43 0.15
44 0.15
45 0.18
46 0.45
6 0.48
7 0.14

> <PUBCHEM_EFFECTIVE_ROTOR_COUNT>
1.4

> <PUBCHEM_PHARMACOPHORE_FEATURES>
8
1 1 acceptor
1 1 donor
1 2 donor
1 22 hydrophobe
5 3 4 6 9 11 rings
6 14 16 18 19 20 21 rings
6 3 4 5 7 8 10 rings
6 5 7 12 14 15 16 rings

> <PUBCHEM_HEAVY_ATOM_COUNT>
22

> <PUBCHEM_ATOM_DEF_STEREO_COUNT>
5

> <PUBCHEM_ATOM_UDEF_STEREO_COUNT>
0

> <PUBCHEM_BOND_DEF_STEREO_COUNT>
0

> <PUBCHEM_BOND_UDEF_STEREO_COUNT>
0

> <PUBCHEM_ISOTOPIC_ATOM_COUNT>
0

> <PUBCHEM_COMPONENT_COUNT>
1

> <PUBCHEM_CACTVS_TAUTO_COUNT>
9

> <PUBCHEM_CONFORMER_ID>
0000176700000001

> <PUBCHEM_MMFF94_ENERGY>
75.3654

> <PUBCHEM_FEATURE_SELFOVERLAP>
40.689

> <PUBCHEM_SHAPE_FINGERPRINT>
10498660 4 18334565854482978588
10616163 171 18412261769892000550
10906281 52 18268729332496851400
10967382 1 18409163299196382730
11132069 177 18260823830106114581
11315181 36 17846777438100329984
11552529 35 18058445585631877095
11578080 2 16952518088400902894
11796584 16 15123796154675551020
12107183 9 17697047933183828707
12236239 1 17917992754997443209
12403259 415 18260540148118003532
12403814 3 17531241756051219503
12633257 1 18411416168188185458
12644460 14 18260827060354363322
12788726 201 17059505002047033793
128620 24 17385724690407290772
13140716 1 18264499557760559337
13224815 77 18408318891198213202
13675066 3 17749393654488776519
14790565 3 18338806709892665688
15163728 17 15481289097577292713
15183329 4 18408605830407435614
15196674 1 18337388339818468438
15209289 33 18341332270467662817
15209294 21 18059584555192331817
15309172 13 18409451371427638915
15536298 74 18341610425830279326
15788980 27 17749105603943632888
16945 1 18265320738190372627
17349148 13 18114176445825312880
1813 80 17530976782159466655
18186145 218 18409161126111612646
19489759 90 15410896249631894657
19591789 44 18193273216009210722
200 152 17918273168974754922
21033648 29 17968079933063946356
21267235 1 18338240469814837151
21623110 236 18263368155990106261
23402539 116 18410566319162361766
23402655 69 18201721773563375622
23559900 14 18341325700027887232
335352 9 18410007719541319564
34934 24 18335695014618288215
350125 39 18408603674022772468
3545911 37 18408602569419241710
3680242 22 18335416829913620042
4214541 1 18412824715549947695
474 4 18408605889666299408
5104073 3 18339077194179428906
542803 24 17561084709247609168
59755656 215 18335983078396721054
633830 44 18202282537272954908
9709674 26 18410014338397756278

> <PUBCHEM_SHAPE_MULTIPOLES>
441.01
10.64
2.03
1.22
7.18
0.55
-0.05
-1.94
-1.01
0.21
-0.15
-1.94
-0.33
-0.49

> <PUBCHEM_SHAPE_SELFOVERLAP>
961.464

> <PUBCHEM_SHAPE_VOLUME>
238.8

> <PUBCHEM_COORDINATE_TYPE>
2
5
10

> <Energy>
61.5647

> <minimizedAffinity>
-4.56962

> <CNNscore>
0.1270131469

> <CNNaffinity>
6.1530776024

> <CNN_VS>
0.7815217376

> <CNNaffinity_variance>
0.0357510857

$$$$
5991


 24 27  0  0  0  0  0  0  0  0999 V2000
   -7.9561   -0.3977   16.3018 O   0  0  0  0  0  0  0  0  0  0  0  0
   -4.5091   -6.0320   25.0719 O   0  0  0  0  0  0  0  0  0  0  0  0
   -7.0320   -1.3031   18.4090 C   0  0  0  0  0  0  0  0  0  0  0  0
   -6.6897   -0.5848   19.7347 C   0  0  0  0  0  0  0  0  0  0  0  0
   -6.5799   -1.5512   20.9167 C   0  0  0  0  0  0  0  0  0  0  0  0
   -7.1908   -0.0766   17.4569 C   0  0  0  0  0  0  0  0  0  0  0  0
   -5.4382   -2.5719   20.6290 C   0  0  0  0  0  0  0  0  0  0  0  0
   -5.8969   -2.2975   18.0996 C   0  0  0  0  0  0  0  0  0  0  0  0
   -7.7150    0.5441   19.8037 C   0  0  0  0  0  0  0  0  0  0  0  0
   -5.6469   -3.2771   19.2635 C   0  0  0  0  0  0  0  0  0  0  0  0
   -7.9578    0.9465   18.3362 C   0  0  0  0  0  0  0  0  0  0  0  0
   -6.2835   -0.8319   22.2348 C   0  0  0  0  0  0  0  0  0  0  0  0
   -8.3712   -2.0966   18.4565 C   0  0  0  0  0  0  0  0  0  0  0  0
   -5.2243   -3.5118   21.8150 C   0  0  0  0  0  0  0  0  0  0  0  0
   -6.3353   -1.8266   23.3900 C   0  0  0  0  0  0  0  0  0  0  0  0
   -5.6154   -3.1234   23.1154 C   0  0  0  0  0  0  0  0  0  0  0  0
   -4.5543   -4.7376   21.6606 C   0  0  0  0  0  0  0  0  0  0  0  0
   -5.3832   -3.9842   24.2053 C   0  0  0  0  0  0  0  0  0  0  0  0
   -4.3200   -5.5807   22.7552 C   0  0  0  0  0  0  0  0  0  0  0  0
   -4.7417   -5.1978   24.0190 C   0  0  0  0  0  0  0  0  0  0  0  0
   -8.8061   -0.7786   16.5727 H   0  0  0  0  0  0  0  0  0  0  0  0
   -4.7875   -5.7886   25.9328 H   0  0  0  0  0  0  0  0  0  0  0  0
   -5.9083    0.4988   17.0095 C   0  0  0  0  0  0  0  0  0  0  0  0
   -4.8547    0.9595   16.6548 C   0  0  0  0  0  0  0  0  0  0  0  0
  1  6  1  0
  1 21  1  0
  2 20  1  0
  2 22  1  0
  3  4  1  0
  3  6  1  0
  3  8  1  0
  3 13  1  0
  4  5  1  0
  4  9  1  0
  5  7  1  0
  5 12  1  0
  6 11  1  0
  6 23  1  0
  7 10  1  0
  7 14  1  0
  8 10  1  0
  9 11  1  0
 12 15  1  0
 14 16  2  0
 14 17  1  0
 15 16  1  0
 16 18  1  0
 23 24  3  0
 17 19  2  0
 18 20  2  0
 19 20  1  0
M  END
> <PUBCHEM_COMPOUND_CID>
5991

> <PUBCHEM_CONFORMER_RMSD>
0.6

> <PUBCHEM_CONFORMER_DIVERSEORDER>
1

> <PUBCHEM_MMFF94_PARTIAL_CHARGES>
19
1 -0.68
14 -0.14
15 0.14
16 -0.14
17 -0.2
18 -0.15
19 -0.15
2 -0.53
20 -0.15
21 0.08
22 -0.18
41 0.4
42 0.15
43 0.15
44 0.15
45 0.18
46 0.45
6 0.48
7 0.14

> <PUBCHEM_EFFECTIVE_ROTOR_COUNT>
1.4

> <PUBCHEM_PHARMACOPHORE_FEATURES>
8
1 1 acceptor
1 1 donor
1 2 donor
1 22 hydrophobe
5 3 4 6 9 11 rings
6 14 16 18 19 20 21 rings
6 3 4 5 7 8 10 rings
6 5 7 12 14 15 16 rings

> <PUBCHEM_HEAVY_ATOM_COUNT>
22

> <PUBCHEM_ATOM_DEF_STEREO_COUNT>
5

> <PUBCHEM_ATOM_UDEF_STEREO_COUNT>
0

> <PUBCHEM_BOND_DEF_STEREO_COUNT>
0

> <PUBCHEM_BOND_UDEF_STEREO_COUNT>
0

> <PUBCHEM_ISOTOPIC_ATOM_COUNT>
0

> <PUBCHEM_COMPONENT_COUNT>
1

> <PUBCHEM_CACTVS_TAUTO_COUNT>
9

> <PUBCHEM_CONFORMER_ID>
0000176700000001

> <PUBCHEM_MMFF94_ENERGY>
75.3654

> <PUBCHEM_FEATURE_SELFOVERLAP>
40.689

> <PUBCHEM_SHAPE_FINGERPRINT>
10498660 4 18334565854482978588
10616163 171 18412261769892000550
10906281 52 18268729332496851400
10967382 1 18409163299196382730
11132069 177 18260823830106114581
11315181 36 17846777438100329984
11552529 35 18058445585631877095
11578080 2 16952518088400902894
11796584 16 15123796154675551020
12107183 9 17697047933183828707
12236239 1 17917992754997443209
12403259 415 18260540148118003532
12403814 3 17531241756051219503
12633257 1 18411416168188185458
12644460 14 18260827060354363322
12788726 201 17059505002047033793
128620 24 17385724690407290772
13140716 1 18264499557760559337
13224815 77 18408318891198213202
13675066 3 17749393654488776519
14790565 3 18338806709892665688
15163728 17 15481289097577292713
15183329 4 18408605830407435614
15196674 1 18337388339818468438
15209289 33 18341332270467662817
15209294 21 18059584555192331817
15309172 13 18409451371427638915
15536298 74 18341610425830279326
15788980 27 17749105603943632888
16945 1 18265320738190372627
17349148 13 18114176445825312880
1813 80 17530976782159466655
18186145 218 18409161126111612646
19489759 90 15410896249631894657
19591789 44 18193273216009210722
200 152 17918273168974754922
21033648 29 17968079933063946356
21267235 1 18338240469814837151
21623110 236 18263368155990106261
23402539 116 18410566319162361766
23402655 69 18201721773563375622
23559900 14 18341325700027887232
335352 9 18410007719541319564
34934 24 18335695014618288215
350125 39 18408603674022772468
3545911 37 18408602569419241710
3680242 22 18335416829913620042
4214541 1 18412824715549947695
474 4 18408605889666299408
5104073 3 18339077194179428906
542803 24 17561084709247609168
59755656 215 18335983078396721054
633830 44 18202282537272954908
9709674 26 18410014338397756278

> <PUBCHEM_SHAPE_MULTIPOLES>
441.01
10.64
2.03
1.22
7.18
0.55
-0.05
-1.94
-1.01
0.21
-0.15
-1.94
-0.33
-0.49

> <PUBCHEM_SHAPE_SELFOVERLAP>
961.464

> <PUBCHEM_SHAPE_VOLUME>
238.8

> <PUBCHEM_COORDINATE_TYPE>
2
5
10

> <Energy>
61.5647

> <minimizedAffinity>
77.88132

> <CNNscore>
0.1255634129

> <CNNaffinity>
5.1301746368

> <CNN_VS>
0.6441622376

> <CNNaffinity_variance>
0.3449821472

$$$$
