5284645


 26 27  0  0  0  0  0  0  0  0999 V2000
    1.9963   -0.0377   -2.1923 O   0  0  0  0  0  0  0  0  0  0  0  0
    6.3925   -1.6926   -5.9436 O   0  0  0  0  0  0  0  0  0  0  0  0
    5.7616   -0.4861   -7.8018 O   0  0  0  0  0  0  0  0  0  0  0  0
    8.4029   -0.2063   -8.8278 O   0  0  0  0  0  0  0  0  0  0  0  0
   11.1081    2.3891   -5.9780 O   0  0  0  0  0  0  0  0  0  0  0  0
    2.3360   -0.8553   -4.4297 C   0  0  0  0  0  0  0  0  0  0  0  0
    2.9576   -0.0917   -3.2477 C   0  0  0  0  0  0  0  0  0  0  0  0
    3.3348   -1.2370   -5.5255 C   0  0  0  0  0  0  0  0  0  0  0  0
    3.3629    1.3444   -3.6139 C   0  0  0  0  0  0  0  0  0  0  0  0
    4.2401   -2.4050   -5.1206 C   0  0  0  0  0  0  0  0  0  0  0  0
    4.1566    2.0596   -2.5103 C   0  0  0  0  0  0  0  0  0  0  0  0
    5.3479   -2.6673   -6.1462 C   0  0  0  0  0  0  0  0  0  0  0  0
    5.5621    1.4971   -2.2673 C   0  0  0  0  0  0  0  0  0  0  0  0
    5.9863   -4.0342   -5.9179 C   0  0  0  0  0  0  0  0  0  0  0  0
    6.4634    1.6255   -3.4652 C   0  0  0  0  0  0  0  0  0  0  0  0
    7.6598    0.1436   -6.5266 C   0  0  0  0  0  0  0  0  0  0  0  0
    7.8991    0.7265   -5.2660 C   0  0  0  0  0  0  0  0  0  0  0  0
    6.4585   -0.6670   -6.8148 C   0  0  0  0  0  0  0  0  0  0  0  0
    6.9943    0.5772   -4.1149 C   0  0  0  0  0  0  0  0  0  0  0  0
    8.5682    0.3411   -7.5791 C   0  0  0  0  0  0  0  0  0  0  0  0
    9.0768    1.4787   -5.0872 C   0  0  0  0  0  0  0  0  0  0  0  0
    9.9682    1.6598   -6.1421 C   0  0  0  0  0  0  0  0  0  0  0  0
    9.7202    1.0991   -7.3895 C   0  0  0  0  0  0  0  0  0  0  0  0
    1.7309   -0.9387   -1.9504 H   0  0  0  0  0  0  0  0  0  0  0  0
    7.6464   -0.7265   -9.0149 H   0  0  0  0  0  0  0  0  0  0  0  0
   11.2998    2.7781   -5.1474 H   0  0  0  0  0  0  0  0  0  0  0  0
  1  7  1  0
  1 24  1  0
  2 12  1  0
  2 18  1  0
  3 18  2  0
  4 20  1  0
  4 25  1  0
  5 22  1  0
  5 26  1  0
  6  7  1  0
  6  8  1  0
  7  9  1  0
  8 10  1  0
  9 11  1  0
 10 12  1  0
 11 13  1  0
 12 14  1  0
 13 15  1  0
 15 19  2  0
 16 17  2  0
 16 18  1  0
 16 20  1  0
 17 19  1  0
 17 21  1  0
 20 23  2  0
 21 22  2  0
 22 23  1  0
M  END
> <PUBCHEM_COMPOUND_CID>
5284645

> <PUBCHEM_CONFORMER_RMSD>
0.6

> <PUBCHEM_CONFORMER_DIVERSEORDER>
1

> <PUBCHEM_MMFF94_PARTIAL_CHARGES>
24
1 -0.68
12 0.28
13 0.14
15 -0.29
16 0.09
17 0.03
18 0.63
19 -0.18
2 -0.43
20 0.08
21 -0.15
22 0.08
23 -0.15
3 -0.57
4 -0.53
41 0.4
42 0.15
43 0.15
44 0.15
45 0.15
46 0.45
47 0.45
5 -0.53
7 0.28

> <PUBCHEM_EFFECTIVE_ROTOR_COUNT>
1.8

> <PUBCHEM_PHARMACOPHORE_FEATURES>
6
1 1 acceptor
1 1 donor
1 3 acceptor
1 4 donor
1 5 donor
6 16 17 20 21 22 23 rings

> <PUBCHEM_HEAVY_ATOM_COUNT>
23

> <PUBCHEM_ATOM_DEF_STEREO_COUNT>
2

> <PUBCHEM_ATOM_UDEF_STEREO_COUNT>
0

> <PUBCHEM_BOND_DEF_STEREO_COUNT>
1

> <PUBCHEM_BOND_UDEF_STEREO_COUNT>
0

> <PUBCHEM_ISOTOPIC_ATOM_COUNT>
0

> <PUBCHEM_COMPONENT_COUNT>
1

> <PUBCHEM_CACTVS_TAUTO_COUNT>
12

> <PUBCHEM_CONFORMER_ID>
0050A32500000001

> <PUBCHEM_MMFF94_ENERGY>
56.9454

> <PUBCHEM_FEATURE_SELFOVERLAP>
30.446

> <PUBCHEM_SHAPE_FINGERPRINT>
1100329 8 17836085568009856625
11112241 14 16986289841619931392
11578080 2 16734366241365874279
12166972 35 17967822613537111974
12403259 226 18337670931286267939
12506688 2 18412827975731104564
12596599 1 17914633677902020662
12788726 201 17627507133988941776
13140716 1 18267582403486064363
13402501 40 18336828697047978282
13533116 47 18056766653224983451
14251757 17 18262232209996353437
14787075 74 18336834185758012246
14790565 3 17545883724776523813
14866123 147 17767415573386001256
14931854 50 18336551491284682350
15196674 1 18334859415888043750
15322687 12 17104511174142344237
19591789 44 18337109089556020683
19930381 70 18413393137471364090
20028762 73 17044582808783771111
20691752 17 17022900138402631537
20715895 44 17609482839964013085
20832881 197 18343306989256920753
20905425 154 18409167675446349782
22182313 1 18041826412212926463
23227448 37 18189331260828617463
23352939 185 18342462530415398027
23557571 272 17910374109985112994
23559900 14 18335978778501818797
238 59 18196346307921625956
2748010 2 18117544331403189953
3323516 105 18411138077713944259
350125 39 18336268960321048513
3524813 1 18334011700965522918
3680242 22 18116995477305685354
463206 1 18269557311053435927
5265222 85 17471861776259798556
57527585 103 17390829632986241626
59755656 215 18188762977069237031
6443956 14 18340493347406701473
81228 2 17476913559209296171

> <PUBCHEM_SHAPE_MULTIPOLES>
443.98
8.21
4.09
1.18
1.54
0.84
-0.09
-3.84
1.51
-1.8
-1.33
-0.11
0.8
1.1

> <PUBCHEM_SHAPE_SELFOVERLAP>
916.908

> <PUBCHEM_SHAPE_VOLUME>
252.3

> <PUBCHEM_COORDINATE_TYPE>
2
5
10

> <Energy>
40.5071

> <minimizedAffinity>
-7.68760

> <CNNscore>
0.7728996277

> <CNNaffinity>
6.7726216316

> <CNN_VS>
5.2345566750

> <CNNaffinity_variance>
0.2089225501

$$$$
5284645


 26 27  0  0  0  0  0  0  0  0999 V2000
    0.3920   -1.3521   -3.8617 O   0  0  0  0  0  0  0  0  0  0  0  0
    5.4128    1.9231   -4.3100 O   0  0  0  0  0  0  0  0  0  0  0  0
    6.8480    0.5555   -3.1367 O   0  0  0  0  0  0  0  0  0  0  0  0
    9.1808    1.3643   -4.5548 O   0  0  0  0  0  0  0  0  0  0  0  0
    8.9846    0.1003   -9.0869 O   0  0  0  0  0  0  0  0  0  0  0  0
    2.1808   -0.4778   -2.5106 C   0  0  0  0  0  0  0  0  0  0  0  0
    1.7520   -0.9186   -3.9207 C   0  0  0  0  0  0  0  0  0  0  0  0
    3.5158    0.2704   -2.4657 C   0  0  0  0  0  0  0  0  0  0  0  0
    2.6086   -2.0693   -4.4709 C   0  0  0  0  0  0  0  0  0  0  0  0
    3.4073    1.7069   -2.9877 C   0  0  0  0  0  0  0  0  0  0  0  0
    2.3251   -2.3966   -5.9447 C   0  0  0  0  0  0  0  0  0  0  0  0
    4.7738    2.3903   -3.1036 C   0  0  0  0  0  0  0  0  0  0  0  0
    2.7636   -1.3120   -6.9358 C   0  0  0  0  0  0  0  0  0  0  0  0
    4.6142    3.8998   -3.2595 C   0  0  0  0  0  0  0  0  0  0  0  0
    4.2486   -1.0702   -6.9258 C   0  0  0  0  0  0  0  0  0  0  0  0
    7.0093    0.7545   -5.4947 C   0  0  0  0  0  0  0  0  0  0  0  0
    6.2657    0.3245   -6.6118 C   0  0  0  0  0  0  0  0  0  0  0  0
    6.3925    1.0079   -4.1761 C   0  0  0  0  0  0  0  0  0  0  0  0
    4.8115    0.1002   -6.5846 C   0  0  0  0  0  0  0  0  0  0  0  0
    8.3978    0.9367   -5.5990 C   0  0  0  0  0  0  0  0  0  0  0  0
    6.9437    0.1145   -7.8288 C   0  0  0  0  0  0  0  0  0  0  0  0
    8.3209    0.3048   -7.9139 C   0  0  0  0  0  0  0  0  0  0  0  0
    9.0545    0.7110   -6.8054 C   0  0  0  0  0  0  0  0  0  0  0  0
   -0.1613   -0.6347   -3.5156 H   0  0  0  0  0  0  0  0  0  0  0  0
    8.7945    1.5327   -3.7179 H   0  0  0  0  0  0  0  0  0  0  0  0
    8.5144   -0.1738   -9.8495 H   0  0  0  0  0  0  0  0  0  0  0  0
  1  7  1  0
  1 24  1  0
  2 12  1  0
  2 18  1  0
  3 18  2  0
  4 20  1  0
  4 25  1  0
  5 22  1  0
  5 26  1  0
  6  7  1  0
  6  8  1  0
  7  9  1  0
  8 10  1  0
  9 11  1  0
 10 12  1  0
 11 13  1  0
 12 14  1  0
 13 15  1  0
 15 19  2  0
 16 17  2  0
 16 18  1  0
 16 20  1  0
 17 19  1  0
 17 21  1  0
 20 23  2  0
 21 22  2  0
 22 23  1  0
M  END
> <PUBCHEM_COMPOUND_CID>
5284645

> <PUBCHEM_CONFORMER_RMSD>
0.6

> <PUBCHEM_CONFORMER_DIVERSEORDER>
1

> <PUBCHEM_MMFF94_PARTIAL_CHARGES>
24
1 -0.68
12 0.28
13 0.14
15 -0.29
16 0.09
17 0.03
18 0.63
19 -0.18
2 -0.43
20 0.08
21 -0.15
22 0.08
23 -0.15
3 -0.57
4 -0.53
41 0.4
42 0.15
43 0.15
44 0.15
45 0.15
46 0.45
47 0.45
5 -0.53
7 0.28

> <PUBCHEM_EFFECTIVE_ROTOR_COUNT>
1.8

> <PUBCHEM_PHARMACOPHORE_FEATURES>
6
1 1 acceptor
1 1 donor
1 3 acceptor
1 4 donor
1 5 donor
6 16 17 20 21 22 23 rings

> <PUBCHEM_HEAVY_ATOM_COUNT>
23

> <PUBCHEM_ATOM_DEF_STEREO_COUNT>
2

> <PUBCHEM_ATOM_UDEF_STEREO_COUNT>
0

> <PUBCHEM_BOND_DEF_STEREO_COUNT>
1

> <PUBCHEM_BOND_UDEF_STEREO_COUNT>
0

> <PUBCHEM_ISOTOPIC_ATOM_COUNT>
0

> <PUBCHEM_COMPONENT_COUNT>
1

> <PUBCHEM_CACTVS_TAUTO_COUNT>
12

> <PUBCHEM_CONFORMER_ID>
0050A32500000001

> <PUBCHEM_MMFF94_ENERGY>
56.9454

> <PUBCHEM_FEATURE_SELFOVERLAP>
30.446

> <PUBCHEM_SHAPE_FINGERPRINT>
1100329 8 17836085568009856625
11112241 14 16986289841619931392
11578080 2 16734366241365874279
12166972 35 17967822613537111974
12403259 226 18337670931286267939
12506688 2 18412827975731104564
12596599 1 17914633677902020662
12788726 201 17627507133988941776
13140716 1 18267582403486064363
13402501 40 18336828697047978282
13533116 47 18056766653224983451
14251757 17 18262232209996353437
14787075 74 18336834185758012246
14790565 3 17545883724776523813
14866123 147 17767415573386001256
14931854 50 18336551491284682350
15196674 1 18334859415888043750
15322687 12 17104511174142344237
19591789 44 18337109089556020683
19930381 70 18413393137471364090
20028762 73 17044582808783771111
20691752 17 17022900138402631537
20715895 44 17609482839964013085
20832881 197 18343306989256920753
20905425 154 18409167675446349782
22182313 1 18041826412212926463
23227448 37 18189331260828617463
23352939 185 18342462530415398027
23557571 272 17910374109985112994
23559900 14 18335978778501818797
238 59 18196346307921625956
2748010 2 18117544331403189953
3323516 105 18411138077713944259
350125 39 18336268960321048513
3524813 1 18334011700965522918
3680242 22 18116995477305685354
463206 1 18269557311053435927
5265222 85 17471861776259798556
57527585 103 17390829632986241626
59755656 215 18188762977069237031
6443956 14 18340493347406701473
81228 2 17476913559209296171

> <PUBCHEM_SHAPE_MULTIPOLES>
443.98
8.21
4.09
1.18
1.54
0.84
-0.09
-3.84
1.51
-1.8
-1.33
-0.11
0.8
1.1

> <PUBCHEM_SHAPE_SELFOVERLAP>
916.908

> <PUBCHEM_SHAPE_VOLUME>
252.3

> <PUBCHEM_COORDINATE_TYPE>
2
5
10

> <Energy>
40.5071

> <minimizedAffinity>
-9.95422

> <CNNscore>
0.6345280409

> <CNNaffinity>
6.7724232674

> <CNN_VS>
4.2972922325

> <CNNaffinity_variance>
0.2779568434

$$$$
5284645


 26 27  0  0  0  0  0  0  0  0999 V2000
   -0.4152    0.1781   -5.6619 O   0  0  0  0  0  0  0  0  0  0  0  0
    5.0449   -1.7946   -4.1021 O   0  0  0  0  0  0  0  0  0  0  0  0
    5.5931   -2.9212   -6.0351 O   0  0  0  0  0  0  0  0  0  0  0  0
    8.4011   -2.5361   -5.7623 O   0  0  0  0  0  0  0  0  0  0  0  0
    9.5697    2.0146   -6.0809 O   0  0  0  0  0  0  0  0  0  0  0  0
    0.9140   -1.8276   -5.6455 C   0  0  0  0  0  0  0  0  0  0  0  0
    0.9347   -0.2896   -5.6736 C   0  0  0  0  0  0  0  0  0  0  0  0
    2.2775   -2.4689   -5.3742 C   0  0  0  0  0  0  0  0  0  0  0  0
    1.6366    0.2736   -6.9189 C   0  0  0  0  0  0  0  0  0  0  0  0
    2.7060   -2.3508   -3.9079 C   0  0  0  0  0  0  0  0  0  0  0  0
    1.8381    1.7958   -6.8755 C   0  0  0  0  0  0  0  0  0  0  0  0
    4.1410   -2.8365   -3.6784 C   0  0  0  0  0  0  0  0  0  0  0  0
    2.8474    2.2769   -5.8263 C   0  0  0  0  0  0  0  0  0  0  0  0
    4.4080   -3.0581   -2.1925 C   0  0  0  0  0  0  0  0  0  0  0  0
    4.2400    1.7612   -6.0683 C   0  0  0  0  0  0  0  0  0  0  0  0
    6.6399   -0.8653   -5.4843 C   0  0  0  0  0  0  0  0  0  0  0  0
    6.2730    0.4950   -5.4552 C   0  0  0  0  0  0  0  0  0  0  0  0
    5.6651   -1.9582   -5.2869 C   0  0  0  0  0  0  0  0  0  0  0  0
    4.8988    0.9627   -5.2131 C   0  0  0  0  0  0  0  0  0  0  0  0
    7.9728   -1.2314   -5.7315 C   0  0  0  0  0  0  0  0  0  0  0  0
    7.2762    1.4649   -5.6492 C   0  0  0  0  0  0  0  0  0  0  0  0
    8.5940    1.0822   -5.8887 C   0  0  0  0  0  0  0  0  0  0  0  0
    8.9494   -0.2606   -5.9353 C   0  0  0  0  0  0  0  0  0  0  0  0
   -0.8712   -0.1702   -4.8800 H   0  0  0  0  0  0  0  0  0  0  0  0
    7.7889   -3.2333   -5.6315 H   0  0  0  0  0  0  0  0  0  0  0  0
    9.3576    2.9269   -6.0546 H   0  0  0  0  0  0  0  0  0  0  0  0
  1  7  1  0
  1 24  1  0
  2 12  1  0
  2 18  1  0
  3 18  2  0
  4 20  1  0
  4 25  1  0
  5 22  1  0
  5 26  1  0
  6  7  1  0
  6  8  1  0
  7  9  1  0
  8 10  1  0
  9 11  1  0
 10 12  1  0
 11 13  1  0
 12 14  1  0
 13 15  1  0
 15 19  2  0
 16 17  2  0
 16 18  1  0
 16 20  1  0
 17 19  1  0
 17 21  1  0
 20 23  2  0
 21 22  2  0
 22 23  1  0
M  END
> <PUBCHEM_COMPOUND_CID>
5284645

> <PUBCHEM_CONFORMER_RMSD>
0.6

> <PUBCHEM_CONFORMER_DIVERSEORDER>
1

> <PUBCHEM_MMFF94_PARTIAL_CHARGES>
24
1 -0.68
12 0.28
13 0.14
15 -0.29
16 0.09
17 0.03
18 0.63
19 -0.18
2 -0.43
20 0.08
21 -0.15
22 0.08
23 -0.15
3 -0.57
4 -0.53
41 0.4
42 0.15
43 0.15
44 0.15
45 0.15
46 0.45
47 0.45
5 -0.53
7 0.28

> <PUBCHEM_EFFECTIVE_ROTOR_COUNT>
1.8

> <PUBCHEM_PHARMACOPHORE_FEATURES>
6
1 1 acceptor
1 1 donor
1 3 acceptor
1 4 donor
1 5 donor
6 16 17 20 21 22 23 rings

> <PUBCHEM_HEAVY_ATOM_COUNT>
23

> <PUBCHEM_ATOM_DEF_STEREO_COUNT>
2

> <PUBCHEM_ATOM_UDEF_STEREO_COUNT>
0

> <PUBCHEM_BOND_DEF_STEREO_COUNT>
1

> <PUBCHEM_BOND_UDEF_STEREO_COUNT>
0

> <PUBCHEM_ISOTOPIC_ATOM_COUNT>
0

> <PUBCHEM_COMPONENT_COUNT>
1

> <PUBCHEM_CACTVS_TAUTO_COUNT>
12

> <PUBCHEM_CONFORMER_ID>
0050A32500000001

> <PUBCHEM_MMFF94_ENERGY>
56.9454

> <PUBCHEM_FEATURE_SELFOVERLAP>
30.446

> <PUBCHEM_SHAPE_FINGERPRINT>
1100329 8 17836085568009856625
11112241 14 16986289841619931392
11578080 2 16734366241365874279
12166972 35 17967822613537111974
12403259 226 18337670931286267939
12506688 2 18412827975731104564
12596599 1 17914633677902020662
12788726 201 17627507133988941776
13140716 1 18267582403486064363
13402501 40 18336828697047978282
13533116 47 18056766653224983451
14251757 17 18262232209996353437
14787075 74 18336834185758012246
14790565 3 17545883724776523813
14866123 147 17767415573386001256
14931854 50 18336551491284682350
15196674 1 18334859415888043750
15322687 12 17104511174142344237
19591789 44 18337109089556020683
19930381 70 18413393137471364090
20028762 73 17044582808783771111
20691752 17 17022900138402631537
20715895 44 17609482839964013085
20832881 197 18343306989256920753
20905425 154 18409167675446349782
22182313 1 18041826412212926463
23227448 37 18189331260828617463
23352939 185 18342462530415398027
23557571 272 17910374109985112994
23559900 14 18335978778501818797
238 59 18196346307921625956
2748010 2 18117544331403189953
3323516 105 18411138077713944259
350125 39 18336268960321048513
3524813 1 18334011700965522918
3680242 22 18116995477305685354
463206 1 18269557311053435927
5265222 85 17471861776259798556
57527585 103 17390829632986241626
59755656 215 18188762977069237031
6443956 14 18340493347406701473
81228 2 17476913559209296171

> <PUBCHEM_SHAPE_MULTIPOLES>
443.98
8.21
4.09
1.18
1.54
0.84
-0.09
-3.84
1.51
-1.8
-1.33
-0.11
0.8
1.1

> <PUBCHEM_SHAPE_SELFOVERLAP>
916.908

> <PUBCHEM_SHAPE_VOLUME>
252.3

> <PUBCHEM_COORDINATE_TYPE>
2
5
10

> <Energy>
40.5071

> <minimizedAffinity>
8.60285

> <CNNscore>
0.5538505316

> <CNNaffinity>
5.3222880363

> <CNN_VS>
2.9477519989

> <CNNaffinity_variance>
0.0007138083

$$$$
5284645


 26 27  0  0  0  0  0  0  0  0999 V2000
    1.7630   -2.8088   -5.8697 O   0  0  0  0  0  0  0  0  0  0  0  0
    5.5598    1.6682   -4.5740 O   0  0  0  0  0  0  0  0  0  0  0  0
    6.6436    0.7201   -2.7760 O   0  0  0  0  0  0  0  0  0  0  0  0
    9.0899    2.1162   -3.1931 O   0  0  0  0  0  0  0  0  0  0  0  0
   11.1385    0.8600   -7.2429 O   0  0  0  0  0  0  0  0  0  0  0  0
    2.5459   -1.5011   -4.0078 C   0  0  0  0  0  0  0  0  0  0  0  0
    2.8732   -2.0341   -5.4133 C   0  0  0  0  0  0  0  0  0  0  0  0
    3.5153   -0.4297   -3.5013 C   0  0  0  0  0  0  0  0  0  0  0  0
    4.1293   -2.9185   -5.4369 C   0  0  0  0  0  0  0  0  0  0  0  0
    3.2987    0.9300   -4.1737 C   0  0  0  0  0  0  0  0  0  0  0  0
    4.5836   -3.3037   -6.8529 C   0  0  0  0  0  0  0  0  0  0  0  0
    4.3790    1.9478   -3.7931 C   0  0  0  0  0  0  0  0  0  0  0  0
    5.1276   -2.1388   -7.6883 C   0  0  0  0  0  0  0  0  0  0  0  0
    3.9455    3.3633   -4.1626 C   0  0  0  0  0  0  0  0  0  0  0  0
    6.3636   -1.5168   -7.0974 C   0  0  0  0  0  0  0  0  0  0  0  0
    7.7354    0.9623   -4.8677 C   0  0  0  0  0  0  0  0  0  0  0  0
    7.6609    0.3564   -6.1378 C   0  0  0  0  0  0  0  0  0  0  0  0
    6.5776    1.0409   -3.9529 C   0  0  0  0  0  0  0  0  0  0  0  0
    6.4319   -0.2410   -6.6842 C   0  0  0  0  0  0  0  0  0  0  0  0
    8.9496    1.5019   -4.4135 C   0  0  0  0  0  0  0  0  0  0  0  0
    8.8187    0.3352   -6.9401 C   0  0  0  0  0  0  0  0  0  0  0  0
   10.0131    0.8797   -6.4740 C   0  0  0  0  0  0  0  0  0  0  0  0
   10.0881    1.4601   -5.2133 C   0  0  0  0  0  0  0  0  0  0  0  0
    0.9618   -2.2623   -5.8601 H   0  0  0  0  0  0  0  0  0  0  0  0
    8.3578    2.1748   -2.6112 H   0  0  0  0  0  0  0  0  0  0  0  0
   11.1158    0.4749   -8.0968 H   0  0  0  0  0  0  0  0  0  0  0  0
  1  7  1  0
  1 24  1  0
  2 12  1  0
  2 18  1  0
  3 18  2  0
  4 20  1  0
  4 25  1  0
  5 22  1  0
  5 26  1  0
  6  7  1  0
  6  8  1  0
  7  9  1  0
  8 10  1  0
  9 11  1  0
 10 12  1  0
 11 13  1  0
 12 14  1  0
 13 15  1  0
 15 19  2  0
 16 17  2  0
 16 18  1  0
 16 20  1  0
 17 19  1  0
 17 21  1  0
 20 23  2  0
 21 22  2  0
 22 23  1  0
M  END
> <PUBCHEM_COMPOUND_CID>
5284645

> <PUBCHEM_CONFORMER_RMSD>
0.6

> <PUBCHEM_CONFORMER_DIVERSEORDER>
1

> <PUBCHEM_MMFF94_PARTIAL_CHARGES>
24
1 -0.68
12 0.28
13 0.14
15 -0.29
16 0.09
17 0.03
18 0.63
19 -0.18
2 -0.43
20 0.08
21 -0.15
22 0.08
23 -0.15
3 -0.57
4 -0.53
41 0.4
42 0.15
43 0.15
44 0.15
45 0.15
46 0.45
47 0.45
5 -0.53
7 0.28

> <PUBCHEM_EFFECTIVE_ROTOR_COUNT>
1.8

> <PUBCHEM_PHARMACOPHORE_FEATURES>
6
1 1 acceptor
1 1 donor
1 3 acceptor
1 4 donor
1 5 donor
6 16 17 20 21 22 23 rings

> <PUBCHEM_HEAVY_ATOM_COUNT>
23

> <PUBCHEM_ATOM_DEF_STEREO_COUNT>
2

> <PUBCHEM_ATOM_UDEF_STEREO_COUNT>
0

> <PUBCHEM_BOND_DEF_STEREO_COUNT>
1

> <PUBCHEM_BOND_UDEF_STEREO_COUNT>
0

> <PUBCHEM_ISOTOPIC_ATOM_COUNT>
0

> <PUBCHEM_COMPONENT_COUNT>
1

> <PUBCHEM_CACTVS_TAUTO_COUNT>
12

> <PUBCHEM_CONFORMER_ID>
0050A32500000001

> <PUBCHEM_MMFF94_ENERGY>
56.9454

> <PUBCHEM_FEATURE_SELFOVERLAP>
30.446

> <PUBCHEM_SHAPE_FINGERPRINT>
1100329 8 17836085568009856625
11112241 14 16986289841619931392
11578080 2 16734366241365874279
12166972 35 17967822613537111974
12403259 226 18337670931286267939
12506688 2 18412827975731104564
12596599 1 17914633677902020662
12788726 201 17627507133988941776
13140716 1 18267582403486064363
13402501 40 18336828697047978282
13533116 47 18056766653224983451
14251757 17 18262232209996353437
14787075 74 18336834185758012246
14790565 3 17545883724776523813
14866123 147 17767415573386001256
14931854 50 18336551491284682350
15196674 1 18334859415888043750
15322687 12 17104511174142344237
19591789 44 18337109089556020683
19930381 70 18413393137471364090
20028762 73 17044582808783771111
20691752 17 17022900138402631537
20715895 44 17609482839964013085
20832881 197 18343306989256920753
20905425 154 18409167675446349782
22182313 1 18041826412212926463
23227448 37 18189331260828617463
23352939 185 18342462530415398027
23557571 272 17910374109985112994
23559900 14 18335978778501818797
238 59 18196346307921625956
2748010 2 18117544331403189953
3323516 105 18411138077713944259
350125 39 18336268960321048513
3524813 1 18334011700965522918
3680242 22 18116995477305685354
463206 1 18269557311053435927
5265222 85 17471861776259798556
57527585 103 17390829632986241626
59755656 215 18188762977069237031
6443956 14 18340493347406701473
81228 2 17476913559209296171

> <PUBCHEM_SHAPE_MULTIPOLES>
443.98
8.21
4.09
1.18
1.54
0.84
-0.09
-3.84
1.51
-1.8
-1.33
-0.11
0.8
1.1

> <PUBCHEM_SHAPE_SELFOVERLAP>
916.908

> <PUBCHEM_SHAPE_VOLUME>
252.3

> <PUBCHEM_COORDINATE_TYPE>
2
5
10

> <Energy>
40.5071

> <minimizedAffinity>
-4.74438

> <CNNscore>
0.5495149493

> <CNNaffinity>
6.5998206139

> <CNN_VS>
3.6267001629

> <CNNaffinity_variance>
0.1994905472

$$$$
5284645


 26 27  0  0  0  0  0  0  0  0999 V2000
    0.3896   -1.5741   -3.6148 O   0  0  0  0  0  0  0  0  0  0  0  0
    5.7786   -1.8485   -6.2645 O   0  0  0  0  0  0  0  0  0  0  0  0
    5.5740   -0.0557   -7.6965 O   0  0  0  0  0  0  0  0  0  0  0  0
    8.3583    0.5372   -7.7554 O   0  0  0  0  0  0  0  0  0  0  0  0
    9.9285    1.9257   -3.5384 O   0  0  0  0  0  0  0  0  0  0  0  0
    1.4035   -1.5522   -5.7968 C   0  0  0  0  0  0  0  0  0  0  0  0
    1.6044   -1.2630   -4.2993 C   0  0  0  0  0  0  0  0  0  0  0  0
    2.6952   -1.5338   -6.6185 C   0  0  0  0  0  0  0  0  0  0  0  0
    1.9614    0.2049   -4.0191 C   0  0  0  0  0  0  0  0  0  0  0  0
    3.5576   -2.7802   -6.3938 C   0  0  0  0  0  0  0  0  0  0  0  0
    2.3530    0.4745   -2.5584 C   0  0  0  0  0  0  0  0  0  0  0  0
    4.9234   -2.6762   -7.0805 C   0  0  0  0  0  0  0  0  0  0  0  0
    3.6832   -0.1543   -2.1271 C   0  0  0  0  0  0  0  0  0  0  0  0
    5.5970   -4.0431   -7.1587 C   0  0  0  0  0  0  0  0  0  0  0  0
    4.8628    0.3785   -2.8942 C   0  0  0  0  0  0  0  0  0  0  0  0
    6.9836    0.0601   -5.7925 C   0  0  0  0  0  0  0  0  0  0  0  0
    6.8136    0.1570   -4.3969 C   0  0  0  0  0  0  0  0  0  0  0  0
    5.9869   -0.5820   -6.6743 C   0  0  0  0  0  0  0  0  0  0  0  0
    5.6453   -0.3787   -3.6799 C   0  0  0  0  0  0  0  0  0  0  0  0
    8.1238    0.6060   -6.4038 C   0  0  0  0  0  0  0  0  0  0  0  0
    7.8230    0.7834   -3.6397 C   0  0  0  0  0  0  0  0  0  0  0  0
    8.9492    1.3151   -4.2638 C   0  0  0  0  0  0  0  0  0  0  0  0
    9.1053    1.2344   -5.6425 C   0  0  0  0  0  0  0  0  0  0  0  0
    0.1517   -2.4992   -3.7828 H   0  0  0  0  0  0  0  0  0  0  0  0
    7.7330    0.1257   -8.3190 H   0  0  0  0  0  0  0  0  0  0  0  0
    9.8486    1.9938   -2.6074 H   0  0  0  0  0  0  0  0  0  0  0  0
  1  7  1  0
  1 24  1  0
  2 12  1  0
  2 18  1  0
  3 18  2  0
  4 20  1  0
  4 25  1  0
  5 22  1  0
  5 26  1  0
  6  7  1  0
  6  8  1  0
  7  9  1  0
  8 10  1  0
  9 11  1  0
 10 12  1  0
 11 13  1  0
 12 14  1  0
 13 15  1  0
 15 19  2  0
 16 17  2  0
 16 18  1  0
 16 20  1  0
 17 19  1  0
 17 21  1  0
 20 23  2  0
 21 22  2  0
 22 23  1  0
M  END
> <PUBCHEM_COMPOUND_CID>
5284645

> <PUBCHEM_CONFORMER_RMSD>
0.6

> <PUBCHEM_CONFORMER_DIVERSEORDER>
1

> <PUBCHEM_MMFF94_PARTIAL_CHARGES>
24
1 -0.68
12 0.28
13 0.14
15 -0.29
16 0.09
17 0.03
18 0.63
19 -0.18
2 -0.43
20 0.08
21 -0.15
22 0.08
23 -0.15
3 -0.57
4 -0.53
41 0.4
42 0.15
43 0.15
44 0.15
45 0.15
46 0.45
47 0.45
5 -0.53
7 0.28

> <PUBCHEM_EFFECTIVE_ROTOR_COUNT>
1.8

> <PUBCHEM_PHARMACOPHORE_FEATURES>
6
1 1 acceptor
1 1 donor
1 3 acceptor
1 4 donor
1 5 donor
6 16 17 20 21 22 23 rings

> <PUBCHEM_HEAVY_ATOM_COUNT>
23

> <PUBCHEM_ATOM_DEF_STEREO_COUNT>
2

> <PUBCHEM_ATOM_UDEF_STEREO_COUNT>
0

> <PUBCHEM_BOND_DEF_STEREO_COUNT>
1

> <PUBCHEM_BOND_UDEF_STEREO_COUNT>
0

> <PUBCHEM_ISOTOPIC_ATOM_COUNT>
0

> <PUBCHEM_COMPONENT_COUNT>
1

> <PUBCHEM_CACTVS_TAUTO_COUNT>
12

> <PUBCHEM_CONFORMER_ID>
0050A32500000001

> <PUBCHEM_MMFF94_ENERGY>
56.9454

> <PUBCHEM_FEATURE_SELFOVERLAP>
30.446

> <PUBCHEM_SHAPE_FINGERPRINT>
1100329 8 17836085568009856625
11112241 14 16986289841619931392
11578080 2 16734366241365874279
12166972 35 17967822613537111974
12403259 226 18337670931286267939
12506688 2 18412827975731104564
12596599 1 17914633677902020662
12788726 201 17627507133988941776
13140716 1 18267582403486064363
13402501 40 18336828697047978282
13533116 47 18056766653224983451
14251757 17 18262232209996353437
14787075 74 18336834185758012246
14790565 3 17545883724776523813
14866123 147 17767415573386001256
14931854 50 18336551491284682350
15196674 1 18334859415888043750
15322687 12 17104511174142344237
19591789 44 18337109089556020683
19930381 70 18413393137471364090
20028762 73 17044582808783771111
20691752 17 17022900138402631537
20715895 44 17609482839964013085
20832881 197 18343306989256920753
20905425 154 18409167675446349782
22182313 1 18041826412212926463
23227448 37 18189331260828617463
23352939 185 18342462530415398027
23557571 272 17910374109985112994
23559900 14 18335978778501818797
238 59 18196346307921625956
2748010 2 18117544331403189953
3323516 105 18411138077713944259
350125 39 18336268960321048513
3524813 1 18334011700965522918
3680242 22 18116995477305685354
463206 1 18269557311053435927
5265222 85 17471861776259798556
57527585 103 17390829632986241626
59755656 215 18188762977069237031
6443956 14 18340493347406701473
81228 2 17476913559209296171

> <PUBCHEM_SHAPE_MULTIPOLES>
443.98
8.21
4.09
1.18
1.54
0.84
-0.09
-3.84
1.51
-1.8
-1.33
-0.11
0.8
1.1

> <PUBCHEM_SHAPE_SELFOVERLAP>
916.908

> <PUBCHEM_SHAPE_VOLUME>
252.3

> <PUBCHEM_COORDINATE_TYPE>
2
5
10

> <Energy>
40.5071

> <minimizedAffinity>
-6.70848

> <CNNscore>
0.3664851785

> <CNNaffinity>
6.0654196739

> <CNN_VS>
2.2228863239

> <CNNaffinity_variance>
0.0807616115

$$$$
5284645


 26 27  0  0  0  0  0  0  0  0999 V2000
    5.1538   -1.0615   -0.7594 O   0  0  0  0  0  0  0  0  0  0  0  0
    3.9029   -1.9068   -6.5781 O   0  0  0  0  0  0  0  0  0  0  0  0
    1.8745   -2.9774   -6.3647 O   0  0  0  0  0  0  0  0  0  0  0  0
    0.8423   -2.0576   -8.8539 O   0  0  0  0  0  0  0  0  0  0  0  0
    0.2799    2.6177   -8.8806 O   0  0  0  0  0  0  0  0  0  0  0  0
    4.4409   -2.7770   -2.2885 C   0  0  0  0  0  0  0  0  0  0  0  0
    4.4940   -1.2650   -2.0100 C   0  0  0  0  0  0  0  0  0  0  0  0
    4.0153   -3.1382   -3.7141 C   0  0  0  0  0  0  0  0  0  0  0  0
    3.0996   -0.6238   -1.9373 C   0  0  0  0  0  0  0  0  0  0  0  0
    5.1225   -2.8888   -4.7435 C   0  0  0  0  0  0  0  0  0  0  0  0
    3.1317    0.9096   -1.8517 C   0  0  0  0  0  0  0  0  0  0  0  0
    4.6358   -3.0853   -6.1831 C   0  0  0  0  0  0  0  0  0  0  0  0
    3.6223    1.6104   -3.1242 C   0  0  0  0  0  0  0  0  0  0  0  0
    5.8156   -3.1992   -7.1441 C   0  0  0  0  0  0  0  0  0  0  0  0
    2.7360    1.3595   -4.3139 C   0  0  0  0  0  0  0  0  0  0  0  0
    1.9961   -0.7421   -7.1485 C   0  0  0  0  0  0  0  0  0  0  0  0
    2.2686    0.5243   -6.5935 C   0  0  0  0  0  0  0  0  0  0  0  0
    2.5585   -1.9921   -6.5965 C   0  0  0  0  0  0  0  0  0  0  0  0
    3.1437    0.7315   -5.4285 C   0  0  0  0  0  0  0  0  0  0  0  0
    1.1414   -0.8575   -8.2566 C   0  0  0  0  0  0  0  0  0  0  0  0
    1.6891    1.6591   -7.1943 C   0  0  0  0  0  0  0  0  0  0  0  0
    0.8472    1.5248   -8.2959 C   0  0  0  0  0  0  0  0  0  0  0  0
    0.5655    0.2728   -8.8296 C   0  0  0  0  0  0  0  0  0  0  0  0
    6.0367   -1.4617   -0.7908 H   0  0  0  0  0  0  0  0  0  0  0  0
    1.2008   -2.8531   -8.5124 H   0  0  0  0  0  0  0  0  0  0  0  0
    0.4530    3.4736   -8.5409 H   0  0  0  0  0  0  0  0  0  0  0  0
  1  7  1  0
  1 24  1  0
  2 12  1  0
  2 18  1  0
  3 18  2  0
  4 20  1  0
  4 25  1  0
  5 22  1  0
  5 26  1  0
  6  7  1  0
  6  8  1  0
  7  9  1  0
  8 10  1  0
  9 11  1  0
 10 12  1  0
 11 13  1  0
 12 14  1  0
 13 15  1  0
 15 19  2  0
 16 17  2  0
 16 18  1  0
 16 20  1  0
 17 19  1  0
 17 21  1  0
 20 23  2  0
 21 22  2  0
 22 23  1  0
M  END
> <PUBCHEM_COMPOUND_CID>
5284645

> <PUBCHEM_CONFORMER_RMSD>
0.6

> <PUBCHEM_CONFORMER_DIVERSEORDER>
1

> <PUBCHEM_MMFF94_PARTIAL_CHARGES>
24
1 -0.68
12 0.28
13 0.14
15 -0.29
16 0.09
17 0.03
18 0.63
19 -0.18
2 -0.43
20 0.08
21 -0.15
22 0.08
23 -0.15
3 -0.57
4 -0.53
41 0.4
42 0.15
43 0.15
44 0.15
45 0.15
46 0.45
47 0.45
5 -0.53
7 0.28

> <PUBCHEM_EFFECTIVE_ROTOR_COUNT>
1.8

> <PUBCHEM_PHARMACOPHORE_FEATURES>
6
1 1 acceptor
1 1 donor
1 3 acceptor
1 4 donor
1 5 donor
6 16 17 20 21 22 23 rings

> <PUBCHEM_HEAVY_ATOM_COUNT>
23

> <PUBCHEM_ATOM_DEF_STEREO_COUNT>
2

> <PUBCHEM_ATOM_UDEF_STEREO_COUNT>
0

> <PUBCHEM_BOND_DEF_STEREO_COUNT>
1

> <PUBCHEM_BOND_UDEF_STEREO_COUNT>
0

> <PUBCHEM_ISOTOPIC_ATOM_COUNT>
0

> <PUBCHEM_COMPONENT_COUNT>
1

> <PUBCHEM_CACTVS_TAUTO_COUNT>
12

> <PUBCHEM_CONFORMER_ID>
0050A32500000001

> <PUBCHEM_MMFF94_ENERGY>
56.9454

> <PUBCHEM_FEATURE_SELFOVERLAP>
30.446

> <PUBCHEM_SHAPE_FINGERPRINT>
1100329 8 17836085568009856625
11112241 14 16986289841619931392
11578080 2 16734366241365874279
12166972 35 17967822613537111974
12403259 226 18337670931286267939
12506688 2 18412827975731104564
12596599 1 17914633677902020662
12788726 201 17627507133988941776
13140716 1 18267582403486064363
13402501 40 18336828697047978282
13533116 47 18056766653224983451
14251757 17 18262232209996353437
14787075 74 18336834185758012246
14790565 3 17545883724776523813
14866123 147 17767415573386001256
14931854 50 18336551491284682350
15196674 1 18334859415888043750
15322687 12 17104511174142344237
19591789 44 18337109089556020683
19930381 70 18413393137471364090
20028762 73 17044582808783771111
20691752 17 17022900138402631537
20715895 44 17609482839964013085
20832881 197 18343306989256920753
20905425 154 18409167675446349782
22182313 1 18041826412212926463
23227448 37 18189331260828617463
23352939 185 18342462530415398027
23557571 272 17910374109985112994
23559900 14 18335978778501818797
238 59 18196346307921625956
2748010 2 18117544331403189953
3323516 105 18411138077713944259
350125 39 18336268960321048513
3524813 1 18334011700965522918
3680242 22 18116995477305685354
463206 1 18269557311053435927
5265222 85 17471861776259798556
57527585 103 17390829632986241626
59755656 215 18188762977069237031
6443956 14 18340493347406701473
81228 2 17476913559209296171

> <PUBCHEM_SHAPE_MULTIPOLES>
443.98
8.21
4.09
1.18
1.54
0.84
-0.09
-3.84
1.51
-1.8
-1.33
-0.11
0.8
1.1

> <PUBCHEM_SHAPE_SELFOVERLAP>
916.908

> <PUBCHEM_SHAPE_VOLUME>
252.3

> <PUBCHEM_COORDINATE_TYPE>
2
5
10

> <Energy>
40.5071

> <minimizedAffinity>
21.27361

> <CNNscore>
0.2122414112

> <CNNaffinity>
4.5561833382

> <CNN_VS>
0.9670107961

> <CNNaffinity_variance>
0.8847088218

$$$$
5284645


 26 27  0  0  0  0  0  0  0  0999 V2000
    9.6829   -1.1871   -7.4396 O   0  0  0  0  0  0  0  0  0  0  0  0
    6.5268    1.6450   -3.1787 O   0  0  0  0  0  0  0  0  0  0  0  0
    5.2372    3.0029   -4.5201 O   0  0  0  0  0  0  0  0  0  0  0  0
    3.0420    3.1306   -2.7111 O   0  0  0  0  0  0  0  0  0  0  0  0
    1.0142   -1.0810   -2.1398 O   0  0  0  0  0  0  0  0  0  0  0  0
    9.0173    1.0245   -6.7649 C   0  0  0  0  0  0  0  0  0  0  0  0
    8.6785   -0.4753   -6.7147 C   0  0  0  0  0  0  0  0  0  0  0  0
    8.1932    1.8867   -5.8048 C   0  0  0  0  0  0  0  0  0  0  0  0
    7.3090   -0.7972   -7.3323 C   0  0  0  0  0  0  0  0  0  0  0  0
    8.6357    1.7359   -4.3456 C   0  0  0  0  0  0  0  0  0  0  0  0
    6.8669   -2.2532   -7.1226 C   0  0  0  0  0  0  0  0  0  0  0  0
    7.6998    2.4624   -3.3740 C   0  0  0  0  0  0  0  0  0  0  0  0
    6.5366   -2.6177   -5.6704 C   0  0  0  0  0  0  0  0  0  0  0  0
    8.3514    2.6125   -2.0025 C   0  0  0  0  0  0  0  0  0  0  0  0
    5.3796   -1.8327   -5.1145 C   0  0  0  0  0  0  0  0  0  0  0  0
    4.2867    1.1428   -3.3966 C   0  0  0  0  0  0  0  0  0  0  0  0
    4.3283   -0.2602   -3.5224 C   0  0  0  0  0  0  0  0  0  0  0  0
    5.4017    2.0146   -3.8210 C   0  0  0  0  0  0  0  0  0  0  0  0
    5.4800   -0.9947   -4.0701 C   0  0  0  0  0  0  0  0  0  0  0  0
    3.1453    1.7706   -2.8722 C   0  0  0  0  0  0  0  0  0  0  0  0
    3.2167   -1.0065   -3.0843 C   0  0  0  0  0  0  0  0  0  0  0  0
    2.0951   -0.3660   -2.5627 C   0  0  0  0  0  0  0  0  0  0  0  0
    2.0496    1.0191   -2.4570 C   0  0  0  0  0  0  0  0  0  0  0  0
   10.5541   -0.9931   -7.0601 H   0  0  0  0  0  0  0  0  0  0  0  0
    3.7482    3.6883   -2.9725 H   0  0  0  0  0  0  0  0  0  0  0  0
    1.0184   -2.0160   -2.1997 H   0  0  0  0  0  0  0  0  0  0  0  0
  1  7  1  0
  1 24  1  0
  2 12  1  0
  2 18  1  0
  3 18  2  0
  4 20  1  0
  4 25  1  0
  5 22  1  0
  5 26  1  0
  6  7  1  0
  6  8  1  0
  7  9  1  0
  8 10  1  0
  9 11  1  0
 10 12  1  0
 11 13  1  0
 12 14  1  0
 13 15  1  0
 15 19  2  0
 16 17  2  0
 16 18  1  0
 16 20  1  0
 17 19  1  0
 17 21  1  0
 20 23  2  0
 21 22  2  0
 22 23  1  0
M  END
> <PUBCHEM_COMPOUND_CID>
5284645

> <PUBCHEM_CONFORMER_RMSD>
0.6

> <PUBCHEM_CONFORMER_DIVERSEORDER>
1

> <PUBCHEM_MMFF94_PARTIAL_CHARGES>
24
1 -0.68
12 0.28
13 0.14
15 -0.29
16 0.09
17 0.03
18 0.63
19 -0.18
2 -0.43
20 0.08
21 -0.15
22 0.08
23 -0.15
3 -0.57
4 -0.53
41 0.4
42 0.15
43 0.15
44 0.15
45 0.15
46 0.45
47 0.45
5 -0.53
7 0.28

> <PUBCHEM_EFFECTIVE_ROTOR_COUNT>
1.8

> <PUBCHEM_PHARMACOPHORE_FEATURES>
6
1 1 acceptor
1 1 donor
1 3 acceptor
1 4 donor
1 5 donor
6 16 17 20 21 22 23 rings

> <PUBCHEM_HEAVY_ATOM_COUNT>
23

> <PUBCHEM_ATOM_DEF_STEREO_COUNT>
2

> <PUBCHEM_ATOM_UDEF_STEREO_COUNT>
0

> <PUBCHEM_BOND_DEF_STEREO_COUNT>
1

> <PUBCHEM_BOND_UDEF_STEREO_COUNT>
0

> <PUBCHEM_ISOTOPIC_ATOM_COUNT>
0

> <PUBCHEM_COMPONENT_COUNT>
1

> <PUBCHEM_CACTVS_TAUTO_COUNT>
12

> <PUBCHEM_CONFORMER_ID>
0050A32500000001

> <PUBCHEM_MMFF94_ENERGY>
56.9454

> <PUBCHEM_FEATURE_SELFOVERLAP>
30.446

> <PUBCHEM_SHAPE_FINGERPRINT>
1100329 8 17836085568009856625
11112241 14 16986289841619931392
11578080 2 16734366241365874279
12166972 35 17967822613537111974
12403259 226 18337670931286267939
12506688 2 18412827975731104564
12596599 1 17914633677902020662
12788726 201 17627507133988941776
13140716 1 18267582403486064363
13402501 40 18336828697047978282
13533116 47 18056766653224983451
14251757 17 18262232209996353437
14787075 74 18336834185758012246
14790565 3 17545883724776523813
14866123 147 17767415573386001256
14931854 50 18336551491284682350
15196674 1 18334859415888043750
15322687 12 17104511174142344237
19591789 44 18337109089556020683
19930381 70 18413393137471364090
20028762 73 17044582808783771111
20691752 17 17022900138402631537
20715895 44 17609482839964013085
20832881 197 18343306989256920753
20905425 154 18409167675446349782
22182313 1 18041826412212926463
23227448 37 18189331260828617463
23352939 185 18342462530415398027
23557571 272 17910374109985112994
23559900 14 18335978778501818797
238 59 18196346307921625956
2748010 2 18117544331403189953
3323516 105 18411138077713944259
350125 39 18336268960321048513
3524813 1 18334011700965522918
3680242 22 18116995477305685354
463206 1 18269557311053435927
5265222 85 17471861776259798556
57527585 103 17390829632986241626
59755656 215 18188762977069237031
6443956 14 18340493347406701473
81228 2 17476913559209296171

> <PUBCHEM_SHAPE_MULTIPOLES>
443.98
8.21
4.09
1.18
1.54
0.84
-0.09
-3.84
1.51
-1.8
-1.33
-0.11
0.8
1.1

> <PUBCHEM_SHAPE_SELFOVERLAP>
916.908

> <PUBCHEM_SHAPE_VOLUME>
252.3

> <PUBCHEM_COORDINATE_TYPE>
2
5
10

> <Energy>
40.5071

> <minimizedAffinity>
1.56207

> <CNNscore>
0.1968523562

> <CNNaffinity>
5.9286599159

> <CNN_VS>
1.1670706272

> <CNNaffinity_variance>
0.2083443552

$$$$
5284645


 26 27  0  0  0  0  0  0  0  0999 V2000
    1.8253    2.0918   -8.7092 O   0  0  0  0  0  0  0  0  0  0  0  0
    1.3342   -1.7371   -4.1010 O   0  0  0  0  0  0  0  0  0  0  0  0
    2.9566   -3.2543   -4.7113 O   0  0  0  0  0  0  0  0  0  0  0  0
    3.5765   -4.0440   -2.0468 O   0  0  0  0  0  0  0  0  0  0  0  0
    5.4391   -0.4967    0.4278 O   0  0  0  0  0  0  0  0  0  0  0  0
    1.6217   -0.2607   -8.2466 C   0  0  0  0  0  0  0  0  0  0  0  0
    2.0758    1.1061   -7.7059 C   0  0  0  0  0  0  0  0  0  0  0  0
    1.5673   -1.3672   -7.1898 C   0  0  0  0  0  0  0  0  0  0  0  0
    3.5701    1.1390   -7.3503 C   0  0  0  0  0  0  0  0  0  0  0  0
    0.3645   -1.2299   -6.2504 C   0  0  0  0  0  0  0  0  0  0  0  0
    4.0032    2.4263   -6.6326 C   0  0  0  0  0  0  0  0  0  0  0  0
    0.4109   -2.2328   -5.0929 C   0  0  0  0  0  0  0  0  0  0  0  0
    3.4432    2.5863   -5.2143 C   0  0  0  0  0  0  0  0  0  0  0  0
   -0.9473   -2.3299   -4.4042 C   0  0  0  0  0  0  0  0  0  0  0  0
    3.9044    1.5066   -4.2734 C   0  0  0  0  0  0  0  0  0  0  0  0
    3.2989   -1.7690   -2.8940 C   0  0  0  0  0  0  0  0  0  0  0  0
    3.5457   -0.3913   -2.7301 C   0  0  0  0  0  0  0  0  0  0  0  0
    2.5509   -2.3133   -4.0463 C   0  0  0  0  0  0  0  0  0  0  0  0
    3.0762    0.6377   -3.6717 C   0  0  0  0  0  0  0  0  0  0  0  0
    3.7897   -2.6903   -1.9548 C   0  0  0  0  0  0  0  0  0  0  0  0
    4.2646    0.0313   -1.5946 C   0  0  0  0  0  0  0  0  0  0  0  0
    4.7397   -0.8974   -0.6715 C   0  0  0  0  0  0  0  0  0  0  0  0
    4.5107   -2.2572   -0.8456 C   0  0  0  0  0  0  0  0  0  0  0  0
    0.8843    2.0824   -8.9439 H   0  0  0  0  0  0  0  0  0  0  0  0
    3.0975   -4.3946   -2.7718 H   0  0  0  0  0  0  0  0  0  0  0  0
    5.6076    0.4140    0.5696 H   0  0  0  0  0  0  0  0  0  0  0  0
  1  7  1  0
  1 24  1  0
  2 12  1  0
  2 18  1  0
  3 18  2  0
  4 20  1  0
  4 25  1  0
  5 22  1  0
  5 26  1  0
  6  7  1  0
  6  8  1  0
  7  9  1  0
  8 10  1  0
  9 11  1  0
 10 12  1  0
 11 13  1  0
 12 14  1  0
 13 15  1  0
 15 19  2  0
 16 17  2  0
 16 18  1  0
 16 20  1  0
 17 19  1  0
 17 21  1  0
 20 23  2  0
 21 22  2  0
 22 23  1  0
M  END
> <PUBCHEM_COMPOUND_CID>
5284645

> <PUBCHEM_CONFORMER_RMSD>
0.6

> <PUBCHEM_CONFORMER_DIVERSEORDER>
1

> <PUBCHEM_MMFF94_PARTIAL_CHARGES>
24
1 -0.68
12 0.28
13 0.14
15 -0.29
16 0.09
17 0.03
18 0.63
19 -0.18
2 -0.43
20 0.08
21 -0.15
22 0.08
23 -0.15
3 -0.57
4 -0.53
41 0.4
42 0.15
43 0.15
44 0.15
45 0.15
46 0.45
47 0.45
5 -0.53
7 0.28

> <PUBCHEM_EFFECTIVE_ROTOR_COUNT>
1.8

> <PUBCHEM_PHARMACOPHORE_FEATURES>
6
1 1 acceptor
1 1 donor
1 3 acceptor
1 4 donor
1 5 donor
6 16 17 20 21 22 23 rings

> <PUBCHEM_HEAVY_ATOM_COUNT>
23

> <PUBCHEM_ATOM_DEF_STEREO_COUNT>
2

> <PUBCHEM_ATOM_UDEF_STEREO_COUNT>
0

> <PUBCHEM_BOND_DEF_STEREO_COUNT>
1

> <PUBCHEM_BOND_UDEF_STEREO_COUNT>
0

> <PUBCHEM_ISOTOPIC_ATOM_COUNT>
0

> <PUBCHEM_COMPONENT_COUNT>
1

> <PUBCHEM_CACTVS_TAUTO_COUNT>
12

> <PUBCHEM_CONFORMER_ID>
0050A32500000001

> <PUBCHEM_MMFF94_ENERGY>
56.9454

> <PUBCHEM_FEATURE_SELFOVERLAP>
30.446

> <PUBCHEM_SHAPE_FINGERPRINT>
1100329 8 17836085568009856625
11112241 14 16986289841619931392
11578080 2 16734366241365874279
12166972 35 17967822613537111974
12403259 226 18337670931286267939
12506688 2 18412827975731104564
12596599 1 17914633677902020662
12788726 201 17627507133988941776
13140716 1 18267582403486064363
13402501 40 18336828697047978282
13533116 47 18056766653224983451
14251757 17 18262232209996353437
14787075 74 18336834185758012246
14790565 3 17545883724776523813
14866123 147 17767415573386001256
14931854 50 18336551491284682350
15196674 1 18334859415888043750
15322687 12 17104511174142344237
19591789 44 18337109089556020683
19930381 70 18413393137471364090
20028762 73 17044582808783771111
20691752 17 17022900138402631537
20715895 44 17609482839964013085
20832881 197 18343306989256920753
20905425 154 18409167675446349782
22182313 1 18041826412212926463
23227448 37 18189331260828617463
23352939 185 18342462530415398027
23557571 272 17910374109985112994
23559900 14 18335978778501818797
238 59 18196346307921625956
2748010 2 18117544331403189953
3323516 105 18411138077713944259
350125 39 18336268960321048513
3524813 1 18334011700965522918
3680242 22 18116995477305685354
463206 1 18269557311053435927
5265222 85 17471861776259798556
57527585 103 17390829632986241626
59755656 215 18188762977069237031
6443956 14 18340493347406701473
81228 2 17476913559209296171

> <PUBCHEM_SHAPE_MULTIPOLES>
443.98
8.21
4.09
1.18
1.54
0.84
-0.09
-3.84
1.51
-1.8
-1.33
-0.11
0.8
1.1

> <PUBCHEM_SHAPE_SELFOVERLAP>
916.908

> <PUBCHEM_SHAPE_VOLUME>
252.3

> <PUBCHEM_COORDINATE_TYPE>
2
5
10

> <Energy>
40.5071

> <minimizedAffinity>
40.69777

> <CNNscore>
0.1937696934

> <CNNaffinity>
5.0374255180

> <CNN_VS>
0.9761003852

> <CNNaffinity_variance>
0.0085562905

$$$$
5284645


 26 27  0  0  0  0  0  0  0  0999 V2000
   10.6869    1.6701   -8.2482 O   0  0  0  0  0  0  0  0  0  0  0  0
    7.0348   -0.0224   -3.7834 O   0  0  0  0  0  0  0  0  0  0  0  0
    5.9419    1.9740   -3.4277 O   0  0  0  0  0  0  0  0  0  0  0  0
    3.5331    0.7781   -2.4924 O   0  0  0  0  0  0  0  0  0  0  0  0
    1.4085   -1.7217   -5.8707 O   0  0  0  0  0  0  0  0  0  0  0  0
    9.9609    2.3641   -6.0616 C   0  0  0  0  0  0  0  0  0  0  0  0
    9.6043    1.5585   -7.3228 C   0  0  0  0  0  0  0  0  0  0  0  0
    9.0282    2.1154   -4.8733 C   0  0  0  0  0  0  0  0  0  0  0  0
    8.3229    2.0595   -8.0066 C   0  0  0  0  0  0  0  0  0  0  0  0
    9.2773    0.7627   -4.1981 C   0  0  0  0  0  0  0  0  0  0  0  0
    7.8435    1.1555   -9.1523 C   0  0  0  0  0  0  0  0  0  0  0  0
    8.2308    0.4446   -3.1251 C   0  0  0  0  0  0  0  0  0  0  0  0
    7.3252   -0.2176   -8.7085 C   0  0  0  0  0  0  0  0  0  0  0  0
    8.7016   -0.6977   -2.2295 C   0  0  0  0  0  0  0  0  0  0  0  0
    6.1138   -0.1312   -7.8204 C   0  0  0  0  0  0  0  0  0  0  0  0
    4.8368    0.1468   -4.4602 C   0  0  0  0  0  0  0  0  0  0  0  0
    4.8809   -0.5030   -5.7099 C   0  0  0  0  0  0  0  0  0  0  0  0
    6.0054    0.8414   -3.8812 C   0  0  0  0  0  0  0  0  0  0  0  0
    6.0866   -0.5687   -6.5513 C   0  0  0  0  0  0  0  0  0  0  0  0
    3.6433    0.1737   -3.7207 C   0  0  0  0  0  0  0  0  0  0  0  0
    3.7150   -1.1423   -6.1754 C   0  0  0  0  0  0  0  0  0  0  0  0
    2.5417   -1.1085   -5.4255 C   0  0  0  0  0  0  0  0  0  0  0  0
    2.4961   -0.4510   -4.2018 C   0  0  0  0  0  0  0  0  0  0  0  0
   11.5038    1.3568   -7.8294 H   0  0  0  0  0  0  0  0  0  0  0  0
    4.2723    1.2147   -2.1171 H   0  0  0  0  0  0  0  0  0  0  0  0
    1.4116   -2.1722   -6.6923 H   0  0  0  0  0  0  0  0  0  0  0  0
  1  7  1  0
  1 24  1  0
  2 12  1  0
  2 18  1  0
  3 18  2  0
  4 20  1  0
  4 25  1  0
  5 22  1  0
  5 26  1  0
  6  7  1  0
  6  8  1  0
  7  9  1  0
  8 10  1  0
  9 11  1  0
 10 12  1  0
 11 13  1  0
 12 14  1  0
 13 15  1  0
 15 19  2  0
 16 17  2  0
 16 18  1  0
 16 20  1  0
 17 19  1  0
 17 21  1  0
 20 23  2  0
 21 22  2  0
 22 23  1  0
M  END
> <PUBCHEM_COMPOUND_CID>
5284645

> <PUBCHEM_CONFORMER_RMSD>
0.6

> <PUBCHEM_CONFORMER_DIVERSEORDER>
1

> <PUBCHEM_MMFF94_PARTIAL_CHARGES>
24
1 -0.68
12 0.28
13 0.14
15 -0.29
16 0.09
17 0.03
18 0.63
19 -0.18
2 -0.43
20 0.08
21 -0.15
22 0.08
23 -0.15
3 -0.57
4 -0.53
41 0.4
42 0.15
43 0.15
44 0.15
45 0.15
46 0.45
47 0.45
5 -0.53
7 0.28

> <PUBCHEM_EFFECTIVE_ROTOR_COUNT>
1.8

> <PUBCHEM_PHARMACOPHORE_FEATURES>
6
1 1 acceptor
1 1 donor
1 3 acceptor
1 4 donor
1 5 donor
6 16 17 20 21 22 23 rings

> <PUBCHEM_HEAVY_ATOM_COUNT>
23

> <PUBCHEM_ATOM_DEF_STEREO_COUNT>
2

> <PUBCHEM_ATOM_UDEF_STEREO_COUNT>
0

> <PUBCHEM_BOND_DEF_STEREO_COUNT>
1

> <PUBCHEM_BOND_UDEF_STEREO_COUNT>
0

> <PUBCHEM_ISOTOPIC_ATOM_COUNT>
0

> <PUBCHEM_COMPONENT_COUNT>
1

> <PUBCHEM_CACTVS_TAUTO_COUNT>
12

> <PUBCHEM_CONFORMER_ID>
0050A32500000001

> <PUBCHEM_MMFF94_ENERGY>
56.9454

> <PUBCHEM_FEATURE_SELFOVERLAP>
30.446

> <PUBCHEM_SHAPE_FINGERPRINT>
1100329 8 17836085568009856625
11112241 14 16986289841619931392
11578080 2 16734366241365874279
12166972 35 17967822613537111974
12403259 226 18337670931286267939
12506688 2 18412827975731104564
12596599 1 17914633677902020662
12788726 201 17627507133988941776
13140716 1 18267582403486064363
13402501 40 18336828697047978282
13533116 47 18056766653224983451
14251757 17 18262232209996353437
14787075 74 18336834185758012246
14790565 3 17545883724776523813
14866123 147 17767415573386001256
14931854 50 18336551491284682350
15196674 1 18334859415888043750
15322687 12 17104511174142344237
19591789 44 18337109089556020683
19930381 70 18413393137471364090
20028762 73 17044582808783771111
20691752 17 17022900138402631537
20715895 44 17609482839964013085
20832881 197 18343306989256920753
20905425 154 18409167675446349782
22182313 1 18041826412212926463
23227448 37 18189331260828617463
23352939 185 18342462530415398027
23557571 272 17910374109985112994
23559900 14 18335978778501818797
238 59 18196346307921625956
2748010 2 18117544331403189953
3323516 105 18411138077713944259
350125 39 18336268960321048513
3524813 1 18334011700965522918
3680242 22 18116995477305685354
463206 1 18269557311053435927
5265222 85 17471861776259798556
57527585 103 17390829632986241626
59755656 215 18188762977069237031
6443956 14 18340493347406701473
81228 2 17476913559209296171

> <PUBCHEM_SHAPE_MULTIPOLES>
443.98
8.21
4.09
1.18
1.54
0.84
-0.09
-3.84
1.51
-1.8
-1.33
-0.11
0.8
1.1

> <PUBCHEM_SHAPE_SELFOVERLAP>
916.908

> <PUBCHEM_SHAPE_VOLUME>
252.3

> <PUBCHEM_COORDINATE_TYPE>
2
5
10

> <Energy>
40.5071

> <minimizedAffinity>
2.19819

> <CNNscore>
0.1476317793

> <CNNaffinity>
5.3522086143

> <CNN_VS>
0.7901560664

> <CNNaffinity_variance>
0.1670364887

$$$$
