6013


 22 25  0  0  0  0  0  0  0  0999 V2000
   -9.0733   -4.9687   23.7862 O   0  0  0  0  0  0  0  0  0  0  0  0
   -0.0593   -1.2715   18.9985 O   0  0  0  0  0  0  0  0  0  0  0  0
   -5.9559   -3.0844   23.5018 C   0  0  0  0  0  0  0  0  0  0  0  0
   -6.7714   -4.3368   23.1261 C   0  0  0  0  0  0  0  0  0  0  0  0
   -4.4685   -3.2275   23.1658 C   0  0  0  0  0  0  0  0  0  0  0  0
   -4.3210   -3.4654   21.6297 C   0  0  0  0  0  0  0  0  0  0  0  0
   -2.8173   -3.5842   21.1708 C   0  0  0  0  0  0  0  0  0  0  0  0
   -6.6849   -4.5192   21.6052 C   0  0  0  0  0  0  0  0  0  0  0  0
   -5.2237   -4.6288   21.1332 C   0  0  0  0  0  0  0  0  0  0  0  0
   -8.1566   -3.9001   23.6449 C   0  0  0  0  0  0  0  0  0  0  0  0
   -6.3691   -2.8103   24.9457 C   0  0  0  0  0  0  0  0  0  0  0  0
   -3.6777   -1.9819   23.5852 C   0  0  0  0  0  0  0  0  0  0  0  0
   -7.8533   -3.2152   24.9934 C   0  0  0  0  0  0  0  0  0  0  0  0
   -2.0119   -2.4132   21.7513 C   0  0  0  0  0  0  0  0  0  0  0  0
   -2.2052   -2.1155   23.2196 C   0  0  0  0  0  0  0  0  0  0  0  0
   -6.3182   -5.6397   23.8304 C   0  0  0  0  0  0  0  0  0  0  0  0
   -2.7750   -3.5388   19.6147 C   0  0  0  0  0  0  0  0  0  0  0  0
   -2.1660   -4.9004   21.6510 C   0  0  0  0  0  0  0  0  0  0  0  0
   -1.3898   -3.2666   19.0470 C   0  0  0  0  0  0  0  0  0  0  0  0
   -1.1474   -1.6734   21.0358 C   0  0  0  0  0  0  0  0  0  0  0  0
   -0.8277   -1.9949   19.6250 C   0  0  0  0  0  0  0  0  0  0  0  0
   -9.2368   -5.3714   22.9190 H   0  0  0  0  0  0  0  0  0  0  0  0
  1 10  1  0
  1 22  1  0
  2 21  2  0
  3  4  1  0
  3  5  1  0
  3 11  1  0
  4  8  1  0
  4 10  1  0
  4 16  1  0
  5  6  1  0
  5 12  1  0
  6  7  1  0
  6  9  1  0
  7 14  1  0
  7 17  1  0
  7 18  1  0
  8  9  1  0
 10 13  1  0
 11 13  1  0
 12 15  1  0
 14 15  1  0
 14 20  2  0
 17 19  1  0
 19 21  1  0
 20 21  1  0
M  END
> <PUBCHEM_COMPOUND_CID>
6013

> <PUBCHEM_CONFORMER_RMSD>
0.6

> <PUBCHEM_CONFORMER_DIVERSEORDER>
1

> <PUBCHEM_MMFF94_PARTIAL_CHARGES>
11
1 -0.68
10 0.28
14 -0.28
15 0.14
19 0.06
2 -0.57
20 -0.14
21 0.49
48 0.15
49 0.4
7 0.14

> <PUBCHEM_EFFECTIVE_ROTOR_COUNT>
1.8

> <PUBCHEM_PHARMACOPHORE_FEATURES>
7
1 1 acceptor
1 1 donor
1 2 acceptor
5 3 4 10 11 13 rings
6 3 4 5 6 8 9 rings
6 5 6 7 12 14 15 rings
6 7 14 17 19 20 21 rings

> <PUBCHEM_HEAVY_ATOM_COUNT>
21

> <PUBCHEM_ATOM_DEF_STEREO_COUNT>
6

> <PUBCHEM_ATOM_UDEF_STEREO_COUNT>
0

> <PUBCHEM_BOND_DEF_STEREO_COUNT>
0

> <PUBCHEM_BOND_UDEF_STEREO_COUNT>
0

> <PUBCHEM_ISOTOPIC_ATOM_COUNT>
0

> <PUBCHEM_COMPONENT_COUNT>
1

> <PUBCHEM_CACTVS_TAUTO_COUNT>
5

> <PUBCHEM_CONFORMER_ID>
0000177D00000001

> <PUBCHEM_MMFF94_ENERGY>
67.5416

> <PUBCHEM_FEATURE_SELFOVERLAP>
35.618

> <PUBCHEM_SHAPE_FINGERPRINT>
10062212 137 18336825385559829163
10759866 29 17897457309511876188
10967382 1 18412548682291571786
11132069 177 18410018732180467827
11370993 70 18410569557056084199
11578080 2 16735503067342509174
12011746 2 18412547592124142406
12236239 1 18040155136873436768
12251169 10 18410008845387181634
12403259 226 18410006624652160988
12403259 415 18408880746209696412
12403260 363 18340481291412090749
12403814 3 17894914044785590877
12507557 5 18408881845467772304
12633257 1 18341888602346167976
12839892 36 18340758291450253690
13140716 1 18339643467883616216
13214271 11 18272369780793716703
13224815 77 18411987974316295335
13675066 3 18187087269080573787
14178342 30 18338527339117458393
14223421 5 18341052895787930134
14341114 176 18411985737129035682
14787075 74 18339640165090922602
14790565 3 18050014594947639924
15163728 17 14691189929019880809
15196674 1 18411420639180230811
15375358 24 18413110541697833299
15536298 74 18272376330249831326
15788980 27 17167859768361771669
16945 1 18267308633664624303
17349148 13 18260547844245275310
17492 89 18410012108956776131
1813 80 17168144512515476742
18186145 218 18411423903503023558
18522853 276 18412546492037592553
19050596 39 18410858775858764633
19784866 9 18412265021155473810
200 152 18202274819337965375
20715895 44 18116989984517715477
21033648 29 18262779827106925672
21267235 1 18410302427354843602
21421861 104 18042966467372004754
21637258 2 15647319828885568714
22182313 1 18189614934485510503
22854114 111 18409735070690792279
22854114 59 18343022189864506130
23402539 116 18272925046486162621
23557571 272 18059303161493107767
23559900 14 18343023255612643838
26918003 58 18409728456589012017
2748010 2 18410304609229794207
2838139 119 14835541671104639250
296302 2 16343984710473737934
335352 9 18411702045432157758
34934 24 18341610383102269379
350125 39 18410857681354741304
351380 180 18413386540454065762
3545911 37 18411703166439727155
42 15 18260548935156425576
5104073 3 18410294747868572393
59755656 215 18339930311854621398
633830 44 17988931080225984300
69090 78 18413386557386229218
7364860 26 18200601276388112774
9709674 26 18341058445033876271

> <PUBCHEM_SHAPE_MULTIPOLES>
420.43
9.43
2.1
1.06
1.16
0.42
0.43
-0.59
-2.56
-0.22
0.02
0.09
-0.22
0.11

> <PUBCHEM_SHAPE_SELFOVERLAP>
902.625

> <PUBCHEM_SHAPE_VOLUME>
230.1

> <PUBCHEM_COORDINATE_TYPE>
2
5
10

> <Energy>
71.9966

> <minimizedAffinity>
-10.45814

> <CNNscore>
0.8728024364

> <CNNaffinity>
7.5859870911

> <CNN_VS>
6.6210680008

> <CNNaffinity_variance>
0.3517706394

$$$$
6013


 22 25  0  0  0  0  0  0  0  0999 V2000
   -9.9875   -2.6611   22.8289 O   0  0  0  0  0  0  0  0  0  0  0  0
    0.2724   -1.8806   19.3693 O   0  0  0  0  0  0  0  0  0  0  0  0
   -6.4562   -1.7358   22.9807 C   0  0  0  0  0  0  0  0  0  0  0  0
   -7.5330   -2.7307   22.5059 C   0  0  0  0  0  0  0  0  0  0  0  0
   -5.0386   -2.3047   22.8689 C   0  0  0  0  0  0  0  0  0  0  0  0
   -4.7550   -2.6573   21.3745 C   0  0  0  0  0  0  0  0  0  0  0  0
   -3.2982   -3.2141   21.1433 C   0  0  0  0  0  0  0  0  0  0  0  0
   -7.2937   -3.0122   21.0169 C   0  0  0  0  0  0  0  0  0  0  0  0
   -5.8728   -3.5492   20.7663 C   0  0  0  0  0  0  0  0  0  0  0  0
   -8.7955   -1.8987   22.8096 C   0  0  0  0  0  0  0  0  0  0  0  0
   -6.9690   -1.2797   24.3443 C   0  0  0  0  0  0  0  0  0  0  0  0
   -3.9930   -1.3071   23.3833 C   0  0  0  0  0  0  0  0  0  0  0  0
   -8.4991   -1.2529   24.1788 C   0  0  0  0  0  0  0  0  0  0  0  0
   -2.2820   -2.2834   21.8201 C   0  0  0  0  0  0  0  0  0  0  0  0
   -2.5828   -1.8644   23.2400 C   0  0  0  0  0  0  0  0  0  0  0  0
   -7.5680   -4.0680   23.2866 C   0  0  0  0  0  0  0  0  0  0  0  0
   -3.0315   -3.2668   19.6099 C   0  0  0  0  0  0  0  0  0  0  0  0
   -3.1181   -4.6313   21.7316 C   0  0  0  0  0  0  0  0  0  0  0  0
   -1.5616   -3.4216   19.2484 C   0  0  0  0  0  0  0  0  0  0  0  0
   -1.1539   -1.8531   21.2298 C   0  0  0  0  0  0  0  0  0  0  0  0
   -0.7477   -2.3268   19.8857 C   0  0  0  0  0  0  0  0  0  0  0  0
  -10.1376   -3.0489   21.9526 H   0  0  0  0  0  0  0  0  0  0  0  0
  1 10  1  0
  1 22  1  0
  2 21  2  0
  3  4  1  0
  3  5  1  0
  3 11  1  0
  4  8  1  0
  4 10  1  0
  4 16  1  0
  5  6  1  0
  5 12  1  0
  6  7  1  0
  6  9  1  0
  7 14  1  0
  7 17  1  0
  7 18  1  0
  8  9  1  0
 10 13  1  0
 11 13  1  0
 12 15  1  0
 14 15  1  0
 14 20  2  0
 17 19  1  0
 19 21  1  0
 20 21  1  0
M  END
> <PUBCHEM_COMPOUND_CID>
6013

> <PUBCHEM_CONFORMER_RMSD>
0.6

> <PUBCHEM_CONFORMER_DIVERSEORDER>
1

> <PUBCHEM_MMFF94_PARTIAL_CHARGES>
11
1 -0.68
10 0.28
14 -0.28
15 0.14
19 0.06
2 -0.57
20 -0.14
21 0.49
48 0.15
49 0.4
7 0.14

> <PUBCHEM_EFFECTIVE_ROTOR_COUNT>
1.8

> <PUBCHEM_PHARMACOPHORE_FEATURES>
7
1 1 acceptor
1 1 donor
1 2 acceptor
5 3 4 10 11 13 rings
6 3 4 5 6 8 9 rings
6 5 6 7 12 14 15 rings
6 7 14 17 19 20 21 rings

> <PUBCHEM_HEAVY_ATOM_COUNT>
21

> <PUBCHEM_ATOM_DEF_STEREO_COUNT>
6

> <PUBCHEM_ATOM_UDEF_STEREO_COUNT>
0

> <PUBCHEM_BOND_DEF_STEREO_COUNT>
0

> <PUBCHEM_BOND_UDEF_STEREO_COUNT>
0

> <PUBCHEM_ISOTOPIC_ATOM_COUNT>
0

> <PUBCHEM_COMPONENT_COUNT>
1

> <PUBCHEM_CACTVS_TAUTO_COUNT>
5

> <PUBCHEM_CONFORMER_ID>
0000177D00000001

> <PUBCHEM_MMFF94_ENERGY>
67.5416

> <PUBCHEM_FEATURE_SELFOVERLAP>
35.618

> <PUBCHEM_SHAPE_FINGERPRINT>
10062212 137 18336825385559829163
10759866 29 17897457309511876188
10967382 1 18412548682291571786
11132069 177 18410018732180467827
11370993 70 18410569557056084199
11578080 2 16735503067342509174
12011746 2 18412547592124142406
12236239 1 18040155136873436768
12251169 10 18410008845387181634
12403259 226 18410006624652160988
12403259 415 18408880746209696412
12403260 363 18340481291412090749
12403814 3 17894914044785590877
12507557 5 18408881845467772304
12633257 1 18341888602346167976
12839892 36 18340758291450253690
13140716 1 18339643467883616216
13214271 11 18272369780793716703
13224815 77 18411987974316295335
13675066 3 18187087269080573787
14178342 30 18338527339117458393
14223421 5 18341052895787930134
14341114 176 18411985737129035682
14787075 74 18339640165090922602
14790565 3 18050014594947639924
15163728 17 14691189929019880809
15196674 1 18411420639180230811
15375358 24 18413110541697833299
15536298 74 18272376330249831326
15788980 27 17167859768361771669
16945 1 18267308633664624303
17349148 13 18260547844245275310
17492 89 18410012108956776131
1813 80 17168144512515476742
18186145 218 18411423903503023558
18522853 276 18412546492037592553
19050596 39 18410858775858764633
19784866 9 18412265021155473810
200 152 18202274819337965375
20715895 44 18116989984517715477
21033648 29 18262779827106925672
21267235 1 18410302427354843602
21421861 104 18042966467372004754
21637258 2 15647319828885568714
22182313 1 18189614934485510503
22854114 111 18409735070690792279
22854114 59 18343022189864506130
23402539 116 18272925046486162621
23557571 272 18059303161493107767
23559900 14 18343023255612643838
26918003 58 18409728456589012017
2748010 2 18410304609229794207
2838139 119 14835541671104639250
296302 2 16343984710473737934
335352 9 18411702045432157758
34934 24 18341610383102269379
350125 39 18410857681354741304
351380 180 18413386540454065762
3545911 37 18411703166439727155
42 15 18260548935156425576
5104073 3 18410294747868572393
59755656 215 18339930311854621398
633830 44 17988931080225984300
69090 78 18413386557386229218
7364860 26 18200601276388112774
9709674 26 18341058445033876271

> <PUBCHEM_SHAPE_MULTIPOLES>
420.43
9.43
2.1
1.06
1.16
0.42
0.43
-0.59
-2.56
-0.22
0.02
0.09
-0.22
0.11

> <PUBCHEM_SHAPE_SELFOVERLAP>
902.625

> <PUBCHEM_SHAPE_VOLUME>
230.1

> <PUBCHEM_COORDINATE_TYPE>
2
5
10

> <Energy>
71.9966

> <minimizedAffinity>
-9.79259

> <CNNscore>
0.6780320406

> <CNNaffinity>
7.2944159508

> <CNN_VS>
4.9458475113

> <CNNaffinity_variance>
0.2493650913

$$$$
6013


 22 25  0  0  0  0  0  0  0  0999 V2000
   -0.0257   -4.4470   20.1361 O   0  0  0  0  0  0  0  0  0  0  0  0
   -9.5810   -3.0435   25.0928 O   0  0  0  0  0  0  0  0  0  0  0  0
   -2.5833   -2.6779   22.0541 C   0  0  0  0  0  0  0  0  0  0  0  0
   -2.2413   -3.6934   20.9466 C   0  0  0  0  0  0  0  0  0  0  0  0
   -4.0520   -2.2447   22.0228 C   0  0  0  0  0  0  0  0  0  0  0  0
   -4.9520   -3.5054   22.2193 C   0  0  0  0  0  0  0  0  0  0  0  0
   -6.4902   -3.1607   22.2455 C   0  0  0  0  0  0  0  0  0  0  0  0
   -3.0731   -4.9591   21.1917 C   0  0  0  0  0  0  0  0  0  0  0  0
   -4.5796   -4.6444   21.2299 C   0  0  0  0  0  0  0  0  0  0  0  0
   -0.7304   -3.8543   21.2106 C   0  0  0  0  0  0  0  0  0  0  0  0
   -1.4925   -1.6188   21.9154 C   0  0  0  0  0  0  0  0  0  0  0  0
   -4.3527   -1.2069   23.1115 C   0  0  0  0  0  0  0  0  0  0  0  0
   -0.2450   -2.4188   21.4995 C   0  0  0  0  0  0  0  0  0  0  0  0
   -6.7371   -1.9989   23.2181 C   0  0  0  0  0  0  0  0  0  0  0  0
   -5.8213   -0.8035   23.0974 C   0  0  0  0  0  0  0  0  0  0  0  0
   -2.4854   -3.1847   19.5041 C   0  0  0  0  0  0  0  0  0  0  0  0
   -7.2675   -4.4245   22.7188 C   0  0  0  0  0  0  0  0  0  0  0  0
   -7.0152   -2.7424   20.8539 C   0  0  0  0  0  0  0  0  0  0  0  0
   -8.6985   -4.1382   23.1497 C   0  0  0  0  0  0  0  0  0  0  0  0
   -7.7203   -1.9874   24.1344 C   0  0  0  0  0  0  0  0  0  0  0  0
   -8.7212   -3.0769   24.2176 C   0  0  0  0  0  0  0  0  0  0  0  0
   -0.3595   -5.3454   19.9869 H   0  0  0  0  0  0  0  0  0  0  0  0
  1 10  1  0
  1 22  1  0
  2 21  2  0
  3  4  1  0
  3  5  1  0
  3 11  1  0
  4  8  1  0
  4 10  1  0
  4 16  1  0
  5  6  1  0
  5 12  1  0
  6  7  1  0
  6  9  1  0
  7 14  1  0
  7 17  1  0
  7 18  1  0
  8  9  1  0
 10 13  1  0
 11 13  1  0
 12 15  1  0
 14 15  1  0
 14 20  2  0
 17 19  1  0
 19 21  1  0
 20 21  1  0
M  END
> <PUBCHEM_COMPOUND_CID>
6013

> <PUBCHEM_CONFORMER_RMSD>
0.6

> <PUBCHEM_CONFORMER_DIVERSEORDER>
1

> <PUBCHEM_MMFF94_PARTIAL_CHARGES>
11
1 -0.68
10 0.28
14 -0.28
15 0.14
19 0.06
2 -0.57
20 -0.14
21 0.49
48 0.15
49 0.4
7 0.14

> <PUBCHEM_EFFECTIVE_ROTOR_COUNT>
1.8

> <PUBCHEM_PHARMACOPHORE_FEATURES>
7
1 1 acceptor
1 1 donor
1 2 acceptor
5 3 4 10 11 13 rings
6 3 4 5 6 8 9 rings
6 5 6 7 12 14 15 rings
6 7 14 17 19 20 21 rings

> <PUBCHEM_HEAVY_ATOM_COUNT>
21

> <PUBCHEM_ATOM_DEF_STEREO_COUNT>
6

> <PUBCHEM_ATOM_UDEF_STEREO_COUNT>
0

> <PUBCHEM_BOND_DEF_STEREO_COUNT>
0

> <PUBCHEM_BOND_UDEF_STEREO_COUNT>
0

> <PUBCHEM_ISOTOPIC_ATOM_COUNT>
0

> <PUBCHEM_COMPONENT_COUNT>
1

> <PUBCHEM_CACTVS_TAUTO_COUNT>
5

> <PUBCHEM_CONFORMER_ID>
0000177D00000001

> <PUBCHEM_MMFF94_ENERGY>
67.5416

> <PUBCHEM_FEATURE_SELFOVERLAP>
35.618

> <PUBCHEM_SHAPE_FINGERPRINT>
10062212 137 18336825385559829163
10759866 29 17897457309511876188
10967382 1 18412548682291571786
11132069 177 18410018732180467827
11370993 70 18410569557056084199
11578080 2 16735503067342509174
12011746 2 18412547592124142406
12236239 1 18040155136873436768
12251169 10 18410008845387181634
12403259 226 18410006624652160988
12403259 415 18408880746209696412
12403260 363 18340481291412090749
12403814 3 17894914044785590877
12507557 5 18408881845467772304
12633257 1 18341888602346167976
12839892 36 18340758291450253690
13140716 1 18339643467883616216
13214271 11 18272369780793716703
13224815 77 18411987974316295335
13675066 3 18187087269080573787
14178342 30 18338527339117458393
14223421 5 18341052895787930134
14341114 176 18411985737129035682
14787075 74 18339640165090922602
14790565 3 18050014594947639924
15163728 17 14691189929019880809
15196674 1 18411420639180230811
15375358 24 18413110541697833299
15536298 74 18272376330249831326
15788980 27 17167859768361771669
16945 1 18267308633664624303
17349148 13 18260547844245275310
17492 89 18410012108956776131
1813 80 17168144512515476742
18186145 218 18411423903503023558
18522853 276 18412546492037592553
19050596 39 18410858775858764633
19784866 9 18412265021155473810
200 152 18202274819337965375
20715895 44 18116989984517715477
21033648 29 18262779827106925672
21267235 1 18410302427354843602
21421861 104 18042966467372004754
21637258 2 15647319828885568714
22182313 1 18189614934485510503
22854114 111 18409735070690792279
22854114 59 18343022189864506130
23402539 116 18272925046486162621
23557571 272 18059303161493107767
23559900 14 18343023255612643838
26918003 58 18409728456589012017
2748010 2 18410304609229794207
2838139 119 14835541671104639250
296302 2 16343984710473737934
335352 9 18411702045432157758
34934 24 18341610383102269379
350125 39 18410857681354741304
351380 180 18413386540454065762
3545911 37 18411703166439727155
42 15 18260548935156425576
5104073 3 18410294747868572393
59755656 215 18339930311854621398
633830 44 17988931080225984300
69090 78 18413386557386229218
7364860 26 18200601276388112774
9709674 26 18341058445033876271

> <PUBCHEM_SHAPE_MULTIPOLES>
420.43
9.43
2.1
1.06
1.16
0.42
0.43
-0.59
-2.56
-0.22
0.02
0.09
-0.22
0.11

> <PUBCHEM_SHAPE_SELFOVERLAP>
902.625

> <PUBCHEM_SHAPE_VOLUME>
230.1

> <PUBCHEM_COORDINATE_TYPE>
2
5
10

> <Energy>
71.9966

> <minimizedAffinity>
-9.18414

> <CNNscore>
0.6343631148

> <CNNaffinity>
7.2511267662

> <CNN_VS>
4.5998473167

> <CNNaffinity_variance>
0.2646168768

$$$$
6013


 22 25  0  0  0  0  0  0  0  0999 V2000
   -9.0830   -5.9688   21.2370 O   0  0  0  0  0  0  0  0  0  0  0  0
    0.5397   -1.0515   20.2039 O   0  0  0  0  0  0  0  0  0  0  0  0
   -6.3827   -3.6636   22.0996 C   0  0  0  0  0  0  0  0  0  0  0  0
   -6.8113   -5.0201   21.5072 C   0  0  0  0  0  0  0  0  0  0  0  0
   -4.8805   -3.5961   22.3902 C   0  0  0  0  0  0  0  0  0  0  0  0
   -4.1001   -3.8164   21.0559 C   0  0  0  0  0  0  0  0  0  0  0  0
   -2.5369   -3.7230   21.2390 C   0  0  0  0  0  0  0  0  0  0  0  0
   -6.0995   -5.1940   20.1593 C   0  0  0  0  0  0  0  0  0  0  0  0
   -4.5707   -5.0976   20.3129 C   0  0  0  0  0  0  0  0  0  0  0  0
   -8.3317   -4.7818   21.4069 C   0  0  0  0  0  0  0  0  0  0  0  0
   -7.3717   -3.4454   23.2419 C   0  0  0  0  0  0  0  0  0  0  0  0
   -4.4909   -2.2496   23.0132 C   0  0  0  0  0  0  0  0  0  0  0  0
   -8.6852   -4.0560   22.7213 C   0  0  0  0  0  0  0  0  0  0  0  0
   -2.1892   -2.4478   22.0198 C   0  0  0  0  0  0  0  0  0  0  0  0
   -2.9916   -2.1750   23.2703 C   0  0  0  0  0  0  0  0  0  0  0  0
   -6.5157   -6.2432   22.4104 C   0  0  0  0  0  0  0  0  0  0  0  0
   -1.8802   -3.6779   19.8276 C   0  0  0  0  0  0  0  0  0  0  0  0
   -1.9702   -4.9321   22.0162 C   0  0  0  0  0  0  0  0  0  0  0  0
   -0.4309   -3.2145   19.8405 C   0  0  0  0  0  0  0  0  0  0  0  0
   -1.2129   -1.5958   21.6628 C   0  0  0  0  0  0  0  0  0  0  0  0
   -0.3159   -1.8740   20.5166 C   0  0  0  0  0  0  0  0  0  0  0  0
   -8.8319   -6.3937   20.4019 H   0  0  0  0  0  0  0  0  0  0  0  0
  1 10  1  0
  1 22  1  0
  2 21  2  0
  3  4  1  0
  3  5  1  0
  3 11  1  0
  4  8  1  0
  4 10  1  0
  4 16  1  0
  5  6  1  0
  5 12  1  0
  6  7  1  0
  6  9  1  0
  7 14  1  0
  7 17  1  0
  7 18  1  0
  8  9  1  0
 10 13  1  0
 11 13  1  0
 12 15  1  0
 14 15  1  0
 14 20  2  0
 17 19  1  0
 19 21  1  0
 20 21  1  0
M  END
> <PUBCHEM_COMPOUND_CID>
6013

> <PUBCHEM_CONFORMER_RMSD>
0.6

> <PUBCHEM_CONFORMER_DIVERSEORDER>
1

> <PUBCHEM_MMFF94_PARTIAL_CHARGES>
11
1 -0.68
10 0.28
14 -0.28
15 0.14
19 0.06
2 -0.57
20 -0.14
21 0.49
48 0.15
49 0.4
7 0.14

> <PUBCHEM_EFFECTIVE_ROTOR_COUNT>
1.8

> <PUBCHEM_PHARMACOPHORE_FEATURES>
7
1 1 acceptor
1 1 donor
1 2 acceptor
5 3 4 10 11 13 rings
6 3 4 5 6 8 9 rings
6 5 6 7 12 14 15 rings
6 7 14 17 19 20 21 rings

> <PUBCHEM_HEAVY_ATOM_COUNT>
21

> <PUBCHEM_ATOM_DEF_STEREO_COUNT>
6

> <PUBCHEM_ATOM_UDEF_STEREO_COUNT>
0

> <PUBCHEM_BOND_DEF_STEREO_COUNT>
0

> <PUBCHEM_BOND_UDEF_STEREO_COUNT>
0

> <PUBCHEM_ISOTOPIC_ATOM_COUNT>
0

> <PUBCHEM_COMPONENT_COUNT>
1

> <PUBCHEM_CACTVS_TAUTO_COUNT>
5

> <PUBCHEM_CONFORMER_ID>
0000177D00000001

> <PUBCHEM_MMFF94_ENERGY>
67.5416

> <PUBCHEM_FEATURE_SELFOVERLAP>
35.618

> <PUBCHEM_SHAPE_FINGERPRINT>
10062212 137 18336825385559829163
10759866 29 17897457309511876188
10967382 1 18412548682291571786
11132069 177 18410018732180467827
11370993 70 18410569557056084199
11578080 2 16735503067342509174
12011746 2 18412547592124142406
12236239 1 18040155136873436768
12251169 10 18410008845387181634
12403259 226 18410006624652160988
12403259 415 18408880746209696412
12403260 363 18340481291412090749
12403814 3 17894914044785590877
12507557 5 18408881845467772304
12633257 1 18341888602346167976
12839892 36 18340758291450253690
13140716 1 18339643467883616216
13214271 11 18272369780793716703
13224815 77 18411987974316295335
13675066 3 18187087269080573787
14178342 30 18338527339117458393
14223421 5 18341052895787930134
14341114 176 18411985737129035682
14787075 74 18339640165090922602
14790565 3 18050014594947639924
15163728 17 14691189929019880809
15196674 1 18411420639180230811
15375358 24 18413110541697833299
15536298 74 18272376330249831326
15788980 27 17167859768361771669
16945 1 18267308633664624303
17349148 13 18260547844245275310
17492 89 18410012108956776131
1813 80 17168144512515476742
18186145 218 18411423903503023558
18522853 276 18412546492037592553
19050596 39 18410858775858764633
19784866 9 18412265021155473810
200 152 18202274819337965375
20715895 44 18116989984517715477
21033648 29 18262779827106925672
21267235 1 18410302427354843602
21421861 104 18042966467372004754
21637258 2 15647319828885568714
22182313 1 18189614934485510503
22854114 111 18409735070690792279
22854114 59 18343022189864506130
23402539 116 18272925046486162621
23557571 272 18059303161493107767
23559900 14 18343023255612643838
26918003 58 18409728456589012017
2748010 2 18410304609229794207
2838139 119 14835541671104639250
296302 2 16343984710473737934
335352 9 18411702045432157758
34934 24 18341610383102269379
350125 39 18410857681354741304
351380 180 18413386540454065762
3545911 37 18411703166439727155
42 15 18260548935156425576
5104073 3 18410294747868572393
59755656 215 18339930311854621398
633830 44 17988931080225984300
69090 78 18413386557386229218
7364860 26 18200601276388112774
9709674 26 18341058445033876271

> <PUBCHEM_SHAPE_MULTIPOLES>
420.43
9.43
2.1
1.06
1.16
0.42
0.43
-0.59
-2.56
-0.22
0.02
0.09
-0.22
0.11

> <PUBCHEM_SHAPE_SELFOVERLAP>
902.625

> <PUBCHEM_SHAPE_VOLUME>
230.1

> <PUBCHEM_COORDINATE_TYPE>
2
5
10

> <Energy>
71.9966

> <minimizedAffinity>
-4.46562

> <CNNscore>
0.6015850306

> <CNNaffinity>
7.3204665184

> <CNN_VS>
4.4038829803

> <CNNaffinity_variance>
0.5040258765

$$$$
6013


 22 25  0  0  0  0  0  0  0  0999 V2000
    0.6808   -2.2715   20.9288 O   0  0  0  0  0  0  0  0  0  0  0  0
   -9.6578   -2.4987   24.2310 O   0  0  0  0  0  0  0  0  0  0  0  0
   -2.9396   -2.6376   20.6001 C   0  0  0  0  0  0  0  0  0  0  0  0
   -1.6752   -2.8169   21.4627 C   0  0  0  0  0  0  0  0  0  0  0  0
   -4.1459   -3.3986   21.1581 C   0  0  0  0  0  0  0  0  0  0  0  0
   -4.4537   -2.8692   22.5943 C   0  0  0  0  0  0  0  0  0  0  0  0
   -5.7117   -3.5618   23.2450 C   0  0  0  0  0  0  0  0  0  0  0  0
   -1.9600   -2.2242   22.8489 C   0  0  0  0  0  0  0  0  0  0  0  0
   -3.1910   -2.8804   23.5001 C   0  0  0  0  0  0  0  0  0  0  0  0
   -0.6733   -2.0112   20.6109 C   0  0  0  0  0  0  0  0  0  0  0  0
   -2.4534   -2.9479   19.1866 C   0  0  0  0  0  0  0  0  0  0  0  0
   -5.3775   -3.2318   20.2591 C   0  0  0  0  0  0  0  0  0  0  0  0
   -1.0133   -2.4054   19.1588 C   0  0  0  0  0  0  0  0  0  0  0  0
   -6.8818   -3.5330   22.2517 C   0  0  0  0  0  0  0  0  0  0  0  0
   -6.5829   -3.9635   20.8348 C   0  0  0  0  0  0  0  0  0  0  0  0
   -1.1977   -4.2825   21.6144 C   0  0  0  0  0  0  0  0  0  0  0  0
   -6.0904   -2.7767   24.5355 C   0  0  0  0  0  0  0  0  0  0  0  0
   -5.4347   -5.0351   23.6189 C   0  0  0  0  0  0  0  0  0  0  0  0
   -7.4850   -3.0907   25.0568 C   0  0  0  0  0  0  0  0  0  0  0  0
   -8.1338   -3.1727   22.5820 C   0  0  0  0  0  0  0  0  0  0  0  0
   -8.5113   -2.8577   23.9799 C   0  0  0  0  0  0  0  0  0  0  0  0
    0.8534   -2.0108   21.8469 H   0  0  0  0  0  0  0  0  0  0  0  0
  1 10  1  0
  1 22  1  0
  2 21  2  0
  3  4  1  0
  3  5  1  0
  3 11  1  0
  4  8  1  0
  4 10  1  0
  4 16  1  0
  5  6  1  0
  5 12  1  0
  6  7  1  0
  6  9  1  0
  7 14  1  0
  7 17  1  0
  7 18  1  0
  8  9  1  0
 10 13  1  0
 11 13  1  0
 12 15  1  0
 14 15  1  0
 14 20  2  0
 17 19  1  0
 19 21  1  0
 20 21  1  0
M  END
> <PUBCHEM_COMPOUND_CID>
6013

> <PUBCHEM_CONFORMER_RMSD>
0.6

> <PUBCHEM_CONFORMER_DIVERSEORDER>
1

> <PUBCHEM_MMFF94_PARTIAL_CHARGES>
11
1 -0.68
10 0.28
14 -0.28
15 0.14
19 0.06
2 -0.57
20 -0.14
21 0.49
48 0.15
49 0.4
7 0.14

> <PUBCHEM_EFFECTIVE_ROTOR_COUNT>
1.8

> <PUBCHEM_PHARMACOPHORE_FEATURES>
7
1 1 acceptor
1 1 donor
1 2 acceptor
5 3 4 10 11 13 rings
6 3 4 5 6 8 9 rings
6 5 6 7 12 14 15 rings
6 7 14 17 19 20 21 rings

> <PUBCHEM_HEAVY_ATOM_COUNT>
21

> <PUBCHEM_ATOM_DEF_STEREO_COUNT>
6

> <PUBCHEM_ATOM_UDEF_STEREO_COUNT>
0

> <PUBCHEM_BOND_DEF_STEREO_COUNT>
0

> <PUBCHEM_BOND_UDEF_STEREO_COUNT>
0

> <PUBCHEM_ISOTOPIC_ATOM_COUNT>
0

> <PUBCHEM_COMPONENT_COUNT>
1

> <PUBCHEM_CACTVS_TAUTO_COUNT>
5

> <PUBCHEM_CONFORMER_ID>
0000177D00000001

> <PUBCHEM_MMFF94_ENERGY>
67.5416

> <PUBCHEM_FEATURE_SELFOVERLAP>
35.618

> <PUBCHEM_SHAPE_FINGERPRINT>
10062212 137 18336825385559829163
10759866 29 17897457309511876188
10967382 1 18412548682291571786
11132069 177 18410018732180467827
11370993 70 18410569557056084199
11578080 2 16735503067342509174
12011746 2 18412547592124142406
12236239 1 18040155136873436768
12251169 10 18410008845387181634
12403259 226 18410006624652160988
12403259 415 18408880746209696412
12403260 363 18340481291412090749
12403814 3 17894914044785590877
12507557 5 18408881845467772304
12633257 1 18341888602346167976
12839892 36 18340758291450253690
13140716 1 18339643467883616216
13214271 11 18272369780793716703
13224815 77 18411987974316295335
13675066 3 18187087269080573787
14178342 30 18338527339117458393
14223421 5 18341052895787930134
14341114 176 18411985737129035682
14787075 74 18339640165090922602
14790565 3 18050014594947639924
15163728 17 14691189929019880809
15196674 1 18411420639180230811
15375358 24 18413110541697833299
15536298 74 18272376330249831326
15788980 27 17167859768361771669
16945 1 18267308633664624303
17349148 13 18260547844245275310
17492 89 18410012108956776131
1813 80 17168144512515476742
18186145 218 18411423903503023558
18522853 276 18412546492037592553
19050596 39 18410858775858764633
19784866 9 18412265021155473810
200 152 18202274819337965375
20715895 44 18116989984517715477
21033648 29 18262779827106925672
21267235 1 18410302427354843602
21421861 104 18042966467372004754
21637258 2 15647319828885568714
22182313 1 18189614934485510503
22854114 111 18409735070690792279
22854114 59 18343022189864506130
23402539 116 18272925046486162621
23557571 272 18059303161493107767
23559900 14 18343023255612643838
26918003 58 18409728456589012017
2748010 2 18410304609229794207
2838139 119 14835541671104639250
296302 2 16343984710473737934
335352 9 18411702045432157758
34934 24 18341610383102269379
350125 39 18410857681354741304
351380 180 18413386540454065762
3545911 37 18411703166439727155
42 15 18260548935156425576
5104073 3 18410294747868572393
59755656 215 18339930311854621398
633830 44 17988931080225984300
69090 78 18413386557386229218
7364860 26 18200601276388112774
9709674 26 18341058445033876271

> <PUBCHEM_SHAPE_MULTIPOLES>
420.43
9.43
2.1
1.06
1.16
0.42
0.43
-0.59
-2.56
-0.22
0.02
0.09
-0.22
0.11

> <PUBCHEM_SHAPE_SELFOVERLAP>
902.625

> <PUBCHEM_SHAPE_VOLUME>
230.1

> <PUBCHEM_COORDINATE_TYPE>
2
5
10

> <Energy>
71.9966

> <minimizedAffinity>
-10.12943

> <CNNscore>
0.5514690280

> <CNNaffinity>
7.1303176880

> <CNN_VS>
3.9321494102

> <CNNaffinity_variance>
0.1373471022

$$$$
6013


 22 25  0  0  0  0  0  0  0  0999 V2000
    0.7411   -2.6934   21.2040 O   0  0  0  0  0  0  0  0  0  0  0  0
   -9.3655   -5.4627   24.0379 O   0  0  0  0  0  0  0  0  0  0  0  0
   -2.4097   -2.4697   23.0403 C   0  0  0  0  0  0  0  0  0  0  0  0
   -1.6765   -2.8110   21.7285 C   0  0  0  0  0  0  0  0  0  0  0  0
   -3.9259   -2.3569   22.8552 C   0  0  0  0  0  0  0  0  0  0  0  0
   -4.4710   -3.7227   22.3305 C   0  0  0  0  0  0  0  0  0  0  0  0
   -6.0368   -3.7262   22.1461 C   0  0  0  0  0  0  0  0  0  0  0  0
   -2.1609   -4.1894   21.2604 C   0  0  0  0  0  0  0  0  0  0  0  0
   -3.6898   -4.2184   21.0819 C   0  0  0  0  0  0  0  0  0  0  0  0
   -0.2212   -2.7784   22.2380 C   0  0  0  0  0  0  0  0  0  0  0  0
   -1.6351   -1.2697   23.5794 C   0  0  0  0  0  0  0  0  0  0  0  0
   -4.6234   -1.9798   24.1683 C   0  0  0  0  0  0  0  0  0  0  0  0
   -0.1779   -1.5511   23.1716 C   0  0  0  0  0  0  0  0  0  0  0  0
   -6.7021   -3.1790   23.4168 C   0  0  0  0  0  0  0  0  0  0  0  0
   -6.1336   -1.9008   23.9868 C   0  0  0  0  0  0  0  0  0  0  0  0
   -1.8724   -1.7792   20.5901 C   0  0  0  0  0  0  0  0  0  0  0  0
   -6.4971   -5.1924   21.8942 C   0  0  0  0  0  0  0  0  0  0  0  0
   -6.4830   -2.8498   20.9545 C   0  0  0  0  0  0  0  0  0  0  0  0
   -7.9935   -5.4040   22.0713 C   0  0  0  0  0  0  0  0  0  0  0  0
   -7.7554   -3.7587   24.0178 C   0  0  0  0  0  0  0  0  0  0  0  0
   -8.4293   -4.9439   23.4372 C   0  0  0  0  0  0  0  0  0  0  0  0
    0.6815   -3.4811   20.6411 H   0  0  0  0  0  0  0  0  0  0  0  0
  1 10  1  0
  1 22  1  0
  2 21  2  0
  3  4  1  0
  3  5  1  0
  3 11  1  0
  4  8  1  0
  4 10  1  0
  4 16  1  0
  5  6  1  0
  5 12  1  0
  6  7  1  0
  6  9  1  0
  7 14  1  0
  7 17  1  0
  7 18  1  0
  8  9  1  0
 10 13  1  0
 11 13  1  0
 12 15  1  0
 14 15  1  0
 14 20  2  0
 17 19  1  0
 19 21  1  0
 20 21  1  0
M  END
> <PUBCHEM_COMPOUND_CID>
6013

> <PUBCHEM_CONFORMER_RMSD>
0.6

> <PUBCHEM_CONFORMER_DIVERSEORDER>
1

> <PUBCHEM_MMFF94_PARTIAL_CHARGES>
11
1 -0.68
10 0.28
14 -0.28
15 0.14
19 0.06
2 -0.57
20 -0.14
21 0.49
48 0.15
49 0.4
7 0.14

> <PUBCHEM_EFFECTIVE_ROTOR_COUNT>
1.8

> <PUBCHEM_PHARMACOPHORE_FEATURES>
7
1 1 acceptor
1 1 donor
1 2 acceptor
5 3 4 10 11 13 rings
6 3 4 5 6 8 9 rings
6 5 6 7 12 14 15 rings
6 7 14 17 19 20 21 rings

> <PUBCHEM_HEAVY_ATOM_COUNT>
21

> <PUBCHEM_ATOM_DEF_STEREO_COUNT>
6

> <PUBCHEM_ATOM_UDEF_STEREO_COUNT>
0

> <PUBCHEM_BOND_DEF_STEREO_COUNT>
0

> <PUBCHEM_BOND_UDEF_STEREO_COUNT>
0

> <PUBCHEM_ISOTOPIC_ATOM_COUNT>
0

> <PUBCHEM_COMPONENT_COUNT>
1

> <PUBCHEM_CACTVS_TAUTO_COUNT>
5

> <PUBCHEM_CONFORMER_ID>
0000177D00000001

> <PUBCHEM_MMFF94_ENERGY>
67.5416

> <PUBCHEM_FEATURE_SELFOVERLAP>
35.618

> <PUBCHEM_SHAPE_FINGERPRINT>
10062212 137 18336825385559829163
10759866 29 17897457309511876188
10967382 1 18412548682291571786
11132069 177 18410018732180467827
11370993 70 18410569557056084199
11578080 2 16735503067342509174
12011746 2 18412547592124142406
12236239 1 18040155136873436768
12251169 10 18410008845387181634
12403259 226 18410006624652160988
12403259 415 18408880746209696412
12403260 363 18340481291412090749
12403814 3 17894914044785590877
12507557 5 18408881845467772304
12633257 1 18341888602346167976
12839892 36 18340758291450253690
13140716 1 18339643467883616216
13214271 11 18272369780793716703
13224815 77 18411987974316295335
13675066 3 18187087269080573787
14178342 30 18338527339117458393
14223421 5 18341052895787930134
14341114 176 18411985737129035682
14787075 74 18339640165090922602
14790565 3 18050014594947639924
15163728 17 14691189929019880809
15196674 1 18411420639180230811
15375358 24 18413110541697833299
15536298 74 18272376330249831326
15788980 27 17167859768361771669
16945 1 18267308633664624303
17349148 13 18260547844245275310
17492 89 18410012108956776131
1813 80 17168144512515476742
18186145 218 18411423903503023558
18522853 276 18412546492037592553
19050596 39 18410858775858764633
19784866 9 18412265021155473810
200 152 18202274819337965375
20715895 44 18116989984517715477
21033648 29 18262779827106925672
21267235 1 18410302427354843602
21421861 104 18042966467372004754
21637258 2 15647319828885568714
22182313 1 18189614934485510503
22854114 111 18409735070690792279
22854114 59 18343022189864506130
23402539 116 18272925046486162621
23557571 272 18059303161493107767
23559900 14 18343023255612643838
26918003 58 18409728456589012017
2748010 2 18410304609229794207
2838139 119 14835541671104639250
296302 2 16343984710473737934
335352 9 18411702045432157758
34934 24 18341610383102269379
350125 39 18410857681354741304
351380 180 18413386540454065762
3545911 37 18411703166439727155
42 15 18260548935156425576
5104073 3 18410294747868572393
59755656 215 18339930311854621398
633830 44 17988931080225984300
69090 78 18413386557386229218
7364860 26 18200601276388112774
9709674 26 18341058445033876271

> <PUBCHEM_SHAPE_MULTIPOLES>
420.43
9.43
2.1
1.06
1.16
0.42
0.43
-0.59
-2.56
-0.22
0.02
0.09
-0.22
0.11

> <PUBCHEM_SHAPE_SELFOVERLAP>
902.625

> <PUBCHEM_SHAPE_VOLUME>
230.1

> <PUBCHEM_COORDINATE_TYPE>
2
5
10

> <Energy>
71.9966

> <minimizedAffinity>
-4.12889

> <CNNscore>
0.4264225066

> <CNNaffinity>
7.1717300415

> <CNN_VS>
3.0581870079

> <CNNaffinity_variance>
0.3693083227

$$$$
6013


 22 25  0  0  0  0  0  0  0  0999 V2000
   -9.4708   -1.8397   24.6310 O   0  0  0  0  0  0  0  0  0  0  0  0
    0.6637   -3.5276   21.1259 O   0  0  0  0  0  0  0  0  0  0  0  0
   -6.5458   -3.7891   23.6339 C   0  0  0  0  0  0  0  0  0  0  0  0
   -7.4026   -2.5212   23.4513 C   0  0  0  0  0  0  0  0  0  0  0  0
   -5.5451   -3.9930   22.4926 C   0  0  0  0  0  0  0  0  0  0  0  0
   -4.5891   -2.7598   22.4362 C   0  0  0  0  0  0  0  0  0  0  0  0
   -3.4874   -2.8906   21.3160 C   0  0  0  0  0  0  0  0  0  0  0  0
   -6.4636   -1.3081   23.4746 C   0  0  0  0  0  0  0  0  0  0  0  0
   -5.3733   -1.4188   22.3933 C   0  0  0  0  0  0  0  0  0  0  0  0
   -8.3147   -2.6538   24.6878 C   0  0  0  0  0  0  0  0  0  0  0  0
   -7.5770   -4.8774   23.9220 C   0  0  0  0  0  0  0  0  0  0  0  0
   -4.7340   -5.2810   22.6828 C   0  0  0  0  0  0  0  0  0  0  0  0
   -8.6656   -4.1552   24.7360 C   0  0  0  0  0  0  0  0  0  0  0  0
   -2.8095   -4.2637   21.4238 C   0  0  0  0  0  0  0  0  0  0  0  0
   -3.7180   -5.4626   21.5628 C   0  0  0  0  0  0  0  0  0  0  0  0
   -8.2511   -2.4945   22.1558 C   0  0  0  0  0  0  0  0  0  0  0  0
   -2.4367   -1.7609   21.5279 C   0  0  0  0  0  0  0  0  0  0  0  0
   -4.0841   -2.7592   19.8969 C   0  0  0  0  0  0  0  0  0  0  0  0
   -1.1364   -1.9831   20.7695 C   0  0  0  0  0  0  0  0  0  0  0  0
   -1.4786   -4.4457   21.3788 C   0  0  0  0  0  0  0  0  0  0  0  0
   -0.5464   -3.3225   21.1233 C   0  0  0  0  0  0  0  0  0  0  0  0
   -9.2081   -0.9065   24.6019 H   0  0  0  0  0  0  0  0  0  0  0  0
  1 10  1  0
  1 22  1  0
  2 21  2  0
  3  4  1  0
  3  5  1  0
  3 11  1  0
  4  8  1  0
  4 10  1  0
  4 16  1  0
  5  6  1  0
  5 12  1  0
  6  7  1  0
  6  9  1  0
  7 14  1  0
  7 17  1  0
  7 18  1  0
  8  9  1  0
 10 13  1  0
 11 13  1  0
 12 15  1  0
 14 15  1  0
 14 20  2  0
 17 19  1  0
 19 21  1  0
 20 21  1  0
M  END
> <PUBCHEM_COMPOUND_CID>
6013

> <PUBCHEM_CONFORMER_RMSD>
0.6

> <PUBCHEM_CONFORMER_DIVERSEORDER>
1

> <PUBCHEM_MMFF94_PARTIAL_CHARGES>
11
1 -0.68
10 0.28
14 -0.28
15 0.14
19 0.06
2 -0.57
20 -0.14
21 0.49
48 0.15
49 0.4
7 0.14

> <PUBCHEM_EFFECTIVE_ROTOR_COUNT>
1.8

> <PUBCHEM_PHARMACOPHORE_FEATURES>
7
1 1 acceptor
1 1 donor
1 2 acceptor
5 3 4 10 11 13 rings
6 3 4 5 6 8 9 rings
6 5 6 7 12 14 15 rings
6 7 14 17 19 20 21 rings

> <PUBCHEM_HEAVY_ATOM_COUNT>
21

> <PUBCHEM_ATOM_DEF_STEREO_COUNT>
6

> <PUBCHEM_ATOM_UDEF_STEREO_COUNT>
0

> <PUBCHEM_BOND_DEF_STEREO_COUNT>
0

> <PUBCHEM_BOND_UDEF_STEREO_COUNT>
0

> <PUBCHEM_ISOTOPIC_ATOM_COUNT>
0

> <PUBCHEM_COMPONENT_COUNT>
1

> <PUBCHEM_CACTVS_TAUTO_COUNT>
5

> <PUBCHEM_CONFORMER_ID>
0000177D00000001

> <PUBCHEM_MMFF94_ENERGY>
67.5416

> <PUBCHEM_FEATURE_SELFOVERLAP>
35.618

> <PUBCHEM_SHAPE_FINGERPRINT>
10062212 137 18336825385559829163
10759866 29 17897457309511876188
10967382 1 18412548682291571786
11132069 177 18410018732180467827
11370993 70 18410569557056084199
11578080 2 16735503067342509174
12011746 2 18412547592124142406
12236239 1 18040155136873436768
12251169 10 18410008845387181634
12403259 226 18410006624652160988
12403259 415 18408880746209696412
12403260 363 18340481291412090749
12403814 3 17894914044785590877
12507557 5 18408881845467772304
12633257 1 18341888602346167976
12839892 36 18340758291450253690
13140716 1 18339643467883616216
13214271 11 18272369780793716703
13224815 77 18411987974316295335
13675066 3 18187087269080573787
14178342 30 18338527339117458393
14223421 5 18341052895787930134
14341114 176 18411985737129035682
14787075 74 18339640165090922602
14790565 3 18050014594947639924
15163728 17 14691189929019880809
15196674 1 18411420639180230811
15375358 24 18413110541697833299
15536298 74 18272376330249831326
15788980 27 17167859768361771669
16945 1 18267308633664624303
17349148 13 18260547844245275310
17492 89 18410012108956776131
1813 80 17168144512515476742
18186145 218 18411423903503023558
18522853 276 18412546492037592553
19050596 39 18410858775858764633
19784866 9 18412265021155473810
200 152 18202274819337965375
20715895 44 18116989984517715477
21033648 29 18262779827106925672
21267235 1 18410302427354843602
21421861 104 18042966467372004754
21637258 2 15647319828885568714
22182313 1 18189614934485510503
22854114 111 18409735070690792279
22854114 59 18343022189864506130
23402539 116 18272925046486162621
23557571 272 18059303161493107767
23559900 14 18343023255612643838
26918003 58 18409728456589012017
2748010 2 18410304609229794207
2838139 119 14835541671104639250
296302 2 16343984710473737934
335352 9 18411702045432157758
34934 24 18341610383102269379
350125 39 18410857681354741304
351380 180 18413386540454065762
3545911 37 18411703166439727155
42 15 18260548935156425576
5104073 3 18410294747868572393
59755656 215 18339930311854621398
633830 44 17988931080225984300
69090 78 18413386557386229218
7364860 26 18200601276388112774
9709674 26 18341058445033876271

> <PUBCHEM_SHAPE_MULTIPOLES>
420.43
9.43
2.1
1.06
1.16
0.42
0.43
-0.59
-2.56
-0.22
0.02
0.09
-0.22
0.11

> <PUBCHEM_SHAPE_SELFOVERLAP>
902.625

> <PUBCHEM_SHAPE_VOLUME>
230.1

> <PUBCHEM_COORDINATE_TYPE>
2
5
10

> <Energy>
71.9966

> <minimizedAffinity>
-8.41193

> <CNNscore>
0.2218395323

> <CNNaffinity>
6.8146266937

> <CNN_VS>
1.5117535591

> <CNNaffinity_variance>
0.2687231302

$$$$
6013


 22 25  0  0  0  0  0  0  0  0999 V2000
   -1.0301   -3.6154   19.0183 O   0  0  0  0  0  0  0  0  0  0  0  0
  -10.3331   -2.1418   24.4151 O   0  0  0  0  0  0  0  0  0  0  0  0
   -3.3707   -3.8951   21.8098 C   0  0  0  0  0  0  0  0  0  0  0  0
   -2.8307   -3.0668   20.6278 C   0  0  0  0  0  0  0  0  0  0  0  0
   -4.2490   -3.0695   22.7547 C   0  0  0  0  0  0  0  0  0  0  0  0
   -5.4659   -2.5120   21.9509 C   0  0  0  0  0  0  0  0  0  0  0  0
   -6.4603   -1.6783   22.8464 C   0  0  0  0  0  0  0  0  0  0  0  0
   -4.0295   -2.5873   19.7991 C   0  0  0  0  0  0  0  0  0  0  0  0
   -5.0191   -1.7775   20.6563 C   0  0  0  0  0  0  0  0  0  0  0  0
   -1.9628   -4.1421   19.9429 C   0  0  0  0  0  0  0  0  0  0  0  0
   -2.1241   -4.5813   22.3628 C   0  0  0  0  0  0  0  0  0  0  0  0
   -4.7401   -3.9104   23.9399 C   0  0  0  0  0  0  0  0  0  0  0  0
   -1.2698   -4.8674   21.1148 C   0  0  0  0  0  0  0  0  0  0  0  0
   -6.7988   -2.4766   24.1133 C   0  0  0  0  0  0  0  0  0  0  0  0
   -5.6394   -3.0942   24.8591 C   0  0  0  0  0  0  0  0  0  0  0  0
   -1.9617   -1.8504   21.0332 C   0  0  0  0  0  0  0  0  0  0  0  0
   -7.7554   -1.4127   22.0235 C   0  0  0  0  0  0  0  0  0  0  0  0
   -5.8556   -0.3239   23.2791 C   0  0  0  0  0  0  0  0  0  0  0  0
   -8.9354   -0.9555   22.8684 C   0  0  0  0  0  0  0  0  0  0  0  0
   -8.0464   -2.6286   24.5896 C   0  0  0  0  0  0  0  0  0  0  0  0
   -9.2064   -1.9466   23.9691 C   0  0  0  0  0  0  0  0  0  0  0  0
   -1.5042   -3.1689   18.2994 H   0  0  0  0  0  0  0  0  0  0  0  0
  1 10  1  0
  1 22  1  0
  2 21  2  0
  3  4  1  0
  3  5  1  0
  3 11  1  0
  4  8  1  0
  4 10  1  0
  4 16  1  0
  5  6  1  0
  5 12  1  0
  6  7  1  0
  6  9  1  0
  7 14  1  0
  7 17  1  0
  7 18  1  0
  8  9  1  0
 10 13  1  0
 11 13  1  0
 12 15  1  0
 14 15  1  0
 14 20  2  0
 17 19  1  0
 19 21  1  0
 20 21  1  0
M  END
> <PUBCHEM_COMPOUND_CID>
6013

> <PUBCHEM_CONFORMER_RMSD>
0.6

> <PUBCHEM_CONFORMER_DIVERSEORDER>
1

> <PUBCHEM_MMFF94_PARTIAL_CHARGES>
11
1 -0.68
10 0.28
14 -0.28
15 0.14
19 0.06
2 -0.57
20 -0.14
21 0.49
48 0.15
49 0.4
7 0.14

> <PUBCHEM_EFFECTIVE_ROTOR_COUNT>
1.8

> <PUBCHEM_PHARMACOPHORE_FEATURES>
7
1 1 acceptor
1 1 donor
1 2 acceptor
5 3 4 10 11 13 rings
6 3 4 5 6 8 9 rings
6 5 6 7 12 14 15 rings
6 7 14 17 19 20 21 rings

> <PUBCHEM_HEAVY_ATOM_COUNT>
21

> <PUBCHEM_ATOM_DEF_STEREO_COUNT>
6

> <PUBCHEM_ATOM_UDEF_STEREO_COUNT>
0

> <PUBCHEM_BOND_DEF_STEREO_COUNT>
0

> <PUBCHEM_BOND_UDEF_STEREO_COUNT>
0

> <PUBCHEM_ISOTOPIC_ATOM_COUNT>
0

> <PUBCHEM_COMPONENT_COUNT>
1

> <PUBCHEM_CACTVS_TAUTO_COUNT>
5

> <PUBCHEM_CONFORMER_ID>
0000177D00000001

> <PUBCHEM_MMFF94_ENERGY>
67.5416

> <PUBCHEM_FEATURE_SELFOVERLAP>
35.618

> <PUBCHEM_SHAPE_FINGERPRINT>
10062212 137 18336825385559829163
10759866 29 17897457309511876188
10967382 1 18412548682291571786
11132069 177 18410018732180467827
11370993 70 18410569557056084199
11578080 2 16735503067342509174
12011746 2 18412547592124142406
12236239 1 18040155136873436768
12251169 10 18410008845387181634
12403259 226 18410006624652160988
12403259 415 18408880746209696412
12403260 363 18340481291412090749
12403814 3 17894914044785590877
12507557 5 18408881845467772304
12633257 1 18341888602346167976
12839892 36 18340758291450253690
13140716 1 18339643467883616216
13214271 11 18272369780793716703
13224815 77 18411987974316295335
13675066 3 18187087269080573787
14178342 30 18338527339117458393
14223421 5 18341052895787930134
14341114 176 18411985737129035682
14787075 74 18339640165090922602
14790565 3 18050014594947639924
15163728 17 14691189929019880809
15196674 1 18411420639180230811
15375358 24 18413110541697833299
15536298 74 18272376330249831326
15788980 27 17167859768361771669
16945 1 18267308633664624303
17349148 13 18260547844245275310
17492 89 18410012108956776131
1813 80 17168144512515476742
18186145 218 18411423903503023558
18522853 276 18412546492037592553
19050596 39 18410858775858764633
19784866 9 18412265021155473810
200 152 18202274819337965375
20715895 44 18116989984517715477
21033648 29 18262779827106925672
21267235 1 18410302427354843602
21421861 104 18042966467372004754
21637258 2 15647319828885568714
22182313 1 18189614934485510503
22854114 111 18409735070690792279
22854114 59 18343022189864506130
23402539 116 18272925046486162621
23557571 272 18059303161493107767
23559900 14 18343023255612643838
26918003 58 18409728456589012017
2748010 2 18410304609229794207
2838139 119 14835541671104639250
296302 2 16343984710473737934
335352 9 18411702045432157758
34934 24 18341610383102269379
350125 39 18410857681354741304
351380 180 18413386540454065762
3545911 37 18411703166439727155
42 15 18260548935156425576
5104073 3 18410294747868572393
59755656 215 18339930311854621398
633830 44 17988931080225984300
69090 78 18413386557386229218
7364860 26 18200601276388112774
9709674 26 18341058445033876271

> <PUBCHEM_SHAPE_MULTIPOLES>
420.43
9.43
2.1
1.06
1.16
0.42
0.43
-0.59
-2.56
-0.22
0.02
0.09
-0.22
0.11

> <PUBCHEM_SHAPE_SELFOVERLAP>
902.625

> <PUBCHEM_SHAPE_VOLUME>
230.1

> <PUBCHEM_COORDINATE_TYPE>
2
5
10

> <Energy>
71.9966

> <minimizedAffinity>
-6.82463

> <CNNscore>
0.1694900990

> <CNNaffinity>
6.5293369293

> <CNN_VS>
1.1066579819

> <CNNaffinity_variance>
0.2063573450

$$$$
6013


 22 25  0  0  0  0  0  0  0  0999 V2000
   -6.7811   -6.8545   24.4039 O   0  0  0  0  0  0  0  0  0  0  0  0
    1.6831   -1.4566   20.2731 O   0  0  0  0  0  0  0  0  0  0  0  0
   -4.6579   -5.4344   21.7914 C   0  0  0  0  0  0  0  0  0  0  0  0
   -5.2320   -5.3291   23.2177 C   0  0  0  0  0  0  0  0  0  0  0  0
   -4.0081   -4.1300   21.3204 C   0  0  0  0  0  0  0  0  0  0  0  0
   -2.8409   -3.7702   22.2930 C   0  0  0  0  0  0  0  0  0  0  0  0
   -2.0745   -2.4588   21.8700 C   0  0  0  0  0  0  0  0  0  0  0  0
   -4.0676   -5.0522   24.1774 C   0  0  0  0  0  0  0  0  0  0  0  0
   -3.2988   -3.7795   23.7780 C   0  0  0  0  0  0  0  0  0  0  0  0
   -5.8507   -6.7361   23.3443 C   0  0  0  0  0  0  0  0  0  0  0  0
   -5.8127   -6.0234   20.9852 C   0  0  0  0  0  0  0  0  0  0  0  0
   -3.4801   -4.2540   19.8855 C   0  0  0  0  0  0  0  0  0  0  0  0
   -6.5045   -6.9837   21.9693 C   0  0  0  0  0  0  0  0  0  0  0  0
   -1.7101   -2.5377   20.3808 C   0  0  0  0  0  0  0  0  0  0  0  0
   -2.8062   -2.9652   19.4333 C   0  0  0  0  0  0  0  0  0  0  0  0
   -6.3214   -4.2429   23.3983 C   0  0  0  0  0  0  0  0  0  0  0  0
   -0.7801   -2.3493   22.7290 C   0  0  0  0  0  0  0  0  0  0  0  0
   -2.9293   -1.1906   22.0891 C   0  0  0  0  0  0  0  0  0  0  0  0
    0.2355   -1.3565   22.1830 C   0  0  0  0  0  0  0  0  0  0  0  0
   -0.4969   -2.2301   19.8910 C   0  0  0  0  0  0  0  0  0  0  0  0
    0.5790   -1.6906   20.7555 C   0  0  0  0  0  0  0  0  0  0  0  0
   -6.3321   -6.6922   25.2482 H   0  0  0  0  0  0  0  0  0  0  0  0
  1 10  1  0
  1 22  1  0
  2 21  2  0
  3  4  1  0
  3  5  1  0
  3 11  1  0
  4  8  1  0
  4 10  1  0
  4 16  1  0
  5  6  1  0
  5 12  1  0
  6  7  1  0
  6  9  1  0
  7 14  1  0
  7 17  1  0
  7 18  1  0
  8  9  1  0
 10 13  1  0
 11 13  1  0
 12 15  1  0
 14 15  1  0
 14 20  2  0
 17 19  1  0
 19 21  1  0
 20 21  1  0
M  END
> <PUBCHEM_COMPOUND_CID>
6013

> <PUBCHEM_CONFORMER_RMSD>
0.6

> <PUBCHEM_CONFORMER_DIVERSEORDER>
1

> <PUBCHEM_MMFF94_PARTIAL_CHARGES>
11
1 -0.68
10 0.28
14 -0.28
15 0.14
19 0.06
2 -0.57
20 -0.14
21 0.49
48 0.15
49 0.4
7 0.14

> <PUBCHEM_EFFECTIVE_ROTOR_COUNT>
1.8

> <PUBCHEM_PHARMACOPHORE_FEATURES>
7
1 1 acceptor
1 1 donor
1 2 acceptor
5 3 4 10 11 13 rings
6 3 4 5 6 8 9 rings
6 5 6 7 12 14 15 rings
6 7 14 17 19 20 21 rings

> <PUBCHEM_HEAVY_ATOM_COUNT>
21

> <PUBCHEM_ATOM_DEF_STEREO_COUNT>
6

> <PUBCHEM_ATOM_UDEF_STEREO_COUNT>
0

> <PUBCHEM_BOND_DEF_STEREO_COUNT>
0

> <PUBCHEM_BOND_UDEF_STEREO_COUNT>
0

> <PUBCHEM_ISOTOPIC_ATOM_COUNT>
0

> <PUBCHEM_COMPONENT_COUNT>
1

> <PUBCHEM_CACTVS_TAUTO_COUNT>
5

> <PUBCHEM_CONFORMER_ID>
0000177D00000001

> <PUBCHEM_MMFF94_ENERGY>
67.5416

> <PUBCHEM_FEATURE_SELFOVERLAP>
35.618

> <PUBCHEM_SHAPE_FINGERPRINT>
10062212 137 18336825385559829163
10759866 29 17897457309511876188
10967382 1 18412548682291571786
11132069 177 18410018732180467827
11370993 70 18410569557056084199
11578080 2 16735503067342509174
12011746 2 18412547592124142406
12236239 1 18040155136873436768
12251169 10 18410008845387181634
12403259 226 18410006624652160988
12403259 415 18408880746209696412
12403260 363 18340481291412090749
12403814 3 17894914044785590877
12507557 5 18408881845467772304
12633257 1 18341888602346167976
12839892 36 18340758291450253690
13140716 1 18339643467883616216
13214271 11 18272369780793716703
13224815 77 18411987974316295335
13675066 3 18187087269080573787
14178342 30 18338527339117458393
14223421 5 18341052895787930134
14341114 176 18411985737129035682
14787075 74 18339640165090922602
14790565 3 18050014594947639924
15163728 17 14691189929019880809
15196674 1 18411420639180230811
15375358 24 18413110541697833299
15536298 74 18272376330249831326
15788980 27 17167859768361771669
16945 1 18267308633664624303
17349148 13 18260547844245275310
17492 89 18410012108956776131
1813 80 17168144512515476742
18186145 218 18411423903503023558
18522853 276 18412546492037592553
19050596 39 18410858775858764633
19784866 9 18412265021155473810
200 152 18202274819337965375
20715895 44 18116989984517715477
21033648 29 18262779827106925672
21267235 1 18410302427354843602
21421861 104 18042966467372004754
21637258 2 15647319828885568714
22182313 1 18189614934485510503
22854114 111 18409735070690792279
22854114 59 18343022189864506130
23402539 116 18272925046486162621
23557571 272 18059303161493107767
23559900 14 18343023255612643838
26918003 58 18409728456589012017
2748010 2 18410304609229794207
2838139 119 14835541671104639250
296302 2 16343984710473737934
335352 9 18411702045432157758
34934 24 18341610383102269379
350125 39 18410857681354741304
351380 180 18413386540454065762
3545911 37 18411703166439727155
42 15 18260548935156425576
5104073 3 18410294747868572393
59755656 215 18339930311854621398
633830 44 17988931080225984300
69090 78 18413386557386229218
7364860 26 18200601276388112774
9709674 26 18341058445033876271

> <PUBCHEM_SHAPE_MULTIPOLES>
420.43
9.43
2.1
1.06
1.16
0.42
0.43
-0.59
-2.56
-0.22
0.02
0.09
-0.22
0.11

> <PUBCHEM_SHAPE_SELFOVERLAP>
902.625

> <PUBCHEM_SHAPE_VOLUME>
230.1

> <PUBCHEM_COORDINATE_TYPE>
2
5
10

> <Energy>
71.9966

> <minimizedAffinity>
2.38465

> <CNNscore>
0.1473612189

> <CNNaffinity>
6.1639056206

> <CNN_VS>
0.9083206654

> <CNNaffinity_variance>
0.1191783473

$$$$
