7184


 15 15  0  0  0  0  0  0  0  0999 V2000
    1.4224   -2.3870   21.1579 O   0  0  0  0  0  0  0  0  0  0  0  0
   -2.5562   -3.5023   20.9114 C   0  0  0  0  0  0  0  0  0  0  0  0
   -1.7782   -3.4269   19.7496 C   0  0  0  0  0  0  0  0  0  0  0  0
   -1.9991   -3.1892   22.1545 C   0  0  0  0  0  0  0  0  0  0  0  0
   -0.4355   -3.0535   19.8407 C   0  0  0  0  0  0  0  0  0  0  0  0
   -0.6626   -2.8170   22.2417 C   0  0  0  0  0  0  0  0  0  0  0  0
    0.1144   -2.7522   21.0841 C   0  0  0  0  0  0  0  0  0  0  0  0
    1.9416   -2.3443   20.3790 H   0  0  0  0  0  0  0  0  0  0  0  0
   -4.8938   -3.0808   20.7951 O   0  0  0  0  0  0  0  0  0  0  0  0
   -3.9773   -3.8864   20.8110 C   0  0  0  0  0  0  0  0  0  0  0  0
   -4.0776   -5.2368   20.7163 O   0  0  0  0  0  0  0  0  0  0  0  0
   -4.5975   -5.8854   21.8828 C   0  0  0  0  0  0  0  0  0  0  0  0
   -4.3310   -7.3832   21.7568 C   0  0  0  0  0  0  0  0  0  0  0  0
   -5.5373   -8.2057   22.2027 C   0  0  0  0  0  0  0  0  0  0  0  0
   -6.0385   -7.7655   23.5687 C   0  0  0  0  0  0  0  0  0  0  0  0
 11 12  1  0
 11 10  1  0
  9 10  2  0
  1  7  1  0
  1  8  1  0
 13 14  1  0
 13 12  1  0
 14 15  1  0
  2 10  1  0
  2  3  2  0
  2  4  1  0
  3  5  1  0
  4  6  2  0
  5  7  2  0
  6  7  1  0
M  END
> <PUBCHEM_COMPOUND_CID>
7184

> <PUBCHEM_CONFORMER_RMSD>
0.6

> <PUBCHEM_CONFORMER_DIVERSEORDER>
1
44
15
20
41
3
43
64
40
47
74
50
4
6
22
69
55
77
16
75
28
26
73
53
11
32
49
58
67
63
62
24
65
27
19
38
12
48
76
25
57
10
31
17
42
34
68
51
9
23
8
14
21
33
18
30
5
66
70
2
56
45
39
37
46
35
60
36
52
59
54
29
71
72
61
13
7

> <PUBCHEM_MMFF94_PARTIAL_CHARGES>
16
1 -0.43
10 -0.15
11 -0.15
12 -0.15
13 -0.15
14 0.08
2 -0.57
24 0.15
25 0.15
26 0.15
27 0.15
28 0.45
3 -0.53
6 0.28
8 0.09
9 0.63

> <PUBCHEM_EFFECTIVE_ROTOR_COUNT>
5

> <PUBCHEM_PHARMACOPHORE_FEATURES>
4
1 2 acceptor
1 3 donor
1 7 hydrophobe
6 8 10 11 12 13 14 rings

> <PUBCHEM_HEAVY_ATOM_COUNT>
14

> <PUBCHEM_ATOM_DEF_STEREO_COUNT>
0

> <PUBCHEM_ATOM_UDEF_STEREO_COUNT>
0

> <PUBCHEM_BOND_DEF_STEREO_COUNT>
0

> <PUBCHEM_BOND_UDEF_STEREO_COUNT>
0

> <PUBCHEM_ISOTOPIC_ATOM_COUNT>
0

> <PUBCHEM_COMPONENT_COUNT>
1

> <PUBCHEM_CACTVS_TAUTO_COUNT>
3

> <PUBCHEM_CONFORMER_ID>
00001C1000000001

> <PUBCHEM_MMFF94_ENERGY>
26.8162

> <PUBCHEM_FEATURE_SELFOVERLAP>
20.297

> <PUBCHEM_SHAPE_FINGERPRINT>
100836 57 10159698014692119138
10465860 250 17561082501386551480
10968037 39 18334860532716625766
11046707 91 18409446968869733128
12032990 46 18409167722807014732
12251169 10 18060418027818494140
13167823 11 18408602527187214402
13288520 33 18409730651148371639
13551218 46 18270963440792261598
13690532 89 18409730694483049495
13862211 1 18342737464162399199
14252887 29 17989215824084205230
17804303 29 18273497883401759577
17834072 33 18410577323021717172
1813 80 17968106291699631366
18186145 218 14923950067535008876
200 152 17530965761531918920
20281475 54 18337672035103360796
20767249 213 10735876175026745610
20828058 44 18273214175553485034
21267235 1 18410019844213228018
22485316 2 18408601440280660184
2297311 6 18130235869953600908
23402539 116 17846774109970031213
23463225 33 18411140233692529510
23559900 14 18270389602695558633
351380 180 10665231458300457486
351380 3 18259982652836299658
42 15 18342740719346176002
4214541 1 18340769252190604880
5104073 3 18271533095046590721
559249 180 18335415712557464698
7364860 26 18126566957732624024
83771 10 18407476665592062532

> <PUBCHEM_SHAPE_MULTIPOLES>
270.51
10.85
1.64
0.68
12.98
0.32
0
-5.61
1.62
-0.51
-0.11
-0.08
0
-0.42

> <PUBCHEM_SHAPE_SELFOVERLAP>
550.017

> <PUBCHEM_SHAPE_VOLUME>
158.1

> <PUBCHEM_COORDINATE_TYPE>
2
5
10

> <Energy>
17.0404

> <minimizedAffinity>
-6.77439

> <CNNscore>
0.8880162239

> <CNNaffinity>
5.3748550415

> <CNN_VS>
4.7729582787

> <CNNaffinity_variance>
0.4572384655

$$$$
7184


 15 15  0  0  0  0  0  0  0  0999 V2000
    1.4169   -2.3823   21.1213 O   0  0  0  0  0  0  0  0  0  0  0  0
   -2.5714   -3.4726   20.9226 C   0  0  0  0  0  0  0  0  0  0  0  0
   -2.0053   -3.1138   22.1520 C   0  0  0  0  0  0  0  0  0  0  0  0
   -1.7920   -3.4776   19.7622 C   0  0  0  0  0  0  0  0  0  0  0  0
   -0.6599   -2.7435   22.2110 C   0  0  0  0  0  0  0  0  0  0  0  0
   -0.4530   -3.1094   19.8244 C   0  0  0  0  0  0  0  0  0  0  0  0
    0.1073   -2.7421   21.0489 C   0  0  0  0  0  0  0  0  0  0  0  0
    1.7903   -2.1364   21.9447 H   0  0  0  0  0  0  0  0  0  0  0  0
   -4.9164   -3.0798   20.8789 O   0  0  0  0  0  0  0  0  0  0  0  0
   -3.9901   -3.8740   20.8648 C   0  0  0  0  0  0  0  0  0  0  0  0
   -4.0766   -5.2254   20.7700 O   0  0  0  0  0  0  0  0  0  0  0  0
   -4.3829   -5.8969   21.9975 C   0  0  0  0  0  0  0  0  0  0  0  0
   -4.3248   -7.4017   21.7477 C   0  0  0  0  0  0  0  0  0  0  0  0
   -5.6188   -8.0902   22.1741 C   0  0  0  0  0  0  0  0  0  0  0  0
   -5.9305   -7.8338   23.6397 C   0  0  0  0  0  0  0  0  0  0  0  0
 11 12  1  0
 11 10  1  0
  9 10  2  0
  1  7  1  0
  1  8  1  0
 13 14  1  0
 13 12  1  0
 14 15  1  0
  2 10  1  0
  2  3  2  0
  2  4  1  0
  3  5  1  0
  4  6  2  0
  5  7  2  0
  6  7  1  0
M  END
> <PUBCHEM_COMPOUND_CID>
7184

> <PUBCHEM_CONFORMER_RMSD>
0.6

> <PUBCHEM_CONFORMER_DIVERSEORDER>
1
44
15
20
41
3
43
64
40
47
74
50
4
6
22
69
55
77
16
75
28
26
73
53
11
32
49
58
67
63
62
24
65
27
19
38
12
48
76
25
57
10
31
17
42
34
68
51
9
23
8
14
21
33
18
30
5
66
70
2
56
45
39
37
46
35
60
36
52
59
54
29
71
72
61
13
7

> <PUBCHEM_MMFF94_PARTIAL_CHARGES>
16
1 -0.43
10 -0.15
11 -0.15
12 -0.15
13 -0.15
14 0.08
2 -0.57
24 0.15
25 0.15
26 0.15
27 0.15
28 0.45
3 -0.53
6 0.28
8 0.09
9 0.63

> <PUBCHEM_EFFECTIVE_ROTOR_COUNT>
5

> <PUBCHEM_PHARMACOPHORE_FEATURES>
4
1 2 acceptor
1 3 donor
1 7 hydrophobe
6 8 10 11 12 13 14 rings

> <PUBCHEM_HEAVY_ATOM_COUNT>
14

> <PUBCHEM_ATOM_DEF_STEREO_COUNT>
0

> <PUBCHEM_ATOM_UDEF_STEREO_COUNT>
0

> <PUBCHEM_BOND_DEF_STEREO_COUNT>
0

> <PUBCHEM_BOND_UDEF_STEREO_COUNT>
0

> <PUBCHEM_ISOTOPIC_ATOM_COUNT>
0

> <PUBCHEM_COMPONENT_COUNT>
1

> <PUBCHEM_CACTVS_TAUTO_COUNT>
3

> <PUBCHEM_CONFORMER_ID>
00001C1000000001

> <PUBCHEM_MMFF94_ENERGY>
26.8162

> <PUBCHEM_FEATURE_SELFOVERLAP>
20.297

> <PUBCHEM_SHAPE_FINGERPRINT>
100836 57 10159698014692119138
10465860 250 17561082501386551480
10968037 39 18334860532716625766
11046707 91 18409446968869733128
12032990 46 18409167722807014732
12251169 10 18060418027818494140
13167823 11 18408602527187214402
13288520 33 18409730651148371639
13551218 46 18270963440792261598
13690532 89 18409730694483049495
13862211 1 18342737464162399199
14252887 29 17989215824084205230
17804303 29 18273497883401759577
17834072 33 18410577323021717172
1813 80 17968106291699631366
18186145 218 14923950067535008876
200 152 17530965761531918920
20281475 54 18337672035103360796
20767249 213 10735876175026745610
20828058 44 18273214175553485034
21267235 1 18410019844213228018
22485316 2 18408601440280660184
2297311 6 18130235869953600908
23402539 116 17846774109970031213
23463225 33 18411140233692529510
23559900 14 18270389602695558633
351380 180 10665231458300457486
351380 3 18259982652836299658
42 15 18342740719346176002
4214541 1 18340769252190604880
5104073 3 18271533095046590721
559249 180 18335415712557464698
7364860 26 18126566957732624024
83771 10 18407476665592062532

> <PUBCHEM_SHAPE_MULTIPOLES>
270.51
10.85
1.64
0.68
12.98
0.32
0
-5.61
1.62
-0.51
-0.11
-0.08
0
-0.42

> <PUBCHEM_SHAPE_SELFOVERLAP>
550.017

> <PUBCHEM_SHAPE_VOLUME>
158.1

> <PUBCHEM_COORDINATE_TYPE>
2
5
10

> <Energy>
17.0404

> <minimizedAffinity>
-6.80254

> <CNNscore>
0.8847270012

> <CNNaffinity>
5.4031181335

> <CNN_VS>
4.7802844048

> <CNNaffinity_variance>
0.4276074469

$$$$
7184


 15 15  0  0  0  0  0  0  0  0999 V2000
    0.3558   -2.7086   18.9479 O   0  0  0  0  0  0  0  0  0  0  0  0
   -3.2244   -3.3239   20.9325 C   0  0  0  0  0  0  0  0  0  0  0  0
   -2.1122   -2.8388   21.6313 C   0  0  0  0  0  0  0  0  0  0  0  0
   -3.1280   -3.6149   19.5687 C   0  0  0  0  0  0  0  0  0  0  0  0
   -0.9085   -2.6301   20.9545 C   0  0  0  0  0  0  0  0  0  0  0  0
   -1.9282   -3.4069   18.8981 C   0  0  0  0  0  0  0  0  0  0  0  0
   -0.8234   -2.9136   19.5938 C   0  0  0  0  0  0  0  0  0  0  0  0
    1.0958   -2.3774   19.4176 H   0  0  0  0  0  0  0  0  0  0  0  0
   -5.1180   -2.6699   22.2139 O   0  0  0  0  0  0  0  0  0  0  0  0
   -4.4917   -3.5539   21.6522 C   0  0  0  0  0  0  0  0  0  0  0  0
   -4.8362   -4.8637   21.5589 O   0  0  0  0  0  0  0  0  0  0  0  0
   -6.2455   -5.1185   21.5775 C   0  0  0  0  0  0  0  0  0  0  0  0
   -6.5495   -6.2042   20.5484 C   0  0  0  0  0  0  0  0  0  0  0  0
   -5.3624   -7.1455   20.3606 C   0  0  0  0  0  0  0  0  0  0  0  0
   -5.4773   -8.3727   21.2504 C   0  0  0  0  0  0  0  0  0  0  0  0
 11 12  1  0
 11 10  1  0
  9 10  2  0
  1  7  1  0
  1  8  1  0
 13 14  1  0
 13 12  1  0
 14 15  1  0
  2 10  1  0
  2  3  2  0
  2  4  1  0
  3  5  1  0
  4  6  2  0
  5  7  2  0
  6  7  1  0
M  END
> <PUBCHEM_COMPOUND_CID>
7184

> <PUBCHEM_CONFORMER_RMSD>
0.6

> <PUBCHEM_CONFORMER_DIVERSEORDER>
1
44
15
20
41
3
43
64
40
47
74
50
4
6
22
69
55
77
16
75
28
26
73
53
11
32
49
58
67
63
62
24
65
27
19
38
12
48
76
25
57
10
31
17
42
34
68
51
9
23
8
14
21
33
18
30
5
66
70
2
56
45
39
37
46
35
60
36
52
59
54
29
71
72
61
13
7

> <PUBCHEM_MMFF94_PARTIAL_CHARGES>
16
1 -0.43
10 -0.15
11 -0.15
12 -0.15
13 -0.15
14 0.08
2 -0.57
24 0.15
25 0.15
26 0.15
27 0.15
28 0.45
3 -0.53
6 0.28
8 0.09
9 0.63

> <PUBCHEM_EFFECTIVE_ROTOR_COUNT>
5

> <PUBCHEM_PHARMACOPHORE_FEATURES>
4
1 2 acceptor
1 3 donor
1 7 hydrophobe
6 8 10 11 12 13 14 rings

> <PUBCHEM_HEAVY_ATOM_COUNT>
14

> <PUBCHEM_ATOM_DEF_STEREO_COUNT>
0

> <PUBCHEM_ATOM_UDEF_STEREO_COUNT>
0

> <PUBCHEM_BOND_DEF_STEREO_COUNT>
0

> <PUBCHEM_BOND_UDEF_STEREO_COUNT>
0

> <PUBCHEM_ISOTOPIC_ATOM_COUNT>
0

> <PUBCHEM_COMPONENT_COUNT>
1

> <PUBCHEM_CACTVS_TAUTO_COUNT>
3

> <PUBCHEM_CONFORMER_ID>
00001C1000000001

> <PUBCHEM_MMFF94_ENERGY>
26.8162

> <PUBCHEM_FEATURE_SELFOVERLAP>
20.297

> <PUBCHEM_SHAPE_FINGERPRINT>
100836 57 10159698014692119138
10465860 250 17561082501386551480
10968037 39 18334860532716625766
11046707 91 18409446968869733128
12032990 46 18409167722807014732
12251169 10 18060418027818494140
13167823 11 18408602527187214402
13288520 33 18409730651148371639
13551218 46 18270963440792261598
13690532 89 18409730694483049495
13862211 1 18342737464162399199
14252887 29 17989215824084205230
17804303 29 18273497883401759577
17834072 33 18410577323021717172
1813 80 17968106291699631366
18186145 218 14923950067535008876
200 152 17530965761531918920
20281475 54 18337672035103360796
20767249 213 10735876175026745610
20828058 44 18273214175553485034
21267235 1 18410019844213228018
22485316 2 18408601440280660184
2297311 6 18130235869953600908
23402539 116 17846774109970031213
23463225 33 18411140233692529510
23559900 14 18270389602695558633
351380 180 10665231458300457486
351380 3 18259982652836299658
42 15 18342740719346176002
4214541 1 18340769252190604880
5104073 3 18271533095046590721
559249 180 18335415712557464698
7364860 26 18126566957732624024
83771 10 18407476665592062532

> <PUBCHEM_SHAPE_MULTIPOLES>
270.51
10.85
1.64
0.68
12.98
0.32
0
-5.61
1.62
-0.51
-0.11
-0.08
0
-0.42

> <PUBCHEM_SHAPE_SELFOVERLAP>
550.017

> <PUBCHEM_SHAPE_VOLUME>
158.1

> <PUBCHEM_COORDINATE_TYPE>
2
5
10

> <Energy>
17.0404

> <minimizedAffinity>
-6.09917

> <CNNscore>
0.8659659624

> <CNNaffinity>
5.2828173637

> <CNN_VS>
4.5747399330

> <CNNaffinity_variance>
0.0852981135

$$$$
7184


 15 15  0  0  0  0  0  0  0  0999 V2000
    1.5185   -2.3864   21.0573 O   0  0  0  0  0  0  0  0  0  0  0  0
   -2.5066   -3.3216   21.3000 C   0  0  0  0  0  0  0  0  0  0  0  0
   -1.8562   -3.3486   20.0602 C   0  0  0  0  0  0  0  0  0  0  0  0
   -1.8058   -2.9666   22.4561 C   0  0  0  0  0  0  0  0  0  0  0  0
   -0.4971   -3.0356   19.9864 C   0  0  0  0  0  0  0  0  0  0  0  0
   -0.4533   -2.6547   22.3791 C   0  0  0  0  0  0  0  0  0  0  0  0
    0.1961   -2.6920   21.1442 C   0  0  0  0  0  0  0  0  0  0  0  0
    1.9517   -2.4123   20.2269 H   0  0  0  0  0  0  0  0  0  0  0  0
   -4.7449   -3.3564   20.4974 O   0  0  0  0  0  0  0  0  0  0  0  0
   -3.9450   -3.6420   21.3736 C   0  0  0  0  0  0  0  0  0  0  0  0
   -4.2040   -4.3070   22.5284 O   0  0  0  0  0  0  0  0  0  0  0  0
   -4.9929   -3.5804   23.4778 C   0  0  0  0  0  0  0  0  0  0  0  0
   -5.7379   -4.5865   24.3512 C   0  0  0  0  0  0  0  0  0  0  0  0
   -6.8579   -3.9178   25.1442 C   0  0  0  0  0  0  0  0  0  0  0  0
   -8.2118   -4.1327   24.4871 C   0  0  0  0  0  0  0  0  0  0  0  0
 11 12  1  0
 11 10  1  0
  9 10  2  0
  1  7  1  0
  1  8  1  0
 13 14  1  0
 13 12  1  0
 14 15  1  0
  2 10  1  0
  2  3  2  0
  2  4  1  0
  3  5  1  0
  4  6  2  0
  5  7  2  0
  6  7  1  0
M  END
> <PUBCHEM_COMPOUND_CID>
7184

> <PUBCHEM_CONFORMER_RMSD>
0.6

> <PUBCHEM_CONFORMER_DIVERSEORDER>
1
44
15
20
41
3
43
64
40
47
74
50
4
6
22
69
55
77
16
75
28
26
73
53
11
32
49
58
67
63
62
24
65
27
19
38
12
48
76
25
57
10
31
17
42
34
68
51
9
23
8
14
21
33
18
30
5
66
70
2
56
45
39
37
46
35
60
36
52
59
54
29
71
72
61
13
7

> <PUBCHEM_MMFF94_PARTIAL_CHARGES>
16
1 -0.43
10 -0.15
11 -0.15
12 -0.15
13 -0.15
14 0.08
2 -0.57
24 0.15
25 0.15
26 0.15
27 0.15
28 0.45
3 -0.53
6 0.28
8 0.09
9 0.63

> <PUBCHEM_EFFECTIVE_ROTOR_COUNT>
5

> <PUBCHEM_PHARMACOPHORE_FEATURES>
4
1 2 acceptor
1 3 donor
1 7 hydrophobe
6 8 10 11 12 13 14 rings

> <PUBCHEM_HEAVY_ATOM_COUNT>
14

> <PUBCHEM_ATOM_DEF_STEREO_COUNT>
0

> <PUBCHEM_ATOM_UDEF_STEREO_COUNT>
0

> <PUBCHEM_BOND_DEF_STEREO_COUNT>
0

> <PUBCHEM_BOND_UDEF_STEREO_COUNT>
0

> <PUBCHEM_ISOTOPIC_ATOM_COUNT>
0

> <PUBCHEM_COMPONENT_COUNT>
1

> <PUBCHEM_CACTVS_TAUTO_COUNT>
3

> <PUBCHEM_CONFORMER_ID>
00001C1000000001

> <PUBCHEM_MMFF94_ENERGY>
26.8162

> <PUBCHEM_FEATURE_SELFOVERLAP>
20.297

> <PUBCHEM_SHAPE_FINGERPRINT>
100836 57 10159698014692119138
10465860 250 17561082501386551480
10968037 39 18334860532716625766
11046707 91 18409446968869733128
12032990 46 18409167722807014732
12251169 10 18060418027818494140
13167823 11 18408602527187214402
13288520 33 18409730651148371639
13551218 46 18270963440792261598
13690532 89 18409730694483049495
13862211 1 18342737464162399199
14252887 29 17989215824084205230
17804303 29 18273497883401759577
17834072 33 18410577323021717172
1813 80 17968106291699631366
18186145 218 14923950067535008876
200 152 17530965761531918920
20281475 54 18337672035103360796
20767249 213 10735876175026745610
20828058 44 18273214175553485034
21267235 1 18410019844213228018
22485316 2 18408601440280660184
2297311 6 18130235869953600908
23402539 116 17846774109970031213
23463225 33 18411140233692529510
23559900 14 18270389602695558633
351380 180 10665231458300457486
351380 3 18259982652836299658
42 15 18342740719346176002
4214541 1 18340769252190604880
5104073 3 18271533095046590721
559249 180 18335415712557464698
7364860 26 18126566957732624024
83771 10 18407476665592062532

> <PUBCHEM_SHAPE_MULTIPOLES>
270.51
10.85
1.64
0.68
12.98
0.32
0
-5.61
1.62
-0.51
-0.11
-0.08
0
-0.42

> <PUBCHEM_SHAPE_SELFOVERLAP>
550.017

> <PUBCHEM_SHAPE_VOLUME>
158.1

> <PUBCHEM_COORDINATE_TYPE>
2
5
10

> <Energy>
17.0404

> <minimizedAffinity>
-6.33028

> <CNNscore>
0.8623051047

> <CNNaffinity>
5.6393160820

> <CNN_VS>
4.8628110886

> <CNNaffinity_variance>
0.4142259061

$$$$
7184


 15 15  0  0  0  0  0  0  0  0999 V2000
    1.3591   -2.3540   21.0852 O   0  0  0  0  0  0  0  0  0  0  0  0
   -2.2877   -4.2459   21.5915 C   0  0  0  0  0  0  0  0  0  0  0  0
   -1.8048   -3.3822   22.5822 C   0  0  0  0  0  0  0  0  0  0  0  0
   -1.5371   -4.4836   20.4366 C   0  0  0  0  0  0  0  0  0  0  0  0
   -0.5753   -2.7443   22.4030 C   0  0  0  0  0  0  0  0  0  0  0  0
   -0.3132   -3.8480   20.2616 C   0  0  0  0  0  0  0  0  0  0  0  0
    0.1620   -2.9793   21.2453 C   0  0  0  0  0  0  0  0  0  0  0  0
    1.6756   -1.7715   21.7473 H   0  0  0  0  0  0  0  0  0  0  0  0
   -3.6975   -6.1373   21.8922 O   0  0  0  0  0  0  0  0  0  0  0  0
   -3.5817   -4.9269   21.7883 C   0  0  0  0  0  0  0  0  0  0  0  0
   -4.5750   -4.0043   21.8574 O   0  0  0  0  0  0  0  0  0  0  0  0
   -5.4163   -4.1103   23.0118 C   0  0  0  0  0  0  0  0  0  0  0  0
   -6.7891   -4.6021   22.5604 C   0  0  0  0  0  0  0  0  0  0  0  0
   -7.0492   -4.2671   21.0940 C   0  0  0  0  0  0  0  0  0  0  0  0
   -7.2532   -5.5232   20.2624 C   0  0  0  0  0  0  0  0  0  0  0  0
 11 12  1  0
 11 10  1  0
  9 10  2  0
  1  7  1  0
  1  8  1  0
 13 14  1  0
 13 12  1  0
 14 15  1  0
  2 10  1  0
  2  3  2  0
  2  4  1  0
  3  5  1  0
  4  6  2  0
  5  7  2  0
  6  7  1  0
M  END
> <PUBCHEM_COMPOUND_CID>
7184

> <PUBCHEM_CONFORMER_RMSD>
0.6

> <PUBCHEM_CONFORMER_DIVERSEORDER>
1
44
15
20
41
3
43
64
40
47
74
50
4
6
22
69
55
77
16
75
28
26
73
53
11
32
49
58
67
63
62
24
65
27
19
38
12
48
76
25
57
10
31
17
42
34
68
51
9
23
8
14
21
33
18
30
5
66
70
2
56
45
39
37
46
35
60
36
52
59
54
29
71
72
61
13
7

> <PUBCHEM_MMFF94_PARTIAL_CHARGES>
16
1 -0.43
10 -0.15
11 -0.15
12 -0.15
13 -0.15
14 0.08
2 -0.57
24 0.15
25 0.15
26 0.15
27 0.15
28 0.45
3 -0.53
6 0.28
8 0.09
9 0.63

> <PUBCHEM_EFFECTIVE_ROTOR_COUNT>
5

> <PUBCHEM_PHARMACOPHORE_FEATURES>
4
1 2 acceptor
1 3 donor
1 7 hydrophobe
6 8 10 11 12 13 14 rings

> <PUBCHEM_HEAVY_ATOM_COUNT>
14

> <PUBCHEM_ATOM_DEF_STEREO_COUNT>
0

> <PUBCHEM_ATOM_UDEF_STEREO_COUNT>
0

> <PUBCHEM_BOND_DEF_STEREO_COUNT>
0

> <PUBCHEM_BOND_UDEF_STEREO_COUNT>
0

> <PUBCHEM_ISOTOPIC_ATOM_COUNT>
0

> <PUBCHEM_COMPONENT_COUNT>
1

> <PUBCHEM_CACTVS_TAUTO_COUNT>
3

> <PUBCHEM_CONFORMER_ID>
00001C1000000001

> <PUBCHEM_MMFF94_ENERGY>
26.8162

> <PUBCHEM_FEATURE_SELFOVERLAP>
20.297

> <PUBCHEM_SHAPE_FINGERPRINT>
100836 57 10159698014692119138
10465860 250 17561082501386551480
10968037 39 18334860532716625766
11046707 91 18409446968869733128
12032990 46 18409167722807014732
12251169 10 18060418027818494140
13167823 11 18408602527187214402
13288520 33 18409730651148371639
13551218 46 18270963440792261598
13690532 89 18409730694483049495
13862211 1 18342737464162399199
14252887 29 17989215824084205230
17804303 29 18273497883401759577
17834072 33 18410577323021717172
1813 80 17968106291699631366
18186145 218 14923950067535008876
200 152 17530965761531918920
20281475 54 18337672035103360796
20767249 213 10735876175026745610
20828058 44 18273214175553485034
21267235 1 18410019844213228018
22485316 2 18408601440280660184
2297311 6 18130235869953600908
23402539 116 17846774109970031213
23463225 33 18411140233692529510
23559900 14 18270389602695558633
351380 180 10665231458300457486
351380 3 18259982652836299658
42 15 18342740719346176002
4214541 1 18340769252190604880
5104073 3 18271533095046590721
559249 180 18335415712557464698
7364860 26 18126566957732624024
83771 10 18407476665592062532

> <PUBCHEM_SHAPE_MULTIPOLES>
270.51
10.85
1.64
0.68
12.98
0.32
0
-5.61
1.62
-0.51
-0.11
-0.08
0
-0.42

> <PUBCHEM_SHAPE_SELFOVERLAP>
550.017

> <PUBCHEM_SHAPE_VOLUME>
158.1

> <PUBCHEM_COORDINATE_TYPE>
2
5
10

> <Energy>
17.0404

> <minimizedAffinity>
-6.20697

> <CNNscore>
0.8525022268

> <CNNaffinity>
6.2314448357

> <CNN_VS>
5.3123207092

> <CNNaffinity_variance>
1.2495266199

$$$$
7184


 15 15  0  0  0  0  0  0  0  0999 V2000
    1.3427   -2.5732   21.1754 O   0  0  0  0  0  0  0  0  0  0  0  0
   -2.5257   -4.0460   21.1449 C   0  0  0  0  0  0  0  0  0  0  0  0
   -2.0453   -3.3666   22.2711 C   0  0  0  0  0  0  0  0  0  0  0  0
   -1.7000   -4.2416   20.0342 C   0  0  0  0  0  0  0  0  0  0  0  0
   -0.7403   -2.8691   22.2730 C   0  0  0  0  0  0  0  0  0  0  0  0
   -0.4012   -3.7460   20.0396 C   0  0  0  0  0  0  0  0  0  0  0  0
    0.0730   -3.0602   21.1588 C   0  0  0  0  0  0  0  0  0  0  0  0
    1.6582   -2.1132   21.9283 H   0  0  0  0  0  0  0  0  0  0  0  0
   -4.5670   -4.7368   20.1392 O   0  0  0  0  0  0  0  0  0  0  0  0
   -3.9011   -4.5801   21.1498 C   0  0  0  0  0  0  0  0  0  0  0  0
   -4.2683   -4.8787   22.4221 O   0  0  0  0  0  0  0  0  0  0  0  0
   -5.0997   -6.0377   22.5527 C   0  0  0  0  0  0  0  0  0  0  0  0
   -6.0133   -5.8383   23.7592 C   0  0  0  0  0  0  0  0  0  0  0  0
   -5.6707   -4.5568   24.5148 C   0  0  0  0  0  0  0  0  0  0  0  0
   -6.9222   -3.7836   24.8981 C   0  0  0  0  0  0  0  0  0  0  0  0
 11 12  1  0
 11 10  1  0
  9 10  2  0
  1  7  1  0
  1  8  1  0
 13 14  1  0
 13 12  1  0
 14 15  1  0
  2 10  1  0
  2  3  2  0
  2  4  1  0
  3  5  1  0
  4  6  2  0
  5  7  2  0
  6  7  1  0
M  END
> <PUBCHEM_COMPOUND_CID>
7184

> <PUBCHEM_CONFORMER_RMSD>
0.6

> <PUBCHEM_CONFORMER_DIVERSEORDER>
1
44
15
20
41
3
43
64
40
47
74
50
4
6
22
69
55
77
16
75
28
26
73
53
11
32
49
58
67
63
62
24
65
27
19
38
12
48
76
25
57
10
31
17
42
34
68
51
9
23
8
14
21
33
18
30
5
66
70
2
56
45
39
37
46
35
60
36
52
59
54
29
71
72
61
13
7

> <PUBCHEM_MMFF94_PARTIAL_CHARGES>
16
1 -0.43
10 -0.15
11 -0.15
12 -0.15
13 -0.15
14 0.08
2 -0.57
24 0.15
25 0.15
26 0.15
27 0.15
28 0.45
3 -0.53
6 0.28
8 0.09
9 0.63

> <PUBCHEM_EFFECTIVE_ROTOR_COUNT>
5

> <PUBCHEM_PHARMACOPHORE_FEATURES>
4
1 2 acceptor
1 3 donor
1 7 hydrophobe
6 8 10 11 12 13 14 rings

> <PUBCHEM_HEAVY_ATOM_COUNT>
14

> <PUBCHEM_ATOM_DEF_STEREO_COUNT>
0

> <PUBCHEM_ATOM_UDEF_STEREO_COUNT>
0

> <PUBCHEM_BOND_DEF_STEREO_COUNT>
0

> <PUBCHEM_BOND_UDEF_STEREO_COUNT>
0

> <PUBCHEM_ISOTOPIC_ATOM_COUNT>
0

> <PUBCHEM_COMPONENT_COUNT>
1

> <PUBCHEM_CACTVS_TAUTO_COUNT>
3

> <PUBCHEM_CONFORMER_ID>
00001C1000000001

> <PUBCHEM_MMFF94_ENERGY>
26.8162

> <PUBCHEM_FEATURE_SELFOVERLAP>
20.297

> <PUBCHEM_SHAPE_FINGERPRINT>
100836 57 10159698014692119138
10465860 250 17561082501386551480
10968037 39 18334860532716625766
11046707 91 18409446968869733128
12032990 46 18409167722807014732
12251169 10 18060418027818494140
13167823 11 18408602527187214402
13288520 33 18409730651148371639
13551218 46 18270963440792261598
13690532 89 18409730694483049495
13862211 1 18342737464162399199
14252887 29 17989215824084205230
17804303 29 18273497883401759577
17834072 33 18410577323021717172
1813 80 17968106291699631366
18186145 218 14923950067535008876
200 152 17530965761531918920
20281475 54 18337672035103360796
20767249 213 10735876175026745610
20828058 44 18273214175553485034
21267235 1 18410019844213228018
22485316 2 18408601440280660184
2297311 6 18130235869953600908
23402539 116 17846774109970031213
23463225 33 18411140233692529510
23559900 14 18270389602695558633
351380 180 10665231458300457486
351380 3 18259982652836299658
42 15 18342740719346176002
4214541 1 18340769252190604880
5104073 3 18271533095046590721
559249 180 18335415712557464698
7364860 26 18126566957732624024
83771 10 18407476665592062532

> <PUBCHEM_SHAPE_MULTIPOLES>
270.51
10.85
1.64
0.68
12.98
0.32
0
-5.61
1.62
-0.51
-0.11
-0.08
0
-0.42

> <PUBCHEM_SHAPE_SELFOVERLAP>
550.017

> <PUBCHEM_SHAPE_VOLUME>
158.1

> <PUBCHEM_COORDINATE_TYPE>
2
5
10

> <Energy>
17.0404

> <minimizedAffinity>
-6.32924

> <CNNscore>
0.8497825265

> <CNNaffinity>
5.9373936653

> <CNN_VS>
5.0454936028

> <CNNaffinity_variance>
0.7643794417

$$$$
7184


 15 15  0  0  0  0  0  0  0  0999 V2000
    1.3348   -2.4909   21.0787 O   0  0  0  0  0  0  0  0  0  0  0  0
   -2.3937   -4.1614   21.7440 C   0  0  0  0  0  0  0  0  0  0  0  0
   -1.8501   -3.2708   22.6778 C   0  0  0  0  0  0  0  0  0  0  0  0
   -1.6768   -4.5004   20.5929 C   0  0  0  0  0  0  0  0  0  0  0  0
   -0.5932   -2.7081   22.4450 C   0  0  0  0  0  0  0  0  0  0  0  0
   -0.4256   -3.9393   20.3645 C   0  0  0  0  0  0  0  0  0  0  0  0
    0.1105   -3.0439   21.2912 C   0  0  0  0  0  0  0  0  0  0  0  0
    1.6922   -1.8902   21.7026 H   0  0  0  0  0  0  0  0  0  0  0  0
   -4.5049   -4.3341   22.8250 O   0  0  0  0  0  0  0  0  0  0  0  0
   -3.7169   -4.7629   21.9976 C   0  0  0  0  0  0  0  0  0  0  0  0
   -3.9046   -5.8170   21.1631 O   0  0  0  0  0  0  0  0  0  0  0  0
   -5.2284   -5.9337   20.6286 C   0  0  0  0  0  0  0  0  0  0  0  0
   -5.5469   -7.4168   20.4580 C   0  0  0  0  0  0  0  0  0  0  0  0
   -5.0790   -8.2317   21.6612 C   0  0  0  0  0  0  0  0  0  0  0  0
   -5.8908   -7.9070   22.9047 C   0  0  0  0  0  0  0  0  0  0  0  0
 11 12  1  0
 11 10  1  0
  9 10  2  0
  1  7  1  0
  1  8  1  0
 13 14  1  0
 13 12  1  0
 14 15  1  0
  2 10  1  0
  2  3  2  0
  2  4  1  0
  3  5  1  0
  4  6  2  0
  5  7  2  0
  6  7  1  0
M  END
> <PUBCHEM_COMPOUND_CID>
7184

> <PUBCHEM_CONFORMER_RMSD>
0.6

> <PUBCHEM_CONFORMER_DIVERSEORDER>
1
44
15
20
41
3
43
64
40
47
74
50
4
6
22
69
55
77
16
75
28
26
73
53
11
32
49
58
67
63
62
24
65
27
19
38
12
48
76
25
57
10
31
17
42
34
68
51
9
23
8
14
21
33
18
30
5
66
70
2
56
45
39
37
46
35
60
36
52
59
54
29
71
72
61
13
7

> <PUBCHEM_MMFF94_PARTIAL_CHARGES>
16
1 -0.43
10 -0.15
11 -0.15
12 -0.15
13 -0.15
14 0.08
2 -0.57
24 0.15
25 0.15
26 0.15
27 0.15
28 0.45
3 -0.53
6 0.28
8 0.09
9 0.63

> <PUBCHEM_EFFECTIVE_ROTOR_COUNT>
5

> <PUBCHEM_PHARMACOPHORE_FEATURES>
4
1 2 acceptor
1 3 donor
1 7 hydrophobe
6 8 10 11 12 13 14 rings

> <PUBCHEM_HEAVY_ATOM_COUNT>
14

> <PUBCHEM_ATOM_DEF_STEREO_COUNT>
0

> <PUBCHEM_ATOM_UDEF_STEREO_COUNT>
0

> <PUBCHEM_BOND_DEF_STEREO_COUNT>
0

> <PUBCHEM_BOND_UDEF_STEREO_COUNT>
0

> <PUBCHEM_ISOTOPIC_ATOM_COUNT>
0

> <PUBCHEM_COMPONENT_COUNT>
1

> <PUBCHEM_CACTVS_TAUTO_COUNT>
3

> <PUBCHEM_CONFORMER_ID>
00001C1000000001

> <PUBCHEM_MMFF94_ENERGY>
26.8162

> <PUBCHEM_FEATURE_SELFOVERLAP>
20.297

> <PUBCHEM_SHAPE_FINGERPRINT>
100836 57 10159698014692119138
10465860 250 17561082501386551480
10968037 39 18334860532716625766
11046707 91 18409446968869733128
12032990 46 18409167722807014732
12251169 10 18060418027818494140
13167823 11 18408602527187214402
13288520 33 18409730651148371639
13551218 46 18270963440792261598
13690532 89 18409730694483049495
13862211 1 18342737464162399199
14252887 29 17989215824084205230
17804303 29 18273497883401759577
17834072 33 18410577323021717172
1813 80 17968106291699631366
18186145 218 14923950067535008876
200 152 17530965761531918920
20281475 54 18337672035103360796
20767249 213 10735876175026745610
20828058 44 18273214175553485034
21267235 1 18410019844213228018
22485316 2 18408601440280660184
2297311 6 18130235869953600908
23402539 116 17846774109970031213
23463225 33 18411140233692529510
23559900 14 18270389602695558633
351380 180 10665231458300457486
351380 3 18259982652836299658
42 15 18342740719346176002
4214541 1 18340769252190604880
5104073 3 18271533095046590721
559249 180 18335415712557464698
7364860 26 18126566957732624024
83771 10 18407476665592062532

> <PUBCHEM_SHAPE_MULTIPOLES>
270.51
10.85
1.64
0.68
12.98
0.32
0
-5.61
1.62
-0.51
-0.11
-0.08
0
-0.42

> <PUBCHEM_SHAPE_SELFOVERLAP>
550.017

> <PUBCHEM_SHAPE_VOLUME>
158.1

> <PUBCHEM_COORDINATE_TYPE>
2
5
10

> <Energy>
17.0404

> <minimizedAffinity>
-6.86974

> <CNNscore>
0.8365846276

> <CNNaffinity>
5.4993233681

> <CNN_VS>
4.6006493568

> <CNNaffinity_variance>
0.2678815722

$$$$
7184


 15 15  0  0  0  0  0  0  0  0999 V2000
    0.4218   -2.3910   19.1136 O   0  0  0  0  0  0  0  0  0  0  0  0
   -2.7160   -4.3031   21.0196 C   0  0  0  0  0  0  0  0  0  0  0  0
   -1.5611   -3.9694   21.7376 C   0  0  0  0  0  0  0  0  0  0  0  0
   -2.8095   -4.0056   19.6571 C   0  0  0  0  0  0  0  0  0  0  0  0
   -0.5078   -3.3210   21.0889 C   0  0  0  0  0  0  0  0  0  0  0  0
   -1.7590   -3.3610   19.0141 C   0  0  0  0  0  0  0  0  0  0  0  0
   -0.6126   -3.0198   19.7334 C   0  0  0  0  0  0  0  0  0  0  0  0
    1.1902   -2.1633   19.5991 H   0  0  0  0  0  0  0  0  0  0  0  0
   -3.8089   -6.1886   21.9713 O   0  0  0  0  0  0  0  0  0  0  0  0
   -3.8227   -4.9979   21.7047 C   0  0  0  0  0  0  0  0  0  0  0  0
   -4.8058   -4.1086   21.9974 O   0  0  0  0  0  0  0  0  0  0  0  0
   -5.0887   -3.9616   23.3939 C   0  0  0  0  0  0  0  0  0  0  0  0
   -4.3667   -2.7155   23.9002 C   0  0  0  0  0  0  0  0  0  0  0  0
   -4.4798   -1.5612   22.9077 C   0  0  0  0  0  0  0  0  0  0  0  0
   -5.8120   -0.8409   23.0392 C   0  0  0  0  0  0  0  0  0  0  0  0
 11 12  1  0
 11 10  1  0
  9 10  2  0
  1  7  1  0
  1  8  1  0
 13 14  1  0
 13 12  1  0
 14 15  1  0
  2 10  1  0
  2  3  2  0
  2  4  1  0
  3  5  1  0
  4  6  2  0
  5  7  2  0
  6  7  1  0
M  END
> <PUBCHEM_COMPOUND_CID>
7184

> <PUBCHEM_CONFORMER_RMSD>
0.6

> <PUBCHEM_CONFORMER_DIVERSEORDER>
1
44
15
20
41
3
43
64
40
47
74
50
4
6
22
69
55
77
16
75
28
26
73
53
11
32
49
58
67
63
62
24
65
27
19
38
12
48
76
25
57
10
31
17
42
34
68
51
9
23
8
14
21
33
18
30
5
66
70
2
56
45
39
37
46
35
60
36
52
59
54
29
71
72
61
13
7

> <PUBCHEM_MMFF94_PARTIAL_CHARGES>
16
1 -0.43
10 -0.15
11 -0.15
12 -0.15
13 -0.15
14 0.08
2 -0.57
24 0.15
25 0.15
26 0.15
27 0.15
28 0.45
3 -0.53
6 0.28
8 0.09
9 0.63

> <PUBCHEM_EFFECTIVE_ROTOR_COUNT>
5

> <PUBCHEM_PHARMACOPHORE_FEATURES>
4
1 2 acceptor
1 3 donor
1 7 hydrophobe
6 8 10 11 12 13 14 rings

> <PUBCHEM_HEAVY_ATOM_COUNT>
14

> <PUBCHEM_ATOM_DEF_STEREO_COUNT>
0

> <PUBCHEM_ATOM_UDEF_STEREO_COUNT>
0

> <PUBCHEM_BOND_DEF_STEREO_COUNT>
0

> <PUBCHEM_BOND_UDEF_STEREO_COUNT>
0

> <PUBCHEM_ISOTOPIC_ATOM_COUNT>
0

> <PUBCHEM_COMPONENT_COUNT>
1

> <PUBCHEM_CACTVS_TAUTO_COUNT>
3

> <PUBCHEM_CONFORMER_ID>
00001C1000000001

> <PUBCHEM_MMFF94_ENERGY>
26.8162

> <PUBCHEM_FEATURE_SELFOVERLAP>
20.297

> <PUBCHEM_SHAPE_FINGERPRINT>
100836 57 10159698014692119138
10465860 250 17561082501386551480
10968037 39 18334860532716625766
11046707 91 18409446968869733128
12032990 46 18409167722807014732
12251169 10 18060418027818494140
13167823 11 18408602527187214402
13288520 33 18409730651148371639
13551218 46 18270963440792261598
13690532 89 18409730694483049495
13862211 1 18342737464162399199
14252887 29 17989215824084205230
17804303 29 18273497883401759577
17834072 33 18410577323021717172
1813 80 17968106291699631366
18186145 218 14923950067535008876
200 152 17530965761531918920
20281475 54 18337672035103360796
20767249 213 10735876175026745610
20828058 44 18273214175553485034
21267235 1 18410019844213228018
22485316 2 18408601440280660184
2297311 6 18130235869953600908
23402539 116 17846774109970031213
23463225 33 18411140233692529510
23559900 14 18270389602695558633
351380 180 10665231458300457486
351380 3 18259982652836299658
42 15 18342740719346176002
4214541 1 18340769252190604880
5104073 3 18271533095046590721
559249 180 18335415712557464698
7364860 26 18126566957732624024
83771 10 18407476665592062532

> <PUBCHEM_SHAPE_MULTIPOLES>
270.51
10.85
1.64
0.68
12.98
0.32
0
-5.61
1.62
-0.51
-0.11
-0.08
0
-0.42

> <PUBCHEM_SHAPE_SELFOVERLAP>
550.017

> <PUBCHEM_SHAPE_VOLUME>
158.1

> <PUBCHEM_COORDINATE_TYPE>
2
5
10

> <Energy>
17.0404

> <minimizedAffinity>
-6.06131

> <CNNscore>
0.8348294497

> <CNNaffinity>
5.7149977684

> <CNN_VS>
4.7710485458

> <CNNaffinity_variance>
0.2059390694

$$$$
7184


 15 15  0  0  0  0  0  0  0  0999 V2000
    1.2201   -2.4721   21.1653 O   0  0  0  0  0  0  0  0  0  0  0  0
   -2.5237   -4.2340   21.0461 C   0  0  0  0  0  0  0  0  0  0  0  0
   -2.0674   -3.6415   22.2300 C   0  0  0  0  0  0  0  0  0  0  0  0
   -1.7147   -4.2456   19.9063 C   0  0  0  0  0  0  0  0  0  0  0  0
   -0.8047   -3.0455   22.2619 C   0  0  0  0  0  0  0  0  0  0  0  0
   -0.4580   -3.6524   19.9416 C   0  0  0  0  0  0  0  0  0  0  0  0
   -0.0086   -3.0532   21.1193 C   0  0  0  0  0  0  0  0  0  0  0  0
    1.5191   -2.0706   21.9574 H   0  0  0  0  0  0  0  0  0  0  0  0
   -4.4971   -5.0453   19.9959 O   0  0  0  0  0  0  0  0  0  0  0  0
   -3.8536   -4.8724   21.0183 C   0  0  0  0  0  0  0  0  0  0  0  0
   -4.2069   -5.2420   22.2758 O   0  0  0  0  0  0  0  0  0  0  0  0
   -5.5936   -5.5589   22.4432 C   0  0  0  0  0  0  0  0  0  0  0  0
   -5.7416   -6.4118   23.7006 C   0  0  0  0  0  0  0  0  0  0  0  0
   -5.9118   -7.8895   23.3577 C   0  0  0  0  0  0  0  0  0  0  0  0
   -5.7511   -8.1384   21.8666 C   0  0  0  0  0  0  0  0  0  0  0  0
 11 12  1  0
 11 10  1  0
  9 10  2  0
  1  7  1  0
  1  8  1  0
 13 14  1  0
 13 12  1  0
 14 15  1  0
  2 10  1  0
  2  3  2  0
  2  4  1  0
  3  5  1  0
  4  6  2  0
  5  7  2  0
  6  7  1  0
M  END
> <PUBCHEM_COMPOUND_CID>
7184

> <PUBCHEM_CONFORMER_RMSD>
0.6

> <PUBCHEM_CONFORMER_DIVERSEORDER>
1
44
15
20
41
3
43
64
40
47
74
50
4
6
22
69
55
77
16
75
28
26
73
53
11
32
49
58
67
63
62
24
65
27
19
38
12
48
76
25
57
10
31
17
42
34
68
51
9
23
8
14
21
33
18
30
5
66
70
2
56
45
39
37
46
35
60
36
52
59
54
29
71
72
61
13
7

> <PUBCHEM_MMFF94_PARTIAL_CHARGES>
16
1 -0.43
10 -0.15
11 -0.15
12 -0.15
13 -0.15
14 0.08
2 -0.57
24 0.15
25 0.15
26 0.15
27 0.15
28 0.45
3 -0.53
6 0.28
8 0.09
9 0.63

> <PUBCHEM_EFFECTIVE_ROTOR_COUNT>
5

> <PUBCHEM_PHARMACOPHORE_FEATURES>
4
1 2 acceptor
1 3 donor
1 7 hydrophobe
6 8 10 11 12 13 14 rings

> <PUBCHEM_HEAVY_ATOM_COUNT>
14

> <PUBCHEM_ATOM_DEF_STEREO_COUNT>
0

> <PUBCHEM_ATOM_UDEF_STEREO_COUNT>
0

> <PUBCHEM_BOND_DEF_STEREO_COUNT>
0

> <PUBCHEM_BOND_UDEF_STEREO_COUNT>
0

> <PUBCHEM_ISOTOPIC_ATOM_COUNT>
0

> <PUBCHEM_COMPONENT_COUNT>
1

> <PUBCHEM_CACTVS_TAUTO_COUNT>
3

> <PUBCHEM_CONFORMER_ID>
00001C1000000001

> <PUBCHEM_MMFF94_ENERGY>
26.8162

> <PUBCHEM_FEATURE_SELFOVERLAP>
20.297

> <PUBCHEM_SHAPE_FINGERPRINT>
100836 57 10159698014692119138
10465860 250 17561082501386551480
10968037 39 18334860532716625766
11046707 91 18409446968869733128
12032990 46 18409167722807014732
12251169 10 18060418027818494140
13167823 11 18408602527187214402
13288520 33 18409730651148371639
13551218 46 18270963440792261598
13690532 89 18409730694483049495
13862211 1 18342737464162399199
14252887 29 17989215824084205230
17804303 29 18273497883401759577
17834072 33 18410577323021717172
1813 80 17968106291699631366
18186145 218 14923950067535008876
200 152 17530965761531918920
20281475 54 18337672035103360796
20767249 213 10735876175026745610
20828058 44 18273214175553485034
21267235 1 18410019844213228018
22485316 2 18408601440280660184
2297311 6 18130235869953600908
23402539 116 17846774109970031213
23463225 33 18411140233692529510
23559900 14 18270389602695558633
351380 180 10665231458300457486
351380 3 18259982652836299658
42 15 18342740719346176002
4214541 1 18340769252190604880
5104073 3 18271533095046590721
559249 180 18335415712557464698
7364860 26 18126566957732624024
83771 10 18407476665592062532

> <PUBCHEM_SHAPE_MULTIPOLES>
270.51
10.85
1.64
0.68
12.98
0.32
0
-5.61
1.62
-0.51
-0.11
-0.08
0
-0.42

> <PUBCHEM_SHAPE_SELFOVERLAP>
550.017

> <PUBCHEM_SHAPE_VOLUME>
158.1

> <PUBCHEM_COORDINATE_TYPE>
2
5
10

> <Energy>
17.0404

> <minimizedAffinity>
-6.56547

> <CNNscore>
0.8231075406

> <CNNaffinity>
5.3930702209

> <CNN_VS>
4.4390769005

> <CNNaffinity_variance>
0.6792106628

$$$$
