5284645


 26 27  0  0  0  0  0  0  0  0999 V2000
  -10.5600   -5.7858   22.0677 O   0  0  0  0  0  0  0  0  0  0  0  0
   -4.9795   -3.5540   21.9500 O   0  0  0  0  0  0  0  0  0  0  0  0
   -3.9036   -5.1947   23.1571 O   0  0  0  0  0  0  0  0  0  0  0  0
   -1.3857   -4.8381   21.8762 O   0  0  0  0  0  0  0  0  0  0  0  0
   -1.5840   -5.9690   17.3092 O   0  0  0  0  0  0  0  0  0  0  0  0
   -8.7092   -5.3008   23.5267 C   0  0  0  0  0  0  0  0  0  0  0  0
   -9.1404   -5.6270   22.0865 C   0  0  0  0  0  0  0  0  0  0  0  0
   -7.2580   -4.8302   23.6562 C   0  0  0  0  0  0  0  0  0  0  0  0
   -8.4970   -6.9149   21.5498 C   0  0  0  0  0  0  0  0  0  0  0  0
   -7.0560   -3.3925   23.1664 C   0  0  0  0  0  0  0  0  0  0  0  0
   -8.7603   -7.1574   20.0560 C   0  0  0  0  0  0  0  0  0  0  0  0
   -5.5781   -2.9890   23.1352 C   0  0  0  0  0  0  0  0  0  0  0  0
   -8.0664   -6.1648   19.1156 C   0  0  0  0  0  0  0  0  0  0  0  0
   -5.4313   -1.4754   23.0102 C   0  0  0  0  0  0  0  0  0  0  0  0
   -6.5654   -6.2196   19.2047 C   0  0  0  0  0  0  0  0  0  0  0  0
   -3.5814   -4.9950   20.8156 C   0  0  0  0  0  0  0  0  0  0  0  0
   -4.3343   -5.2532   19.6527 C   0  0  0  0  0  0  0  0  0  0  0  0
   -4.2061   -4.6458   22.1084 C   0  0  0  0  0  0  0  0  0  0  0  0
   -5.8037   -5.1880   19.6029 C   0  0  0  0  0  0  0  0  0  0  0  0
   -2.1806   -5.0875   20.7842 C   0  0  0  0  0  0  0  0  0  0  0  0
   -3.6468   -5.5735   18.4655 C   0  0  0  0  0  0  0  0  0  0  0  0
   -2.2563   -5.6562   18.4530 C   0  0  0  0  0  0  0  0  0  0  0  0
   -1.5175   -5.4191   19.6061 C   0  0  0  0  0  0  0  0  0  0  0  0
  -10.9801   -4.9791   22.4044 H   0  0  0  0  0  0  0  0  0  0  0  0
   -1.7756   -4.6100   22.6971 H   0  0  0  0  0  0  0  0  0  0  0  0
   -2.0575   -6.1335   16.5176 H   0  0  0  0  0  0  0  0  0  0  0  0
  1  7  1  0
  1 24  1  0
  2 12  1  0
  2 18  1  0
  3 18  2  0
  4 20  1  0
  4 25  1  0
  5 22  1  0
  5 26  1  0
  6  7  1  0
  6  8  1  0
  7  9  1  0
  8 10  1  0
  9 11  1  0
 10 12  1  0
 11 13  1  0
 12 14  1  0
 13 15  1  0
 15 19  2  0
 16 17  2  0
 16 18  1  0
 16 20  1  0
 17 19  1  0
 17 21  1  0
 20 23  2  0
 21 22  2  0
 22 23  1  0
M  END
> <PUBCHEM_COMPOUND_CID>
5284645

> <PUBCHEM_CONFORMER_RMSD>
0.6

> <PUBCHEM_CONFORMER_DIVERSEORDER>
1

> <PUBCHEM_MMFF94_PARTIAL_CHARGES>
24
1 -0.68
12 0.28
13 0.14
15 -0.29
16 0.09
17 0.03
18 0.63
19 -0.18
2 -0.43
20 0.08
21 -0.15
22 0.08
23 -0.15
3 -0.57
4 -0.53
41 0.4
42 0.15
43 0.15
44 0.15
45 0.15
46 0.45
47 0.45
5 -0.53
7 0.28

> <PUBCHEM_EFFECTIVE_ROTOR_COUNT>
1.8

> <PUBCHEM_PHARMACOPHORE_FEATURES>
6
1 1 acceptor
1 1 donor
1 3 acceptor
1 4 donor
1 5 donor
6 16 17 20 21 22 23 rings

> <PUBCHEM_HEAVY_ATOM_COUNT>
23

> <PUBCHEM_ATOM_DEF_STEREO_COUNT>
2

> <PUBCHEM_ATOM_UDEF_STEREO_COUNT>
0

> <PUBCHEM_BOND_DEF_STEREO_COUNT>
1

> <PUBCHEM_BOND_UDEF_STEREO_COUNT>
0

> <PUBCHEM_ISOTOPIC_ATOM_COUNT>
0

> <PUBCHEM_COMPONENT_COUNT>
1

> <PUBCHEM_CACTVS_TAUTO_COUNT>
12

> <PUBCHEM_CONFORMER_ID>
0050A32500000001

> <PUBCHEM_MMFF94_ENERGY>
56.9454

> <PUBCHEM_FEATURE_SELFOVERLAP>
30.446

> <PUBCHEM_SHAPE_FINGERPRINT>
1100329 8 17836085568009856625
11112241 14 16986289841619931392
11578080 2 16734366241365874279
12166972 35 17967822613537111974
12403259 226 18337670931286267939
12506688 2 18412827975731104564
12596599 1 17914633677902020662
12788726 201 17627507133988941776
13140716 1 18267582403486064363
13402501 40 18336828697047978282
13533116 47 18056766653224983451
14251757 17 18262232209996353437
14787075 74 18336834185758012246
14790565 3 17545883724776523813
14866123 147 17767415573386001256
14931854 50 18336551491284682350
15196674 1 18334859415888043750
15322687 12 17104511174142344237
19591789 44 18337109089556020683
19930381 70 18413393137471364090
20028762 73 17044582808783771111
20691752 17 17022900138402631537
20715895 44 17609482839964013085
20832881 197 18343306989256920753
20905425 154 18409167675446349782
22182313 1 18041826412212926463
23227448 37 18189331260828617463
23352939 185 18342462530415398027
23557571 272 17910374109985112994
23559900 14 18335978778501818797
238 59 18196346307921625956
2748010 2 18117544331403189953
3323516 105 18411138077713944259
350125 39 18336268960321048513
3524813 1 18334011700965522918
3680242 22 18116995477305685354
463206 1 18269557311053435927
5265222 85 17471861776259798556
57527585 103 17390829632986241626
59755656 215 18188762977069237031
6443956 14 18340493347406701473
81228 2 17476913559209296171

> <PUBCHEM_SHAPE_MULTIPOLES>
443.98
8.21
4.09
1.18
1.54
0.84
-0.09
-3.84
1.51
-1.8
-1.33
-0.11
0.8
1.1

> <PUBCHEM_SHAPE_SELFOVERLAP>
916.908

> <PUBCHEM_SHAPE_VOLUME>
252.3

> <PUBCHEM_COORDINATE_TYPE>
2
5
10

> <Energy>
40.5071

> <minimizedAffinity>
-11.44866

> <CNNscore>
0.8349290490

> <CNNaffinity>
7.0633683205

> <CNN_VS>
5.8974113464

> <CNNaffinity_variance>
0.2315513939

$$$$
5284645


 26 27  0  0  0  0  0  0  0  0999 V2000
   -9.0253   -4.0850   24.1962 O   0  0  0  0  0  0  0  0  0  0  0  0
   -5.4483   -6.9104   20.2771 O   0  0  0  0  0  0  0  0  0  0  0  0
   -5.6568   -5.4730   18.4891 O   0  0  0  0  0  0  0  0  0  0  0  0
   -3.0784   -6.0302   17.4174 O   0  0  0  0  0  0  0  0  0  0  0  0
    0.3514   -4.6170   20.3182 O   0  0  0  0  0  0  0  0  0  0  0  0
   -8.9897   -4.8573   21.9177 C   0  0  0  0  0  0  0  0  0  0  0  0
   -8.1428   -4.4009   23.1181 C   0  0  0  0  0  0  0  0  0  0  0  0
   -8.1805   -5.4925   20.7838 C   0  0  0  0  0  0  0  0  0  0  0  0
   -7.2878   -3.1628   22.8071 C   0  0  0  0  0  0  0  0  0  0  0  0
   -7.7098   -6.9123   21.1158 C   0  0  0  0  0  0  0  0  0  0  0  0
   -6.2950   -2.8050   23.9234 C   0  0  0  0  0  0  0  0  0  0  0  0
   -6.7578   -7.4745   20.0550 C   0  0  0  0  0  0  0  0  0  0  0  0
   -5.1531   -3.8111   24.1094 C   0  0  0  0  0  0  0  0  0  0  0  0
   -6.6058   -8.9851   20.2079 C   0  0  0  0  0  0  0  0  0  0  0  0
   -4.2679   -3.9283   22.8984 C   0  0  0  0  0  0  0  0  0  0  0  0
   -3.6489   -5.5688   19.7481 C   0  0  0  0  0  0  0  0  0  0  0  0
   -3.2220   -5.1606   21.0276 C   0  0  0  0  0  0  0  0  0  0  0  0
   -5.0526   -5.9223   19.4512 C   0  0  0  0  0  0  0  0  0  0  0  0
   -4.1178   -5.0596   22.1909 C   0  0  0  0  0  0  0  0  0  0  0  0
   -2.7332   -5.6304   18.6852 C   0  0  0  0  0  0  0  0  0  0  0  0
   -1.8608   -4.8490   21.2131 C   0  0  0  0  0  0  0  0  0  0  0  0
   -0.9665   -4.9203   20.1475 C   0  0  0  0  0  0  0  0  0  0  0  0
   -1.3941   -5.3053   18.8823 C   0  0  0  0  0  0  0  0  0  0  0  0
   -9.5721   -4.8587   24.4038 H   0  0  0  0  0  0  0  0  0  0  0  0
   -3.9656   -6.2617   17.2244 H   0  0  0  0  0  0  0  0  0  0  0  0
    0.6664   -4.3546   21.1607 H   0  0  0  0  0  0  0  0  0  0  0  0
  1  7  1  0
  1 24  1  0
  2 12  1  0
  2 18  1  0
  3 18  2  0
  4 20  1  0
  4 25  1  0
  5 22  1  0
  5 26  1  0
  6  7  1  0
  6  8  1  0
  7  9  1  0
  8 10  1  0
  9 11  1  0
 10 12  1  0
 11 13  1  0
 12 14  1  0
 13 15  1  0
 15 19  2  0
 16 17  2  0
 16 18  1  0
 16 20  1  0
 17 19  1  0
 17 21  1  0
 20 23  2  0
 21 22  2  0
 22 23  1  0
M  END
> <PUBCHEM_COMPOUND_CID>
5284645

> <PUBCHEM_CONFORMER_RMSD>
0.6

> <PUBCHEM_CONFORMER_DIVERSEORDER>
1

> <PUBCHEM_MMFF94_PARTIAL_CHARGES>
24
1 -0.68
12 0.28
13 0.14
15 -0.29
16 0.09
17 0.03
18 0.63
19 -0.18
2 -0.43
20 0.08
21 -0.15
22 0.08
23 -0.15
3 -0.57
4 -0.53
41 0.4
42 0.15
43 0.15
44 0.15
45 0.15
46 0.45
47 0.45
5 -0.53
7 0.28

> <PUBCHEM_EFFECTIVE_ROTOR_COUNT>
1.8

> <PUBCHEM_PHARMACOPHORE_FEATURES>
6
1 1 acceptor
1 1 donor
1 3 acceptor
1 4 donor
1 5 donor
6 16 17 20 21 22 23 rings

> <PUBCHEM_HEAVY_ATOM_COUNT>
23

> <PUBCHEM_ATOM_DEF_STEREO_COUNT>
2

> <PUBCHEM_ATOM_UDEF_STEREO_COUNT>
0

> <PUBCHEM_BOND_DEF_STEREO_COUNT>
1

> <PUBCHEM_BOND_UDEF_STEREO_COUNT>
0

> <PUBCHEM_ISOTOPIC_ATOM_COUNT>
0

> <PUBCHEM_COMPONENT_COUNT>
1

> <PUBCHEM_CACTVS_TAUTO_COUNT>
12

> <PUBCHEM_CONFORMER_ID>
0050A32500000001

> <PUBCHEM_MMFF94_ENERGY>
56.9454

> <PUBCHEM_FEATURE_SELFOVERLAP>
30.446

> <PUBCHEM_SHAPE_FINGERPRINT>
1100329 8 17836085568009856625
11112241 14 16986289841619931392
11578080 2 16734366241365874279
12166972 35 17967822613537111974
12403259 226 18337670931286267939
12506688 2 18412827975731104564
12596599 1 17914633677902020662
12788726 201 17627507133988941776
13140716 1 18267582403486064363
13402501 40 18336828697047978282
13533116 47 18056766653224983451
14251757 17 18262232209996353437
14787075 74 18336834185758012246
14790565 3 17545883724776523813
14866123 147 17767415573386001256
14931854 50 18336551491284682350
15196674 1 18334859415888043750
15322687 12 17104511174142344237
19591789 44 18337109089556020683
19930381 70 18413393137471364090
20028762 73 17044582808783771111
20691752 17 17022900138402631537
20715895 44 17609482839964013085
20832881 197 18343306989256920753
20905425 154 18409167675446349782
22182313 1 18041826412212926463
23227448 37 18189331260828617463
23352939 185 18342462530415398027
23557571 272 17910374109985112994
23559900 14 18335978778501818797
238 59 18196346307921625956
2748010 2 18117544331403189953
3323516 105 18411138077713944259
350125 39 18336268960321048513
3524813 1 18334011700965522918
3680242 22 18116995477305685354
463206 1 18269557311053435927
5265222 85 17471861776259798556
57527585 103 17390829632986241626
59755656 215 18188762977069237031
6443956 14 18340493347406701473
81228 2 17476913559209296171

> <PUBCHEM_SHAPE_MULTIPOLES>
443.98
8.21
4.09
1.18
1.54
0.84
-0.09
-3.84
1.51
-1.8
-1.33
-0.11
0.8
1.1

> <PUBCHEM_SHAPE_SELFOVERLAP>
916.908

> <PUBCHEM_SHAPE_VOLUME>
252.3

> <PUBCHEM_COORDINATE_TYPE>
2
5
10

> <Energy>
40.5071

> <minimizedAffinity>
-9.15575

> <CNNscore>
0.8070026040

> <CNNaffinity>
6.5294890404

> <CNN_VS>
5.2693147659

> <CNNaffinity_variance>
0.3386775553

$$$$
5284645


 26 27  0  0  0  0  0  0  0  0999 V2000
  -10.7143   -5.8969   22.3315 O   0  0  0  0  0  0  0  0  0  0  0  0
   -5.3277   -7.5997   20.2768 O   0  0  0  0  0  0  0  0  0  0  0  0
   -5.0519   -6.0218   18.6212 O   0  0  0  0  0  0  0  0  0  0  0  0
   -2.2081   -6.0042   18.7627 O   0  0  0  0  0  0  0  0  0  0  0  0
   -0.6849   -4.3729   22.9093 O   0  0  0  0  0  0  0  0  0  0  0  0
   -9.5665   -6.3831   20.2734 C   0  0  0  0  0  0  0  0  0  0  0  0
   -9.4161   -5.9312   21.7362 C   0  0  0  0  0  0  0  0  0  0  0  0
   -8.2446   -6.7358   19.5862 C   0  0  0  0  0  0  0  0  0  0  0  0
   -8.7813   -4.5381   21.8665 C   0  0  0  0  0  0  0  0  0  0  0  0
   -7.6794   -8.0836   20.0465 C   0  0  0  0  0  0  0  0  0  0  0  0
   -8.4464   -4.1480   23.3140 C   0  0  0  0  0  0  0  0  0  0  0  0
   -6.2769   -8.3489   19.4894 C   0  0  0  0  0  0  0  0  0  0  0  0
   -7.3105   -4.9597   23.9479 C   0  0  0  0  0  0  0  0  0  0  0  0
   -5.8995   -9.8190   19.6470 C   0  0  0  0  0  0  0  0  0  0  0  0
   -5.9945   -4.7836   23.2403 C   0  0  0  0  0  0  0  0  0  0  0  0
   -3.7873   -5.9193   20.6253 C   0  0  0  0  0  0  0  0  0  0  0  0
   -4.0317   -5.5952   21.9748 C   0  0  0  0  0  0  0  0  0  0  0  0
   -4.8313   -6.4699   19.7362 C   0  0  0  0  0  0  0  0  0  0  0  0
   -5.3337   -5.7833   22.6346 C   0  0  0  0  0  0  0  0  0  0  0  0
   -2.5180   -5.7008   20.0659 C   0  0  0  0  0  0  0  0  0  0  0  0
   -2.9699   -5.0800   22.7441 C   0  0  0  0  0  0  0  0  0  0  0  0
   -1.7163   -4.8743   22.1725 C   0  0  0  0  0  0  0  0  0  0  0  0
   -1.4834   -5.1776   20.8363 C   0  0  0  0  0  0  0  0  0  0  0  0
  -11.1276   -6.7711   22.2565 H   0  0  0  0  0  0  0  0  0  0  0  0
   -2.8641   -6.3595   18.1957 H   0  0  0  0  0  0  0  0  0  0  0  0
   -0.8145   -4.1599   23.8125 H   0  0  0  0  0  0  0  0  0  0  0  0
  1  7  1  0
  1 24  1  0
  2 12  1  0
  2 18  1  0
  3 18  2  0
  4 20  1  0
  4 25  1  0
  5 22  1  0
  5 26  1  0
  6  7  1  0
  6  8  1  0
  7  9  1  0
  8 10  1  0
  9 11  1  0
 10 12  1  0
 11 13  1  0
 12 14  1  0
 13 15  1  0
 15 19  2  0
 16 17  2  0
 16 18  1  0
 16 20  1  0
 17 19  1  0
 17 21  1  0
 20 23  2  0
 21 22  2  0
 22 23  1  0
M  END
> <PUBCHEM_COMPOUND_CID>
5284645

> <PUBCHEM_CONFORMER_RMSD>
0.6

> <PUBCHEM_CONFORMER_DIVERSEORDER>
1

> <PUBCHEM_MMFF94_PARTIAL_CHARGES>
24
1 -0.68
12 0.28
13 0.14
15 -0.29
16 0.09
17 0.03
18 0.63
19 -0.18
2 -0.43
20 0.08
21 -0.15
22 0.08
23 -0.15
3 -0.57
4 -0.53
41 0.4
42 0.15
43 0.15
44 0.15
45 0.15
46 0.45
47 0.45
5 -0.53
7 0.28

> <PUBCHEM_EFFECTIVE_ROTOR_COUNT>
1.8

> <PUBCHEM_PHARMACOPHORE_FEATURES>
6
1 1 acceptor
1 1 donor
1 3 acceptor
1 4 donor
1 5 donor
6 16 17 20 21 22 23 rings

> <PUBCHEM_HEAVY_ATOM_COUNT>
23

> <PUBCHEM_ATOM_DEF_STEREO_COUNT>
2

> <PUBCHEM_ATOM_UDEF_STEREO_COUNT>
0

> <PUBCHEM_BOND_DEF_STEREO_COUNT>
1

> <PUBCHEM_BOND_UDEF_STEREO_COUNT>
0

> <PUBCHEM_ISOTOPIC_ATOM_COUNT>
0

> <PUBCHEM_COMPONENT_COUNT>
1

> <PUBCHEM_CACTVS_TAUTO_COUNT>
12

> <PUBCHEM_CONFORMER_ID>
0050A32500000001

> <PUBCHEM_MMFF94_ENERGY>
56.9454

> <PUBCHEM_FEATURE_SELFOVERLAP>
30.446

> <PUBCHEM_SHAPE_FINGERPRINT>
1100329 8 17836085568009856625
11112241 14 16986289841619931392
11578080 2 16734366241365874279
12166972 35 17967822613537111974
12403259 226 18337670931286267939
12506688 2 18412827975731104564
12596599 1 17914633677902020662
12788726 201 17627507133988941776
13140716 1 18267582403486064363
13402501 40 18336828697047978282
13533116 47 18056766653224983451
14251757 17 18262232209996353437
14787075 74 18336834185758012246
14790565 3 17545883724776523813
14866123 147 17767415573386001256
14931854 50 18336551491284682350
15196674 1 18334859415888043750
15322687 12 17104511174142344237
19591789 44 18337109089556020683
19930381 70 18413393137471364090
20028762 73 17044582808783771111
20691752 17 17022900138402631537
20715895 44 17609482839964013085
20832881 197 18343306989256920753
20905425 154 18409167675446349782
22182313 1 18041826412212926463
23227448 37 18189331260828617463
23352939 185 18342462530415398027
23557571 272 17910374109985112994
23559900 14 18335978778501818797
238 59 18196346307921625956
2748010 2 18117544331403189953
3323516 105 18411138077713944259
350125 39 18336268960321048513
3524813 1 18334011700965522918
3680242 22 18116995477305685354
463206 1 18269557311053435927
5265222 85 17471861776259798556
57527585 103 17390829632986241626
59755656 215 18188762977069237031
6443956 14 18340493347406701473
81228 2 17476913559209296171

> <PUBCHEM_SHAPE_MULTIPOLES>
443.98
8.21
4.09
1.18
1.54
0.84
-0.09
-3.84
1.51
-1.8
-1.33
-0.11
0.8
1.1

> <PUBCHEM_SHAPE_SELFOVERLAP>
916.908

> <PUBCHEM_SHAPE_VOLUME>
252.3

> <PUBCHEM_COORDINATE_TYPE>
2
5
10

> <Energy>
40.5071

> <minimizedAffinity>
-5.86522

> <CNNscore>
0.4014749229

> <CNNaffinity>
6.3677811623

> <CNN_VS>
2.5565044880

> <CNNaffinity_variance>
0.1053760648

$$$$
5284645


 26 27  0  0  0  0  0  0  0  0999 V2000
   -0.5307   -5.2876   20.8778 O   0  0  0  0  0  0  0  0  0  0  0  0
   -6.2323   -5.3415   22.7820 O   0  0  0  0  0  0  0  0  0  0  0  0
   -6.8009   -3.1625   22.2970 O   0  0  0  0  0  0  0  0  0  0  0  0
   -9.5642   -3.7104   21.8834 O   0  0  0  0  0  0  0  0  0  0  0  0
  -10.2432   -6.4955   18.1474 O   0  0  0  0  0  0  0  0  0  0  0  0
   -2.0580   -4.0253   22.2430 C   0  0  0  0  0  0  0  0  0  0  0  0
   -1.9194   -5.0146   21.0731 C   0  0  0  0  0  0  0  0  0  0  0  0
   -3.4915   -3.8520   22.7521 C   0  0  0  0  0  0  0  0  0  0  0  0
   -2.4999   -4.4684   19.7596 C   0  0  0  0  0  0  0  0  0  0  0  0
   -3.9747   -5.0482   23.5787 C   0  0  0  0  0  0  0  0  0  0  0  0
   -2.5460   -5.5070   18.6288 C   0  0  0  0  0  0  0  0  0  0  0  0
   -5.4612   -4.9478   23.9364 C   0  0  0  0  0  0  0  0  0  0  0  0
   -3.5492   -6.6457   18.8477 C   0  0  0  0  0  0  0  0  0  0  0  0
   -5.8198   -5.9305   25.0473 C   0  0  0  0  0  0  0  0  0  0  0  0
   -4.9743   -6.1689   18.9233 C   0  0  0  0  0  0  0  0  0  0  0  0
   -7.6561   -4.9608   21.0084 C   0  0  0  0  0  0  0  0  0  0  0  0
   -7.1534   -5.8643   20.0508 C   0  0  0  0  0  0  0  0  0  0  0  0
   -6.8091   -4.3609   22.0601 C   0  0  0  0  0  0  0  0  0  0  0  0
   -5.7514   -6.3101   20.0091 C   0  0  0  0  0  0  0  0  0  0  0  0
   -9.0063   -4.5766   20.9752 C   0  0  0  0  0  0  0  0  0  0  0  0
   -8.0414   -6.3868   19.0901 C   0  0  0  0  0  0  0  0  0  0  0  0
   -9.3786   -5.9970   19.0759 C   0  0  0  0  0  0  0  0  0  0  0  0
   -9.8673   -5.0915   20.0103 C   0  0  0  0  0  0  0  0  0  0  0  0
   -0.1505   -5.6337   21.7002 H   0  0  0  0  0  0  0  0  0  0  0  0
   -9.0337   -3.3316   22.5566 H   0  0  0  0  0  0  0  0  0  0  0  0
   -9.9401   -7.1075   17.5060 H   0  0  0  0  0  0  0  0  0  0  0  0
  1  7  1  0
  1 24  1  0
  2 12  1  0
  2 18  1  0
  3 18  2  0
  4 20  1  0
  4 25  1  0
  5 22  1  0
  5 26  1  0
  6  7  1  0
  6  8  1  0
  7  9  1  0
  8 10  1  0
  9 11  1  0
 10 12  1  0
 11 13  1  0
 12 14  1  0
 13 15  1  0
 15 19  2  0
 16 17  2  0
 16 18  1  0
 16 20  1  0
 17 19  1  0
 17 21  1  0
 20 23  2  0
 21 22  2  0
 22 23  1  0
M  END
> <PUBCHEM_COMPOUND_CID>
5284645

> <PUBCHEM_CONFORMER_RMSD>
0.6

> <PUBCHEM_CONFORMER_DIVERSEORDER>
1

> <PUBCHEM_MMFF94_PARTIAL_CHARGES>
24
1 -0.68
12 0.28
13 0.14
15 -0.29
16 0.09
17 0.03
18 0.63
19 -0.18
2 -0.43
20 0.08
21 -0.15
22 0.08
23 -0.15
3 -0.57
4 -0.53
41 0.4
42 0.15
43 0.15
44 0.15
45 0.15
46 0.45
47 0.45
5 -0.53
7 0.28

> <PUBCHEM_EFFECTIVE_ROTOR_COUNT>
1.8

> <PUBCHEM_PHARMACOPHORE_FEATURES>
6
1 1 acceptor
1 1 donor
1 3 acceptor
1 4 donor
1 5 donor
6 16 17 20 21 22 23 rings

> <PUBCHEM_HEAVY_ATOM_COUNT>
23

> <PUBCHEM_ATOM_DEF_STEREO_COUNT>
2

> <PUBCHEM_ATOM_UDEF_STEREO_COUNT>
0

> <PUBCHEM_BOND_DEF_STEREO_COUNT>
1

> <PUBCHEM_BOND_UDEF_STEREO_COUNT>
0

> <PUBCHEM_ISOTOPIC_ATOM_COUNT>
0

> <PUBCHEM_COMPONENT_COUNT>
1

> <PUBCHEM_CACTVS_TAUTO_COUNT>
12

> <PUBCHEM_CONFORMER_ID>
0050A32500000001

> <PUBCHEM_MMFF94_ENERGY>
56.9454

> <PUBCHEM_FEATURE_SELFOVERLAP>
30.446

> <PUBCHEM_SHAPE_FINGERPRINT>
1100329 8 17836085568009856625
11112241 14 16986289841619931392
11578080 2 16734366241365874279
12166972 35 17967822613537111974
12403259 226 18337670931286267939
12506688 2 18412827975731104564
12596599 1 17914633677902020662
12788726 201 17627507133988941776
13140716 1 18267582403486064363
13402501 40 18336828697047978282
13533116 47 18056766653224983451
14251757 17 18262232209996353437
14787075 74 18336834185758012246
14790565 3 17545883724776523813
14866123 147 17767415573386001256
14931854 50 18336551491284682350
15196674 1 18334859415888043750
15322687 12 17104511174142344237
19591789 44 18337109089556020683
19930381 70 18413393137471364090
20028762 73 17044582808783771111
20691752 17 17022900138402631537
20715895 44 17609482839964013085
20832881 197 18343306989256920753
20905425 154 18409167675446349782
22182313 1 18041826412212926463
23227448 37 18189331260828617463
23352939 185 18342462530415398027
23557571 272 17910374109985112994
23559900 14 18335978778501818797
238 59 18196346307921625956
2748010 2 18117544331403189953
3323516 105 18411138077713944259
350125 39 18336268960321048513
3524813 1 18334011700965522918
3680242 22 18116995477305685354
463206 1 18269557311053435927
5265222 85 17471861776259798556
57527585 103 17390829632986241626
59755656 215 18188762977069237031
6443956 14 18340493347406701473
81228 2 17476913559209296171

> <PUBCHEM_SHAPE_MULTIPOLES>
443.98
8.21
4.09
1.18
1.54
0.84
-0.09
-3.84
1.51
-1.8
-1.33
-0.11
0.8
1.1

> <PUBCHEM_SHAPE_SELFOVERLAP>
916.908

> <PUBCHEM_SHAPE_VOLUME>
252.3

> <PUBCHEM_COORDINATE_TYPE>
2
5
10

> <Energy>
40.5071

> <minimizedAffinity>
1.55577

> <CNNscore>
0.3754115403

> <CNNaffinity>
5.9307236671

> <CNN_VS>
2.2264621258

> <CNNaffinity_variance>
0.0372153558

$$$$
5284645


 26 27  0  0  0  0  0  0  0  0999 V2000
   -1.1883   -7.0576   19.0126 O   0  0  0  0  0  0  0  0  0  0  0  0
   -4.1943   -4.1069   23.3015 O   0  0  0  0  0  0  0  0  0  0  0  0
   -5.0765   -2.4044   22.0249 O   0  0  0  0  0  0  0  0  0  0  0  0
   -7.3832   -2.0390   23.6537 O   0  0  0  0  0  0  0  0  0  0  0  0
  -10.1840   -5.8239   23.5734 O   0  0  0  0  0  0  0  0  0  0  0  0
   -1.5088   -4.8364   19.8804 C   0  0  0  0  0  0  0  0  0  0  0  0
   -2.1156   -6.2421   19.7309 C   0  0  0  0  0  0  0  0  0  0  0  0
   -2.2562   -3.9312   20.8633 C   0  0  0  0  0  0  0  0  0  0  0  0
   -3.4516   -6.2361   18.9721 C   0  0  0  0  0  0  0  0  0  0  0  0
   -1.9971   -4.3049   22.3265 C   0  0  0  0  0  0  0  0  0  0  0  0
   -4.1678   -7.5950   18.9773 C   0  0  0  0  0  0  0  0  0  0  0  0
   -2.8796   -3.5121   23.2962 C   0  0  0  0  0  0  0  0  0  0  0  0
   -4.7026   -8.0300   20.3468 C   0  0  0  0  0  0  0  0  0  0  0  0
   -2.3528   -3.6231   24.7240 C   0  0  0  0  0  0  0  0  0  0  0  0
   -5.7491   -7.0975   20.8939 C   0  0  0  0  0  0  0  0  0  0  0  0
   -6.4548   -4.1506   22.8476 C   0  0  0  0  0  0  0  0  0  0  0  0
   -6.6543   -5.5168   22.5656 C   0  0  0  0  0  0  0  0  0  0  0  0
   -5.1640   -3.4693   22.6171 C   0  0  0  0  0  0  0  0  0  0  0  0
   -5.6048   -6.3999   22.0321 C   0  0  0  0  0  0  0  0  0  0  0  0
   -7.5112   -3.3716   23.3468 C   0  0  0  0  0  0  0  0  0  0  0  0
   -7.9206   -6.0775   22.8244 C   0  0  0  0  0  0  0  0  0  0  0  0
   -8.9550   -5.2896   23.3238 C   0  0  0  0  0  0  0  0  0  0  0  0
   -8.7605   -3.9381   23.5835 C   0  0  0  0  0  0  0  0  0  0  0  0
   -0.3390   -7.0706   19.4808 H   0  0  0  0  0  0  0  0  0  0  0  0
   -6.5654   -1.6029   23.5157 H   0  0  0  0  0  0  0  0  0  0  0  0
  -10.3424   -6.7323   23.4074 H   0  0  0  0  0  0  0  0  0  0  0  0
  1  7  1  0
  1 24  1  0
  2 12  1  0
  2 18  1  0
  3 18  2  0
  4 20  1  0
  4 25  1  0
  5 22  1  0
  5 26  1  0
  6  7  1  0
  6  8  1  0
  7  9  1  0
  8 10  1  0
  9 11  1  0
 10 12  1  0
 11 13  1  0
 12 14  1  0
 13 15  1  0
 15 19  2  0
 16 17  2  0
 16 18  1  0
 16 20  1  0
 17 19  1  0
 17 21  1  0
 20 23  2  0
 21 22  2  0
 22 23  1  0
M  END
> <PUBCHEM_COMPOUND_CID>
5284645

> <PUBCHEM_CONFORMER_RMSD>
0.6

> <PUBCHEM_CONFORMER_DIVERSEORDER>
1

> <PUBCHEM_MMFF94_PARTIAL_CHARGES>
24
1 -0.68
12 0.28
13 0.14
15 -0.29
16 0.09
17 0.03
18 0.63
19 -0.18
2 -0.43
20 0.08
21 -0.15
22 0.08
23 -0.15
3 -0.57
4 -0.53
41 0.4
42 0.15
43 0.15
44 0.15
45 0.15
46 0.45
47 0.45
5 -0.53
7 0.28

> <PUBCHEM_EFFECTIVE_ROTOR_COUNT>
1.8

> <PUBCHEM_PHARMACOPHORE_FEATURES>
6
1 1 acceptor
1 1 donor
1 3 acceptor
1 4 donor
1 5 donor
6 16 17 20 21 22 23 rings

> <PUBCHEM_HEAVY_ATOM_COUNT>
23

> <PUBCHEM_ATOM_DEF_STEREO_COUNT>
2

> <PUBCHEM_ATOM_UDEF_STEREO_COUNT>
0

> <PUBCHEM_BOND_DEF_STEREO_COUNT>
1

> <PUBCHEM_BOND_UDEF_STEREO_COUNT>
0

> <PUBCHEM_ISOTOPIC_ATOM_COUNT>
0

> <PUBCHEM_COMPONENT_COUNT>
1

> <PUBCHEM_CACTVS_TAUTO_COUNT>
12

> <PUBCHEM_CONFORMER_ID>
0050A32500000001

> <PUBCHEM_MMFF94_ENERGY>
56.9454

> <PUBCHEM_FEATURE_SELFOVERLAP>
30.446

> <PUBCHEM_SHAPE_FINGERPRINT>
1100329 8 17836085568009856625
11112241 14 16986289841619931392
11578080 2 16734366241365874279
12166972 35 17967822613537111974
12403259 226 18337670931286267939
12506688 2 18412827975731104564
12596599 1 17914633677902020662
12788726 201 17627507133988941776
13140716 1 18267582403486064363
13402501 40 18336828697047978282
13533116 47 18056766653224983451
14251757 17 18262232209996353437
14787075 74 18336834185758012246
14790565 3 17545883724776523813
14866123 147 17767415573386001256
14931854 50 18336551491284682350
15196674 1 18334859415888043750
15322687 12 17104511174142344237
19591789 44 18337109089556020683
19930381 70 18413393137471364090
20028762 73 17044582808783771111
20691752 17 17022900138402631537
20715895 44 17609482839964013085
20832881 197 18343306989256920753
20905425 154 18409167675446349782
22182313 1 18041826412212926463
23227448 37 18189331260828617463
23352939 185 18342462530415398027
23557571 272 17910374109985112994
23559900 14 18335978778501818797
238 59 18196346307921625956
2748010 2 18117544331403189953
3323516 105 18411138077713944259
350125 39 18336268960321048513
3524813 1 18334011700965522918
3680242 22 18116995477305685354
463206 1 18269557311053435927
5265222 85 17471861776259798556
57527585 103 17390829632986241626
59755656 215 18188762977069237031
6443956 14 18340493347406701473
81228 2 17476913559209296171

> <PUBCHEM_SHAPE_MULTIPOLES>
443.98
8.21
4.09
1.18
1.54
0.84
-0.09
-3.84
1.51
-1.8
-1.33
-0.11
0.8
1.1

> <PUBCHEM_SHAPE_SELFOVERLAP>
916.908

> <PUBCHEM_SHAPE_VOLUME>
252.3

> <PUBCHEM_COORDINATE_TYPE>
2
5
10

> <Energy>
40.5071

> <minimizedAffinity>
2.16246

> <CNNscore>
0.1834629923

> <CNNaffinity>
5.6234211922

> <CNN_VS>
1.0316896439

> <CNNaffinity_variance>
0.2670295835

$$$$
5284645


 26 27  0  0  0  0  0  0  0  0999 V2000
   -5.3336   -0.2614   21.0083 O   0  0  0  0  0  0  0  0  0  0  0  0
   -6.2063   -5.5644   23.7017 O   0  0  0  0  0  0  0  0  0  0  0  0
   -8.5005   -5.6869   23.5340 O   0  0  0  0  0  0  0  0  0  0  0  0
   -8.5957   -8.5320   23.4699 O   0  0  0  0  0  0  0  0  0  0  0  0
   -6.5340  -10.2527   19.6015 O   0  0  0  0  0  0  0  0  0  0  0  0
   -6.6910   -1.2961   22.7044 C   0  0  0  0  0  0  0  0  0  0  0  0
   -5.8592   -1.5211   21.4300 C   0  0  0  0  0  0  0  0  0  0  0  0
   -7.0875   -2.5841   23.4309 C   0  0  0  0  0  0  0  0  0  0  0  0
   -6.6836   -2.1171   20.2786 C   0  0  0  0  0  0  0  0  0  0  0  0
   -5.9178   -3.2199   24.1894 C   0  0  0  0  0  0  0  0  0  0  0  0
   -5.8370   -2.5273   19.0642 C   0  0  0  0  0  0  0  0  0  0  0  0
   -6.2747   -4.5935   24.7670 C   0  0  0  0  0  0  0  0  0  0  0  0
   -4.9115   -3.7256   19.3061 C   0  0  0  0  0  0  0  0  0  0  0  0
   -5.2483   -5.0273   25.8094 C   0  0  0  0  0  0  0  0  0  0  0  0
   -5.6581   -4.9894   19.6364 C   0  0  0  0  0  0  0  0  0  0  0  0
   -7.1057   -7.0679   22.2022 C   0  0  0  0  0  0  0  0  0  0  0  0
   -6.2536   -6.8963   21.0930 C   0  0  0  0  0  0  0  0  0  0  0  0
   -7.3721   -5.9898   23.1771 C   0  0  0  0  0  0  0  0  0  0  0  0
   -5.5373   -5.6439   20.8026 C   0  0  0  0  0  0  0  0  0  0  0  0
   -7.7617   -8.2928   22.4052 C   0  0  0  0  0  0  0  0  0  0  0  0
   -6.0586   -7.9860   20.2217 C   0  0  0  0  0  0  0  0  0  0  0  0
   -6.7147   -9.1948   20.4420 C   0  0  0  0  0  0  0  0  0  0  0  0
   -7.5691   -9.3551   21.5265 C   0  0  0  0  0  0  0  0  0  0  0  0
   -4.8100    0.1271   21.7264 H   0  0  0  0  0  0  0  0  0  0  0  0
   -8.7635   -7.8544   24.0950 H   0  0  0  0  0  0  0  0  0  0  0  0
   -5.9635  -10.1718   18.8627 H   0  0  0  0  0  0  0  0  0  0  0  0
  1  7  1  0
  1 24  1  0
  2 12  1  0
  2 18  1  0
  3 18  2  0
  4 20  1  0
  4 25  1  0
  5 22  1  0
  5 26  1  0
  6  7  1  0
  6  8  1  0
  7  9  1  0
  8 10  1  0
  9 11  1  0
 10 12  1  0
 11 13  1  0
 12 14  1  0
 13 15  1  0
 15 19  2  0
 16 17  2  0
 16 18  1  0
 16 20  1  0
 17 19  1  0
 17 21  1  0
 20 23  2  0
 21 22  2  0
 22 23  1  0
M  END
> <PUBCHEM_COMPOUND_CID>
5284645

> <PUBCHEM_CONFORMER_RMSD>
0.6

> <PUBCHEM_CONFORMER_DIVERSEORDER>
1

> <PUBCHEM_MMFF94_PARTIAL_CHARGES>
24
1 -0.68
12 0.28
13 0.14
15 -0.29
16 0.09
17 0.03
18 0.63
19 -0.18
2 -0.43
20 0.08
21 -0.15
22 0.08
23 -0.15
3 -0.57
4 -0.53
41 0.4
42 0.15
43 0.15
44 0.15
45 0.15
46 0.45
47 0.45
5 -0.53
7 0.28

> <PUBCHEM_EFFECTIVE_ROTOR_COUNT>
1.8

> <PUBCHEM_PHARMACOPHORE_FEATURES>
6
1 1 acceptor
1 1 donor
1 3 acceptor
1 4 donor
1 5 donor
6 16 17 20 21 22 23 rings

> <PUBCHEM_HEAVY_ATOM_COUNT>
23

> <PUBCHEM_ATOM_DEF_STEREO_COUNT>
2

> <PUBCHEM_ATOM_UDEF_STEREO_COUNT>
0

> <PUBCHEM_BOND_DEF_STEREO_COUNT>
1

> <PUBCHEM_BOND_UDEF_STEREO_COUNT>
0

> <PUBCHEM_ISOTOPIC_ATOM_COUNT>
0

> <PUBCHEM_COMPONENT_COUNT>
1

> <PUBCHEM_CACTVS_TAUTO_COUNT>
12

> <PUBCHEM_CONFORMER_ID>
0050A32500000001

> <PUBCHEM_MMFF94_ENERGY>
56.9454

> <PUBCHEM_FEATURE_SELFOVERLAP>
30.446

> <PUBCHEM_SHAPE_FINGERPRINT>
1100329 8 17836085568009856625
11112241 14 16986289841619931392
11578080 2 16734366241365874279
12166972 35 17967822613537111974
12403259 226 18337670931286267939
12506688 2 18412827975731104564
12596599 1 17914633677902020662
12788726 201 17627507133988941776
13140716 1 18267582403486064363
13402501 40 18336828697047978282
13533116 47 18056766653224983451
14251757 17 18262232209996353437
14787075 74 18336834185758012246
14790565 3 17545883724776523813
14866123 147 17767415573386001256
14931854 50 18336551491284682350
15196674 1 18334859415888043750
15322687 12 17104511174142344237
19591789 44 18337109089556020683
19930381 70 18413393137471364090
20028762 73 17044582808783771111
20691752 17 17022900138402631537
20715895 44 17609482839964013085
20832881 197 18343306989256920753
20905425 154 18409167675446349782
22182313 1 18041826412212926463
23227448 37 18189331260828617463
23352939 185 18342462530415398027
23557571 272 17910374109985112994
23559900 14 18335978778501818797
238 59 18196346307921625956
2748010 2 18117544331403189953
3323516 105 18411138077713944259
350125 39 18336268960321048513
3524813 1 18334011700965522918
3680242 22 18116995477305685354
463206 1 18269557311053435927
5265222 85 17471861776259798556
57527585 103 17390829632986241626
59755656 215 18188762977069237031
6443956 14 18340493347406701473
81228 2 17476913559209296171

> <PUBCHEM_SHAPE_MULTIPOLES>
443.98
8.21
4.09
1.18
1.54
0.84
-0.09
-3.84
1.51
-1.8
-1.33
-0.11
0.8
1.1

> <PUBCHEM_SHAPE_SELFOVERLAP>
916.908

> <PUBCHEM_SHAPE_VOLUME>
252.3

> <PUBCHEM_COORDINATE_TYPE>
2
5
10

> <Energy>
40.5071

> <minimizedAffinity>
20.85486

> <CNNscore>
0.1615870595

> <CNNaffinity>
4.5115532875

> <CNN_VS>
0.7290086150

> <CNNaffinity_variance>
1.1716378927

$$$$
5284645


 26 27  0  0  0  0  0  0  0  0999 V2000
   -0.5842   -5.0730   17.8071 O   0  0  0  0  0  0  0  0  0  0  0  0
   -4.2013   -5.7023   22.5670 O   0  0  0  0  0  0  0  0  0  0  0  0
   -4.4365   -3.4846   23.1438 O   0  0  0  0  0  0  0  0  0  0  0  0
   -7.0264   -3.7956   24.2854 O   0  0  0  0  0  0  0  0  0  0  0  0
  -10.2140   -5.0372   21.0492 O   0  0  0  0  0  0  0  0  0  0  0  0
   -0.8066   -4.3582   20.0938 C   0  0  0  0  0  0  0  0  0  0  0  0
   -1.5457   -4.8628   18.8426 C   0  0  0  0  0  0  0  0  0  0  0  0
   -1.6578   -4.3530   21.3664 C   0  0  0  0  0  0  0  0  0  0  0  0
   -2.6024   -3.8700   18.3345 C   0  0  0  0  0  0  0  0  0  0  0  0
   -1.8728   -5.7573   21.9404 C   0  0  0  0  0  0  0  0  0  0  0  0
   -3.4816   -4.4313   17.2068 C   0  0  0  0  0  0  0  0  0  0  0  0
   -2.8650   -5.7647   23.1080 C   0  0  0  0  0  0  0  0  0  0  0  0
   -4.4334   -5.5536   17.6372 C   0  0  0  0  0  0  0  0  0  0  0  0
   -2.7778   -7.0744   23.8861 C   0  0  0  0  0  0  0  0  0  0  0  0
   -5.4434   -5.1096   18.6602 C   0  0  0  0  0  0  0  0  0  0  0  0
   -6.2279   -4.6828   22.1533 C   0  0  0  0  0  0  0  0  0  0  0  0
   -6.5377   -5.1905   20.8758 C   0  0  0  0  0  0  0  0  0  0  0  0
   -4.8391   -4.5172   22.6300 C   0  0  0  0  0  0  0  0  0  0  0  0
   -5.5213   -5.6174   19.9008 C   0  0  0  0  0  0  0  0  0  0  0  0
   -7.2564   -4.2873   23.0238 C   0  0  0  0  0  0  0  0  0  0  0  0
   -7.8935   -5.3159   20.5141 C   0  0  0  0  0  0  0  0  0  0  0  0
   -8.8999   -4.9223   21.3931 C   0  0  0  0  0  0  0  0  0  0  0  0
   -8.5908   -4.4045   22.6453 C   0  0  0  0  0  0  0  0  0  0  0  0
    0.0902   -5.6987   18.1143 H   0  0  0  0  0  0  0  0  0  0  0  0
   -6.1481   -3.6942   24.5958 H   0  0  0  0  0  0  0  0  0  0  0  0
  -10.4504   -5.3831   20.2111 H   0  0  0  0  0  0  0  0  0  0  0  0
  1  7  1  0
  1 24  1  0
  2 12  1  0
  2 18  1  0
  3 18  2  0
  4 20  1  0
  4 25  1  0
  5 22  1  0
  5 26  1  0
  6  7  1  0
  6  8  1  0
  7  9  1  0
  8 10  1  0
  9 11  1  0
 10 12  1  0
 11 13  1  0
 12 14  1  0
 13 15  1  0
 15 19  2  0
 16 17  2  0
 16 18  1  0
 16 20  1  0
 17 19  1  0
 17 21  1  0
 20 23  2  0
 21 22  2  0
 22 23  1  0
M  END
> <PUBCHEM_COMPOUND_CID>
5284645

> <PUBCHEM_CONFORMER_RMSD>
0.6

> <PUBCHEM_CONFORMER_DIVERSEORDER>
1

> <PUBCHEM_MMFF94_PARTIAL_CHARGES>
24
1 -0.68
12 0.28
13 0.14
15 -0.29
16 0.09
17 0.03
18 0.63
19 -0.18
2 -0.43
20 0.08
21 -0.15
22 0.08
23 -0.15
3 -0.57
4 -0.53
41 0.4
42 0.15
43 0.15
44 0.15
45 0.15
46 0.45
47 0.45
5 -0.53
7 0.28

> <PUBCHEM_EFFECTIVE_ROTOR_COUNT>
1.8

> <PUBCHEM_PHARMACOPHORE_FEATURES>
6
1 1 acceptor
1 1 donor
1 3 acceptor
1 4 donor
1 5 donor
6 16 17 20 21 22 23 rings

> <PUBCHEM_HEAVY_ATOM_COUNT>
23

> <PUBCHEM_ATOM_DEF_STEREO_COUNT>
2

> <PUBCHEM_ATOM_UDEF_STEREO_COUNT>
0

> <PUBCHEM_BOND_DEF_STEREO_COUNT>
1

> <PUBCHEM_BOND_UDEF_STEREO_COUNT>
0

> <PUBCHEM_ISOTOPIC_ATOM_COUNT>
0

> <PUBCHEM_COMPONENT_COUNT>
1

> <PUBCHEM_CACTVS_TAUTO_COUNT>
12

> <PUBCHEM_CONFORMER_ID>
0050A32500000001

> <PUBCHEM_MMFF94_ENERGY>
56.9454

> <PUBCHEM_FEATURE_SELFOVERLAP>
30.446

> <PUBCHEM_SHAPE_FINGERPRINT>
1100329 8 17836085568009856625
11112241 14 16986289841619931392
11578080 2 16734366241365874279
12166972 35 17967822613537111974
12403259 226 18337670931286267939
12506688 2 18412827975731104564
12596599 1 17914633677902020662
12788726 201 17627507133988941776
13140716 1 18267582403486064363
13402501 40 18336828697047978282
13533116 47 18056766653224983451
14251757 17 18262232209996353437
14787075 74 18336834185758012246
14790565 3 17545883724776523813
14866123 147 17767415573386001256
14931854 50 18336551491284682350
15196674 1 18334859415888043750
15322687 12 17104511174142344237
19591789 44 18337109089556020683
19930381 70 18413393137471364090
20028762 73 17044582808783771111
20691752 17 17022900138402631537
20715895 44 17609482839964013085
20832881 197 18343306989256920753
20905425 154 18409167675446349782
22182313 1 18041826412212926463
23227448 37 18189331260828617463
23352939 185 18342462530415398027
23557571 272 17910374109985112994
23559900 14 18335978778501818797
238 59 18196346307921625956
2748010 2 18117544331403189953
3323516 105 18411138077713944259
350125 39 18336268960321048513
3524813 1 18334011700965522918
3680242 22 18116995477305685354
463206 1 18269557311053435927
5265222 85 17471861776259798556
57527585 103 17390829632986241626
59755656 215 18188762977069237031
6443956 14 18340493347406701473
81228 2 17476913559209296171

> <PUBCHEM_SHAPE_MULTIPOLES>
443.98
8.21
4.09
1.18
1.54
0.84
-0.09
-3.84
1.51
-1.8
-1.33
-0.11
0.8
1.1

> <PUBCHEM_SHAPE_SELFOVERLAP>
916.908

> <PUBCHEM_SHAPE_VOLUME>
252.3

> <PUBCHEM_COORDINATE_TYPE>
2
5
10

> <Energy>
40.5071

> <minimizedAffinity>
0.76701

> <CNNscore>
0.1488857865

> <CNNaffinity>
5.3851332664

> <CNN_VS>
0.8017697930

> <CNNaffinity_variance>
0.0447912961

$$$$
5284645


 26 27  0  0  0  0  0  0  0  0999 V2000
   -9.7264   -5.2427   24.3305 O   0  0  0  0  0  0  0  0  0  0  0  0
   -4.3554   -3.9626   21.9534 O   0  0  0  0  0  0  0  0  0  0  0  0
   -3.5563   -6.1056   21.6791 O   0  0  0  0  0  0  0  0  0  0  0  0
   -1.9013   -5.4729   19.4503 O   0  0  0  0  0  0  0  0  0  0  0  0
   -4.4463   -4.1385   15.7197 O   0  0  0  0  0  0  0  0  0  0  0  0
   -7.3952   -5.7847   24.5778 C   0  0  0  0  0  0  0  0  0  0  0  0
   -8.4902   -5.2920   23.6161 C   0  0  0  0  0  0  0  0  0  0  0  0
   -5.9702   -5.6259   24.0408 C   0  0  0  0  0  0  0  0  0  0  0  0
   -8.6669   -6.2085   22.3957 C   0  0  0  0  0  0  0  0  0  0  0  0
   -5.4832   -4.1735   24.0750 C   0  0  0  0  0  0  0  0  0  0  0  0
   -9.6157   -5.6381   21.3307 C   0  0  0  0  0  0  0  0  0  0  0  0
   -4.1302   -3.9953   23.3783 C   0  0  0  0  0  0  0  0  0  0  0  0
   -9.0818   -4.4037   20.5946 C   0  0  0  0  0  0  0  0  0  0  0  0
   -3.5037   -2.6531   23.7446 C   0  0  0  0  0  0  0  0  0  0  0  0
   -7.8273   -4.6814   19.8117 C   0  0  0  0  0  0  0  0  0  0  0  0
   -4.2240   -4.8056   19.8110 C   0  0  0  0  0  0  0  0  0  0  0  0
   -5.4397   -4.3531   19.2602 C   0  0  0  0  0  0  0  0  0  0  0  0
   -4.0536   -5.0739   21.2541 C   0  0  0  0  0  0  0  0  0  0  0  0
   -6.6474   -4.0900   20.0589 C   0  0  0  0  0  0  0  0  0  0  0  0
   -3.1177   -5.0431   18.9793 C   0  0  0  0  0  0  0  0  0  0  0  0
   -5.5022   -4.1206   17.8722 C   0  0  0  0  0  0  0  0  0  0  0  0
   -4.3927   -4.3578   17.0640 C   0  0  0  0  0  0  0  0  0  0  0  0
   -3.2006   -4.8217   17.6075 C   0  0  0  0  0  0  0  0  0  0  0  0
   -9.6296   -4.6668   25.1049 H   0  0  0  0  0  0  0  0  0  0  0  0
   -1.7851   -5.6387   20.3652 H   0  0  0  0  0  0  0  0  0  0  0  0
   -5.2376   -3.8257   15.3272 H   0  0  0  0  0  0  0  0  0  0  0  0
  1  7  1  0
  1 24  1  0
  2 12  1  0
  2 18  1  0
  3 18  2  0
  4 20  1  0
  4 25  1  0
  5 22  1  0
  5 26  1  0
  6  7  1  0
  6  8  1  0
  7  9  1  0
  8 10  1  0
  9 11  1  0
 10 12  1  0
 11 13  1  0
 12 14  1  0
 13 15  1  0
 15 19  2  0
 16 17  2  0
 16 18  1  0
 16 20  1  0
 17 19  1  0
 17 21  1  0
 20 23  2  0
 21 22  2  0
 22 23  1  0
M  END
> <PUBCHEM_COMPOUND_CID>
5284645

> <PUBCHEM_CONFORMER_RMSD>
0.6

> <PUBCHEM_CONFORMER_DIVERSEORDER>
1

> <PUBCHEM_MMFF94_PARTIAL_CHARGES>
24
1 -0.68
12 0.28
13 0.14
15 -0.29
16 0.09
17 0.03
18 0.63
19 -0.18
2 -0.43
20 0.08
21 -0.15
22 0.08
23 -0.15
3 -0.57
4 -0.53
41 0.4
42 0.15
43 0.15
44 0.15
45 0.15
46 0.45
47 0.45
5 -0.53
7 0.28

> <PUBCHEM_EFFECTIVE_ROTOR_COUNT>
1.8

> <PUBCHEM_PHARMACOPHORE_FEATURES>
6
1 1 acceptor
1 1 donor
1 3 acceptor
1 4 donor
1 5 donor
6 16 17 20 21 22 23 rings

> <PUBCHEM_HEAVY_ATOM_COUNT>
23

> <PUBCHEM_ATOM_DEF_STEREO_COUNT>
2

> <PUBCHEM_ATOM_UDEF_STEREO_COUNT>
0

> <PUBCHEM_BOND_DEF_STEREO_COUNT>
1

> <PUBCHEM_BOND_UDEF_STEREO_COUNT>
0

> <PUBCHEM_ISOTOPIC_ATOM_COUNT>
0

> <PUBCHEM_COMPONENT_COUNT>
1

> <PUBCHEM_CACTVS_TAUTO_COUNT>
12

> <PUBCHEM_CONFORMER_ID>
0050A32500000001

> <PUBCHEM_MMFF94_ENERGY>
56.9454

> <PUBCHEM_FEATURE_SELFOVERLAP>
30.446

> <PUBCHEM_SHAPE_FINGERPRINT>
1100329 8 17836085568009856625
11112241 14 16986289841619931392
11578080 2 16734366241365874279
12166972 35 17967822613537111974
12403259 226 18337670931286267939
12506688 2 18412827975731104564
12596599 1 17914633677902020662
12788726 201 17627507133988941776
13140716 1 18267582403486064363
13402501 40 18336828697047978282
13533116 47 18056766653224983451
14251757 17 18262232209996353437
14787075 74 18336834185758012246
14790565 3 17545883724776523813
14866123 147 17767415573386001256
14931854 50 18336551491284682350
15196674 1 18334859415888043750
15322687 12 17104511174142344237
19591789 44 18337109089556020683
19930381 70 18413393137471364090
20028762 73 17044582808783771111
20691752 17 17022900138402631537
20715895 44 17609482839964013085
20832881 197 18343306989256920753
20905425 154 18409167675446349782
22182313 1 18041826412212926463
23227448 37 18189331260828617463
23352939 185 18342462530415398027
23557571 272 17910374109985112994
23559900 14 18335978778501818797
238 59 18196346307921625956
2748010 2 18117544331403189953
3323516 105 18411138077713944259
350125 39 18336268960321048513
3524813 1 18334011700965522918
3680242 22 18116995477305685354
463206 1 18269557311053435927
5265222 85 17471861776259798556
57527585 103 17390829632986241626
59755656 215 18188762977069237031
6443956 14 18340493347406701473
81228 2 17476913559209296171

> <PUBCHEM_SHAPE_MULTIPOLES>
443.98
8.21
4.09
1.18
1.54
0.84
-0.09
-3.84
1.51
-1.8
-1.33
-0.11
0.8
1.1

> <PUBCHEM_SHAPE_SELFOVERLAP>
916.908

> <PUBCHEM_SHAPE_VOLUME>
252.3

> <PUBCHEM_COORDINATE_TYPE>
2
5
10

> <Energy>
40.5071

> <minimizedAffinity>
6.91246

> <CNNscore>
0.1486420333

> <CNNaffinity>
5.6030731201

> <CNN_VS>
0.8328521848

> <CNNaffinity_variance>
0.0449993722

$$$$
5284645


 26 27  0  0  0  0  0  0  0  0999 V2000
   -5.2420   -4.1026   17.4975 O   0  0  0  0  0  0  0  0  0  0  0  0
   -4.9722   -6.0547   23.1767 O   0  0  0  0  0  0  0  0  0  0  0  0
   -6.5104   -4.6278   24.1277 O   0  0  0  0  0  0  0  0  0  0  0  0
   -7.2915   -6.4356   26.1842 O   0  0  0  0  0  0  0  0  0  0  0  0
   -9.4076  -10.2576   24.4264 O   0  0  0  0  0  0  0  0  0  0  0  0
   -5.0118   -3.2820   19.7476 C   0  0  0  0  0  0  0  0  0  0  0  0
   -5.5359   -4.4227   18.8584 C   0  0  0  0  0  0  0  0  0  0  0  0
   -5.0022   -3.6062   21.2439 C   0  0  0  0  0  0  0  0  0  0  0  0
   -7.0515   -4.6352   18.9946 C   0  0  0  0  0  0  0  0  0  0  0  0
   -3.8705   -4.5622   21.6352 C   0  0  0  0  0  0  0  0  0  0  0  0
   -7.5648   -5.8863   18.2659 C   0  0  0  0  0  0  0  0  0  0  0  0
   -3.9709   -5.0190   23.0944 C   0  0  0  0  0  0  0  0  0  0  0  0
   -7.1075   -7.2153   18.8787 C   0  0  0  0  0  0  0  0  0  0  0  0
   -2.6611   -5.6507   23.5567 C   0  0  0  0  0  0  0  0  0  0  0  0
   -7.6050   -7.4181   20.2841 C   0  0  0  0  0  0  0  0  0  0  0  0
   -7.0136   -6.9233   23.8062 C   0  0  0  0  0  0  0  0  0  0  0  0
   -7.3054   -7.7644   22.7137 C   0  0  0  0  0  0  0  0  0  0  0  0
   -6.1749   -5.7134   23.6788 C   0  0  0  0  0  0  0  0  0  0  0  0
   -6.7985   -7.5350   21.3513 C   0  0  0  0  0  0  0  0  0  0  0  0
   -7.5444   -7.2053   25.0752 C   0  0  0  0  0  0  0  0  0  0  0  0
   -8.1109   -8.8986   22.9365 C   0  0  0  0  0  0  0  0  0  0  0  0
   -8.6247   -9.1642   24.2036 C   0  0  0  0  0  0  0  0  0  0  0  0
   -8.3503   -8.3226   25.2752 C   0  0  0  0  0  0  0  0  0  0  0  0
   -4.2872   -3.9656   17.3965 H   0  0  0  0  0  0  0  0  0  0  0  0
   -6.7553   -5.6706   26.1112 H   0  0  0  0  0  0  0  0  0  0  0  0
   -9.6082  -10.8416   23.7216 H   0  0  0  0  0  0  0  0  0  0  0  0
  1  7  1  0
  1 24  1  0
  2 12  1  0
  2 18  1  0
  3 18  2  0
  4 20  1  0
  4 25  1  0
  5 22  1  0
  5 26  1  0
  6  7  1  0
  6  8  1  0
  7  9  1  0
  8 10  1  0
  9 11  1  0
 10 12  1  0
 11 13  1  0
 12 14  1  0
 13 15  1  0
 15 19  2  0
 16 17  2  0
 16 18  1  0
 16 20  1  0
 17 19  1  0
 17 21  1  0
 20 23  2  0
 21 22  2  0
 22 23  1  0
M  END
> <PUBCHEM_COMPOUND_CID>
5284645

> <PUBCHEM_CONFORMER_RMSD>
0.6

> <PUBCHEM_CONFORMER_DIVERSEORDER>
1

> <PUBCHEM_MMFF94_PARTIAL_CHARGES>
24
1 -0.68
12 0.28
13 0.14
15 -0.29
16 0.09
17 0.03
18 0.63
19 -0.18
2 -0.43
20 0.08
21 -0.15
22 0.08
23 -0.15
3 -0.57
4 -0.53
41 0.4
42 0.15
43 0.15
44 0.15
45 0.15
46 0.45
47 0.45
5 -0.53
7 0.28

> <PUBCHEM_EFFECTIVE_ROTOR_COUNT>
1.8

> <PUBCHEM_PHARMACOPHORE_FEATURES>
6
1 1 acceptor
1 1 donor
1 3 acceptor
1 4 donor
1 5 donor
6 16 17 20 21 22 23 rings

> <PUBCHEM_HEAVY_ATOM_COUNT>
23

> <PUBCHEM_ATOM_DEF_STEREO_COUNT>
2

> <PUBCHEM_ATOM_UDEF_STEREO_COUNT>
0

> <PUBCHEM_BOND_DEF_STEREO_COUNT>
1

> <PUBCHEM_BOND_UDEF_STEREO_COUNT>
0

> <PUBCHEM_ISOTOPIC_ATOM_COUNT>
0

> <PUBCHEM_COMPONENT_COUNT>
1

> <PUBCHEM_CACTVS_TAUTO_COUNT>
12

> <PUBCHEM_CONFORMER_ID>
0050A32500000001

> <PUBCHEM_MMFF94_ENERGY>
56.9454

> <PUBCHEM_FEATURE_SELFOVERLAP>
30.446

> <PUBCHEM_SHAPE_FINGERPRINT>
1100329 8 17836085568009856625
11112241 14 16986289841619931392
11578080 2 16734366241365874279
12166972 35 17967822613537111974
12403259 226 18337670931286267939
12506688 2 18412827975731104564
12596599 1 17914633677902020662
12788726 201 17627507133988941776
13140716 1 18267582403486064363
13402501 40 18336828697047978282
13533116 47 18056766653224983451
14251757 17 18262232209996353437
14787075 74 18336834185758012246
14790565 3 17545883724776523813
14866123 147 17767415573386001256
14931854 50 18336551491284682350
15196674 1 18334859415888043750
15322687 12 17104511174142344237
19591789 44 18337109089556020683
19930381 70 18413393137471364090
20028762 73 17044582808783771111
20691752 17 17022900138402631537
20715895 44 17609482839964013085
20832881 197 18343306989256920753
20905425 154 18409167675446349782
22182313 1 18041826412212926463
23227448 37 18189331260828617463
23352939 185 18342462530415398027
23557571 272 17910374109985112994
23559900 14 18335978778501818797
238 59 18196346307921625956
2748010 2 18117544331403189953
3323516 105 18411138077713944259
350125 39 18336268960321048513
3524813 1 18334011700965522918
3680242 22 18116995477305685354
463206 1 18269557311053435927
5265222 85 17471861776259798556
57527585 103 17390829632986241626
59755656 215 18188762977069237031
6443956 14 18340493347406701473
81228 2 17476913559209296171

> <PUBCHEM_SHAPE_MULTIPOLES>
443.98
8.21
4.09
1.18
1.54
0.84
-0.09
-3.84
1.51
-1.8
-1.33
-0.11
0.8
1.1

> <PUBCHEM_SHAPE_SELFOVERLAP>
916.908

> <PUBCHEM_SHAPE_VOLUME>
252.3

> <PUBCHEM_COORDINATE_TYPE>
2
5
10

> <Energy>
40.5071

> <minimizedAffinity>
28.00794

> <CNNscore>
0.1234217733

> <CNNaffinity>
4.4847102165

> <CNN_VS>
0.5535109043

> <CNNaffinity_variance>
0.2551377118

$$$$
