448537


 22 23  0  0  0  0  0  0  0  0999 V2000
   -5.9209   -6.0830   20.7362 C   0  0  0  0  0  0  0  0  0  0  0  0
   -5.1686   -4.9559   20.6776 C   0  0  0  0  0  0  0  0  0  0  0  0
  -11.5136   -5.7416   21.2711 O   0  0  0  0  0  0  0  0  0  0  0  0
   -7.3901   -6.0007   20.8647 C   0  0  0  0  0  0  0  0  0  0  0  0
   -8.1937   -5.8915   19.7218 C   0  0  0  0  0  0  0  0  0  0  0  0
   -7.9915   -6.0241   22.1295 C   0  0  0  0  0  0  0  0  0  0  0  0
   -9.5829   -5.8029   19.8424 C   0  0  0  0  0  0  0  0  0  0  0  0
   -9.3795   -5.9361   22.2493 C   0  0  0  0  0  0  0  0  0  0  0  0
  -10.1623   -5.8263   21.1068 C   0  0  0  0  0  0  0  0  0  0  0  0
  -12.0726   -5.6666   20.5229 H   0  0  0  0  0  0  0  0  0  0  0  0
    0.4335   -5.2318   20.2058 O   0  0  0  0  0  0  0  0  0  0  0  0
   -3.6993   -5.0375   20.5465 C   0  0  0  0  0  0  0  0  0  0  0  0
   -2.8862   -5.0727   21.6864 C   0  0  0  0  0  0  0  0  0  0  0  0
   -3.1072   -5.0705   19.2771 C   0  0  0  0  0  0  0  0  0  0  0  0
   -1.4981   -5.1380   21.5551 C   0  0  0  0  0  0  0  0  0  0  0  0
   -1.7196   -5.1367   19.1458 C   0  0  0  0  0  0  0  0  0  0  0  0
   -0.9263   -5.1692   20.2883 C   0  0  0  0  0  0  0  0  0  0  0  0
    0.9498   -5.2529   20.9873 H   0  0  0  0  0  0  0  0  0  0  0  0
   -5.3937   -7.5037   20.6387 C   0  0  0  0  0  0  0  0  0  0  0  0
   -6.4747   -8.5574   20.8421 C   0  0  0  0  0  0  0  0  0  0  0  0
   -5.7031   -3.5349   20.6959 C   0  0  0  0  0  0  0  0  0  0  0  0
   -5.8403   -2.9677   22.1028 C   0  0  0  0  0  0  0  0  0  0  0  0
  3  9  1  0
  3 10  1  0
 11 17  1  0
 11 18  1  0
  1  2  2  0
  1 19  1  0
  1  4  1  0
  2 21  1  0
  2 12  1  0
 19 20  1  0
 21 22  1  0
  4  5  2  0
  4  6  1  0
 12 13  2  0
 12 14  1  0
  5  7  1  0
 13 15  1  0
  6  8  2  0
 14 16  2  0
  7  9  2  0
 15 17  2  0
  8  9  1  0
 16 17  1  0
M  END
> <PUBCHEM_COMPOUND_CID>
448537

> <PUBCHEM_CONFORMER_RMSD>
0.6

> <PUBCHEM_CONFORMER_DIVERSEORDER>
1
3
2

> <PUBCHEM_MMFF94_PARTIAL_CHARGES>
28
1 -0.53
11 -0.15
12 -0.15
13 -0.15
14 -0.15
15 -0.15
16 -0.15
17 -0.15
18 -0.15
19 0.08
2 -0.53
20 0.08
3 -0.17
31 0.15
32 0.15
33 0.15
34 0.15
35 0.15
36 0.15
37 0.15
38 0.15
39 0.45
4 -0.17
40 0.45
5 0.14
6 0.14
7 0.03
8 0.03

> <PUBCHEM_EFFECTIVE_ROTOR_COUNT>
4

> <PUBCHEM_PHARMACOPHORE_FEATURES>
6
1 1 donor
1 10 hydrophobe
1 2 donor
1 9 hydrophobe
6 7 11 13 15 17 19 rings
6 8 12 14 16 18 20 rings

> <PUBCHEM_HEAVY_ATOM_COUNT>
20

> <PUBCHEM_ATOM_DEF_STEREO_COUNT>
0

> <PUBCHEM_ATOM_UDEF_STEREO_COUNT>
0

> <PUBCHEM_BOND_DEF_STEREO_COUNT>
1

> <PUBCHEM_BOND_UDEF_STEREO_COUNT>
0

> <PUBCHEM_ISOTOPIC_ATOM_COUNT>
0

> <PUBCHEM_COMPONENT_COUNT>
1

> <PUBCHEM_CACTVS_TAUTO_COUNT>
3

> <PUBCHEM_CONFORMER_ID>
0006D81900000001

> <PUBCHEM_MMFF94_ENERGY>
60.231

> <PUBCHEM_FEATURE_SELFOVERLAP>
30.447

> <PUBCHEM_SHAPE_FINGERPRINT>
10366900 7 18186514428534874893
104564 63 18339924792832442081
10906281 52 18129397028286092948
11646440 116 18130798871235594657
12592029 89 16950278473467191938
12788726 201 18270697410649816016
13140716 1 18266458895859843337
13533116 47 18340201896197096762
13760787 19 16660644076447957075
14115302 16 18186806919849492430
14341114 176 15647057049052281551
15099037 51 18335139812416525942
15848700 24 18202843262111810220
15848702 151 16988848262958300981
16752209 62 18335696105492573576
16945 1 18410855473013063775
1813 80 18272378572207267076
18186145 218 18338228362096015613
187816 3 18410857663704853992
19141452 34 17131829889222033293
19784866 9 18113613452605694563
200 152 16950282905968490344
20028762 73 18055641861278493167
20600515 1 18340218469921978116
20645477 70 16009301016701038466
21285901 2 17917162606291067244
23175994 123 18333735723499757565
23402539 116 17988639696664490244
23493267 7 17313098635762053785
23557571 272 17489592229515708168
23559900 14 15554438621982335170
266924 87 18194116322357846868
347723 3 18410856551049855057
34934 24 18129105515976021729
3545911 37 15719391732852524422
4072396 5 18261662693185545291
4214541 1 15791727494979709055
465052 167 17240208741576471315
474 4 17917140731779840409
59755656 215 18270402685366324510
633830 44 18342455975941661781
69090 78 17060620005479420895
7226269 152 18410853270196137312
7495541 125 17531535390133293585
77779 3 15719110262139125926
81228 2 18128838385973970688
8272917 22 16660357039657468298
9971528 1 17775283884826915592

> <PUBCHEM_SHAPE_MULTIPOLES>
399.85
10.42
1.74
1.37
0
0
0.06
0
1.28
0
-0.74
0
0
-0.06

> <PUBCHEM_SHAPE_SELFOVERLAP>
850.96

> <PUBCHEM_SHAPE_VOLUME>
224.1

> <PUBCHEM_COORDINATE_TYPE>
2
5
10

> <Energy>
28.3223

> <minimizedAffinity>
-9.33713

> <CNNscore>
0.9595931768

> <CNNaffinity>
8.2757902145

> <CNN_VS>
7.9413919449

> <CNNaffinity_variance>
0.9451975226

$$$$
448537


 22 23  0  0  0  0  0  0  0  0999 V2000
   -5.1773   -4.9634   20.6954 C   0  0  0  0  0  0  0  0  0  0  0  0
   -5.9281   -6.0910   20.7640 C   0  0  0  0  0  0  0  0  0  0  0  0
    0.4205   -5.2437   20.1790 O   0  0  0  0  0  0  0  0  0  0  0  0
   -3.7077   -5.0448   20.5715 C   0  0  0  0  0  0  0  0  0  0  0  0
   -2.9028   -5.0697   21.7184 C   0  0  0  0  0  0  0  0  0  0  0  0
   -3.1064   -5.0907   19.3073 C   0  0  0  0  0  0  0  0  0  0  0  0
   -1.5120   -5.1360   21.6025 C   0  0  0  0  0  0  0  0  0  0  0  0
   -1.7168   -5.1575   19.1922 C   0  0  0  0  0  0  0  0  0  0  0  0
   -0.9325   -5.1795   20.3387 C   0  0  0  0  0  0  0  0  0  0  0  0
    0.9805   -5.2603   20.9299 H   0  0  0  0  0  0  0  0  0  0  0  0
  -11.5293   -5.7478   21.1999 O   0  0  0  0  0  0  0  0  0  0  0  0
   -7.3983   -6.0103   20.8854 C   0  0  0  0  0  0  0  0  0  0  0  0
   -8.2005   -5.9164   19.7411 C   0  0  0  0  0  0  0  0  0  0  0  0
   -8.0010   -6.0175   22.1501 C   0  0  0  0  0  0  0  0  0  0  0  0
   -9.5882   -5.8289   19.8636 C   0  0  0  0  0  0  0  0  0  0  0  0
   -9.3883   -5.9309   22.2726 C   0  0  0  0  0  0  0  0  0  0  0  0
  -10.1705   -5.8364   21.1259 C   0  0  0  0  0  0  0  0  0  0  0  0
  -12.0382   -5.6850   20.4157 H   0  0  0  0  0  0  0  0  0  0  0  0
   -5.7141   -3.5430   20.6917 C   0  0  0  0  0  0  0  0  0  0  0  0
   -5.8311   -2.9448   22.0876 C   0  0  0  0  0  0  0  0  0  0  0  0
   -5.3976   -7.5116   20.6884 C   0  0  0  0  0  0  0  0  0  0  0  0
   -6.4872   -8.5640   20.8484 C   0  0  0  0  0  0  0  0  0  0  0  0
  3  9  1  0
  3 10  1  0
 11 17  1  0
 11 18  1  0
  1  2  2  0
  1 19  1  0
  1  4  1  0
  2 21  1  0
  2 12  1  0
 19 20  1  0
 21 22  1  0
  4  5  2  0
  4  6  1  0
 12 13  2  0
 12 14  1  0
  5  7  1  0
 13 15  1  0
  6  8  2  0
 14 16  2  0
  7  9  2  0
 15 17  2  0
  8  9  1  0
 16 17  1  0
M  END
> <PUBCHEM_COMPOUND_CID>
448537

> <PUBCHEM_CONFORMER_RMSD>
0.6

> <PUBCHEM_CONFORMER_DIVERSEORDER>
1
3
2

> <PUBCHEM_MMFF94_PARTIAL_CHARGES>
28
1 -0.53
11 -0.15
12 -0.15
13 -0.15
14 -0.15
15 -0.15
16 -0.15
17 -0.15
18 -0.15
19 0.08
2 -0.53
20 0.08
3 -0.17
31 0.15
32 0.15
33 0.15
34 0.15
35 0.15
36 0.15
37 0.15
38 0.15
39 0.45
4 -0.17
40 0.45
5 0.14
6 0.14
7 0.03
8 0.03

> <PUBCHEM_EFFECTIVE_ROTOR_COUNT>
4

> <PUBCHEM_PHARMACOPHORE_FEATURES>
6
1 1 donor
1 10 hydrophobe
1 2 donor
1 9 hydrophobe
6 7 11 13 15 17 19 rings
6 8 12 14 16 18 20 rings

> <PUBCHEM_HEAVY_ATOM_COUNT>
20

> <PUBCHEM_ATOM_DEF_STEREO_COUNT>
0

> <PUBCHEM_ATOM_UDEF_STEREO_COUNT>
0

> <PUBCHEM_BOND_DEF_STEREO_COUNT>
1

> <PUBCHEM_BOND_UDEF_STEREO_COUNT>
0

> <PUBCHEM_ISOTOPIC_ATOM_COUNT>
0

> <PUBCHEM_COMPONENT_COUNT>
1

> <PUBCHEM_CACTVS_TAUTO_COUNT>
3

> <PUBCHEM_CONFORMER_ID>
0006D81900000001

> <PUBCHEM_MMFF94_ENERGY>
60.231

> <PUBCHEM_FEATURE_SELFOVERLAP>
30.447

> <PUBCHEM_SHAPE_FINGERPRINT>
10366900 7 18186514428534874893
104564 63 18339924792832442081
10906281 52 18129397028286092948
11646440 116 18130798871235594657
12592029 89 16950278473467191938
12788726 201 18270697410649816016
13140716 1 18266458895859843337
13533116 47 18340201896197096762
13760787 19 16660644076447957075
14115302 16 18186806919849492430
14341114 176 15647057049052281551
15099037 51 18335139812416525942
15848700 24 18202843262111810220
15848702 151 16988848262958300981
16752209 62 18335696105492573576
16945 1 18410855473013063775
1813 80 18272378572207267076
18186145 218 18338228362096015613
187816 3 18410857663704853992
19141452 34 17131829889222033293
19784866 9 18113613452605694563
200 152 16950282905968490344
20028762 73 18055641861278493167
20600515 1 18340218469921978116
20645477 70 16009301016701038466
21285901 2 17917162606291067244
23175994 123 18333735723499757565
23402539 116 17988639696664490244
23493267 7 17313098635762053785
23557571 272 17489592229515708168
23559900 14 15554438621982335170
266924 87 18194116322357846868
347723 3 18410856551049855057
34934 24 18129105515976021729
3545911 37 15719391732852524422
4072396 5 18261662693185545291
4214541 1 15791727494979709055
465052 167 17240208741576471315
474 4 17917140731779840409
59755656 215 18270402685366324510
633830 44 18342455975941661781
69090 78 17060620005479420895
7226269 152 18410853270196137312
7495541 125 17531535390133293585
77779 3 15719110262139125926
81228 2 18128838385973970688
8272917 22 16660357039657468298
9971528 1 17775283884826915592

> <PUBCHEM_SHAPE_MULTIPOLES>
399.85
10.42
1.74
1.37
0
0
0.06
0
1.28
0
-0.74
0
0
-0.06

> <PUBCHEM_SHAPE_SELFOVERLAP>
850.96

> <PUBCHEM_SHAPE_VOLUME>
224.1

> <PUBCHEM_COORDINATE_TYPE>
2
5
10

> <Energy>
28.3223

> <minimizedAffinity>
-9.36867

> <CNNscore>
0.9587514997

> <CNNaffinity>
8.2831954956

> <CNN_VS>
7.9415259361

> <CNNaffinity_variance>
0.9710112214

$$$$
448537


 22 23  0  0  0  0  0  0  0  0999 V2000
   -5.2355   -5.7452   20.3889 C   0  0  0  0  0  0  0  0  0  0  0  0
   -6.1207   -4.7510   20.6491 C   0  0  0  0  0  0  0  0  0  0  0  0
    0.2311   -4.5814   19.7235 O   0  0  0  0  0  0  0  0  0  0  0  0
   -3.7979   -5.4482   20.2250 C   0  0  0  0  0  0  0  0  0  0  0  0
   -2.9602   -5.3734   21.3460 C   0  0  0  0  0  0  0  0  0  0  0  0
   -3.2616   -5.2322   18.9492 C   0  0  0  0  0  0  0  0  0  0  0  0
   -1.6023   -5.0821   21.1934 C   0  0  0  0  0  0  0  0  0  0  0  0
   -1.9047   -4.9417   18.7974 C   0  0  0  0  0  0  0  0  0  0  0  0
   -1.0878   -4.8692   19.9187 C   0  0  0  0  0  0  0  0  0  0  0  0
    0.8116   -4.5245   20.4567 H   0  0  0  0  0  0  0  0  0  0  0  0
  -11.6077   -5.8528   21.2505 O   0  0  0  0  0  0  0  0  0  0  0  0
   -7.5585   -5.0476   20.8157 C   0  0  0  0  0  0  0  0  0  0  0  0
   -8.3401   -5.4121   19.7121 C   0  0  0  0  0  0  0  0  0  0  0  0
   -8.1534   -4.9566   22.0808 C   0  0  0  0  0  0  0  0  0  0  0  0
   -9.7004   -5.6797   19.8748 C   0  0  0  0  0  0  0  0  0  0  0  0
   -9.5130   -5.2250   22.2437 C   0  0  0  0  0  0  0  0  0  0  0  0
  -10.2756   -5.5840   21.1367 C   0  0  0  0  0  0  0  0  0  0  0  0
  -12.1036   -6.0930   20.4927 H   0  0  0  0  0  0  0  0  0  0  0  0
   -5.5717   -7.2220   20.2802 C   0  0  0  0  0  0  0  0  0  0  0  0
   -6.3900   -7.7367   21.4573 C   0  0  0  0  0  0  0  0  0  0  0  0
   -5.7731   -3.2849   20.8358 C   0  0  0  0  0  0  0  0  0  0  0  0
   -5.6152   -2.8913   22.2988 C   0  0  0  0  0  0  0  0  0  0  0  0
  3  9  1  0
  3 10  1  0
 11 17  1  0
 11 18  1  0
  1  2  2  0
  1 19  1  0
  1  4  1  0
  2 21  1  0
  2 12  1  0
 19 20  1  0
 21 22  1  0
  4  5  2  0
  4  6  1  0
 12 13  2  0
 12 14  1  0
  5  7  1  0
 13 15  1  0
  6  8  2  0
 14 16  2  0
  7  9  2  0
 15 17  2  0
  8  9  1  0
 16 17  1  0
M  END
> <PUBCHEM_COMPOUND_CID>
448537

> <PUBCHEM_CONFORMER_RMSD>
0.6

> <PUBCHEM_CONFORMER_DIVERSEORDER>
1
3
2

> <PUBCHEM_MMFF94_PARTIAL_CHARGES>
28
1 -0.53
11 -0.15
12 -0.15
13 -0.15
14 -0.15
15 -0.15
16 -0.15
17 -0.15
18 -0.15
19 0.08
2 -0.53
20 0.08
3 -0.17
31 0.15
32 0.15
33 0.15
34 0.15
35 0.15
36 0.15
37 0.15
38 0.15
39 0.45
4 -0.17
40 0.45
5 0.14
6 0.14
7 0.03
8 0.03

> <PUBCHEM_EFFECTIVE_ROTOR_COUNT>
4

> <PUBCHEM_PHARMACOPHORE_FEATURES>
6
1 1 donor
1 10 hydrophobe
1 2 donor
1 9 hydrophobe
6 7 11 13 15 17 19 rings
6 8 12 14 16 18 20 rings

> <PUBCHEM_HEAVY_ATOM_COUNT>
20

> <PUBCHEM_ATOM_DEF_STEREO_COUNT>
0

> <PUBCHEM_ATOM_UDEF_STEREO_COUNT>
0

> <PUBCHEM_BOND_DEF_STEREO_COUNT>
1

> <PUBCHEM_BOND_UDEF_STEREO_COUNT>
0

> <PUBCHEM_ISOTOPIC_ATOM_COUNT>
0

> <PUBCHEM_COMPONENT_COUNT>
1

> <PUBCHEM_CACTVS_TAUTO_COUNT>
3

> <PUBCHEM_CONFORMER_ID>
0006D81900000001

> <PUBCHEM_MMFF94_ENERGY>
60.231

> <PUBCHEM_FEATURE_SELFOVERLAP>
30.447

> <PUBCHEM_SHAPE_FINGERPRINT>
10366900 7 18186514428534874893
104564 63 18339924792832442081
10906281 52 18129397028286092948
11646440 116 18130798871235594657
12592029 89 16950278473467191938
12788726 201 18270697410649816016
13140716 1 18266458895859843337
13533116 47 18340201896197096762
13760787 19 16660644076447957075
14115302 16 18186806919849492430
14341114 176 15647057049052281551
15099037 51 18335139812416525942
15848700 24 18202843262111810220
15848702 151 16988848262958300981
16752209 62 18335696105492573576
16945 1 18410855473013063775
1813 80 18272378572207267076
18186145 218 18338228362096015613
187816 3 18410857663704853992
19141452 34 17131829889222033293
19784866 9 18113613452605694563
200 152 16950282905968490344
20028762 73 18055641861278493167
20600515 1 18340218469921978116
20645477 70 16009301016701038466
21285901 2 17917162606291067244
23175994 123 18333735723499757565
23402539 116 17988639696664490244
23493267 7 17313098635762053785
23557571 272 17489592229515708168
23559900 14 15554438621982335170
266924 87 18194116322357846868
347723 3 18410856551049855057
34934 24 18129105515976021729
3545911 37 15719391732852524422
4072396 5 18261662693185545291
4214541 1 15791727494979709055
465052 167 17240208741576471315
474 4 17917140731779840409
59755656 215 18270402685366324510
633830 44 18342455975941661781
69090 78 17060620005479420895
7226269 152 18410853270196137312
7495541 125 17531535390133293585
77779 3 15719110262139125926
81228 2 18128838385973970688
8272917 22 16660357039657468298
9971528 1 17775283884826915592

> <PUBCHEM_SHAPE_MULTIPOLES>
399.85
10.42
1.74
1.37
0
0
0.06
0
1.28
0
-0.74
0
0
-0.06

> <PUBCHEM_SHAPE_SELFOVERLAP>
850.96

> <PUBCHEM_SHAPE_VOLUME>
224.1

> <PUBCHEM_COORDINATE_TYPE>
2
5
10

> <Energy>
28.3223

> <minimizedAffinity>
-8.37619

> <CNNscore>
0.9467463493

> <CNNaffinity>
8.0214939117

> <CNN_VS>
7.5943202972

> <CNNaffinity_variance>
0.6605446935

$$$$
448537


 22 23  0  0  0  0  0  0  0  0999 V2000
   -6.0336   -4.7379   20.6191 C   0  0  0  0  0  0  0  0  0  0  0  0
   -5.1526   -5.7384   20.3688 C   0  0  0  0  0  0  0  0  0  0  0  0
  -11.5532   -5.7647   21.0207 O   0  0  0  0  0  0  0  0  0  0  0  0
   -7.4810   -5.0167   20.7142 C   0  0  0  0  0  0  0  0  0  0  0  0
   -8.2189   -5.3191   19.5618 C   0  0  0  0  0  0  0  0  0  0  0  0
   -8.1291   -4.9744   21.9552 C   0  0  0  0  0  0  0  0  0  0  0  0
   -9.5901   -5.5727   19.6488 C   0  0  0  0  0  0  0  0  0  0  0  0
   -9.4990   -5.2283   22.0415 C   0  0  0  0  0  0  0  0  0  0  0  0
  -10.2169   -5.5248   20.8897 C   0  0  0  0  0  0  0  0  0  0  0  0
  -12.0689   -5.9679   20.2653 H   0  0  0  0  0  0  0  0  0  0  0  0
    0.3605   -4.6496   20.0483 O   0  0  0  0  0  0  0  0  0  0  0  0
   -3.7045   -5.4606   20.2762 C   0  0  0  0  0  0  0  0  0  0  0  0
   -2.9054   -5.4698   21.4265 C   0  0  0  0  0  0  0  0  0  0  0  0
   -3.1210   -5.1758   19.0347 C   0  0  0  0  0  0  0  0  0  0  0  0
   -1.5400   -5.1951   21.3332 C   0  0  0  0  0  0  0  0  0  0  0  0
   -1.7559   -4.9021   18.9413 C   0  0  0  0  0  0  0  0  0  0  0  0
   -0.9767   -4.9135   20.0938 C   0  0  0  0  0  0  0  0  0  0  0  0
    0.8677   -4.6624   20.8359 H   0  0  0  0  0  0  0  0  0  0  0  0
   -5.6729   -3.2838   20.8666 C   0  0  0  0  0  0  0  0  0  0  0  0
   -5.6652   -2.9132   22.3440 C   0  0  0  0  0  0  0  0  0  0  0  0
   -5.5061   -7.2052   20.1997 C   0  0  0  0  0  0  0  0  0  0  0  0
   -6.4150   -7.7304   21.3033 C   0  0  0  0  0  0  0  0  0  0  0  0
  3  9  1  0
  3 10  1  0
 11 17  1  0
 11 18  1  0
  1  2  2  0
  1 19  1  0
  1  4  1  0
  2 21  1  0
  2 12  1  0
 19 20  1  0
 21 22  1  0
  4  5  2  0
  4  6  1  0
 12 13  2  0
 12 14  1  0
  5  7  1  0
 13 15  1  0
  6  8  2  0
 14 16  2  0
  7  9  2  0
 15 17  2  0
  8  9  1  0
 16 17  1  0
M  END
> <PUBCHEM_COMPOUND_CID>
448537

> <PUBCHEM_CONFORMER_RMSD>
0.6

> <PUBCHEM_CONFORMER_DIVERSEORDER>
1
3
2

> <PUBCHEM_MMFF94_PARTIAL_CHARGES>
28
1 -0.53
11 -0.15
12 -0.15
13 -0.15
14 -0.15
15 -0.15
16 -0.15
17 -0.15
18 -0.15
19 0.08
2 -0.53
20 0.08
3 -0.17
31 0.15
32 0.15
33 0.15
34 0.15
35 0.15
36 0.15
37 0.15
38 0.15
39 0.45
4 -0.17
40 0.45
5 0.14
6 0.14
7 0.03
8 0.03

> <PUBCHEM_EFFECTIVE_ROTOR_COUNT>
4

> <PUBCHEM_PHARMACOPHORE_FEATURES>
6
1 1 donor
1 10 hydrophobe
1 2 donor
1 9 hydrophobe
6 7 11 13 15 17 19 rings
6 8 12 14 16 18 20 rings

> <PUBCHEM_HEAVY_ATOM_COUNT>
20

> <PUBCHEM_ATOM_DEF_STEREO_COUNT>
0

> <PUBCHEM_ATOM_UDEF_STEREO_COUNT>
0

> <PUBCHEM_BOND_DEF_STEREO_COUNT>
1

> <PUBCHEM_BOND_UDEF_STEREO_COUNT>
0

> <PUBCHEM_ISOTOPIC_ATOM_COUNT>
0

> <PUBCHEM_COMPONENT_COUNT>
1

> <PUBCHEM_CACTVS_TAUTO_COUNT>
3

> <PUBCHEM_CONFORMER_ID>
0006D81900000001

> <PUBCHEM_MMFF94_ENERGY>
60.231

> <PUBCHEM_FEATURE_SELFOVERLAP>
30.447

> <PUBCHEM_SHAPE_FINGERPRINT>
10366900 7 18186514428534874893
104564 63 18339924792832442081
10906281 52 18129397028286092948
11646440 116 18130798871235594657
12592029 89 16950278473467191938
12788726 201 18270697410649816016
13140716 1 18266458895859843337
13533116 47 18340201896197096762
13760787 19 16660644076447957075
14115302 16 18186806919849492430
14341114 176 15647057049052281551
15099037 51 18335139812416525942
15848700 24 18202843262111810220
15848702 151 16988848262958300981
16752209 62 18335696105492573576
16945 1 18410855473013063775
1813 80 18272378572207267076
18186145 218 18338228362096015613
187816 3 18410857663704853992
19141452 34 17131829889222033293
19784866 9 18113613452605694563
200 152 16950282905968490344
20028762 73 18055641861278493167
20600515 1 18340218469921978116
20645477 70 16009301016701038466
21285901 2 17917162606291067244
23175994 123 18333735723499757565
23402539 116 17988639696664490244
23493267 7 17313098635762053785
23557571 272 17489592229515708168
23559900 14 15554438621982335170
266924 87 18194116322357846868
347723 3 18410856551049855057
34934 24 18129105515976021729
3545911 37 15719391732852524422
4072396 5 18261662693185545291
4214541 1 15791727494979709055
465052 167 17240208741576471315
474 4 17917140731779840409
59755656 215 18270402685366324510
633830 44 18342455975941661781
69090 78 17060620005479420895
7226269 152 18410853270196137312
7495541 125 17531535390133293585
77779 3 15719110262139125926
81228 2 18128838385973970688
8272917 22 16660357039657468298
9971528 1 17775283884826915592

> <PUBCHEM_SHAPE_MULTIPOLES>
399.85
10.42
1.74
1.37
0
0
0.06
0
1.28
0
-0.74
0
0
-0.06

> <PUBCHEM_SHAPE_SELFOVERLAP>
850.96

> <PUBCHEM_SHAPE_VOLUME>
224.1

> <PUBCHEM_COORDINATE_TYPE>
2
5
10

> <Energy>
28.3223

> <minimizedAffinity>
-8.42395

> <CNNscore>
0.9382054210

> <CNNaffinity>
8.0191249847

> <CNN_VS>
7.5235867500

> <CNNaffinity_variance>
0.6685986519

$$$$
448537


 22 23  0  0  0  0  0  0  0  0999 V2000
   -5.1879   -5.9322   20.6403 C   0  0  0  0  0  0  0  0  0  0  0  0
   -6.0544   -4.9037   20.8176 C   0  0  0  0  0  0  0  0  0  0  0  0
    0.3444   -5.0017   20.1833 O   0  0  0  0  0  0  0  0  0  0  0  0
   -3.7384   -5.6801   20.5090 C   0  0  0  0  0  0  0  0  0  0  0  0
   -3.1545   -5.5615   19.2406 C   0  0  0  0  0  0  0  0  0  0  0  0
   -2.9348   -5.5646   21.6504 C   0  0  0  0  0  0  0  0  0  0  0  0
   -1.7818   -5.3336   19.1148 C   0  0  0  0  0  0  0  0  0  0  0  0
   -1.5634   -5.3364   21.5240 C   0  0  0  0  0  0  0  0  0  0  0  0
   -0.9993   -5.2231   20.2595 C   0  0  0  0  0  0  0  0  0  0  0  0
    0.7590   -4.9199   19.3471 H   0  0  0  0  0  0  0  0  0  0  0  0
  -11.5858   -5.8226   21.3088 O   0  0  0  0  0  0  0  0  0  0  0  0
   -7.5041   -5.1553   20.9515 C   0  0  0  0  0  0  0  0  0  0  0  0
   -8.3534   -5.0155   19.8466 C   0  0  0  0  0  0  0  0  0  0  0  0
   -8.0418   -5.5272   22.1907 C   0  0  0  0  0  0  0  0  0  0  0  0
   -9.7237   -5.2434   19.9831 C   0  0  0  0  0  0  0  0  0  0  0  0
   -9.4116   -5.7560   22.3269 C   0  0  0  0  0  0  0  0  0  0  0  0
  -10.2416   -5.6109   21.2198 C   0  0  0  0  0  0  0  0  0  0  0  0
  -12.1275   -5.7198   20.5513 H   0  0  0  0  0  0  0  0  0  0  0  0
   -5.5594   -7.4039   20.5991 C   0  0  0  0  0  0  0  0  0  0  0  0
   -6.6222   -7.7228   19.5556 C   0  0  0  0  0  0  0  0  0  0  0  0
   -5.6742   -3.4388   20.9376 C   0  0  0  0  0  0  0  0  0  0  0  0
   -5.7668   -2.9139   22.3646 C   0  0  0  0  0  0  0  0  0  0  0  0
  3  9  1  0
  3 10  1  0
 11 17  1  0
 11 18  1  0
  1  2  2  0
  1 19  1  0
  1  4  1  0
  2 21  1  0
  2 12  1  0
 19 20  1  0
 21 22  1  0
  4  5  2  0
  4  6  1  0
 12 13  2  0
 12 14  1  0
  5  7  1  0
 13 15  1  0
  6  8  2  0
 14 16  2  0
  7  9  2  0
 15 17  2  0
  8  9  1  0
 16 17  1  0
M  END
> <PUBCHEM_COMPOUND_CID>
448537

> <PUBCHEM_CONFORMER_RMSD>
0.6

> <PUBCHEM_CONFORMER_DIVERSEORDER>
1
3
2

> <PUBCHEM_MMFF94_PARTIAL_CHARGES>
28
1 -0.53
11 -0.15
12 -0.15
13 -0.15
14 -0.15
15 -0.15
16 -0.15
17 -0.15
18 -0.15
19 0.08
2 -0.53
20 0.08
3 -0.17
31 0.15
32 0.15
33 0.15
34 0.15
35 0.15
36 0.15
37 0.15
38 0.15
39 0.45
4 -0.17
40 0.45
5 0.14
6 0.14
7 0.03
8 0.03

> <PUBCHEM_EFFECTIVE_ROTOR_COUNT>
4

> <PUBCHEM_PHARMACOPHORE_FEATURES>
6
1 1 donor
1 10 hydrophobe
1 2 donor
1 9 hydrophobe
6 7 11 13 15 17 19 rings
6 8 12 14 16 18 20 rings

> <PUBCHEM_HEAVY_ATOM_COUNT>
20

> <PUBCHEM_ATOM_DEF_STEREO_COUNT>
0

> <PUBCHEM_ATOM_UDEF_STEREO_COUNT>
0

> <PUBCHEM_BOND_DEF_STEREO_COUNT>
1

> <PUBCHEM_BOND_UDEF_STEREO_COUNT>
0

> <PUBCHEM_ISOTOPIC_ATOM_COUNT>
0

> <PUBCHEM_COMPONENT_COUNT>
1

> <PUBCHEM_CACTVS_TAUTO_COUNT>
3

> <PUBCHEM_CONFORMER_ID>
0006D81900000001

> <PUBCHEM_MMFF94_ENERGY>
60.231

> <PUBCHEM_FEATURE_SELFOVERLAP>
30.447

> <PUBCHEM_SHAPE_FINGERPRINT>
10366900 7 18186514428534874893
104564 63 18339924792832442081
10906281 52 18129397028286092948
11646440 116 18130798871235594657
12592029 89 16950278473467191938
12788726 201 18270697410649816016
13140716 1 18266458895859843337
13533116 47 18340201896197096762
13760787 19 16660644076447957075
14115302 16 18186806919849492430
14341114 176 15647057049052281551
15099037 51 18335139812416525942
15848700 24 18202843262111810220
15848702 151 16988848262958300981
16752209 62 18335696105492573576
16945 1 18410855473013063775
1813 80 18272378572207267076
18186145 218 18338228362096015613
187816 3 18410857663704853992
19141452 34 17131829889222033293
19784866 9 18113613452605694563
200 152 16950282905968490344
20028762 73 18055641861278493167
20600515 1 18340218469921978116
20645477 70 16009301016701038466
21285901 2 17917162606291067244
23175994 123 18333735723499757565
23402539 116 17988639696664490244
23493267 7 17313098635762053785
23557571 272 17489592229515708168
23559900 14 15554438621982335170
266924 87 18194116322357846868
347723 3 18410856551049855057
34934 24 18129105515976021729
3545911 37 15719391732852524422
4072396 5 18261662693185545291
4214541 1 15791727494979709055
465052 167 17240208741576471315
474 4 17917140731779840409
59755656 215 18270402685366324510
633830 44 18342455975941661781
69090 78 17060620005479420895
7226269 152 18410853270196137312
7495541 125 17531535390133293585
77779 3 15719110262139125926
81228 2 18128838385973970688
8272917 22 16660357039657468298
9971528 1 17775283884826915592

> <PUBCHEM_SHAPE_MULTIPOLES>
399.85
10.42
1.74
1.37
0
0
0.06
0
1.28
0
-0.74
0
0
-0.06

> <PUBCHEM_SHAPE_SELFOVERLAP>
850.96

> <PUBCHEM_SHAPE_VOLUME>
224.1

> <PUBCHEM_COORDINATE_TYPE>
2
5
10

> <Energy>
28.3223

> <minimizedAffinity>
-8.30162

> <CNNscore>
0.9300041199

> <CNNaffinity>
8.0259160995

> <CNN_VS>
7.4641351700

> <CNNaffinity_variance>
0.7798334956

$$$$
448537


 22 23  0  0  0  0  0  0  0  0999 V2000
   -6.0685   -4.8817   20.8290 C   0  0  0  0  0  0  0  0  0  0  0  0
   -5.1932   -5.9178   20.8096 C   0  0  0  0  0  0  0  0  0  0  0  0
  -11.5837   -5.8284   21.4351 O   0  0  0  0  0  0  0  0  0  0  0  0
   -7.5156   -5.1230   21.0001 C   0  0  0  0  0  0  0  0  0  0  0  0
   -8.0532   -5.3128   22.2803 C   0  0  0  0  0  0  0  0  0  0  0  0
   -8.3611   -5.1711   19.8843 C   0  0  0  0  0  0  0  0  0  0  0  0
   -9.4202   -5.5517   22.4428 C   0  0  0  0  0  0  0  0  0  0  0  0
   -9.7268   -5.4093   20.0474 C   0  0  0  0  0  0  0  0  0  0  0  0
  -10.2442   -5.5973   21.3229 C   0  0  0  0  0  0  0  0  0  0  0  0
  -11.9673   -5.9597   22.2797 H   0  0  0  0  0  0  0  0  0  0  0  0
    0.3271   -5.0402   20.1476 O   0  0  0  0  0  0  0  0  0  0  0  0
   -3.7453   -5.6770   20.6411 C   0  0  0  0  0  0  0  0  0  0  0  0
   -3.1418   -5.8313   19.3866 C   0  0  0  0  0  0  0  0  0  0  0  0
   -2.9623   -5.3010   21.7404 C   0  0  0  0  0  0  0  0  0  0  0  0
   -1.7712   -5.6134   19.2371 C   0  0  0  0  0  0  0  0  0  0  0  0
   -1.5922   -5.0823   21.5907 C   0  0  0  0  0  0  0  0  0  0  0  0
   -1.0081   -5.2416   20.3380 C   0  0  0  0  0  0  0  0  0  0  0  0
    0.7011   -5.1526   19.2959 H   0  0  0  0  0  0  0  0  0  0  0  0
   -5.7008   -3.4119   20.7284 C   0  0  0  0  0  0  0  0  0  0  0  0
   -5.8595   -2.6647   22.0462 C   0  0  0  0  0  0  0  0  0  0  0  0
   -5.5529   -7.3818   20.9893 C   0  0  0  0  0  0  0  0  0  0  0  0
   -6.4855   -7.9040   19.9040 C   0  0  0  0  0  0  0  0  0  0  0  0
  3  9  1  0
  3 10  1  0
 11 17  1  0
 11 18  1  0
  1  2  2  0
  1 19  1  0
  1  4  1  0
  2 21  1  0
  2 12  1  0
 19 20  1  0
 21 22  1  0
  4  5  2  0
  4  6  1  0
 12 13  2  0
 12 14  1  0
  5  7  1  0
 13 15  1  0
  6  8  2  0
 14 16  2  0
  7  9  2  0
 15 17  2  0
  8  9  1  0
 16 17  1  0
M  END
> <PUBCHEM_COMPOUND_CID>
448537

> <PUBCHEM_CONFORMER_RMSD>
0.6

> <PUBCHEM_CONFORMER_DIVERSEORDER>
1
3
2

> <PUBCHEM_MMFF94_PARTIAL_CHARGES>
28
1 -0.53
11 -0.15
12 -0.15
13 -0.15
14 -0.15
15 -0.15
16 -0.15
17 -0.15
18 -0.15
19 0.08
2 -0.53
20 0.08
3 -0.17
31 0.15
32 0.15
33 0.15
34 0.15
35 0.15
36 0.15
37 0.15
38 0.15
39 0.45
4 -0.17
40 0.45
5 0.14
6 0.14
7 0.03
8 0.03

> <PUBCHEM_EFFECTIVE_ROTOR_COUNT>
4

> <PUBCHEM_PHARMACOPHORE_FEATURES>
6
1 1 donor
1 10 hydrophobe
1 2 donor
1 9 hydrophobe
6 7 11 13 15 17 19 rings
6 8 12 14 16 18 20 rings

> <PUBCHEM_HEAVY_ATOM_COUNT>
20

> <PUBCHEM_ATOM_DEF_STEREO_COUNT>
0

> <PUBCHEM_ATOM_UDEF_STEREO_COUNT>
0

> <PUBCHEM_BOND_DEF_STEREO_COUNT>
1

> <PUBCHEM_BOND_UDEF_STEREO_COUNT>
0

> <PUBCHEM_ISOTOPIC_ATOM_COUNT>
0

> <PUBCHEM_COMPONENT_COUNT>
1

> <PUBCHEM_CACTVS_TAUTO_COUNT>
3

> <PUBCHEM_CONFORMER_ID>
0006D81900000001

> <PUBCHEM_MMFF94_ENERGY>
60.231

> <PUBCHEM_FEATURE_SELFOVERLAP>
30.447

> <PUBCHEM_SHAPE_FINGERPRINT>
10366900 7 18186514428534874893
104564 63 18339924792832442081
10906281 52 18129397028286092948
11646440 116 18130798871235594657
12592029 89 16950278473467191938
12788726 201 18270697410649816016
13140716 1 18266458895859843337
13533116 47 18340201896197096762
13760787 19 16660644076447957075
14115302 16 18186806919849492430
14341114 176 15647057049052281551
15099037 51 18335139812416525942
15848700 24 18202843262111810220
15848702 151 16988848262958300981
16752209 62 18335696105492573576
16945 1 18410855473013063775
1813 80 18272378572207267076
18186145 218 18338228362096015613
187816 3 18410857663704853992
19141452 34 17131829889222033293
19784866 9 18113613452605694563
200 152 16950282905968490344
20028762 73 18055641861278493167
20600515 1 18340218469921978116
20645477 70 16009301016701038466
21285901 2 17917162606291067244
23175994 123 18333735723499757565
23402539 116 17988639696664490244
23493267 7 17313098635762053785
23557571 272 17489592229515708168
23559900 14 15554438621982335170
266924 87 18194116322357846868
347723 3 18410856551049855057
34934 24 18129105515976021729
3545911 37 15719391732852524422
4072396 5 18261662693185545291
4214541 1 15791727494979709055
465052 167 17240208741576471315
474 4 17917140731779840409
59755656 215 18270402685366324510
633830 44 18342455975941661781
69090 78 17060620005479420895
7226269 152 18410853270196137312
7495541 125 17531535390133293585
77779 3 15719110262139125926
81228 2 18128838385973970688
8272917 22 16660357039657468298
9971528 1 17775283884826915592

> <PUBCHEM_SHAPE_MULTIPOLES>
399.85
10.42
1.74
1.37
0
0
0.06
0
1.28
0
-0.74
0
0
-0.06

> <PUBCHEM_SHAPE_SELFOVERLAP>
850.96

> <PUBCHEM_SHAPE_VOLUME>
224.1

> <PUBCHEM_COORDINATE_TYPE>
2
5
10

> <Energy>
28.3223

> <minimizedAffinity>
-8.37599

> <CNNscore>
0.9258567691

> <CNNaffinity>
8.0123577118

> <CNN_VS>
7.4182958603

> <CNNaffinity_variance>
0.7333996892

$$$$
448537


 22 23  0  0  0  0  0  0  0  0999 V2000
   -6.0661   -4.8444   20.8356 C   0  0  0  0  0  0  0  0  0  0  0  0
   -5.1754   -5.8673   20.8374 C   0  0  0  0  0  0  0  0  0  0  0  0
  -11.5777   -5.8087   21.4463 O   0  0  0  0  0  0  0  0  0  0  0  0
   -7.5121   -5.1061   20.9849 C   0  0  0  0  0  0  0  0  0  0  0  0
   -8.3107   -5.3236   19.8540 C   0  0  0  0  0  0  0  0  0  0  0  0
   -8.0981   -5.1322   22.2569 C   0  0  0  0  0  0  0  0  0  0  0  0
   -9.6806   -5.5608   19.9931 C   0  0  0  0  0  0  0  0  0  0  0  0
   -9.4667   -5.3698   22.3952 C   0  0  0  0  0  0  0  0  0  0  0  0
  -10.2452   -5.5817   21.2642 C   0  0  0  0  0  0  0  0  0  0  0  0
  -12.1333   -5.9557   20.7064 H   0  0  0  0  0  0  0  0  0  0  0  0
    0.3406   -4.9097   20.2551 O   0  0  0  0  0  0  0  0  0  0  0  0
   -3.7286   -5.6060   20.6906 C   0  0  0  0  0  0  0  0  0  0  0  0
   -3.1233   -5.6555   19.4285 C   0  0  0  0  0  0  0  0  0  0  0  0
   -2.9486   -5.3155   21.8176 C   0  0  0  0  0  0  0  0  0  0  0  0
   -1.7537   -5.4190   19.2987 C   0  0  0  0  0  0  0  0  0  0  0  0
   -1.5796   -5.0782   21.6877 C   0  0  0  0  0  0  0  0  0  0  0  0
   -0.9936   -5.1330   20.4270 C   0  0  0  0  0  0  0  0  0  0  0  0
    0.7160   -4.9512   19.3976 H   0  0  0  0  0  0  0  0  0  0  0  0
   -5.7187   -3.3699   20.7308 C   0  0  0  0  0  0  0  0  0  0  0  0
   -5.7000   -2.6631   22.0800 C   0  0  0  0  0  0  0  0  0  0  0  0
   -5.5161   -7.3353   21.0212 C   0  0  0  0  0  0  0  0  0  0  0  0
   -6.5435   -7.8392   20.0158 C   0  0  0  0  0  0  0  0  0  0  0  0
  3  9  1  0
  3 10  1  0
 11 17  1  0
 11 18  1  0
  1  2  2  0
  1 19  1  0
  1  4  1  0
  2 21  1  0
  2 12  1  0
 19 20  1  0
 21 22  1  0
  4  5  2  0
  4  6  1  0
 12 13  2  0
 12 14  1  0
  5  7  1  0
 13 15  1  0
  6  8  2  0
 14 16  2  0
  7  9  2  0
 15 17  2  0
  8  9  1  0
 16 17  1  0
M  END
> <PUBCHEM_COMPOUND_CID>
448537

> <PUBCHEM_CONFORMER_RMSD>
0.6

> <PUBCHEM_CONFORMER_DIVERSEORDER>
1
3
2

> <PUBCHEM_MMFF94_PARTIAL_CHARGES>
28
1 -0.53
11 -0.15
12 -0.15
13 -0.15
14 -0.15
15 -0.15
16 -0.15
17 -0.15
18 -0.15
19 0.08
2 -0.53
20 0.08
3 -0.17
31 0.15
32 0.15
33 0.15
34 0.15
35 0.15
36 0.15
37 0.15
38 0.15
39 0.45
4 -0.17
40 0.45
5 0.14
6 0.14
7 0.03
8 0.03

> <PUBCHEM_EFFECTIVE_ROTOR_COUNT>
4

> <PUBCHEM_PHARMACOPHORE_FEATURES>
6
1 1 donor
1 10 hydrophobe
1 2 donor
1 9 hydrophobe
6 7 11 13 15 17 19 rings
6 8 12 14 16 18 20 rings

> <PUBCHEM_HEAVY_ATOM_COUNT>
20

> <PUBCHEM_ATOM_DEF_STEREO_COUNT>
0

> <PUBCHEM_ATOM_UDEF_STEREO_COUNT>
0

> <PUBCHEM_BOND_DEF_STEREO_COUNT>
1

> <PUBCHEM_BOND_UDEF_STEREO_COUNT>
0

> <PUBCHEM_ISOTOPIC_ATOM_COUNT>
0

> <PUBCHEM_COMPONENT_COUNT>
1

> <PUBCHEM_CACTVS_TAUTO_COUNT>
3

> <PUBCHEM_CONFORMER_ID>
0006D81900000001

> <PUBCHEM_MMFF94_ENERGY>
60.231

> <PUBCHEM_FEATURE_SELFOVERLAP>
30.447

> <PUBCHEM_SHAPE_FINGERPRINT>
10366900 7 18186514428534874893
104564 63 18339924792832442081
10906281 52 18129397028286092948
11646440 116 18130798871235594657
12592029 89 16950278473467191938
12788726 201 18270697410649816016
13140716 1 18266458895859843337
13533116 47 18340201896197096762
13760787 19 16660644076447957075
14115302 16 18186806919849492430
14341114 176 15647057049052281551
15099037 51 18335139812416525942
15848700 24 18202843262111810220
15848702 151 16988848262958300981
16752209 62 18335696105492573576
16945 1 18410855473013063775
1813 80 18272378572207267076
18186145 218 18338228362096015613
187816 3 18410857663704853992
19141452 34 17131829889222033293
19784866 9 18113613452605694563
200 152 16950282905968490344
20028762 73 18055641861278493167
20600515 1 18340218469921978116
20645477 70 16009301016701038466
21285901 2 17917162606291067244
23175994 123 18333735723499757565
23402539 116 17988639696664490244
23493267 7 17313098635762053785
23557571 272 17489592229515708168
23559900 14 15554438621982335170
266924 87 18194116322357846868
347723 3 18410856551049855057
34934 24 18129105515976021729
3545911 37 15719391732852524422
4072396 5 18261662693185545291
4214541 1 15791727494979709055
465052 167 17240208741576471315
474 4 17917140731779840409
59755656 215 18270402685366324510
633830 44 18342455975941661781
69090 78 17060620005479420895
7226269 152 18410853270196137312
7495541 125 17531535390133293585
77779 3 15719110262139125926
81228 2 18128838385973970688
8272917 22 16660357039657468298
9971528 1 17775283884826915592

> <PUBCHEM_SHAPE_MULTIPOLES>
399.85
10.42
1.74
1.37
0
0
0.06
0
1.28
0
-0.74
0
0
-0.06

> <PUBCHEM_SHAPE_SELFOVERLAP>
850.96

> <PUBCHEM_SHAPE_VOLUME>
224.1

> <PUBCHEM_COORDINATE_TYPE>
2
5
10

> <Energy>
28.3223

> <minimizedAffinity>
-8.30478

> <CNNscore>
0.9246690273

> <CNNaffinity>
8.0005378723

> <CNN_VS>
7.3978495598

> <CNNaffinity_variance>
0.7042551041

$$$$
448537


 22 23  0  0  0  0  0  0  0  0999 V2000
   -6.0861   -4.9764   20.8168 C   0  0  0  0  0  0  0  0  0  0  0  0
   -5.2150   -6.0156   20.8495 C   0  0  0  0  0  0  0  0  0  0  0  0
  -11.6128   -5.8733   21.3928 O   0  0  0  0  0  0  0  0  0  0  0  0
   -7.5361   -5.2053   20.9803 C   0  0  0  0  0  0  0  0  0  0  0  0
   -8.0726   -5.4550   22.2507 C   0  0  0  0  0  0  0  0  0  0  0  0
   -8.3856   -5.1816   19.8669 C   0  0  0  0  0  0  0  0  0  0  0  0
   -9.4425   -5.6822   22.4055 C   0  0  0  0  0  0  0  0  0  0  0  0
   -9.7542   -5.4081   20.0223 C   0  0  0  0  0  0  0  0  0  0  0  0
  -10.2704   -5.6562   21.2880 C   0  0  0  0  0  0  0  0  0  0  0  0
  -11.9958   -6.0437   22.2308 H   0  0  0  0  0  0  0  0  0  0  0  0
    0.3081   -5.1060   20.2573 O   0  0  0  0  0  0  0  0  0  0  0  0
   -3.7642   -5.7871   20.6886 C   0  0  0  0  0  0  0  0  0  0  0  0
   -2.9746   -5.4371   21.7911 C   0  0  0  0  0  0  0  0  0  0  0  0
   -3.1687   -5.9100   19.4264 C   0  0  0  0  0  0  0  0  0  0  0  0
   -1.6066   -5.2113   21.6297 C   0  0  0  0  0  0  0  0  0  0  0  0
   -1.8009   -5.6853   19.2651 C   0  0  0  0  0  0  0  0  0  0  0  0
   -1.0312   -5.3366   20.3704 C   0  0  0  0  0  0  0  0  0  0  0  0
    0.8088   -4.8722   21.0140 H   0  0  0  0  0  0  0  0  0  0  0  0
   -5.7112   -3.5132   20.6612 C   0  0  0  0  0  0  0  0  0  0  0  0
   -5.9258   -2.7030   21.9331 C   0  0  0  0  0  0  0  0  0  0  0  0
   -5.5828   -7.4699   21.0839 C   0  0  0  0  0  0  0  0  0  0  0  0
   -6.4137   -8.0640   19.9540 C   0  0  0  0  0  0  0  0  0  0  0  0
  3  9  1  0
  3 10  1  0
 11 17  1  0
 11 18  1  0
  1  2  2  0
  1 19  1  0
  1  4  1  0
  2 21  1  0
  2 12  1  0
 19 20  1  0
 21 22  1  0
  4  5  2  0
  4  6  1  0
 12 13  2  0
 12 14  1  0
  5  7  1  0
 13 15  1  0
  6  8  2  0
 14 16  2  0
  7  9  2  0
 15 17  2  0
  8  9  1  0
 16 17  1  0
M  END
> <PUBCHEM_COMPOUND_CID>
448537

> <PUBCHEM_CONFORMER_RMSD>
0.6

> <PUBCHEM_CONFORMER_DIVERSEORDER>
1
3
2

> <PUBCHEM_MMFF94_PARTIAL_CHARGES>
28
1 -0.53
11 -0.15
12 -0.15
13 -0.15
14 -0.15
15 -0.15
16 -0.15
17 -0.15
18 -0.15
19 0.08
2 -0.53
20 0.08
3 -0.17
31 0.15
32 0.15
33 0.15
34 0.15
35 0.15
36 0.15
37 0.15
38 0.15
39 0.45
4 -0.17
40 0.45
5 0.14
6 0.14
7 0.03
8 0.03

> <PUBCHEM_EFFECTIVE_ROTOR_COUNT>
4

> <PUBCHEM_PHARMACOPHORE_FEATURES>
6
1 1 donor
1 10 hydrophobe
1 2 donor
1 9 hydrophobe
6 7 11 13 15 17 19 rings
6 8 12 14 16 18 20 rings

> <PUBCHEM_HEAVY_ATOM_COUNT>
20

> <PUBCHEM_ATOM_DEF_STEREO_COUNT>
0

> <PUBCHEM_ATOM_UDEF_STEREO_COUNT>
0

> <PUBCHEM_BOND_DEF_STEREO_COUNT>
1

> <PUBCHEM_BOND_UDEF_STEREO_COUNT>
0

> <PUBCHEM_ISOTOPIC_ATOM_COUNT>
0

> <PUBCHEM_COMPONENT_COUNT>
1

> <PUBCHEM_CACTVS_TAUTO_COUNT>
3

> <PUBCHEM_CONFORMER_ID>
0006D81900000001

> <PUBCHEM_MMFF94_ENERGY>
60.231

> <PUBCHEM_FEATURE_SELFOVERLAP>
30.447

> <PUBCHEM_SHAPE_FINGERPRINT>
10366900 7 18186514428534874893
104564 63 18339924792832442081
10906281 52 18129397028286092948
11646440 116 18130798871235594657
12592029 89 16950278473467191938
12788726 201 18270697410649816016
13140716 1 18266458895859843337
13533116 47 18340201896197096762
13760787 19 16660644076447957075
14115302 16 18186806919849492430
14341114 176 15647057049052281551
15099037 51 18335139812416525942
15848700 24 18202843262111810220
15848702 151 16988848262958300981
16752209 62 18335696105492573576
16945 1 18410855473013063775
1813 80 18272378572207267076
18186145 218 18338228362096015613
187816 3 18410857663704853992
19141452 34 17131829889222033293
19784866 9 18113613452605694563
200 152 16950282905968490344
20028762 73 18055641861278493167
20600515 1 18340218469921978116
20645477 70 16009301016701038466
21285901 2 17917162606291067244
23175994 123 18333735723499757565
23402539 116 17988639696664490244
23493267 7 17313098635762053785
23557571 272 17489592229515708168
23559900 14 15554438621982335170
266924 87 18194116322357846868
347723 3 18410856551049855057
34934 24 18129105515976021729
3545911 37 15719391732852524422
4072396 5 18261662693185545291
4214541 1 15791727494979709055
465052 167 17240208741576471315
474 4 17917140731779840409
59755656 215 18270402685366324510
633830 44 18342455975941661781
69090 78 17060620005479420895
7226269 152 18410853270196137312
7495541 125 17531535390133293585
77779 3 15719110262139125926
81228 2 18128838385973970688
8272917 22 16660357039657468298
9971528 1 17775283884826915592

> <PUBCHEM_SHAPE_MULTIPOLES>
399.85
10.42
1.74
1.37
0
0
0.06
0
1.28
0
-0.74
0
0
-0.06

> <PUBCHEM_SHAPE_SELFOVERLAP>
850.96

> <PUBCHEM_SHAPE_VOLUME>
224.1

> <PUBCHEM_COORDINATE_TYPE>
2
5
10

> <Energy>
28.3223

> <minimizedAffinity>
-8.32343

> <CNNscore>
0.9010877609

> <CNNaffinity>
8.0120191574

> <CNN_VS>
7.2195324898

> <CNNaffinity_variance>
0.7689721584

$$$$
448537


 22 23  0  0  0  0  0  0  0  0999 V2000
   -5.6122   -5.3542   20.4953 C   0  0  0  0  0  0  0  0  0  0  0  0
   -4.3931   -5.0344   20.9968 C   0  0  0  0  0  0  0  0  0  0  0  0
  -10.0947   -5.8303   23.8660 O   0  0  0  0  0  0  0  0  0  0  0  0
   -6.7812   -5.4876   21.3882 C   0  0  0  0  0  0  0  0  0  0  0  0
   -7.0342   -6.7003   22.0435 C   0  0  0  0  0  0  0  0  0  0  0  0
   -7.6499   -4.4061   21.5819 C   0  0  0  0  0  0  0  0  0  0  0  0
   -8.1456   -6.8312   22.8801 C   0  0  0  0  0  0  0  0  0  0  0  0
   -8.7598   -4.5374   22.4183 C   0  0  0  0  0  0  0  0  0  0  0  0
   -8.9980   -5.7466   23.0593 C   0  0  0  0  0  0  0  0  0  0  0  0
  -10.2865   -6.6303   24.3142 H   0  0  0  0  0  0  0  0  0  0  0  0
    0.0696   -4.4753   17.6125 O   0  0  0  0  0  0  0  0  0  0  0  0
   -3.2239   -4.8983   20.1039 C   0  0  0  0  0  0  0  0  0  0  0  0
   -1.9729   -4.5409   20.6227 C   0  0  0  0  0  0  0  0  0  0  0  0
   -3.3613   -5.1170   18.7269 C   0  0  0  0  0  0  0  0  0  0  0  0
   -0.8751   -4.4027   19.7717 C   0  0  0  0  0  0  0  0  0  0  0  0
   -2.2636   -4.9798   17.8763 C   0  0  0  0  0  0  0  0  0  0  0  0
   -1.0284   -4.6224   18.4076 C   0  0  0  0  0  0  0  0  0  0  0  0
    0.8926   -4.2341   17.9899 H   0  0  0  0  0  0  0  0  0  0  0  0
   -5.9366   -5.5636   19.0268 C   0  0  0  0  0  0  0  0  0  0  0  0
   -7.0909   -6.5317   18.8021 C   0  0  0  0  0  0  0  0  0  0  0  0
   -4.0853   -4.7478   22.4556 C   0  0  0  0  0  0  0  0  0  0  0  0
   -4.3815   -3.3082   22.8556 C   0  0  0  0  0  0  0  0  0  0  0  0
  3  9  1  0
  3 10  1  0
 11 17  1  0
 11 18  1  0
  1  2  2  0
  1 19  1  0
  1  4  1  0
  2 21  1  0
  2 12  1  0
 19 20  1  0
 21 22  1  0
  4  5  2  0
  4  6  1  0
 12 13  2  0
 12 14  1  0
  5  7  1  0
 13 15  1  0
  6  8  2  0
 14 16  2  0
  7  9  2  0
 15 17  2  0
  8  9  1  0
 16 17  1  0
M  END
> <PUBCHEM_COMPOUND_CID>
448537

> <PUBCHEM_CONFORMER_RMSD>
0.6

> <PUBCHEM_CONFORMER_DIVERSEORDER>
1
3
2

> <PUBCHEM_MMFF94_PARTIAL_CHARGES>
28
1 -0.53
11 -0.15
12 -0.15
13 -0.15
14 -0.15
15 -0.15
16 -0.15
17 -0.15
18 -0.15
19 0.08
2 -0.53
20 0.08
3 -0.17
31 0.15
32 0.15
33 0.15
34 0.15
35 0.15
36 0.15
37 0.15
38 0.15
39 0.45
4 -0.17
40 0.45
5 0.14
6 0.14
7 0.03
8 0.03

> <PUBCHEM_EFFECTIVE_ROTOR_COUNT>
4

> <PUBCHEM_PHARMACOPHORE_FEATURES>
6
1 1 donor
1 10 hydrophobe
1 2 donor
1 9 hydrophobe
6 7 11 13 15 17 19 rings
6 8 12 14 16 18 20 rings

> <PUBCHEM_HEAVY_ATOM_COUNT>
20

> <PUBCHEM_ATOM_DEF_STEREO_COUNT>
0

> <PUBCHEM_ATOM_UDEF_STEREO_COUNT>
0

> <PUBCHEM_BOND_DEF_STEREO_COUNT>
1

> <PUBCHEM_BOND_UDEF_STEREO_COUNT>
0

> <PUBCHEM_ISOTOPIC_ATOM_COUNT>
0

> <PUBCHEM_COMPONENT_COUNT>
1

> <PUBCHEM_CACTVS_TAUTO_COUNT>
3

> <PUBCHEM_CONFORMER_ID>
0006D81900000001

> <PUBCHEM_MMFF94_ENERGY>
60.231

> <PUBCHEM_FEATURE_SELFOVERLAP>
30.447

> <PUBCHEM_SHAPE_FINGERPRINT>
10366900 7 18186514428534874893
104564 63 18339924792832442081
10906281 52 18129397028286092948
11646440 116 18130798871235594657
12592029 89 16950278473467191938
12788726 201 18270697410649816016
13140716 1 18266458895859843337
13533116 47 18340201896197096762
13760787 19 16660644076447957075
14115302 16 18186806919849492430
14341114 176 15647057049052281551
15099037 51 18335139812416525942
15848700 24 18202843262111810220
15848702 151 16988848262958300981
16752209 62 18335696105492573576
16945 1 18410855473013063775
1813 80 18272378572207267076
18186145 218 18338228362096015613
187816 3 18410857663704853992
19141452 34 17131829889222033293
19784866 9 18113613452605694563
200 152 16950282905968490344
20028762 73 18055641861278493167
20600515 1 18340218469921978116
20645477 70 16009301016701038466
21285901 2 17917162606291067244
23175994 123 18333735723499757565
23402539 116 17988639696664490244
23493267 7 17313098635762053785
23557571 272 17489592229515708168
23559900 14 15554438621982335170
266924 87 18194116322357846868
347723 3 18410856551049855057
34934 24 18129105515976021729
3545911 37 15719391732852524422
4072396 5 18261662693185545291
4214541 1 15791727494979709055
465052 167 17240208741576471315
474 4 17917140731779840409
59755656 215 18270402685366324510
633830 44 18342455975941661781
69090 78 17060620005479420895
7226269 152 18410853270196137312
7495541 125 17531535390133293585
77779 3 15719110262139125926
81228 2 18128838385973970688
8272917 22 16660357039657468298
9971528 1 17775283884826915592

> <PUBCHEM_SHAPE_MULTIPOLES>
399.85
10.42
1.74
1.37
0
0
0.06
0
1.28
0
-0.74
0
0
-0.06

> <PUBCHEM_SHAPE_SELFOVERLAP>
850.96

> <PUBCHEM_SHAPE_VOLUME>
224.1

> <PUBCHEM_COORDINATE_TYPE>
2
5
10

> <Energy>
28.3223

> <minimizedAffinity>
-7.46266

> <CNNscore>
0.8449082971

> <CNNaffinity>
7.9558944702

> <CNN_VS>
6.7220010757

> <CNNaffinity_variance>
0.8923308253

$$$$
