2519


 14 15  0  0  0  0  0  0  0  0999 V2000
   -4.2804   -2.1827   23.8013 O   0  0  0  0  0  0  0  0  0  0  0  0
   -8.2035   -4.0416   22.1924 O   0  0  0  0  0  0  0  0  0  0  0  0
   -6.3237   -4.1787   20.8684 N   0  0  0  0  0  0  0  0  0  0  0  0
   -3.0321   -3.0967   21.2423 N   0  0  0  0  0  0  0  0  0  0  0  0
   -6.2616   -3.1094   23.0128 N   0  0  0  0  0  0  0  0  0  0  0  0
   -4.1901   -4.1794   19.6817 N   0  0  0  0  0  0  0  0  0  0  0  0
   -4.3070   -3.2121   21.7170 C   0  0  0  0  0  0  0  0  0  0  0  0
   -4.9880   -3.8760   20.7428 C   0  0  0  0  0  0  0  0  0  0  0  0
   -4.9054   -2.7799   22.9302 C   0  0  0  0  0  0  0  0  0  0  0  0
   -7.0045   -3.7957   22.0270 C   0  0  0  0  0  0  0  0  0  0  0  0
   -3.0085   -3.6951   20.0101 C   0  0  0  0  0  0  0  0  0  0  0  0
   -7.0101   -4.8890   19.8034 C   0  0  0  0  0  0  0  0  0  0  0  0
   -1.9177   -2.4678   21.9040 C   0  0  0  0  0  0  0  0  0  0  0  0
   -6.9810   -2.7192   24.2101 C   0  0  0  0  0  0  0  0  0  0  0  0
  1  9  2  0
  2 10  2  0
  3  8  1  0
  3 10  1  0
  3 12  1  0
  4  7  1  0
  4 11  1  0
  4 13  1  0
  5  9  1  0
  5 10  1  0
  5 14  1  0
  6  8  1  0
  6 11  2  0
  7  8  2  0
  7  9  1  0
M  END
> <PUBCHEM_COMPOUND_CID>
2519

> <PUBCHEM_CONFORMER_RMSD>
0.4

> <PUBCHEM_CONFORMER_DIVERSEORDER>
1

> <PUBCHEM_MMFF94_PARTIAL_CHARGES>
15
1 -0.57
10 0.69
11 0.04
12 0.3
13 0.26
14 0.3
15 0.15
2 -0.57
3 -0.42
4 0.05
5 -0.42
6 -0.57
7 -0.24
8 0.29
9 0.71

> <PUBCHEM_EFFECTIVE_ROTOR_COUNT>
0

> <PUBCHEM_PHARMACOPHORE_FEATURES>
5
1 1 acceptor
1 2 acceptor
3 4 6 11 cation
5 4 6 7 8 11 rings
6 3 5 7 8 9 10 rings

> <PUBCHEM_HEAVY_ATOM_COUNT>
14

> <PUBCHEM_ATOM_DEF_STEREO_COUNT>
0

> <PUBCHEM_ATOM_UDEF_STEREO_COUNT>
0

> <PUBCHEM_BOND_DEF_STEREO_COUNT>
0

> <PUBCHEM_BOND_UDEF_STEREO_COUNT>
0

> <PUBCHEM_ISOTOPIC_ATOM_COUNT>
0

> <PUBCHEM_COMPONENT_COUNT>
1

> <PUBCHEM_CACTVS_TAUTO_COUNT>
1

> <PUBCHEM_CONFORMER_ID>
000009D700000001

> <PUBCHEM_MMFF94_ENERGY>
22.901

> <PUBCHEM_FEATURE_SELFOVERLAP>
25.487

> <PUBCHEM_SHAPE_FINGERPRINT>
10967382 1 18338799025773621285
11132069 177 18339075025094499008
12524768 44 18342463625094026902
13140716 1 17978511158789908153
16945 1 18338517550775811621
193761 8 15816500986559935910
20588541 1 18339082691204868851
21501502 16 18338796715286957384
22802520 49 18128840606503503494
2334 1 18338516344016692929
23402539 116 18270382932679789735
23552423 10 18262240993325675966
23559900 14 18199193898169584358
241688 4 18266458702623303353
2748010 2 18266180539182415717
5084963 1 17698433339235542986
528886 8 18267580380709240570
53812653 166 18198902694142226312
66348 1 18339079396917369615

> <PUBCHEM_SHAPE_MULTIPOLES>
256.45
4.01
2.83
0.58
0.71
0.08
0
-0.48
0
-0.81
0
0.01
0
0

> <PUBCHEM_SHAPE_SELFOVERLAP>
550.88

> <PUBCHEM_SHAPE_VOLUME>
143.9

> <PUBCHEM_COORDINATE_TYPE>
2
5
10

> <Energy>
-122.511

> <minimizedAffinity>
-5.69614

> <CNNscore>
0.6015880108

> <CNNaffinity>
5.2346577644

> <CNN_VS>
3.1491074562

> <CNNaffinity_variance>
0.1912952214

$$$$
2519


 14 15  0  0  0  0  0  0  0  0999 V2000
   -8.3773   -4.0329   22.0625 O   0  0  0  0  0  0  0  0  0  0  0  0
   -4.5187   -6.1584   20.6382 O   0  0  0  0  0  0  0  0  0  0  0  0
   -4.2956   -4.3506   22.0480 N   0  0  0  0  0  0  0  0  0  0  0  0
   -6.5683   -2.1989   23.5810 N   0  0  0  0  0  0  0  0  0  0  0  0
   -6.4525   -5.1153   21.3347 N   0  0  0  0  0  0  0  0  0  0  0  0
   -4.3549   -2.4179   23.5386 N   0  0  0  0  0  0  0  0  0  0  0  0
   -6.3007   -3.2658   22.7724 C   0  0  0  0  0  0  0  0  0  0  0  0
   -4.9435   -3.3731   22.7666 C   0  0  0  0  0  0  0  0  0  0  0  0
   -7.1547   -4.1396   22.0487 C   0  0  0  0  0  0  0  0  0  0  0  0
   -5.0480   -5.2612   21.3016 C   0  0  0  0  0  0  0  0  0  0  0  0
   -5.3631   -1.7183   24.0210 C   0  0  0  0  0  0  0  0  0  0  0  0
   -2.8452   -4.4277   22.0713 C   0  0  0  0  0  0  0  0  0  0  0  0
   -7.8670   -1.6719   23.9142 C   0  0  0  0  0  0  0  0  0  0  0  0
   -7.2204   -6.0679   20.5562 C   0  0  0  0  0  0  0  0  0  0  0  0
  1  9  2  0
  2 10  2  0
  3  8  1  0
  3 10  1  0
  3 12  1  0
  4  7  1  0
  4 11  1  0
  4 13  1  0
  5  9  1  0
  5 10  1  0
  5 14  1  0
  6  8  1  0
  6 11  2  0
  7  8  2  0
  7  9  1  0
M  END
> <PUBCHEM_COMPOUND_CID>
2519

> <PUBCHEM_CONFORMER_RMSD>
0.4

> <PUBCHEM_CONFORMER_DIVERSEORDER>
1

> <PUBCHEM_MMFF94_PARTIAL_CHARGES>
15
1 -0.57
10 0.69
11 0.04
12 0.3
13 0.26
14 0.3
15 0.15
2 -0.57
3 -0.42
4 0.05
5 -0.42
6 -0.57
7 -0.24
8 0.29
9 0.71

> <PUBCHEM_EFFECTIVE_ROTOR_COUNT>
0

> <PUBCHEM_PHARMACOPHORE_FEATURES>
5
1 1 acceptor
1 2 acceptor
3 4 6 11 cation
5 4 6 7 8 11 rings
6 3 5 7 8 9 10 rings

> <PUBCHEM_HEAVY_ATOM_COUNT>
14

> <PUBCHEM_ATOM_DEF_STEREO_COUNT>
0

> <PUBCHEM_ATOM_UDEF_STEREO_COUNT>
0

> <PUBCHEM_BOND_DEF_STEREO_COUNT>
0

> <PUBCHEM_BOND_UDEF_STEREO_COUNT>
0

> <PUBCHEM_ISOTOPIC_ATOM_COUNT>
0

> <PUBCHEM_COMPONENT_COUNT>
1

> <PUBCHEM_CACTVS_TAUTO_COUNT>
1

> <PUBCHEM_CONFORMER_ID>
000009D700000001

> <PUBCHEM_MMFF94_ENERGY>
22.901

> <PUBCHEM_FEATURE_SELFOVERLAP>
25.487

> <PUBCHEM_SHAPE_FINGERPRINT>
10967382 1 18338799025773621285
11132069 177 18339075025094499008
12524768 44 18342463625094026902
13140716 1 17978511158789908153
16945 1 18338517550775811621
193761 8 15816500986559935910
20588541 1 18339082691204868851
21501502 16 18338796715286957384
22802520 49 18128840606503503494
2334 1 18338516344016692929
23402539 116 18270382932679789735
23552423 10 18262240993325675966
23559900 14 18199193898169584358
241688 4 18266458702623303353
2748010 2 18266180539182415717
5084963 1 17698433339235542986
528886 8 18267580380709240570
53812653 166 18198902694142226312
66348 1 18339079396917369615

> <PUBCHEM_SHAPE_MULTIPOLES>
256.45
4.01
2.83
0.58
0.71
0.08
0
-0.48
0
-0.81
0
0.01
0
0

> <PUBCHEM_SHAPE_SELFOVERLAP>
550.88

> <PUBCHEM_SHAPE_VOLUME>
143.9

> <PUBCHEM_COORDINATE_TYPE>
2
5
10

> <Energy>
-122.511

> <minimizedAffinity>
-5.05660

> <CNNscore>
0.5354986191

> <CNNaffinity>
4.8583512306

> <CNN_VS>
2.6016404629

> <CNNaffinity_variance>
0.1325004846

$$$$
2519


 14 15  0  0  0  0  0  0  0  0999 V2000
   -4.9639   -1.9966   23.9204 O   0  0  0  0  0  0  0  0  0  0  0  0
   -3.0571   -4.6232   20.6189 O   0  0  0  0  0  0  0  0  0  0  0  0
   -5.3489   -4.6706   20.8444 N   0  0  0  0  0  0  0  0  0  0  0  0
   -7.5906   -3.0756   22.9834 N   0  0  0  0  0  0  0  0  0  0  0  0
   -3.9851   -3.3082   22.2689 N   0  0  0  0  0  0  0  0  0  0  0  0
   -7.7423   -4.5273   21.3047 N   0  0  0  0  0  0  0  0  0  0  0  0
   -6.3149   -3.3071   22.5559 C   0  0  0  0  0  0  0  0  0  0  0  0
   -6.4411   -4.1961   21.5325 C   0  0  0  0  0  0  0  0  0  0  0  0
   -5.0645   -2.7984   22.9969 C   0  0  0  0  0  0  0  0  0  0  0  0
   -4.0721   -4.2302   21.2025 C   0  0  0  0  0  0  0  0  0  0  0  0
   -8.4191   -3.8339   22.1989 C   0  0  0  0  0  0  0  0  0  0  0  0
   -5.5308   -5.6184   19.7587 C   0  0  0  0  0  0  0  0  0  0  0  0
   -7.9976   -2.2021   24.0542 C   0  0  0  0  0  0  0  0  0  0  0  0
   -2.6539   -2.8592   22.6288 C   0  0  0  0  0  0  0  0  0  0  0  0
  1  9  2  0
  2 10  2  0
  3  8  1  0
  3 10  1  0
  3 12  1  0
  4  7  1  0
  4 11  1  0
  4 13  1  0
  5  9  1  0
  5 10  1  0
  5 14  1  0
  6  8  1  0
  6 11  2  0
  7  8  2  0
  7  9  1  0
M  END
> <PUBCHEM_COMPOUND_CID>
2519

> <PUBCHEM_CONFORMER_RMSD>
0.4

> <PUBCHEM_CONFORMER_DIVERSEORDER>
1

> <PUBCHEM_MMFF94_PARTIAL_CHARGES>
15
1 -0.57
10 0.69
11 0.04
12 0.3
13 0.26
14 0.3
15 0.15
2 -0.57
3 -0.42
4 0.05
5 -0.42
6 -0.57
7 -0.24
8 0.29
9 0.71

> <PUBCHEM_EFFECTIVE_ROTOR_COUNT>
0

> <PUBCHEM_PHARMACOPHORE_FEATURES>
5
1 1 acceptor
1 2 acceptor
3 4 6 11 cation
5 4 6 7 8 11 rings
6 3 5 7 8 9 10 rings

> <PUBCHEM_HEAVY_ATOM_COUNT>
14

> <PUBCHEM_ATOM_DEF_STEREO_COUNT>
0

> <PUBCHEM_ATOM_UDEF_STEREO_COUNT>
0

> <PUBCHEM_BOND_DEF_STEREO_COUNT>
0

> <PUBCHEM_BOND_UDEF_STEREO_COUNT>
0

> <PUBCHEM_ISOTOPIC_ATOM_COUNT>
0

> <PUBCHEM_COMPONENT_COUNT>
1

> <PUBCHEM_CACTVS_TAUTO_COUNT>
1

> <PUBCHEM_CONFORMER_ID>
000009D700000001

> <PUBCHEM_MMFF94_ENERGY>
22.901

> <PUBCHEM_FEATURE_SELFOVERLAP>
25.487

> <PUBCHEM_SHAPE_FINGERPRINT>
10967382 1 18338799025773621285
11132069 177 18339075025094499008
12524768 44 18342463625094026902
13140716 1 17978511158789908153
16945 1 18338517550775811621
193761 8 15816500986559935910
20588541 1 18339082691204868851
21501502 16 18338796715286957384
22802520 49 18128840606503503494
2334 1 18338516344016692929
23402539 116 18270382932679789735
23552423 10 18262240993325675966
23559900 14 18199193898169584358
241688 4 18266458702623303353
2748010 2 18266180539182415717
5084963 1 17698433339235542986
528886 8 18267580380709240570
53812653 166 18198902694142226312
66348 1 18339079396917369615

> <PUBCHEM_SHAPE_MULTIPOLES>
256.45
4.01
2.83
0.58
0.71
0.08
0
-0.48
0
-0.81
0
0.01
0
0

> <PUBCHEM_SHAPE_SELFOVERLAP>
550.88

> <PUBCHEM_SHAPE_VOLUME>
143.9

> <PUBCHEM_COORDINATE_TYPE>
2
5
10

> <Energy>
-122.511

> <minimizedAffinity>
-5.55845

> <CNNscore>
0.5179488659

> <CNNaffinity>
4.5565590858

> <CNN_VS>
2.3600645065

> <CNNaffinity_variance>
0.6708958149

$$$$
2519


 14 15  0  0  0  0  0  0  0  0999 V2000
   -3.3141   -5.3558   21.3202 O   0  0  0  0  0  0  0  0  0  0  0  0
   -3.8430   -1.6313   24.0190 O   0  0  0  0  0  0  0  0  0  0  0  0
   -5.7212   -2.5132   23.0191 N   0  0  0  0  0  0  0  0  0  0  0  0
   -6.2701   -5.2173   20.8904 N   0  0  0  0  0  0  0  0  0  0  0  0
   -3.5566   -3.4852   22.6796 N   0  0  0  0  0  0  0  0  0  0  0  0
   -7.5316   -3.6503   21.8401 N   0  0  0  0  0  0  0  0  0  0  0  0
   -5.4273   -4.4370   21.6283 C   0  0  0  0  0  0  0  0  0  0  0  0
   -6.2263   -3.4911   22.1943 C   0  0  0  0  0  0  0  0  0  0  0  0
   -4.0237   -4.4974   21.8357 C   0  0  0  0  0  0  0  0  0  0  0  0
   -4.3500   -2.4864   23.2861 C   0  0  0  0  0  0  0  0  0  0  0  0
   -7.5307   -4.7046   21.0482 C   0  0  0  0  0  0  0  0  0  0  0  0
   -6.6113   -1.5240   23.6016 C   0  0  0  0  0  0  0  0  0  0  0  0
   -5.9115   -6.3634   20.0946 C   0  0  0  0  0  0  0  0  0  0  0  0
   -2.1356   -3.4455   22.9665 C   0  0  0  0  0  0  0  0  0  0  0  0
  1  9  2  0
  2 10  2  0
  3  8  1  0
  3 10  1  0
  3 12  1  0
  4  7  1  0
  4 11  1  0
  4 13  1  0
  5  9  1  0
  5 10  1  0
  5 14  1  0
  6  8  1  0
  6 11  2  0
  7  8  2  0
  7  9  1  0
M  END
> <PUBCHEM_COMPOUND_CID>
2519

> <PUBCHEM_CONFORMER_RMSD>
0.4

> <PUBCHEM_CONFORMER_DIVERSEORDER>
1

> <PUBCHEM_MMFF94_PARTIAL_CHARGES>
15
1 -0.57
10 0.69
11 0.04
12 0.3
13 0.26
14 0.3
15 0.15
2 -0.57
3 -0.42
4 0.05
5 -0.42
6 -0.57
7 -0.24
8 0.29
9 0.71

> <PUBCHEM_EFFECTIVE_ROTOR_COUNT>
0

> <PUBCHEM_PHARMACOPHORE_FEATURES>
5
1 1 acceptor
1 2 acceptor
3 4 6 11 cation
5 4 6 7 8 11 rings
6 3 5 7 8 9 10 rings

> <PUBCHEM_HEAVY_ATOM_COUNT>
14

> <PUBCHEM_ATOM_DEF_STEREO_COUNT>
0

> <PUBCHEM_ATOM_UDEF_STEREO_COUNT>
0

> <PUBCHEM_BOND_DEF_STEREO_COUNT>
0

> <PUBCHEM_BOND_UDEF_STEREO_COUNT>
0

> <PUBCHEM_ISOTOPIC_ATOM_COUNT>
0

> <PUBCHEM_COMPONENT_COUNT>
1

> <PUBCHEM_CACTVS_TAUTO_COUNT>
1

> <PUBCHEM_CONFORMER_ID>
000009D700000001

> <PUBCHEM_MMFF94_ENERGY>
22.901

> <PUBCHEM_FEATURE_SELFOVERLAP>
25.487

> <PUBCHEM_SHAPE_FINGERPRINT>
10967382 1 18338799025773621285
11132069 177 18339075025094499008
12524768 44 18342463625094026902
13140716 1 17978511158789908153
16945 1 18338517550775811621
193761 8 15816500986559935910
20588541 1 18339082691204868851
21501502 16 18338796715286957384
22802520 49 18128840606503503494
2334 1 18338516344016692929
23402539 116 18270382932679789735
23552423 10 18262240993325675966
23559900 14 18199193898169584358
241688 4 18266458702623303353
2748010 2 18266180539182415717
5084963 1 17698433339235542986
528886 8 18267580380709240570
53812653 166 18198902694142226312
66348 1 18339079396917369615

> <PUBCHEM_SHAPE_MULTIPOLES>
256.45
4.01
2.83
0.58
0.71
0.08
0
-0.48
0
-0.81
0
0.01
0
0

> <PUBCHEM_SHAPE_SELFOVERLAP>
550.88

> <PUBCHEM_SHAPE_VOLUME>
143.9

> <PUBCHEM_COORDINATE_TYPE>
2
5
10

> <Energy>
-122.511

> <minimizedAffinity>
-5.64053

> <CNNscore>
0.5139246583

> <CNNaffinity>
4.5134639740

> <CNN_VS>
2.3195803165

> <CNNaffinity_variance>
0.7099096179

$$$$
2519


 14 15  0  0  0  0  0  0  0  0999 V2000
   -6.3552   -2.3977   23.8446 O   0  0  0  0  0  0  0  0  0  0  0  0
   -2.2153   -2.3523   21.7722 O   0  0  0  0  0  0  0  0  0  0  0  0
   -3.9407   -3.4473   20.7094 N   0  0  0  0  0  0  0  0  0  0  0  0
   -7.2938   -3.9860   21.4913 N   0  0  0  0  0  0  0  0  0  0  0  0
   -4.2675   -2.3626   22.8218 N   0  0  0  0  0  0  0  0  0  0  0  0
   -5.9380   -4.5281   19.8130 N   0  0  0  0  0  0  0  0  0  0  0  0
   -6.0715   -3.4599   21.7962 C   0  0  0  0  0  0  0  0  0  0  0  0
   -5.2672   -3.8078   20.7543 C   0  0  0  0  0  0  0  0  0  0  0  0
   -5.6199   -2.7057   22.9115 C   0  0  0  0  0  0  0  0  0  0  0  0
   -3.3995   -2.7029   21.7608 C   0  0  0  0  0  0  0  0  0  0  0  0
   -7.1656   -4.6224   20.2848 C   0  0  0  0  0  0  0  0  0  0  0  0
   -3.1197   -3.8404   19.5773 C   0  0  0  0  0  0  0  0  0  0  0  0
   -8.4951   -3.8944   22.2812 C   0  0  0  0  0  0  0  0  0  0  0  0
   -3.6923   -1.5892   23.9054 C   0  0  0  0  0  0  0  0  0  0  0  0
  1  9  2  0
  2 10  2  0
  3  8  1  0
  3 10  1  0
  3 12  1  0
  4  7  1  0
  4 11  1  0
  4 13  1  0
  5  9  1  0
  5 10  1  0
  5 14  1  0
  6  8  1  0
  6 11  2  0
  7  8  2  0
  7  9  1  0
M  END
> <PUBCHEM_COMPOUND_CID>
2519

> <PUBCHEM_CONFORMER_RMSD>
0.4

> <PUBCHEM_CONFORMER_DIVERSEORDER>
1

> <PUBCHEM_MMFF94_PARTIAL_CHARGES>
15
1 -0.57
10 0.69
11 0.04
12 0.3
13 0.26
14 0.3
15 0.15
2 -0.57
3 -0.42
4 0.05
5 -0.42
6 -0.57
7 -0.24
8 0.29
9 0.71

> <PUBCHEM_EFFECTIVE_ROTOR_COUNT>
0

> <PUBCHEM_PHARMACOPHORE_FEATURES>
5
1 1 acceptor
1 2 acceptor
3 4 6 11 cation
5 4 6 7 8 11 rings
6 3 5 7 8 9 10 rings

> <PUBCHEM_HEAVY_ATOM_COUNT>
14

> <PUBCHEM_ATOM_DEF_STEREO_COUNT>
0

> <PUBCHEM_ATOM_UDEF_STEREO_COUNT>
0

> <PUBCHEM_BOND_DEF_STEREO_COUNT>
0

> <PUBCHEM_BOND_UDEF_STEREO_COUNT>
0

> <PUBCHEM_ISOTOPIC_ATOM_COUNT>
0

> <PUBCHEM_COMPONENT_COUNT>
1

> <PUBCHEM_CACTVS_TAUTO_COUNT>
1

> <PUBCHEM_CONFORMER_ID>
000009D700000001

> <PUBCHEM_MMFF94_ENERGY>
22.901

> <PUBCHEM_FEATURE_SELFOVERLAP>
25.487

> <PUBCHEM_SHAPE_FINGERPRINT>
10967382 1 18338799025773621285
11132069 177 18339075025094499008
12524768 44 18342463625094026902
13140716 1 17978511158789908153
16945 1 18338517550775811621
193761 8 15816500986559935910
20588541 1 18339082691204868851
21501502 16 18338796715286957384
22802520 49 18128840606503503494
2334 1 18338516344016692929
23402539 116 18270382932679789735
23552423 10 18262240993325675966
23559900 14 18199193898169584358
241688 4 18266458702623303353
2748010 2 18266180539182415717
5084963 1 17698433339235542986
528886 8 18267580380709240570
53812653 166 18198902694142226312
66348 1 18339079396917369615

> <PUBCHEM_SHAPE_MULTIPOLES>
256.45
4.01
2.83
0.58
0.71
0.08
0
-0.48
0
-0.81
0
0.01
0
0

> <PUBCHEM_SHAPE_SELFOVERLAP>
550.88

> <PUBCHEM_SHAPE_VOLUME>
143.9

> <PUBCHEM_COORDINATE_TYPE>
2
5
10

> <Energy>
-122.511

> <minimizedAffinity>
-5.48939

> <CNNscore>
0.5015692115

> <CNNaffinity>
5.1225905418

> <CNN_VS>
2.5693337917

> <CNNaffinity_variance>
0.1708677411

$$$$
2519


 14 15  0  0  0  0  0  0  0  0999 V2000
   -4.0055   -3.0107   23.8387 O   0  0  0  0  0  0  0  0  0  0  0  0
   -0.8374   -2.3707   20.5237 O   0  0  0  0  0  0  0  0  0  0  0  0
   -2.8526   -3.3099   19.9217 N   0  0  0  0  0  0  0  0  0  0  0  0
   -5.7421   -4.1423   21.6833 N   0  0  0  0  0  0  0  0  0  0  0  0
   -2.3998   -2.6804   22.1899 N   0  0  0  0  0  0  0  0  0  0  0  0
   -5.0650   -4.2803   19.5688 N   0  0  0  0  0  0  0  0  0  0  0  0
   -4.4760   -3.6327   21.6486 C   0  0  0  0  0  0  0  0  0  0  0  0
   -4.0911   -3.7312   20.3464 C   0  0  0  0  0  0  0  0  0  0  0  0
   -3.6466   -3.0947   22.6681 C   0  0  0  0  0  0  0  0  0  0  0  0
   -1.9616   -2.7648   20.8498 C   0  0  0  0  0  0  0  0  0  0  0  0
   -6.0560   -4.5209   20.4046 C   0  0  0  0  0  0  0  0  0  0  0  0
   -2.4844   -3.4340   18.5221 C   0  0  0  0  0  0  0  0  0  0  0  0
   -6.5934   -4.2627   22.8392 C   0  0  0  0  0  0  0  0  0  0  0  0
   -1.4650   -2.1117   23.1416 C   0  0  0  0  0  0  0  0  0  0  0  0
  1  9  2  0
  2 10  2  0
  3  8  1  0
  3 10  1  0
  3 12  1  0
  4  7  1  0
  4 11  1  0
  4 13  1  0
  5  9  1  0
  5 10  1  0
  5 14  1  0
  6  8  1  0
  6 11  2  0
  7  8  2  0
  7  9  1  0
M  END
> <PUBCHEM_COMPOUND_CID>
2519

> <PUBCHEM_CONFORMER_RMSD>
0.4

> <PUBCHEM_CONFORMER_DIVERSEORDER>
1

> <PUBCHEM_MMFF94_PARTIAL_CHARGES>
15
1 -0.57
10 0.69
11 0.04
12 0.3
13 0.26
14 0.3
15 0.15
2 -0.57
3 -0.42
4 0.05
5 -0.42
6 -0.57
7 -0.24
8 0.29
9 0.71

> <PUBCHEM_EFFECTIVE_ROTOR_COUNT>
0

> <PUBCHEM_PHARMACOPHORE_FEATURES>
5
1 1 acceptor
1 2 acceptor
3 4 6 11 cation
5 4 6 7 8 11 rings
6 3 5 7 8 9 10 rings

> <PUBCHEM_HEAVY_ATOM_COUNT>
14

> <PUBCHEM_ATOM_DEF_STEREO_COUNT>
0

> <PUBCHEM_ATOM_UDEF_STEREO_COUNT>
0

> <PUBCHEM_BOND_DEF_STEREO_COUNT>
0

> <PUBCHEM_BOND_UDEF_STEREO_COUNT>
0

> <PUBCHEM_ISOTOPIC_ATOM_COUNT>
0

> <PUBCHEM_COMPONENT_COUNT>
1

> <PUBCHEM_CACTVS_TAUTO_COUNT>
1

> <PUBCHEM_CONFORMER_ID>
000009D700000001

> <PUBCHEM_MMFF94_ENERGY>
22.901

> <PUBCHEM_FEATURE_SELFOVERLAP>
25.487

> <PUBCHEM_SHAPE_FINGERPRINT>
10967382 1 18338799025773621285
11132069 177 18339075025094499008
12524768 44 18342463625094026902
13140716 1 17978511158789908153
16945 1 18338517550775811621
193761 8 15816500986559935910
20588541 1 18339082691204868851
21501502 16 18338796715286957384
22802520 49 18128840606503503494
2334 1 18338516344016692929
23402539 116 18270382932679789735
23552423 10 18262240993325675966
23559900 14 18199193898169584358
241688 4 18266458702623303353
2748010 2 18266180539182415717
5084963 1 17698433339235542986
528886 8 18267580380709240570
53812653 166 18198902694142226312
66348 1 18339079396917369615

> <PUBCHEM_SHAPE_MULTIPOLES>
256.45
4.01
2.83
0.58
0.71
0.08
0
-0.48
0
-0.81
0
0.01
0
0

> <PUBCHEM_SHAPE_SELFOVERLAP>
550.88

> <PUBCHEM_SHAPE_VOLUME>
143.9

> <PUBCHEM_COORDINATE_TYPE>
2
5
10

> <Energy>
-122.511

> <minimizedAffinity>
-5.13455

> <CNNscore>
0.4706680179

> <CNNaffinity>
5.1179804802

> <CNN_VS>
2.4088697433

> <CNNaffinity_variance>
0.2731418312

$$$$
2519


 14 15  0  0  0  0  0  0  0  0999 V2000
   -3.2822   -4.5253   20.5094 O   0  0  0  0  0  0  0  0  0  0  0  0
   -7.8538   -4.7494   21.2063 O   0  0  0  0  0  0  0  0  0  0  0  0
   -6.6241   -3.3514   22.5624 N   0  0  0  0  0  0  0  0  0  0  0  0
   -3.2355   -2.5630   22.7653 N   0  0  0  0  0  0  0  0  0  0  0  0
   -5.5798   -4.6535   20.8420 N   0  0  0  0  0  0  0  0  0  0  0  0
   -5.0835   -1.9592   23.8465 N   0  0  0  0  0  0  0  0  0  0  0  0
   -4.2639   -3.2499   22.1869 C   0  0  0  0  0  0  0  0  0  0  0  0
   -5.3763   -2.8604   22.8683 C   0  0  0  0  0  0  0  0  0  0  0  0
   -4.2922   -4.1827   21.1165 C   0  0  0  0  0  0  0  0  0  0  0  0
   -6.7579   -4.2762   21.5235 C   0  0  0  0  0  0  0  0  0  0  0  0
   -3.7777   -1.7964   23.7629 C   0  0  0  0  0  0  0  0  0  0  0  0
   -7.7837   -2.9074   23.3162 C   0  0  0  0  0  0  0  0  0  0  0  0
   -1.8428   -2.6258   22.4025 C   0  0  0  0  0  0  0  0  0  0  0  0
   -5.7341   -5.6131   19.7656 C   0  0  0  0  0  0  0  0  0  0  0  0
  1  9  2  0
  2 10  2  0
  3  8  1  0
  3 10  1  0
  3 12  1  0
  4  7  1  0
  4 11  1  0
  4 13  1  0
  5  9  1  0
  5 10  1  0
  5 14  1  0
  6  8  1  0
  6 11  2  0
  7  8  2  0
  7  9  1  0
M  END
> <PUBCHEM_COMPOUND_CID>
2519

> <PUBCHEM_CONFORMER_RMSD>
0.4

> <PUBCHEM_CONFORMER_DIVERSEORDER>
1

> <PUBCHEM_MMFF94_PARTIAL_CHARGES>
15
1 -0.57
10 0.69
11 0.04
12 0.3
13 0.26
14 0.3
15 0.15
2 -0.57
3 -0.42
4 0.05
5 -0.42
6 -0.57
7 -0.24
8 0.29
9 0.71

> <PUBCHEM_EFFECTIVE_ROTOR_COUNT>
0

> <PUBCHEM_PHARMACOPHORE_FEATURES>
5
1 1 acceptor
1 2 acceptor
3 4 6 11 cation
5 4 6 7 8 11 rings
6 3 5 7 8 9 10 rings

> <PUBCHEM_HEAVY_ATOM_COUNT>
14

> <PUBCHEM_ATOM_DEF_STEREO_COUNT>
0

> <PUBCHEM_ATOM_UDEF_STEREO_COUNT>
0

> <PUBCHEM_BOND_DEF_STEREO_COUNT>
0

> <PUBCHEM_BOND_UDEF_STEREO_COUNT>
0

> <PUBCHEM_ISOTOPIC_ATOM_COUNT>
0

> <PUBCHEM_COMPONENT_COUNT>
1

> <PUBCHEM_CACTVS_TAUTO_COUNT>
1

> <PUBCHEM_CONFORMER_ID>
000009D700000001

> <PUBCHEM_MMFF94_ENERGY>
22.901

> <PUBCHEM_FEATURE_SELFOVERLAP>
25.487

> <PUBCHEM_SHAPE_FINGERPRINT>
10967382 1 18338799025773621285
11132069 177 18339075025094499008
12524768 44 18342463625094026902
13140716 1 17978511158789908153
16945 1 18338517550775811621
193761 8 15816500986559935910
20588541 1 18339082691204868851
21501502 16 18338796715286957384
22802520 49 18128840606503503494
2334 1 18338516344016692929
23402539 116 18270382932679789735
23552423 10 18262240993325675966
23559900 14 18199193898169584358
241688 4 18266458702623303353
2748010 2 18266180539182415717
5084963 1 17698433339235542986
528886 8 18267580380709240570
53812653 166 18198902694142226312
66348 1 18339079396917369615

> <PUBCHEM_SHAPE_MULTIPOLES>
256.45
4.01
2.83
0.58
0.71
0.08
0
-0.48
0
-0.81
0
0.01
0
0

> <PUBCHEM_SHAPE_SELFOVERLAP>
550.88

> <PUBCHEM_SHAPE_VOLUME>
143.9

> <PUBCHEM_COORDINATE_TYPE>
2
5
10

> <Energy>
-122.511

> <minimizedAffinity>
-5.70577

> <CNNscore>
0.4631040990

> <CNNaffinity>
4.6160073280

> <CNN_VS>
2.1376919746

> <CNNaffinity_variance>
0.2744729817

$$$$
2519


 14 15  0  0  0  0  0  0  0  0999 V2000
   -7.6670   -3.1476   22.0666 O   0  0  0  0  0  0  0  0  0  0  0  0
   -3.7805   -1.4497   23.9233 O   0  0  0  0  0  0  0  0  0  0  0  0
   -3.6491   -3.4514   22.7914 N   0  0  0  0  0  0  0  0  0  0  0  0
   -5.9819   -5.4299   21.1215 N   0  0  0  0  0  0  0  0  0  0  0  0
   -5.7273   -2.2766   23.0072 N   0  0  0  0  0  0  0  0  0  0  0  0
   -3.8006   -5.5441   21.5430 N   0  0  0  0  0  0  0  0  0  0  0  0
   -5.6678   -4.3122   21.8397 C   0  0  0  0  0  0  0  0  0  0  0  0
   -4.3316   -4.4115   22.0815 C   0  0  0  0  0  0  0  0  0  0  0  0
   -6.4631   -3.2260   22.2916 C   0  0  0  0  0  0  0  0  0  0  0  0
   -4.3430   -2.3414   23.2800 C   0  0  0  0  0  0  0  0  0  0  0  0
   -4.8233   -6.1444   20.9665 C   0  0  0  0  0  0  0  0  0  0  0  0
   -2.2230   -3.5985   23.0252 C   0  0  0  0  0  0  0  0  0  0  0  0
   -7.2810   -5.7964   20.6180 C   0  0  0  0  0  0  0  0  0  0  0  0
   -6.4340   -1.1185   23.5196 C   0  0  0  0  0  0  0  0  0  0  0  0
  1  9  2  0
  2 10  2  0
  3  8  1  0
  3 10  1  0
  3 12  1  0
  4  7  1  0
  4 11  1  0
  4 13  1  0
  5  9  1  0
  5 10  1  0
  5 14  1  0
  6  8  1  0
  6 11  2  0
  7  8  2  0
  7  9  1  0
M  END
> <PUBCHEM_COMPOUND_CID>
2519

> <PUBCHEM_CONFORMER_RMSD>
0.4

> <PUBCHEM_CONFORMER_DIVERSEORDER>
1

> <PUBCHEM_MMFF94_PARTIAL_CHARGES>
15
1 -0.57
10 0.69
11 0.04
12 0.3
13 0.26
14 0.3
15 0.15
2 -0.57
3 -0.42
4 0.05
5 -0.42
6 -0.57
7 -0.24
8 0.29
9 0.71

> <PUBCHEM_EFFECTIVE_ROTOR_COUNT>
0

> <PUBCHEM_PHARMACOPHORE_FEATURES>
5
1 1 acceptor
1 2 acceptor
3 4 6 11 cation
5 4 6 7 8 11 rings
6 3 5 7 8 9 10 rings

> <PUBCHEM_HEAVY_ATOM_COUNT>
14

> <PUBCHEM_ATOM_DEF_STEREO_COUNT>
0

> <PUBCHEM_ATOM_UDEF_STEREO_COUNT>
0

> <PUBCHEM_BOND_DEF_STEREO_COUNT>
0

> <PUBCHEM_BOND_UDEF_STEREO_COUNT>
0

> <PUBCHEM_ISOTOPIC_ATOM_COUNT>
0

> <PUBCHEM_COMPONENT_COUNT>
1

> <PUBCHEM_CACTVS_TAUTO_COUNT>
1

> <PUBCHEM_CONFORMER_ID>
000009D700000001

> <PUBCHEM_MMFF94_ENERGY>
22.901

> <PUBCHEM_FEATURE_SELFOVERLAP>
25.487

> <PUBCHEM_SHAPE_FINGERPRINT>
10967382 1 18338799025773621285
11132069 177 18339075025094499008
12524768 44 18342463625094026902
13140716 1 17978511158789908153
16945 1 18338517550775811621
193761 8 15816500986559935910
20588541 1 18339082691204868851
21501502 16 18338796715286957384
22802520 49 18128840606503503494
2334 1 18338516344016692929
23402539 116 18270382932679789735
23552423 10 18262240993325675966
23559900 14 18199193898169584358
241688 4 18266458702623303353
2748010 2 18266180539182415717
5084963 1 17698433339235542986
528886 8 18267580380709240570
53812653 166 18198902694142226312
66348 1 18339079396917369615

> <PUBCHEM_SHAPE_MULTIPOLES>
256.45
4.01
2.83
0.58
0.71
0.08
0
-0.48
0
-0.81
0
0.01
0
0

> <PUBCHEM_SHAPE_SELFOVERLAP>
550.88

> <PUBCHEM_SHAPE_VOLUME>
143.9

> <PUBCHEM_COORDINATE_TYPE>
2
5
10

> <Energy>
-122.511

> <minimizedAffinity>
-5.42283

> <CNNscore>
0.4619108140

> <CNNaffinity>
4.6977057457

> <CNN_VS>
2.1699211597

> <CNNaffinity_variance>
0.4073343575

$$$$
2519


 14 15  0  0  0  0  0  0  0  0999 V2000
   -7.8875   -4.7222   21.5226 O   0  0  0  0  0  0  0  0  0  0  0  0
   -6.2014   -1.6489   24.5470 O   0  0  0  0  0  0  0  0  0  0  0  0
   -4.7512   -2.5423   22.9965 N   0  0  0  0  0  0  0  0  0  0  0  0
   -5.1140   -4.8520   20.4122 N   0  0  0  0  0  0  0  0  0  0  0  0
   -7.0620   -3.1770   23.0512 N   0  0  0  0  0  0  0  0  0  0  0  0
   -3.4457   -3.6436   21.2519 N   0  0  0  0  0  0  0  0  0  0  0  0
   -5.6412   -4.1285   21.4430 C   0  0  0  0  0  0  0  0  0  0  0  0
   -4.5994   -3.4027   21.9343 C   0  0  0  0  0  0  0  0  0  0  0  0
   -6.9563   -4.0631   21.9749 C   0  0  0  0  0  0  0  0  0  0  0  0
   -6.0084   -2.4066   23.5910 C   0  0  0  0  0  0  0  0  0  0  0  0
   -3.7855   -4.5270   20.3339 C   0  0  0  0  0  0  0  0  0  0  0  0
   -3.6114   -1.7874   23.4875 C   0  0  0  0  0  0  0  0  0  0  0  0
   -5.8137   -5.7821   19.5632 C   0  0  0  0  0  0  0  0  0  0  0  0
   -8.3611   -3.0251   23.6776 C   0  0  0  0  0  0  0  0  0  0  0  0
  1  9  2  0
  2 10  2  0
  3  8  1  0
  3 10  1  0
  3 12  1  0
  4  7  1  0
  4 11  1  0
  4 13  1  0
  5  9  1  0
  5 10  1  0
  5 14  1  0
  6  8  1  0
  6 11  2  0
  7  8  2  0
  7  9  1  0
M  END
> <PUBCHEM_COMPOUND_CID>
2519

> <PUBCHEM_CONFORMER_RMSD>
0.4

> <PUBCHEM_CONFORMER_DIVERSEORDER>
1

> <PUBCHEM_MMFF94_PARTIAL_CHARGES>
15
1 -0.57
10 0.69
11 0.04
12 0.3
13 0.26
14 0.3
15 0.15
2 -0.57
3 -0.42
4 0.05
5 -0.42
6 -0.57
7 -0.24
8 0.29
9 0.71

> <PUBCHEM_EFFECTIVE_ROTOR_COUNT>
0

> <PUBCHEM_PHARMACOPHORE_FEATURES>
5
1 1 acceptor
1 2 acceptor
3 4 6 11 cation
5 4 6 7 8 11 rings
6 3 5 7 8 9 10 rings

> <PUBCHEM_HEAVY_ATOM_COUNT>
14

> <PUBCHEM_ATOM_DEF_STEREO_COUNT>
0

> <PUBCHEM_ATOM_UDEF_STEREO_COUNT>
0

> <PUBCHEM_BOND_DEF_STEREO_COUNT>
0

> <PUBCHEM_BOND_UDEF_STEREO_COUNT>
0

> <PUBCHEM_ISOTOPIC_ATOM_COUNT>
0

> <PUBCHEM_COMPONENT_COUNT>
1

> <PUBCHEM_CACTVS_TAUTO_COUNT>
1

> <PUBCHEM_CONFORMER_ID>
000009D700000001

> <PUBCHEM_MMFF94_ENERGY>
22.901

> <PUBCHEM_FEATURE_SELFOVERLAP>
25.487

> <PUBCHEM_SHAPE_FINGERPRINT>
10967382 1 18338799025773621285
11132069 177 18339075025094499008
12524768 44 18342463625094026902
13140716 1 17978511158789908153
16945 1 18338517550775811621
193761 8 15816500986559935910
20588541 1 18339082691204868851
21501502 16 18338796715286957384
22802520 49 18128840606503503494
2334 1 18338516344016692929
23402539 116 18270382932679789735
23552423 10 18262240993325675966
23559900 14 18199193898169584358
241688 4 18266458702623303353
2748010 2 18266180539182415717
5084963 1 17698433339235542986
528886 8 18267580380709240570
53812653 166 18198902694142226312
66348 1 18339079396917369615

> <PUBCHEM_SHAPE_MULTIPOLES>
256.45
4.01
2.83
0.58
0.71
0.08
0
-0.48
0
-0.81
0
0.01
0
0

> <PUBCHEM_SHAPE_SELFOVERLAP>
550.88

> <PUBCHEM_SHAPE_VOLUME>
143.9

> <PUBCHEM_COORDINATE_TYPE>
2
5
10

> <Energy>
-122.511

> <minimizedAffinity>
-5.28805

> <CNNscore>
0.4468696415

> <CNNaffinity>
5.0562939644

> <CNN_VS>
2.2595043182

> <CNNaffinity_variance>
0.0385595970

$$$$
