8571


 22 23  0  0  0  0  0  0  0  0999 V2000
   -1.1337   -4.2573   21.7708 O   0  0  0  0  0  0  0  0  0  0  0  0
   -1.5605   -3.3212   22.4414 C   0  0  0  0  0  0  0  0  0  0  0  0
   -3.8415   -4.9496   21.7931 O   0  0  0  0  0  0  0  0  0  0  0  0
   -6.6174   -1.1337   21.2440 O   0  0  0  0  0  0  0  0  0  0  0  0
   -2.8882   -2.7329   22.1344 C   0  0  0  0  0  0  0  0  0  0  0  0
   -3.9604   -3.5846   21.8227 C   0  0  0  0  0  0  0  0  0  0  0  0
   -3.0942   -1.3466   22.1357 C   0  0  0  0  0  0  0  0  0  0  0  0
   -5.2216   -3.0679   21.5322 C   0  0  0  0  0  0  0  0  0  0  0  0
   -4.3543   -0.8274   21.8282 C   0  0  0  0  0  0  0  0  0  0  0  0
   -5.4062   -1.6891   21.5342 C   0  0  0  0  0  0  0  0  0  0  0  0
   -3.0163   -5.3521   21.9804 H   0  0  0  0  0  0  0  0  0  0  0  0
   -7.3485   -1.6835   21.0412 H   0  0  0  0  0  0  0  0  0  0  0  0
   -2.6050   -3.3355   25.0405 O   0  0  0  0  0  0  0  0  0  0  0  0
    1.4650   -1.4994   26.7932 O   0  0  0  0  0  0  0  0  0  0  0  0
   -0.7743   -2.8378   23.5890 C   0  0  0  0  0  0  0  0  0  0  0  0
   -1.3293   -2.8764   24.8714 C   0  0  0  0  0  0  0  0  0  0  0  0
    0.5263   -2.3684   23.3879 C   0  0  0  0  0  0  0  0  0  0  0  0
   -0.5884   -2.4384   25.9677 C   0  0  0  0  0  0  0  0  0  0  0  0
    1.2607   -1.9105   24.4818 C   0  0  0  0  0  0  0  0  0  0  0  0
    0.7014   -1.9526   25.7581 C   0  0  0  0  0  0  0  0  0  0  0  0
   -3.0992   -3.6289   24.3004 H   0  0  0  0  0  0  0  0  0  0  0  0
    1.1251   -1.5111   27.6662 H   0  0  0  0  0  0  0  0  0  0  0  0
  3  6  1  0
  3 11  1  0
 13 16  1  0
 13 21  1  0
  1  2  2  0
  4 10  1  0
  4 12  1  0
 14 20  1  0
 14 22  1  0
  5  2  1  0
  5  6  2  0
  5  7  1  0
 15  2  1  0
 15 16  2  0
 15 17  1  0
  6  8  1  0
 16 18  1  0
  7  9  2  0
 17 19  2  0
  8 10  2  0
 18 20  2  0
  9 10  1  0
 19 20  1  0
M  END
> <PUBCHEM_COMPOUND_CID>
8571

> <PUBCHEM_CONFORMER_RMSD>
0.6

> <PUBCHEM_CONFORMER_DIVERSEORDER>
3
14
8
5
6
10
13
11
12
7
2
4
9
1

> <PUBCHEM_MMFF94_PARTIAL_CHARGES>
28
1 -0.53
10 0.08
11 -0.15
12 -0.15
13 -0.15
14 -0.15
15 -0.15
16 -0.15
17 0.08
18 0.08
19 0.15
2 -0.53
20 0.15
21 0.15
22 0.15
23 0.15
24 0.15
25 0.45
26 0.45
27 0.45
28 0.45
3 -0.57
4 -0.53
5 -0.53
6 0.09
7 0.09
8 0.4
9 0.08

> <PUBCHEM_EFFECTIVE_ROTOR_COUNT>
2

> <PUBCHEM_PHARMACOPHORE_FEATURES>
7
1 1 donor
1 2 donor
1 3 acceptor
1 4 donor
1 5 donor
6 6 9 11 13 15 17 rings
6 7 10 12 14 16 18 rings

> <PUBCHEM_HEAVY_ATOM_COUNT>
18

> <PUBCHEM_ATOM_DEF_STEREO_COUNT>
0

> <PUBCHEM_ATOM_UDEF_STEREO_COUNT>
0

> <PUBCHEM_BOND_DEF_STEREO_COUNT>
0

> <PUBCHEM_BOND_UDEF_STEREO_COUNT>
0

> <PUBCHEM_ISOTOPIC_ATOM_COUNT>
0

> <PUBCHEM_COMPONENT_COUNT>
1

> <PUBCHEM_CACTVS_TAUTO_COUNT>
72

> <PUBCHEM_CONFORMER_ID>
0000217B00000003

> <PUBCHEM_MMFF94_ENERGY>
59.7646

> <PUBCHEM_FEATURE_SELFOVERLAP>
35.523

> <PUBCHEM_SHAPE_FINGERPRINT>
11471102 20 18409169892103070408
11543360 7 16558473084182650672
11578080 2 11531614863815746903
12236239 1 18131065996288699443
12730499 353 18260275135465842107
13764800 53 16298659508524951853
14115302 16 17274813641062312855
14993402 34 17846215540487606185
15309172 13 17603583049510828995
15342168 16 17968104165179409005
15775835 57 18412826888988243309
16752209 62 16702019734536568467
16945 1 18338804403115108058
1813 80 17908702826610089778
18186145 218 18334579027342918966
19784866 34 18334295413878624880
19862831 5 17703791439638752137
19868273 293 17846494850753190559
20612939 158 18410015399459763708
20645476 183 18131345336920073351
20645477 70 18339644438557177238
20871999 31 17703499013054573895
21486144 27 18040157318289672158
22079108 93 18187935001610251691
22854114 59 17458065950124340569
231179 274 17822006519258234448
23402539 116 18409442626948148612
23402655 69 18343585139818180612
23559900 14 18270131244514800908
23598291 2 17916313731579383754
25 1 18335137605093349618
2748010 2 18049736405846724776
2838139 119 17898835865392311757
3082319 5 17846778520178562597
350125 39 17829344823007393920
4028521 119 18341894112446576825
474 4 18335984259027423912
5374978 207 12973890299285696421
633830 44 18335985259854816367
74978 22 17775280611934871745
76465 3 11743574149888780620
77492 1 18131067091542367739
81228 2 16880770831219455195
8272917 22 18265617572439684195
9981440 41 17624393673978878472

> <PUBCHEM_SHAPE_MULTIPOLES>
341.08
8.1
1.9
1.16
0.73
0.35
-0.07
-4.23
-1.78
-1.35
0.05
0.84
0.24
-0.62

> <PUBCHEM_SHAPE_SELFOVERLAP>
750.848

> <PUBCHEM_SHAPE_VOLUME>
184

> <PUBCHEM_COORDINATE_TYPE>
2
5
10

> <Energy>
46.2868

> <minimizedAffinity>
-8.17467

> <CNNscore>
0.8720079660

> <CNNaffinity>
5.9909806252

> <CNN_VS>
5.2241826057

> <CNNaffinity_variance>
0.4983569682

$$$$
8571


 22 23  0  0  0  0  0  0  0  0999 V2000
   -1.0286   -4.1080   21.5374 O   0  0  0  0  0  0  0  0  0  0  0  0
   -1.5161   -3.3012   22.3246 C   0  0  0  0  0  0  0  0  0  0  0  0
   -2.5774   -3.3432   24.9979 O   0  0  0  0  0  0  0  0  0  0  0  0
    1.4264   -1.5227   26.7934 O   0  0  0  0  0  0  0  0  0  0  0  0
   -0.7284   -2.8361   23.4936 C   0  0  0  0  0  0  0  0  0  0  0  0
   -1.3073   -2.8806   24.7724 C   0  0  0  0  0  0  0  0  0  0  0  0
    0.5750   -2.3415   23.3499 C   0  0  0  0  0  0  0  0  0  0  0  0
   -0.5966   -2.4550   25.8929 C   0  0  0  0  0  0  0  0  0  0  0  0
    1.2818   -1.8992   24.4710 C   0  0  0  0  0  0  0  0  0  0  0  0
    0.6945   -1.9632   25.7304 C   0  0  0  0  0  0  0  0  0  0  0  0
   -3.1013   -3.6424   24.2809 H   0  0  0  0  0  0  0  0  0  0  0  0
    1.0628   -1.5509   27.6565 H   0  0  0  0  0  0  0  0  0  0  0  0
   -3.6958   -4.9703   21.7681 O   0  0  0  0  0  0  0  0  0  0  0  0
   -6.6121   -1.1860   21.3415 O   0  0  0  0  0  0  0  0  0  0  0  0
   -2.8566   -2.7527   22.0586 C   0  0  0  0  0  0  0  0  0  0  0  0
   -3.9196   -3.6228   21.7995 C   0  0  0  0  0  0  0  0  0  0  0  0
   -3.0574   -1.3704   22.0915 C   0  0  0  0  0  0  0  0  0  0  0  0
   -5.1966   -3.1164   21.5639 C   0  0  0  0  0  0  0  0  0  0  0  0
   -4.3307   -0.8619   21.8353 C   0  0  0  0  0  0  0  0  0  0  0  0
   -5.3865   -1.7354   21.5786 C   0  0  0  0  0  0  0  0  0  0  0  0
   -2.8355   -5.3061   21.9271 H   0  0  0  0  0  0  0  0  0  0  0  0
   -7.3472   -1.7393   21.1649 H   0  0  0  0  0  0  0  0  0  0  0  0
  3  6  1  0
  3 11  1  0
 13 16  1  0
 13 21  1  0
  1  2  2  0
  4 10  1  0
  4 12  1  0
 14 20  1  0
 14 22  1  0
  5  2  1  0
  5  6  2  0
  5  7  1  0
 15  2  1  0
 15 16  2  0
 15 17  1  0
  6  8  1  0
 16 18  1  0
  7  9  2  0
 17 19  2  0
  8 10  2  0
 18 20  2  0
  9 10  1  0
 19 20  1  0
M  END
> <PUBCHEM_COMPOUND_CID>
8571

> <PUBCHEM_CONFORMER_RMSD>
0.6

> <PUBCHEM_CONFORMER_DIVERSEORDER>
3
14
8
5
6
10
13
11
12
7
2
4
9
1

> <PUBCHEM_MMFF94_PARTIAL_CHARGES>
28
1 -0.53
10 0.08
11 -0.15
12 -0.15
13 -0.15
14 -0.15
15 -0.15
16 -0.15
17 0.08
18 0.08
19 0.15
2 -0.53
20 0.15
21 0.15
22 0.15
23 0.15
24 0.15
25 0.45
26 0.45
27 0.45
28 0.45
3 -0.57
4 -0.53
5 -0.53
6 0.09
7 0.09
8 0.4
9 0.08

> <PUBCHEM_EFFECTIVE_ROTOR_COUNT>
2

> <PUBCHEM_PHARMACOPHORE_FEATURES>
7
1 1 donor
1 2 donor
1 3 acceptor
1 4 donor
1 5 donor
6 6 9 11 13 15 17 rings
6 7 10 12 14 16 18 rings

> <PUBCHEM_HEAVY_ATOM_COUNT>
18

> <PUBCHEM_ATOM_DEF_STEREO_COUNT>
0

> <PUBCHEM_ATOM_UDEF_STEREO_COUNT>
0

> <PUBCHEM_BOND_DEF_STEREO_COUNT>
0

> <PUBCHEM_BOND_UDEF_STEREO_COUNT>
0

> <PUBCHEM_ISOTOPIC_ATOM_COUNT>
0

> <PUBCHEM_COMPONENT_COUNT>
1

> <PUBCHEM_CACTVS_TAUTO_COUNT>
72

> <PUBCHEM_CONFORMER_ID>
0000217B00000003

> <PUBCHEM_MMFF94_ENERGY>
59.7646

> <PUBCHEM_FEATURE_SELFOVERLAP>
35.523

> <PUBCHEM_SHAPE_FINGERPRINT>
11471102 20 18409169892103070408
11543360 7 16558473084182650672
11578080 2 11531614863815746903
12236239 1 18131065996288699443
12730499 353 18260275135465842107
13764800 53 16298659508524951853
14115302 16 17274813641062312855
14993402 34 17846215540487606185
15309172 13 17603583049510828995
15342168 16 17968104165179409005
15775835 57 18412826888988243309
16752209 62 16702019734536568467
16945 1 18338804403115108058
1813 80 17908702826610089778
18186145 218 18334579027342918966
19784866 34 18334295413878624880
19862831 5 17703791439638752137
19868273 293 17846494850753190559
20612939 158 18410015399459763708
20645476 183 18131345336920073351
20645477 70 18339644438557177238
20871999 31 17703499013054573895
21486144 27 18040157318289672158
22079108 93 18187935001610251691
22854114 59 17458065950124340569
231179 274 17822006519258234448
23402539 116 18409442626948148612
23402655 69 18343585139818180612
23559900 14 18270131244514800908
23598291 2 17916313731579383754
25 1 18335137605093349618
2748010 2 18049736405846724776
2838139 119 17898835865392311757
3082319 5 17846778520178562597
350125 39 17829344823007393920
4028521 119 18341894112446576825
474 4 18335984259027423912
5374978 207 12973890299285696421
633830 44 18335985259854816367
74978 22 17775280611934871745
76465 3 11743574149888780620
77492 1 18131067091542367739
81228 2 16880770831219455195
8272917 22 18265617572439684195
9981440 41 17624393673978878472

> <PUBCHEM_SHAPE_MULTIPOLES>
341.08
8.1
1.9
1.16
0.73
0.35
-0.07
-4.23
-1.78
-1.35
0.05
0.84
0.24
-0.62

> <PUBCHEM_SHAPE_SELFOVERLAP>
750.848

> <PUBCHEM_SHAPE_VOLUME>
184

> <PUBCHEM_COORDINATE_TYPE>
2
5
10

> <Energy>
46.2868

> <minimizedAffinity>
-8.25065

> <CNNscore>
0.8719921708

> <CNNaffinity>
6.0318131447

> <CNN_VS>
5.2596936226

> <CNNaffinity_variance>
0.5521885753

$$$$
8571


 22 23  0  0  0  0  0  0  0  0999 V2000
   -0.2232   -3.1212   20.8454 O   0  0  0  0  0  0  0  0  0  0  0  0
   -1.0446   -3.0236   21.7530 C   0  0  0  0  0  0  0  0  0  0  0  0
   -2.1635   -5.6702   21.6163 O   0  0  0  0  0  0  0  0  0  0  0  0
   -6.5013   -3.9676   20.6925 O   0  0  0  0  0  0  0  0  0  0  0  0
   -2.4845   -3.2583   21.4795 C   0  0  0  0  0  0  0  0  0  0  0  0
   -2.9661   -4.5763   21.4232 C   0  0  0  0  0  0  0  0  0  0  0  0
   -3.3726   -2.1959   21.2633 C   0  0  0  0  0  0  0  0  0  0  0  0
   -4.3122   -4.8344   21.1716 C   0  0  0  0  0  0  0  0  0  0  0  0
   -4.7190   -2.4547   20.9945 C   0  0  0  0  0  0  0  0  0  0  0  0
   -5.1782   -3.7674   20.9553 C   0  0  0  0  0  0  0  0  0  0  0  0
   -1.2496   -5.5560   21.7893 H   0  0  0  0  0  0  0  0  0  0  0  0
   -6.8456   -4.8384   20.6583 H   0  0  0  0  0  0  0  0  0  0  0  0
   -2.7024   -3.4221   23.9755 O   0  0  0  0  0  0  0  0  0  0  0  0
    0.7656   -1.9607   26.9495 O   0  0  0  0  0  0  0  0  0  0  0  0
   -0.5786   -2.7402   23.1210 C   0  0  0  0  0  0  0  0  0  0  0  0
   -1.4342   -2.9672   24.2028 C   0  0  0  0  0  0  0  0  0  0  0  0
    0.7214   -2.2705   23.3254 C   0  0  0  0  0  0  0  0  0  0  0  0
   -0.9985   -2.7197   25.5033 C   0  0  0  0  0  0  0  0  0  0  0  0
    1.1512   -2.0028   24.6251 C   0  0  0  0  0  0  0  0  0  0  0  0
    0.2929   -2.2323   25.6995 C   0  0  0  0  0  0  0  0  0  0  0  0
   -2.9909   -3.5871   23.0994 H   0  0  0  0  0  0  0  0  0  0  0  0
    0.2195   -2.1016   27.6977 H   0  0  0  0  0  0  0  0  0  0  0  0
  3  6  1  0
  3 11  1  0
 13 16  1  0
 13 21  1  0
  1  2  2  0
  4 10  1  0
  4 12  1  0
 14 20  1  0
 14 22  1  0
  5  2  1  0
  5  6  2  0
  5  7  1  0
 15  2  1  0
 15 16  2  0
 15 17  1  0
  6  8  1  0
 16 18  1  0
  7  9  2  0
 17 19  2  0
  8 10  2  0
 18 20  2  0
  9 10  1  0
 19 20  1  0
M  END
> <PUBCHEM_COMPOUND_CID>
8571

> <PUBCHEM_CONFORMER_RMSD>
0.6

> <PUBCHEM_CONFORMER_DIVERSEORDER>
3
14
8
5
6
10
13
11
12
7
2
4
9
1

> <PUBCHEM_MMFF94_PARTIAL_CHARGES>
28
1 -0.53
10 0.08
11 -0.15
12 -0.15
13 -0.15
14 -0.15
15 -0.15
16 -0.15
17 0.08
18 0.08
19 0.15
2 -0.53
20 0.15
21 0.15
22 0.15
23 0.15
24 0.15
25 0.45
26 0.45
27 0.45
28 0.45
3 -0.57
4 -0.53
5 -0.53
6 0.09
7 0.09
8 0.4
9 0.08

> <PUBCHEM_EFFECTIVE_ROTOR_COUNT>
2

> <PUBCHEM_PHARMACOPHORE_FEATURES>
7
1 1 donor
1 2 donor
1 3 acceptor
1 4 donor
1 5 donor
6 6 9 11 13 15 17 rings
6 7 10 12 14 16 18 rings

> <PUBCHEM_HEAVY_ATOM_COUNT>
18

> <PUBCHEM_ATOM_DEF_STEREO_COUNT>
0

> <PUBCHEM_ATOM_UDEF_STEREO_COUNT>
0

> <PUBCHEM_BOND_DEF_STEREO_COUNT>
0

> <PUBCHEM_BOND_UDEF_STEREO_COUNT>
0

> <PUBCHEM_ISOTOPIC_ATOM_COUNT>
0

> <PUBCHEM_COMPONENT_COUNT>
1

> <PUBCHEM_CACTVS_TAUTO_COUNT>
72

> <PUBCHEM_CONFORMER_ID>
0000217B00000003

> <PUBCHEM_MMFF94_ENERGY>
59.7646

> <PUBCHEM_FEATURE_SELFOVERLAP>
35.523

> <PUBCHEM_SHAPE_FINGERPRINT>
11471102 20 18409169892103070408
11543360 7 16558473084182650672
11578080 2 11531614863815746903
12236239 1 18131065996288699443
12730499 353 18260275135465842107
13764800 53 16298659508524951853
14115302 16 17274813641062312855
14993402 34 17846215540487606185
15309172 13 17603583049510828995
15342168 16 17968104165179409005
15775835 57 18412826888988243309
16752209 62 16702019734536568467
16945 1 18338804403115108058
1813 80 17908702826610089778
18186145 218 18334579027342918966
19784866 34 18334295413878624880
19862831 5 17703791439638752137
19868273 293 17846494850753190559
20612939 158 18410015399459763708
20645476 183 18131345336920073351
20645477 70 18339644438557177238
20871999 31 17703499013054573895
21486144 27 18040157318289672158
22079108 93 18187935001610251691
22854114 59 17458065950124340569
231179 274 17822006519258234448
23402539 116 18409442626948148612
23402655 69 18343585139818180612
23559900 14 18270131244514800908
23598291 2 17916313731579383754
25 1 18335137605093349618
2748010 2 18049736405846724776
2838139 119 17898835865392311757
3082319 5 17846778520178562597
350125 39 17829344823007393920
4028521 119 18341894112446576825
474 4 18335984259027423912
5374978 207 12973890299285696421
633830 44 18335985259854816367
74978 22 17775280611934871745
76465 3 11743574149888780620
77492 1 18131067091542367739
81228 2 16880770831219455195
8272917 22 18265617572439684195
9981440 41 17624393673978878472

> <PUBCHEM_SHAPE_MULTIPOLES>
341.08
8.1
1.9
1.16
0.73
0.35
-0.07
-4.23
-1.78
-1.35
0.05
0.84
0.24
-0.62

> <PUBCHEM_SHAPE_SELFOVERLAP>
750.848

> <PUBCHEM_SHAPE_VOLUME>
184

> <PUBCHEM_COORDINATE_TYPE>
2
5
10

> <Energy>
46.2868

> <minimizedAffinity>
-7.83992

> <CNNscore>
0.8429123163

> <CNNaffinity>
6.0473170280

> <CNN_VS>
5.0973582268

> <CNNaffinity_variance>
0.8763526082

$$$$
8571


 22 23  0  0  0  0  0  0  0  0999 V2000
   -0.4702   -2.7065   21.0337 O   0  0  0  0  0  0  0  0  0  0  0  0
   -1.2705   -2.9230   21.9397 C   0  0  0  0  0  0  0  0  0  0  0  0
   -3.4013   -1.0615   21.4205 O   0  0  0  0  0  0  0  0  0  0  0  0
   -6.5287   -4.5740   20.7492 O   0  0  0  0  0  0  0  0  0  0  0  0
   -2.6492   -3.3709   21.6210 C   0  0  0  0  0  0  0  0  0  0  0  0
   -3.6444   -2.4096   21.3805 C   0  0  0  0  0  0  0  0  0  0  0  0
   -2.9846   -4.7307   21.5668 C   0  0  0  0  0  0  0  0  0  0  0  0
   -4.9489   -2.7934   21.0755 C   0  0  0  0  0  0  0  0  0  0  0  0
   -4.2962   -5.1156   21.2775 C   0  0  0  0  0  0  0  0  0  0  0  0
   -5.2642   -4.1475   21.0304 C   0  0  0  0  0  0  0  0  0  0  0  0
   -2.5418   -0.7463   21.6206 H   0  0  0  0  0  0  0  0  0  0  0  0
   -7.2063   -3.9500   20.5776 H   0  0  0  0  0  0  0  0  0  0  0  0
   -3.1056   -2.8605   24.0551 O   0  0  0  0  0  0  0  0  0  0  0  0
    0.4460   -2.4788   27.2563 O   0  0  0  0  0  0  0  0  0  0  0  0
   -0.8276   -2.7996   23.3388 C   0  0  0  0  0  0  0  0  0  0  0  0
   -1.7769   -2.7870   24.3648 C   0  0  0  0  0  0  0  0  0  0  0  0
    0.5371   -2.7208   23.6279 C   0  0  0  0  0  0  0  0  0  0  0  0
   -1.3691   -2.6887   25.6940 C   0  0  0  0  0  0  0  0  0  0  0  0
    0.9449   -2.6014   24.9564 C   0  0  0  0  0  0  0  0  0  0  0  0
   -0.0071   -2.5904   25.9748 C   0  0  0  0  0  0  0  0  0  0  0  0
   -3.3750   -2.9265   23.1601 H   0  0  0  0  0  0  0  0  0  0  0  0
   -0.1622   -2.4676   27.9689 H   0  0  0  0  0  0  0  0  0  0  0  0
  3  6  1  0
  3 11  1  0
 13 16  1  0
 13 21  1  0
  1  2  2  0
  4 10  1  0
  4 12  1  0
 14 20  1  0
 14 22  1  0
  5  2  1  0
  5  6  2  0
  5  7  1  0
 15  2  1  0
 15 16  2  0
 15 17  1  0
  6  8  1  0
 16 18  1  0
  7  9  2  0
 17 19  2  0
  8 10  2  0
 18 20  2  0
  9 10  1  0
 19 20  1  0
M  END
> <PUBCHEM_COMPOUND_CID>
8571

> <PUBCHEM_CONFORMER_RMSD>
0.6

> <PUBCHEM_CONFORMER_DIVERSEORDER>
3
14
8
5
6
10
13
11
12
7
2
4
9
1

> <PUBCHEM_MMFF94_PARTIAL_CHARGES>
28
1 -0.53
10 0.08
11 -0.15
12 -0.15
13 -0.15
14 -0.15
15 -0.15
16 -0.15
17 0.08
18 0.08
19 0.15
2 -0.53
20 0.15
21 0.15
22 0.15
23 0.15
24 0.15
25 0.45
26 0.45
27 0.45
28 0.45
3 -0.57
4 -0.53
5 -0.53
6 0.09
7 0.09
8 0.4
9 0.08

> <PUBCHEM_EFFECTIVE_ROTOR_COUNT>
2

> <PUBCHEM_PHARMACOPHORE_FEATURES>
7
1 1 donor
1 2 donor
1 3 acceptor
1 4 donor
1 5 donor
6 6 9 11 13 15 17 rings
6 7 10 12 14 16 18 rings

> <PUBCHEM_HEAVY_ATOM_COUNT>
18

> <PUBCHEM_ATOM_DEF_STEREO_COUNT>
0

> <PUBCHEM_ATOM_UDEF_STEREO_COUNT>
0

> <PUBCHEM_BOND_DEF_STEREO_COUNT>
0

> <PUBCHEM_BOND_UDEF_STEREO_COUNT>
0

> <PUBCHEM_ISOTOPIC_ATOM_COUNT>
0

> <PUBCHEM_COMPONENT_COUNT>
1

> <PUBCHEM_CACTVS_TAUTO_COUNT>
72

> <PUBCHEM_CONFORMER_ID>
0000217B00000003

> <PUBCHEM_MMFF94_ENERGY>
59.7646

> <PUBCHEM_FEATURE_SELFOVERLAP>
35.523

> <PUBCHEM_SHAPE_FINGERPRINT>
11471102 20 18409169892103070408
11543360 7 16558473084182650672
11578080 2 11531614863815746903
12236239 1 18131065996288699443
12730499 353 18260275135465842107
13764800 53 16298659508524951853
14115302 16 17274813641062312855
14993402 34 17846215540487606185
15309172 13 17603583049510828995
15342168 16 17968104165179409005
15775835 57 18412826888988243309
16752209 62 16702019734536568467
16945 1 18338804403115108058
1813 80 17908702826610089778
18186145 218 18334579027342918966
19784866 34 18334295413878624880
19862831 5 17703791439638752137
19868273 293 17846494850753190559
20612939 158 18410015399459763708
20645476 183 18131345336920073351
20645477 70 18339644438557177238
20871999 31 17703499013054573895
21486144 27 18040157318289672158
22079108 93 18187935001610251691
22854114 59 17458065950124340569
231179 274 17822006519258234448
23402539 116 18409442626948148612
23402655 69 18343585139818180612
23559900 14 18270131244514800908
23598291 2 17916313731579383754
25 1 18335137605093349618
2748010 2 18049736405846724776
2838139 119 17898835865392311757
3082319 5 17846778520178562597
350125 39 17829344823007393920
4028521 119 18341894112446576825
474 4 18335984259027423912
5374978 207 12973890299285696421
633830 44 18335985259854816367
74978 22 17775280611934871745
76465 3 11743574149888780620
77492 1 18131067091542367739
81228 2 16880770831219455195
8272917 22 18265617572439684195
9981440 41 17624393673978878472

> <PUBCHEM_SHAPE_MULTIPOLES>
341.08
8.1
1.9
1.16
0.73
0.35
-0.07
-4.23
-1.78
-1.35
0.05
0.84
0.24
-0.62

> <PUBCHEM_SHAPE_SELFOVERLAP>
750.848

> <PUBCHEM_SHAPE_VOLUME>
184

> <PUBCHEM_COORDINATE_TYPE>
2
5
10

> <Energy>
46.2868

> <minimizedAffinity>
-7.71180

> <CNNscore>
0.8348464966

> <CNNaffinity>
6.1721510887

> <CNN_VS>
5.1527986526

> <CNNaffinity_variance>
1.0342787504

$$$$
8571


 22 23  0  0  0  0  0  0  0  0999 V2000
   -0.9292   -3.6566   21.3313 O   0  0  0  0  0  0  0  0  0  0  0  0
   -1.4793   -2.9623   22.1819 C   0  0  0  0  0  0  0  0  0  0  0  0
    1.3920   -3.0801   22.3122 O   0  0  0  0  0  0  0  0  0  0  0  0
    1.4286   -1.3292   26.7282 O   0  0  0  0  0  0  0  0  0  0  0  0
   -0.7253   -2.5230   23.3827 C   0  0  0  0  0  0  0  0  0  0  0  0
    0.6764   -2.6095   23.3821 C   0  0  0  0  0  0  0  0  0  0  0  0
   -1.3798   -2.0358   24.5222 C   0  0  0  0  0  0  0  0  0  0  0  0
    1.4173   -2.2036   24.4903 C   0  0  0  0  0  0  0  0  0  0  0  0
   -0.6384   -1.6444   25.6398 C   0  0  0  0  0  0  0  0  0  0  0  0
    0.7501   -1.7266   25.6140 C   0  0  0  0  0  0  0  0  0  0  0  0
    0.9456   -3.3668   21.5397 H   0  0  0  0  0  0  0  0  0  0  0  0
    2.3645   -1.3708   26.7466 H   0  0  0  0  0  0  0  0  0  0  0  0
   -3.5860   -4.7948   21.9573 O   0  0  0  0  0  0  0  0  0  0  0  0
   -6.7507   -1.2370   21.3784 O   0  0  0  0  0  0  0  0  0  0  0  0
   -2.8660   -2.5171   21.9640 C   0  0  0  0  0  0  0  0  0  0  0  0
   -3.8891   -3.4652   21.8722 C   0  0  0  0  0  0  0  0  0  0  0  0
   -3.1482   -1.1515   21.8752 C   0  0  0  0  0  0  0  0  0  0  0  0
   -5.2079   -3.0553   21.6839 C   0  0  0  0  0  0  0  0  0  0  0  0
   -4.4649   -0.7415   21.6659 C   0  0  0  0  0  0  0  0  0  0  0  0
   -5.4805   -1.6923   21.5763 C   0  0  0  0  0  0  0  0  0  0  0  0
   -2.6979   -5.0656   22.0839 H   0  0  0  0  0  0  0  0  0  0  0  0
   -7.4611   -1.8444   21.3127 H   0  0  0  0  0  0  0  0  0  0  0  0
  3  6  1  0
  3 11  1  0
 13 16  1  0
 13 21  1  0
  1  2  2  0
  4 10  1  0
  4 12  1  0
 14 20  1  0
 14 22  1  0
  5  2  1  0
  5  6  2  0
  5  7  1  0
 15  2  1  0
 15 16  2  0
 15 17  1  0
  6  8  1  0
 16 18  1  0
  7  9  2  0
 17 19  2  0
  8 10  2  0
 18 20  2  0
  9 10  1  0
 19 20  1  0
M  END
> <PUBCHEM_COMPOUND_CID>
8571

> <PUBCHEM_CONFORMER_RMSD>
0.6

> <PUBCHEM_CONFORMER_DIVERSEORDER>
3
14
8
5
6
10
13
11
12
7
2
4
9
1

> <PUBCHEM_MMFF94_PARTIAL_CHARGES>
28
1 -0.53
10 0.08
11 -0.15
12 -0.15
13 -0.15
14 -0.15
15 -0.15
16 -0.15
17 0.08
18 0.08
19 0.15
2 -0.53
20 0.15
21 0.15
22 0.15
23 0.15
24 0.15
25 0.45
26 0.45
27 0.45
28 0.45
3 -0.57
4 -0.53
5 -0.53
6 0.09
7 0.09
8 0.4
9 0.08

> <PUBCHEM_EFFECTIVE_ROTOR_COUNT>
2

> <PUBCHEM_PHARMACOPHORE_FEATURES>
7
1 1 donor
1 2 donor
1 3 acceptor
1 4 donor
1 5 donor
6 6 9 11 13 15 17 rings
6 7 10 12 14 16 18 rings

> <PUBCHEM_HEAVY_ATOM_COUNT>
18

> <PUBCHEM_ATOM_DEF_STEREO_COUNT>
0

> <PUBCHEM_ATOM_UDEF_STEREO_COUNT>
0

> <PUBCHEM_BOND_DEF_STEREO_COUNT>
0

> <PUBCHEM_BOND_UDEF_STEREO_COUNT>
0

> <PUBCHEM_ISOTOPIC_ATOM_COUNT>
0

> <PUBCHEM_COMPONENT_COUNT>
1

> <PUBCHEM_CACTVS_TAUTO_COUNT>
72

> <PUBCHEM_CONFORMER_ID>
0000217B00000003

> <PUBCHEM_MMFF94_ENERGY>
59.7646

> <PUBCHEM_FEATURE_SELFOVERLAP>
35.523

> <PUBCHEM_SHAPE_FINGERPRINT>
11471102 20 18409169892103070408
11543360 7 16558473084182650672
11578080 2 11531614863815746903
12236239 1 18131065996288699443
12730499 353 18260275135465842107
13764800 53 16298659508524951853
14115302 16 17274813641062312855
14993402 34 17846215540487606185
15309172 13 17603583049510828995
15342168 16 17968104165179409005
15775835 57 18412826888988243309
16752209 62 16702019734536568467
16945 1 18338804403115108058
1813 80 17908702826610089778
18186145 218 18334579027342918966
19784866 34 18334295413878624880
19862831 5 17703791439638752137
19868273 293 17846494850753190559
20612939 158 18410015399459763708
20645476 183 18131345336920073351
20645477 70 18339644438557177238
20871999 31 17703499013054573895
21486144 27 18040157318289672158
22079108 93 18187935001610251691
22854114 59 17458065950124340569
231179 274 17822006519258234448
23402539 116 18409442626948148612
23402655 69 18343585139818180612
23559900 14 18270131244514800908
23598291 2 17916313731579383754
25 1 18335137605093349618
2748010 2 18049736405846724776
2838139 119 17898835865392311757
3082319 5 17846778520178562597
350125 39 17829344823007393920
4028521 119 18341894112446576825
474 4 18335984259027423912
5374978 207 12973890299285696421
633830 44 18335985259854816367
74978 22 17775280611934871745
76465 3 11743574149888780620
77492 1 18131067091542367739
81228 2 16880770831219455195
8272917 22 18265617572439684195
9981440 41 17624393673978878472

> <PUBCHEM_SHAPE_MULTIPOLES>
341.08
8.1
1.9
1.16
0.73
0.35
-0.07
-4.23
-1.78
-1.35
0.05
0.84
0.24
-0.62

> <PUBCHEM_SHAPE_SELFOVERLAP>
750.848

> <PUBCHEM_SHAPE_VOLUME>
184

> <PUBCHEM_COORDINATE_TYPE>
2
5
10

> <Energy>
46.2868

> <minimizedAffinity>
-7.89541

> <CNNscore>
0.8265389800

> <CNNaffinity>
6.2218670845

> <CNN_VS>
5.1426157951

> <CNNaffinity_variance>
0.4607253969

$$$$
8571


 22 23  0  0  0  0  0  0  0  0999 V2000
   -1.3465   -4.7935   22.3436 O   0  0  0  0  0  0  0  0  0  0  0  0
   -1.6621   -3.6901   22.7808 C   0  0  0  0  0  0  0  0  0  0  0  0
   -1.9354   -2.6322   20.1197 O   0  0  0  0  0  0  0  0  0  0  0  0
   -6.3767   -1.1794   20.9752 O   0  0  0  0  0  0  0  0  0  0  0  0
   -2.9114   -3.0371   22.3158 C   0  0  0  0  0  0  0  0  0  0  0  0
   -2.9779   -2.5390   21.0043 C   0  0  0  0  0  0  0  0  0  0  0  0
   -4.0220   -2.8943   23.1586 C   0  0  0  0  0  0  0  0  0  0  0  0
   -4.1353   -1.9227   20.5326 C   0  0  0  0  0  0  0  0  0  0  0  0
   -5.1767   -2.2616   22.6913 C   0  0  0  0  0  0  0  0  0  0  0  0
   -5.2262   -1.7862   21.3849 C   0  0  0  0  0  0  0  0  0  0  0  0
   -1.1324   -3.0373   20.3830 H   0  0  0  0  0  0  0  0  0  0  0  0
   -6.4458   -0.8470   20.1019 H   0  0  0  0  0  0  0  0  0  0  0  0
   -2.4738   -3.5969   25.4601 O   0  0  0  0  0  0  0  0  0  0  0  0
    1.5495   -1.2999   26.7029 O   0  0  0  0  0  0  0  0  0  0  0  0
   -0.8270   -3.0579   23.8159 C   0  0  0  0  0  0  0  0  0  0  0  0
   -1.2640   -3.0465   25.1437 C   0  0  0  0  0  0  0  0  0  0  0  0
    0.4038   -2.4975   23.4647 C   0  0  0  0  0  0  0  0  0  0  0  0
   -0.4742   -2.4670   26.1352 C   0  0  0  0  0  0  0  0  0  0  0  0
    1.1852   -1.8989   24.4530 C   0  0  0  0  0  0  0  0  0  0  0  0
    0.7438   -1.8919   25.7753 C   0  0  0  0  0  0  0  0  0  0  0  0
   -3.0013   -3.9854   24.7902 H   0  0  0  0  0  0  0  0  0  0  0  0
    1.2884   -1.2746   27.6023 H   0  0  0  0  0  0  0  0  0  0  0  0
  3  6  1  0
  3 11  1  0
 13 16  1  0
 13 21  1  0
  1  2  2  0
  4 10  1  0
  4 12  1  0
 14 20  1  0
 14 22  1  0
  5  2  1  0
  5  6  2  0
  5  7  1  0
 15  2  1  0
 15 16  2  0
 15 17  1  0
  6  8  1  0
 16 18  1  0
  7  9  2  0
 17 19  2  0
  8 10  2  0
 18 20  2  0
  9 10  1  0
 19 20  1  0
M  END
> <PUBCHEM_COMPOUND_CID>
8571

> <PUBCHEM_CONFORMER_RMSD>
0.6

> <PUBCHEM_CONFORMER_DIVERSEORDER>
3
14
8
5
6
10
13
11
12
7
2
4
9
1

> <PUBCHEM_MMFF94_PARTIAL_CHARGES>
28
1 -0.53
10 0.08
11 -0.15
12 -0.15
13 -0.15
14 -0.15
15 -0.15
16 -0.15
17 0.08
18 0.08
19 0.15
2 -0.53
20 0.15
21 0.15
22 0.15
23 0.15
24 0.15
25 0.45
26 0.45
27 0.45
28 0.45
3 -0.57
4 -0.53
5 -0.53
6 0.09
7 0.09
8 0.4
9 0.08

> <PUBCHEM_EFFECTIVE_ROTOR_COUNT>
2

> <PUBCHEM_PHARMACOPHORE_FEATURES>
7
1 1 donor
1 2 donor
1 3 acceptor
1 4 donor
1 5 donor
6 6 9 11 13 15 17 rings
6 7 10 12 14 16 18 rings

> <PUBCHEM_HEAVY_ATOM_COUNT>
18

> <PUBCHEM_ATOM_DEF_STEREO_COUNT>
0

> <PUBCHEM_ATOM_UDEF_STEREO_COUNT>
0

> <PUBCHEM_BOND_DEF_STEREO_COUNT>
0

> <PUBCHEM_BOND_UDEF_STEREO_COUNT>
0

> <PUBCHEM_ISOTOPIC_ATOM_COUNT>
0

> <PUBCHEM_COMPONENT_COUNT>
1

> <PUBCHEM_CACTVS_TAUTO_COUNT>
72

> <PUBCHEM_CONFORMER_ID>
0000217B00000003

> <PUBCHEM_MMFF94_ENERGY>
59.7646

> <PUBCHEM_FEATURE_SELFOVERLAP>
35.523

> <PUBCHEM_SHAPE_FINGERPRINT>
11471102 20 18409169892103070408
11543360 7 16558473084182650672
11578080 2 11531614863815746903
12236239 1 18131065996288699443
12730499 353 18260275135465842107
13764800 53 16298659508524951853
14115302 16 17274813641062312855
14993402 34 17846215540487606185
15309172 13 17603583049510828995
15342168 16 17968104165179409005
15775835 57 18412826888988243309
16752209 62 16702019734536568467
16945 1 18338804403115108058
1813 80 17908702826610089778
18186145 218 18334579027342918966
19784866 34 18334295413878624880
19862831 5 17703791439638752137
19868273 293 17846494850753190559
20612939 158 18410015399459763708
20645476 183 18131345336920073351
20645477 70 18339644438557177238
20871999 31 17703499013054573895
21486144 27 18040157318289672158
22079108 93 18187935001610251691
22854114 59 17458065950124340569
231179 274 17822006519258234448
23402539 116 18409442626948148612
23402655 69 18343585139818180612
23559900 14 18270131244514800908
23598291 2 17916313731579383754
25 1 18335137605093349618
2748010 2 18049736405846724776
2838139 119 17898835865392311757
3082319 5 17846778520178562597
350125 39 17829344823007393920
4028521 119 18341894112446576825
474 4 18335984259027423912
5374978 207 12973890299285696421
633830 44 18335985259854816367
74978 22 17775280611934871745
76465 3 11743574149888780620
77492 1 18131067091542367739
81228 2 16880770831219455195
8272917 22 18265617572439684195
9981440 41 17624393673978878472

> <PUBCHEM_SHAPE_MULTIPOLES>
341.08
8.1
1.9
1.16
0.73
0.35
-0.07
-4.23
-1.78
-1.35
0.05
0.84
0.24
-0.62

> <PUBCHEM_SHAPE_SELFOVERLAP>
750.848

> <PUBCHEM_SHAPE_VOLUME>
184

> <PUBCHEM_COORDINATE_TYPE>
2
5
10

> <Energy>
46.2868

> <minimizedAffinity>
-7.91197

> <CNNscore>
0.8184689283

> <CNNaffinity>
6.1312079430

> <CNN_VS>
5.0182032585

> <CNNaffinity_variance>
0.6379479766

$$$$
8571


 22 23  0  0  0  0  0  0  0  0999 V2000
   -2.2633   -4.9685   23.0491 O   0  0  0  0  0  0  0  0  0  0  0  0
   -1.9015   -3.8120   22.8501 C   0  0  0  0  0  0  0  0  0  0  0  0
   -2.7558   -3.2163   25.5316 O   0  0  0  0  0  0  0  0  0  0  0  0
    1.4187   -1.2125   26.5932 O   0  0  0  0  0  0  0  0  0  0  0  0
   -1.0151   -3.1329   23.8281 C   0  0  0  0  0  0  0  0  0  0  0  0
   -1.4953   -2.8687   25.1211 C   0  0  0  0  0  0  0  0  0  0  0  0
    0.2857   -2.7374   23.4877 C   0  0  0  0  0  0  0  0  0  0  0  0
   -0.6904   -2.2356   26.0662 C   0  0  0  0  0  0  0  0  0  0  0  0
    1.0872   -2.0877   24.4298 C   0  0  0  0  0  0  0  0  0  0  0  0
    0.5966   -1.8465   25.7090 C   0  0  0  0  0  0  0  0  0  0  0  0
   -3.3404   -3.6447   24.9377 H   0  0  0  0  0  0  0  0  0  0  0  0
    1.1216   -1.0335   27.4637 H   0  0  0  0  0  0  0  0  0  0  0  0
   -0.7463   -4.4825   20.3879 O   0  0  0  0  0  0  0  0  0  0  0  0
   -3.4550   -1.2375   18.1206 O   0  0  0  0  0  0  0  0  0  0  0  0
   -2.2994   -3.1354   21.6041 C   0  0  0  0  0  0  0  0  0  0  0  0
   -1.7075   -3.5115   20.3949 C   0  0  0  0  0  0  0  0  0  0  0  0
   -3.2812   -2.1418   21.6397 C   0  0  0  0  0  0  0  0  0  0  0  0
   -2.0888   -2.8909   19.2066 C   0  0  0  0  0  0  0  0  0  0  0  0
   -3.6483   -1.5058   20.4538 C   0  0  0  0  0  0  0  0  0  0  0  0
   -3.0546   -1.8865   19.2513 C   0  0  0  0  0  0  0  0  0  0  0  0
   -0.4933   -4.8969   21.1893 H   0  0  0  0  0  0  0  0  0  0  0  0
   -3.0798   -1.4642   17.2926 H   0  0  0  0  0  0  0  0  0  0  0  0
  3  6  1  0
  3 11  1  0
 13 16  1  0
 13 21  1  0
  1  2  2  0
  4 10  1  0
  4 12  1  0
 14 20  1  0
 14 22  1  0
  5  2  1  0
  5  6  2  0
  5  7  1  0
 15  2  1  0
 15 16  2  0
 15 17  1  0
  6  8  1  0
 16 18  1  0
  7  9  2  0
 17 19  2  0
  8 10  2  0
 18 20  2  0
  9 10  1  0
 19 20  1  0
M  END
> <PUBCHEM_COMPOUND_CID>
8571

> <PUBCHEM_CONFORMER_RMSD>
0.6

> <PUBCHEM_CONFORMER_DIVERSEORDER>
3
14
8
5
6
10
13
11
12
7
2
4
9
1

> <PUBCHEM_MMFF94_PARTIAL_CHARGES>
28
1 -0.53
10 0.08
11 -0.15
12 -0.15
13 -0.15
14 -0.15
15 -0.15
16 -0.15
17 0.08
18 0.08
19 0.15
2 -0.53
20 0.15
21 0.15
22 0.15
23 0.15
24 0.15
25 0.45
26 0.45
27 0.45
28 0.45
3 -0.57
4 -0.53
5 -0.53
6 0.09
7 0.09
8 0.4
9 0.08

> <PUBCHEM_EFFECTIVE_ROTOR_COUNT>
2

> <PUBCHEM_PHARMACOPHORE_FEATURES>
7
1 1 donor
1 2 donor
1 3 acceptor
1 4 donor
1 5 donor
6 6 9 11 13 15 17 rings
6 7 10 12 14 16 18 rings

> <PUBCHEM_HEAVY_ATOM_COUNT>
18

> <PUBCHEM_ATOM_DEF_STEREO_COUNT>
0

> <PUBCHEM_ATOM_UDEF_STEREO_COUNT>
0

> <PUBCHEM_BOND_DEF_STEREO_COUNT>
0

> <PUBCHEM_BOND_UDEF_STEREO_COUNT>
0

> <PUBCHEM_ISOTOPIC_ATOM_COUNT>
0

> <PUBCHEM_COMPONENT_COUNT>
1

> <PUBCHEM_CACTVS_TAUTO_COUNT>
72

> <PUBCHEM_CONFORMER_ID>
0000217B00000003

> <PUBCHEM_MMFF94_ENERGY>
59.7646

> <PUBCHEM_FEATURE_SELFOVERLAP>
35.523

> <PUBCHEM_SHAPE_FINGERPRINT>
11471102 20 18409169892103070408
11543360 7 16558473084182650672
11578080 2 11531614863815746903
12236239 1 18131065996288699443
12730499 353 18260275135465842107
13764800 53 16298659508524951853
14115302 16 17274813641062312855
14993402 34 17846215540487606185
15309172 13 17603583049510828995
15342168 16 17968104165179409005
15775835 57 18412826888988243309
16752209 62 16702019734536568467
16945 1 18338804403115108058
1813 80 17908702826610089778
18186145 218 18334579027342918966
19784866 34 18334295413878624880
19862831 5 17703791439638752137
19868273 293 17846494850753190559
20612939 158 18410015399459763708
20645476 183 18131345336920073351
20645477 70 18339644438557177238
20871999 31 17703499013054573895
21486144 27 18040157318289672158
22079108 93 18187935001610251691
22854114 59 17458065950124340569
231179 274 17822006519258234448
23402539 116 18409442626948148612
23402655 69 18343585139818180612
23559900 14 18270131244514800908
23598291 2 17916313731579383754
25 1 18335137605093349618
2748010 2 18049736405846724776
2838139 119 17898835865392311757
3082319 5 17846778520178562597
350125 39 17829344823007393920
4028521 119 18341894112446576825
474 4 18335984259027423912
5374978 207 12973890299285696421
633830 44 18335985259854816367
74978 22 17775280611934871745
76465 3 11743574149888780620
77492 1 18131067091542367739
81228 2 16880770831219455195
8272917 22 18265617572439684195
9981440 41 17624393673978878472

> <PUBCHEM_SHAPE_MULTIPOLES>
341.08
8.1
1.9
1.16
0.73
0.35
-0.07
-4.23
-1.78
-1.35
0.05
0.84
0.24
-0.62

> <PUBCHEM_SHAPE_SELFOVERLAP>
750.848

> <PUBCHEM_SHAPE_VOLUME>
184

> <PUBCHEM_COORDINATE_TYPE>
2
5
10

> <Energy>
46.2868

> <minimizedAffinity>
-8.78905

> <CNNscore>
0.8020105958

> <CNNaffinity>
6.2455658913

> <CNN_VS>
5.0090098381

> <CNNaffinity_variance>
0.5335159898

$$$$
8571


 22 23  0  0  0  0  0  0  0  0999 V2000
   -2.2276   -4.9568   23.0603 O   0  0  0  0  0  0  0  0  0  0  0  0
   -1.8435   -3.8143   22.8255 C   0  0  0  0  0  0  0  0  0  0  0  0
   -0.7790   -4.4821   20.2378 O   0  0  0  0  0  0  0  0  0  0  0  0
   -3.4675   -1.1994   18.1015 O   0  0  0  0  0  0  0  0  0  0  0  0
   -2.2844   -3.1225   21.5885 C   0  0  0  0  0  0  0  0  0  0  0  0
   -1.7223   -3.4951   20.3566 C   0  0  0  0  0  0  0  0  0  0  0  0
   -3.2394   -2.0972   21.6222 C   0  0  0  0  0  0  0  0  0  0  0  0
   -2.1143   -2.8696   19.1746 C   0  0  0  0  0  0  0  0  0  0  0  0
   -3.6204   -1.4584   20.4394 C   0  0  0  0  0  0  0  0  0  0  0  0
   -3.0603   -1.8511   19.2280 C   0  0  0  0  0  0  0  0  0  0  0  0
   -0.4783   -4.9368   21.0000 H   0  0  0  0  0  0  0  0  0  0  0  0
   -3.1116   -1.4372   17.2680 H   0  0  0  0  0  0  0  0  0  0  0  0
   -2.7973   -3.1959   25.3856 O   0  0  0  0  0  0  0  0  0  0  0  0
    1.3951   -1.1893   26.5714 O   0  0  0  0  0  0  0  0  0  0  0  0
   -1.0010   -3.1187   23.8129 C   0  0  0  0  0  0  0  0  0  0  0  0
   -1.5123   -2.8425   25.0843 C   0  0  0  0  0  0  0  0  0  0  0  0
    0.3081   -2.7636   23.4774 C   0  0  0  0  0  0  0  0  0  0  0  0
   -0.7185   -2.2007   26.0333 C   0  0  0  0  0  0  0  0  0  0  0  0
    1.0961   -2.1027   24.4197 C   0  0  0  0  0  0  0  0  0  0  0  0
    0.5801   -1.8312   25.6860 C   0  0  0  0  0  0  0  0  0  0  0  0
   -3.3272   -3.6272   24.7444 H   0  0  0  0  0  0  0  0  0  0  0  0
    1.0854   -0.9888   27.4326 H   0  0  0  0  0  0  0  0  0  0  0  0
  3  6  1  0
  3 11  1  0
 13 16  1  0
 13 21  1  0
  1  2  2  0
  4 10  1  0
  4 12  1  0
 14 20  1  0
 14 22  1  0
  5  2  1  0
  5  6  2  0
  5  7  1  0
 15  2  1  0
 15 16  2  0
 15 17  1  0
  6  8  1  0
 16 18  1  0
  7  9  2  0
 17 19  2  0
  8 10  2  0
 18 20  2  0
  9 10  1  0
 19 20  1  0
M  END
> <PUBCHEM_COMPOUND_CID>
8571

> <PUBCHEM_CONFORMER_RMSD>
0.6

> <PUBCHEM_CONFORMER_DIVERSEORDER>
3
14
8
5
6
10
13
11
12
7
2
4
9
1

> <PUBCHEM_MMFF94_PARTIAL_CHARGES>
28
1 -0.53
10 0.08
11 -0.15
12 -0.15
13 -0.15
14 -0.15
15 -0.15
16 -0.15
17 0.08
18 0.08
19 0.15
2 -0.53
20 0.15
21 0.15
22 0.15
23 0.15
24 0.15
25 0.45
26 0.45
27 0.45
28 0.45
3 -0.57
4 -0.53
5 -0.53
6 0.09
7 0.09
8 0.4
9 0.08

> <PUBCHEM_EFFECTIVE_ROTOR_COUNT>
2

> <PUBCHEM_PHARMACOPHORE_FEATURES>
7
1 1 donor
1 2 donor
1 3 acceptor
1 4 donor
1 5 donor
6 6 9 11 13 15 17 rings
6 7 10 12 14 16 18 rings

> <PUBCHEM_HEAVY_ATOM_COUNT>
18

> <PUBCHEM_ATOM_DEF_STEREO_COUNT>
0

> <PUBCHEM_ATOM_UDEF_STEREO_COUNT>
0

> <PUBCHEM_BOND_DEF_STEREO_COUNT>
0

> <PUBCHEM_BOND_UDEF_STEREO_COUNT>
0

> <PUBCHEM_ISOTOPIC_ATOM_COUNT>
0

> <PUBCHEM_COMPONENT_COUNT>
1

> <PUBCHEM_CACTVS_TAUTO_COUNT>
72

> <PUBCHEM_CONFORMER_ID>
0000217B00000003

> <PUBCHEM_MMFF94_ENERGY>
59.7646

> <PUBCHEM_FEATURE_SELFOVERLAP>
35.523

> <PUBCHEM_SHAPE_FINGERPRINT>
11471102 20 18409169892103070408
11543360 7 16558473084182650672
11578080 2 11531614863815746903
12236239 1 18131065996288699443
12730499 353 18260275135465842107
13764800 53 16298659508524951853
14115302 16 17274813641062312855
14993402 34 17846215540487606185
15309172 13 17603583049510828995
15342168 16 17968104165179409005
15775835 57 18412826888988243309
16752209 62 16702019734536568467
16945 1 18338804403115108058
1813 80 17908702826610089778
18186145 218 18334579027342918966
19784866 34 18334295413878624880
19862831 5 17703791439638752137
19868273 293 17846494850753190559
20612939 158 18410015399459763708
20645476 183 18131345336920073351
20645477 70 18339644438557177238
20871999 31 17703499013054573895
21486144 27 18040157318289672158
22079108 93 18187935001610251691
22854114 59 17458065950124340569
231179 274 17822006519258234448
23402539 116 18409442626948148612
23402655 69 18343585139818180612
23559900 14 18270131244514800908
23598291 2 17916313731579383754
25 1 18335137605093349618
2748010 2 18049736405846724776
2838139 119 17898835865392311757
3082319 5 17846778520178562597
350125 39 17829344823007393920
4028521 119 18341894112446576825
474 4 18335984259027423912
5374978 207 12973890299285696421
633830 44 18335985259854816367
74978 22 17775280611934871745
76465 3 11743574149888780620
77492 1 18131067091542367739
81228 2 16880770831219455195
8272917 22 18265617572439684195
9981440 41 17624393673978878472

> <PUBCHEM_SHAPE_MULTIPOLES>
341.08
8.1
1.9
1.16
0.73
0.35
-0.07
-4.23
-1.78
-1.35
0.05
0.84
0.24
-0.62

> <PUBCHEM_SHAPE_SELFOVERLAP>
750.848

> <PUBCHEM_SHAPE_VOLUME>
184

> <PUBCHEM_COORDINATE_TYPE>
2
5
10

> <Energy>
46.2868

> <minimizedAffinity>
-8.75959

> <CNNscore>
0.7962532640

> <CNNaffinity>
6.2343564034

> <CNN_VS>
4.9641265869

> <CNNaffinity_variance>
0.4995301068

$$$$
8571


 22 23  0  0  0  0  0  0  0  0999 V2000
   -2.6425   -0.7370   22.3229 O   0  0  0  0  0  0  0  0  0  0  0  0
   -2.5201   -1.8591   22.8068 C   0  0  0  0  0  0  0  0  0  0  0  0
    0.3235   -1.4821   22.5914 O   0  0  0  0  0  0  0  0  0  0  0  0
    0.9952   -2.6949   27.1352 O   0  0  0  0  0  0  0  0  0  0  0  0
   -1.6062   -2.0763   23.9560 C   0  0  0  0  0  0  0  0  0  0  0  0
   -0.2268   -1.8773   23.7826 C   0  0  0  0  0  0  0  0  0  0  0  0
   -2.0858   -2.4876   25.2070 C   0  0  0  0  0  0  0  0  0  0  0  0
    0.6606   -2.0688   24.8398 C   0  0  0  0  0  0  0  0  0  0  0  0
   -1.1946   -2.6959   26.2627 C   0  0  0  0  0  0  0  0  0  0  0  0
    0.1668   -2.4813   26.0732 C   0  0  0  0  0  0  0  0  0  0  0  0
   -0.2261   -1.3383   21.8462 H   0  0  0  0  0  0  0  0  0  0  0  0
    1.9179   -2.5603   27.0441 H   0  0  0  0  0  0  0  0  0  0  0  0
   -5.3157   -1.7026   22.7249 O   0  0  0  0  0  0  0  0  0  0  0  0
   -5.6028   -6.0748   20.7733 O   0  0  0  0  0  0  0  0  0  0  0  0
   -3.3374   -2.9653   22.2803 C   0  0  0  0  0  0  0  0  0  0  0  0
   -4.7291   -2.8392   22.2444 C   0  0  0  0  0  0  0  0  0  0  0  0
   -2.7126   -4.1191   21.7999 C   0  0  0  0  0  0  0  0  0  0  0  0
   -5.5121   -3.8720   21.7319 C   0  0  0  0  0  0  0  0  0  0  0  0
   -3.4968   -5.1616   21.3060 C   0  0  0  0  0  0  0  0  0  0  0  0
   -4.8841   -5.0287   21.2724 C   0  0  0  0  0  0  0  0  0  0  0  0
   -4.7852   -1.0108   23.0685 H   0  0  0  0  0  0  0  0  0  0  0  0
   -6.5375   -6.0245   20.7338 H   0  0  0  0  0  0  0  0  0  0  0  0
  3  6  1  0
  3 11  1  0
 13 16  1  0
 13 21  1  0
  1  2  2  0
  4 10  1  0
  4 12  1  0
 14 20  1  0
 14 22  1  0
  5  2  1  0
  5  6  2  0
  5  7  1  0
 15  2  1  0
 15 16  2  0
 15 17  1  0
  6  8  1  0
 16 18  1  0
  7  9  2  0
 17 19  2  0
  8 10  2  0
 18 20  2  0
  9 10  1  0
 19 20  1  0
M  END
> <PUBCHEM_COMPOUND_CID>
8571

> <PUBCHEM_CONFORMER_RMSD>
0.6

> <PUBCHEM_CONFORMER_DIVERSEORDER>
3
14
8
5
6
10
13
11
12
7
2
4
9
1

> <PUBCHEM_MMFF94_PARTIAL_CHARGES>
28
1 -0.53
10 0.08
11 -0.15
12 -0.15
13 -0.15
14 -0.15
15 -0.15
16 -0.15
17 0.08
18 0.08
19 0.15
2 -0.53
20 0.15
21 0.15
22 0.15
23 0.15
24 0.15
25 0.45
26 0.45
27 0.45
28 0.45
3 -0.57
4 -0.53
5 -0.53
6 0.09
7 0.09
8 0.4
9 0.08

> <PUBCHEM_EFFECTIVE_ROTOR_COUNT>
2

> <PUBCHEM_PHARMACOPHORE_FEATURES>
7
1 1 donor
1 2 donor
1 3 acceptor
1 4 donor
1 5 donor
6 6 9 11 13 15 17 rings
6 7 10 12 14 16 18 rings

> <PUBCHEM_HEAVY_ATOM_COUNT>
18

> <PUBCHEM_ATOM_DEF_STEREO_COUNT>
0

> <PUBCHEM_ATOM_UDEF_STEREO_COUNT>
0

> <PUBCHEM_BOND_DEF_STEREO_COUNT>
0

> <PUBCHEM_BOND_UDEF_STEREO_COUNT>
0

> <PUBCHEM_ISOTOPIC_ATOM_COUNT>
0

> <PUBCHEM_COMPONENT_COUNT>
1

> <PUBCHEM_CACTVS_TAUTO_COUNT>
72

> <PUBCHEM_CONFORMER_ID>
0000217B00000003

> <PUBCHEM_MMFF94_ENERGY>
59.7646

> <PUBCHEM_FEATURE_SELFOVERLAP>
35.523

> <PUBCHEM_SHAPE_FINGERPRINT>
11471102 20 18409169892103070408
11543360 7 16558473084182650672
11578080 2 11531614863815746903
12236239 1 18131065996288699443
12730499 353 18260275135465842107
13764800 53 16298659508524951853
14115302 16 17274813641062312855
14993402 34 17846215540487606185
15309172 13 17603583049510828995
15342168 16 17968104165179409005
15775835 57 18412826888988243309
16752209 62 16702019734536568467
16945 1 18338804403115108058
1813 80 17908702826610089778
18186145 218 18334579027342918966
19784866 34 18334295413878624880
19862831 5 17703791439638752137
19868273 293 17846494850753190559
20612939 158 18410015399459763708
20645476 183 18131345336920073351
20645477 70 18339644438557177238
20871999 31 17703499013054573895
21486144 27 18040157318289672158
22079108 93 18187935001610251691
22854114 59 17458065950124340569
231179 274 17822006519258234448
23402539 116 18409442626948148612
23402655 69 18343585139818180612
23559900 14 18270131244514800908
23598291 2 17916313731579383754
25 1 18335137605093349618
2748010 2 18049736405846724776
2838139 119 17898835865392311757
3082319 5 17846778520178562597
350125 39 17829344823007393920
4028521 119 18341894112446576825
474 4 18335984259027423912
5374978 207 12973890299285696421
633830 44 18335985259854816367
74978 22 17775280611934871745
76465 3 11743574149888780620
77492 1 18131067091542367739
81228 2 16880770831219455195
8272917 22 18265617572439684195
9981440 41 17624393673978878472

> <PUBCHEM_SHAPE_MULTIPOLES>
341.08
8.1
1.9
1.16
0.73
0.35
-0.07
-4.23
-1.78
-1.35
0.05
0.84
0.24
-0.62

> <PUBCHEM_SHAPE_SELFOVERLAP>
750.848

> <PUBCHEM_SHAPE_VOLUME>
184

> <PUBCHEM_COORDINATE_TYPE>
2
5
10

> <Energy>
46.2868

> <minimizedAffinity>
-7.40410

> <CNNscore>
0.7900645733

> <CNNaffinity>
6.2854628563

> <CNN_VS>
4.9659214020

> <CNNaffinity_variance>
0.6803980470

$$$$
