8814


 16 16  0  0  0  0  0  0  0  0999 V2000
   -4.5965   -3.5099   21.1878 C   0  0  0  0  0  0  0  0  0  0  0  0
   -4.7630   -4.5653   22.3237 C   0  0  0  0  0  0  0  0  0  0  0  0
   -5.2047   -4.1824   19.9349 C   0  0  0  0  0  0  0  0  0  0  0  0
    0.9970   -2.4651   20.6653 O   0  0  0  0  0  0  0  0  0  0  0  0
   -3.0935   -3.2149   21.0709 C   0  0  0  0  0  0  0  0  0  0  0  0
   -2.5990   -2.4876   19.9669 C   0  0  0  0  0  0  0  0  0  0  0  0
   -2.1620   -3.6514   22.0279 C   0  0  0  0  0  0  0  0  0  0  0  0
   -1.2345   -2.2267   19.8163 C   0  0  0  0  0  0  0  0  0  0  0  0
   -0.7975   -3.3934   21.8786 C   0  0  0  0  0  0  0  0  0  0  0  0
   -0.3442   -2.6868   20.7734 C   0  0  0  0  0  0  0  0  0  0  0  0
    1.3359   -1.9914   19.9313 H   0  0  0  0  0  0  0  0  0  0  0  0
   -5.4334   -2.2467   21.6034 C   0  0  0  0  0  0  0  0  0  0  0  0
   -5.5111   -1.7105   23.0736 C   0  0  0  0  0  0  0  0  0  0  0  0
   -6.0658   -0.2660   22.9923 C   0  0  0  0  0  0  0  0  0  0  0  0
   -4.1389   -1.6394   23.7583 C   0  0  0  0  0  0  0  0  0  0  0  0
   -6.4714   -2.5041   23.9733 C   0  0  0  0  0  0  0  0  0  0  0  0
  4 10  1  0
  4 11  1  0
  1 12  1  0
  1  5  1  0
  1  2  1  0
  1  3  1  0
 13 12  1  0
 13 14  1  0
 13 15  1  0
 13 16  1  0
  5  6  2  0
  5  7  1  0
  6  8  1  0
  7  9  2  0
  8 10  2  0
  9 10  1  0
M  END
> <PUBCHEM_COMPOUND_CID>
8814

> <PUBCHEM_CONFORMER_RMSD>
0.6

> <PUBCHEM_CONFORMER_DIVERSEORDER>
1
5
4
3
2

> <PUBCHEM_MMFF94_PARTIAL_CHARGES>
13
1 -0.53
11 -0.15
12 -0.15
13 -0.15
14 -0.15
15 0.08
2 0.14
33 0.15
34 0.15
35 0.15
36 0.15
37 0.45
5 -0.14

> <PUBCHEM_EFFECTIVE_ROTOR_COUNT>
3

> <PUBCHEM_PHARMACOPHORE_FEATURES>
4
1 1 donor
3 2 6 7 hydrophobe
4 3 8 9 10 hydrophobe
6 5 11 12 13 14 15 rings

> <PUBCHEM_HEAVY_ATOM_COUNT>
15

> <PUBCHEM_ATOM_DEF_STEREO_COUNT>
0

> <PUBCHEM_ATOM_UDEF_STEREO_COUNT>
0

> <PUBCHEM_BOND_DEF_STEREO_COUNT>
0

> <PUBCHEM_BOND_UDEF_STEREO_COUNT>
0

> <PUBCHEM_ISOTOPIC_ATOM_COUNT>
0

> <PUBCHEM_COMPONENT_COUNT>
1

> <PUBCHEM_CACTVS_TAUTO_COUNT>
2

> <PUBCHEM_CONFORMER_ID>
0000226E00000001

> <PUBCHEM_MMFF94_ENERGY>
60.6732

> <PUBCHEM_FEATURE_SELFOVERLAP>
20.297

> <PUBCHEM_SHAPE_FINGERPRINT>
1 1 18122065299635933247
11471102 22 13984658170435925480
12138202 97 18272929444633088966
12251169 10 14923953348599690641
12423570 1 15084294979065354379
124424 183 18201999928641116818
12491281 212 18273493468196309381
12532896 13 18409735040726507851
13299463 15 16200422598337566991
13538477 17 17822291326855117498
13764800 53 18335714831507604569
13839132 238 18413110537123213324
14817 1 11689340854733718479
15375462 478 15647061443078261877
15775835 57 18339078194495494345
16945 1 17988065786023185643
18186145 218 18200036118541666588
18534176 82 18271243927656786518
19837323 101 18335708272823803859
20525323 117 18337111292773698462
20645476 183 17894351081266785547
21296965 12 18260545576729377063
21501502 16 18271800211963701222
21524375 3 18339638928324873163
21947302 44 18059017168310697110
22802520 49 18199766781279703998
23402539 116 18267296706830970519
23419403 2 17194099544908694927
23557571 272 18198918083120765556
23559900 14 18342742906418193234
25 1 17845383149850037993
2748010 2 18262817159083630983
276578 36 18189342281366350763
305870 269 18040992882718168402
430814 3 18041565736850213531
549884 4 17416683544816290937
6333449 129 18343582975122638285
6442390 28 18269297706777891659
7364860 26 17834677097914689979
81228 2 18191593162379223291

> <PUBCHEM_SHAPE_MULTIPOLES>
302.82
5.29
2.15
1.39
2.11
0.81
0.13
-3.45
0.34
-1.29
-0.24
-0.12
0.26
0.01

> <PUBCHEM_SHAPE_SELFOVERLAP>
615.427

> <PUBCHEM_SHAPE_VOLUME>
178.4

> <PUBCHEM_COORDINATE_TYPE>
2
5
10

> <Energy>
46.4329

> <minimizedAffinity>
-7.09439

> <CNNscore>
0.9521452188

> <CNNaffinity>
7.2912945747

> <CNN_VS>
6.9423713684

> <CNNaffinity_variance>
0.7046731114

$$$$
8814


 16 16  0  0  0  0  0  0  0  0999 V2000
   -4.8350   -4.9903   21.5053 C   0  0  0  0  0  0  0  0  0  0  0  0
   -4.2995   -6.4254   21.7976 C   0  0  0  0  0  0  0  0  0  0  0  0
   -6.0374   -5.2056   20.5570 C   0  0  0  0  0  0  0  0  0  0  0  0
   -0.5153   -2.0054   19.2510 O   0  0  0  0  0  0  0  0  0  0  0  0
   -3.6763   -4.2022   20.8759 C   0  0  0  0  0  0  0  0  0  0  0  0
   -2.3892   -4.2546   21.4529 C   0  0  0  0  0  0  0  0  0  0  0  0
   -3.8401   -3.4048   19.7307 C   0  0  0  0  0  0  0  0  0  0  0  0
   -1.3206   -3.5276   20.9218 C   0  0  0  0  0  0  0  0  0  0  0  0
   -2.7740   -2.6758   19.1991 C   0  0  0  0  0  0  0  0  0  0  0  0
   -1.5246   -2.7399   19.7999 C   0  0  0  0  0  0  0  0  0  0  0  0
    0.3404   -2.0263   19.6323 H   0  0  0  0  0  0  0  0  0  0  0  0
   -5.3082   -4.3849   22.8759 C   0  0  0  0  0  0  0  0  0  0  0  0
   -5.7276   -2.8861   23.0566 C   0  0  0  0  0  0  0  0  0  0  0  0
   -6.6142   -2.8213   24.3256 C   0  0  0  0  0  0  0  0  0  0  0  0
   -6.5620   -2.3524   21.8836 C   0  0  0  0  0  0  0  0  0  0  0  0
   -4.5440   -1.9351   23.2936 C   0  0  0  0  0  0  0  0  0  0  0  0
  4 10  1  0
  4 11  1  0
  1 12  1  0
  1  5  1  0
  1  2  1  0
  1  3  1  0
 13 12  1  0
 13 14  1  0
 13 15  1  0
 13 16  1  0
  5  6  2  0
  5  7  1  0
  6  8  1  0
  7  9  2  0
  8 10  2  0
  9 10  1  0
M  END
> <PUBCHEM_COMPOUND_CID>
8814

> <PUBCHEM_CONFORMER_RMSD>
0.6

> <PUBCHEM_CONFORMER_DIVERSEORDER>
1
5
4
3
2

> <PUBCHEM_MMFF94_PARTIAL_CHARGES>
13
1 -0.53
11 -0.15
12 -0.15
13 -0.15
14 -0.15
15 0.08
2 0.14
33 0.15
34 0.15
35 0.15
36 0.15
37 0.45
5 -0.14

> <PUBCHEM_EFFECTIVE_ROTOR_COUNT>
3

> <PUBCHEM_PHARMACOPHORE_FEATURES>
4
1 1 donor
3 2 6 7 hydrophobe
4 3 8 9 10 hydrophobe
6 5 11 12 13 14 15 rings

> <PUBCHEM_HEAVY_ATOM_COUNT>
15

> <PUBCHEM_ATOM_DEF_STEREO_COUNT>
0

> <PUBCHEM_ATOM_UDEF_STEREO_COUNT>
0

> <PUBCHEM_BOND_DEF_STEREO_COUNT>
0

> <PUBCHEM_BOND_UDEF_STEREO_COUNT>
0

> <PUBCHEM_ISOTOPIC_ATOM_COUNT>
0

> <PUBCHEM_COMPONENT_COUNT>
1

> <PUBCHEM_CACTVS_TAUTO_COUNT>
2

> <PUBCHEM_CONFORMER_ID>
0000226E00000001

> <PUBCHEM_MMFF94_ENERGY>
60.6732

> <PUBCHEM_FEATURE_SELFOVERLAP>
20.297

> <PUBCHEM_SHAPE_FINGERPRINT>
1 1 18122065299635933247
11471102 22 13984658170435925480
12138202 97 18272929444633088966
12251169 10 14923953348599690641
12423570 1 15084294979065354379
124424 183 18201999928641116818
12491281 212 18273493468196309381
12532896 13 18409735040726507851
13299463 15 16200422598337566991
13538477 17 17822291326855117498
13764800 53 18335714831507604569
13839132 238 18413110537123213324
14817 1 11689340854733718479
15375462 478 15647061443078261877
15775835 57 18339078194495494345
16945 1 17988065786023185643
18186145 218 18200036118541666588
18534176 82 18271243927656786518
19837323 101 18335708272823803859
20525323 117 18337111292773698462
20645476 183 17894351081266785547
21296965 12 18260545576729377063
21501502 16 18271800211963701222
21524375 3 18339638928324873163
21947302 44 18059017168310697110
22802520 49 18199766781279703998
23402539 116 18267296706830970519
23419403 2 17194099544908694927
23557571 272 18198918083120765556
23559900 14 18342742906418193234
25 1 17845383149850037993
2748010 2 18262817159083630983
276578 36 18189342281366350763
305870 269 18040992882718168402
430814 3 18041565736850213531
549884 4 17416683544816290937
6333449 129 18343582975122638285
6442390 28 18269297706777891659
7364860 26 17834677097914689979
81228 2 18191593162379223291

> <PUBCHEM_SHAPE_MULTIPOLES>
302.82
5.29
2.15
1.39
2.11
0.81
0.13
-3.45
0.34
-1.29
-0.24
-0.12
0.26
0.01

> <PUBCHEM_SHAPE_SELFOVERLAP>
615.427

> <PUBCHEM_SHAPE_VOLUME>
178.4

> <PUBCHEM_COORDINATE_TYPE>
2
5
10

> <Energy>
46.4329

> <minimizedAffinity>
-7.22612

> <CNNscore>
0.9412755966

> <CNNaffinity>
7.0923271179

> <CNN_VS>
6.6758346558

> <CNNaffinity_variance>
0.5827717781

$$$$
8814


 16 16  0  0  0  0  0  0  0  0999 V2000
   -5.1152   -4.8506   21.1244 C   0  0  0  0  0  0  0  0  0  0  0  0
   -4.6353   -6.0165   22.0420 C   0  0  0  0  0  0  0  0  0  0  0  0
   -5.9448   -5.5395   20.0159 C   0  0  0  0  0  0  0  0  0  0  0  0
   -0.4043   -2.1751   19.3075 O   0  0  0  0  0  0  0  0  0  0  0  0
   -3.8539   -4.1402   20.6104 C   0  0  0  0  0  0  0  0  0  0  0  0
   -2.5846   -4.5018   21.1108 C   0  0  0  0  0  0  0  0  0  0  0  0
   -3.9029   -3.1166   19.6491 C   0  0  0  0  0  0  0  0  0  0  0  0
   -1.4208   -3.8563   20.6851 C   0  0  0  0  0  0  0  0  0  0  0  0
   -2.7412   -2.4686   19.2235 C   0  0  0  0  0  0  0  0  0  0  0  0
   -1.5107   -2.8406   19.7467 C   0  0  0  0  0  0  0  0  0  0  0  0
    0.4417   -2.4017   19.6406 H   0  0  0  0  0  0  0  0  0  0  0  0
   -6.0246   -3.9160   22.0010 C   0  0  0  0  0  0  0  0  0  0  0  0
   -5.7280   -3.5894   23.5045 C   0  0  0  0  0  0  0  0  0  0  0  0
   -6.5414   -2.3175   23.8530 C   0  0  0  0  0  0  0  0  0  0  0  0
   -4.2483   -3.2770   23.7686 C   0  0  0  0  0  0  0  0  0  0  0  0
   -6.1826   -4.6872   24.4790 C   0  0  0  0  0  0  0  0  0  0  0  0
  4 10  1  0
  4 11  1  0
  1 12  1  0
  1  5  1  0
  1  2  1  0
  1  3  1  0
 13 12  1  0
 13 14  1  0
 13 15  1  0
 13 16  1  0
  5  6  2  0
  5  7  1  0
  6  8  1  0
  7  9  2  0
  8 10  2  0
  9 10  1  0
M  END
> <PUBCHEM_COMPOUND_CID>
8814

> <PUBCHEM_CONFORMER_RMSD>
0.6

> <PUBCHEM_CONFORMER_DIVERSEORDER>
1
5
4
3
2

> <PUBCHEM_MMFF94_PARTIAL_CHARGES>
13
1 -0.53
11 -0.15
12 -0.15
13 -0.15
14 -0.15
15 0.08
2 0.14
33 0.15
34 0.15
35 0.15
36 0.15
37 0.45
5 -0.14

> <PUBCHEM_EFFECTIVE_ROTOR_COUNT>
3

> <PUBCHEM_PHARMACOPHORE_FEATURES>
4
1 1 donor
3 2 6 7 hydrophobe
4 3 8 9 10 hydrophobe
6 5 11 12 13 14 15 rings

> <PUBCHEM_HEAVY_ATOM_COUNT>
15

> <PUBCHEM_ATOM_DEF_STEREO_COUNT>
0

> <PUBCHEM_ATOM_UDEF_STEREO_COUNT>
0

> <PUBCHEM_BOND_DEF_STEREO_COUNT>
0

> <PUBCHEM_BOND_UDEF_STEREO_COUNT>
0

> <PUBCHEM_ISOTOPIC_ATOM_COUNT>
0

> <PUBCHEM_COMPONENT_COUNT>
1

> <PUBCHEM_CACTVS_TAUTO_COUNT>
2

> <PUBCHEM_CONFORMER_ID>
0000226E00000001

> <PUBCHEM_MMFF94_ENERGY>
60.6732

> <PUBCHEM_FEATURE_SELFOVERLAP>
20.297

> <PUBCHEM_SHAPE_FINGERPRINT>
1 1 18122065299635933247
11471102 22 13984658170435925480
12138202 97 18272929444633088966
12251169 10 14923953348599690641
12423570 1 15084294979065354379
124424 183 18201999928641116818
12491281 212 18273493468196309381
12532896 13 18409735040726507851
13299463 15 16200422598337566991
13538477 17 17822291326855117498
13764800 53 18335714831507604569
13839132 238 18413110537123213324
14817 1 11689340854733718479
15375462 478 15647061443078261877
15775835 57 18339078194495494345
16945 1 17988065786023185643
18186145 218 18200036118541666588
18534176 82 18271243927656786518
19837323 101 18335708272823803859
20525323 117 18337111292773698462
20645476 183 17894351081266785547
21296965 12 18260545576729377063
21501502 16 18271800211963701222
21524375 3 18339638928324873163
21947302 44 18059017168310697110
22802520 49 18199766781279703998
23402539 116 18267296706830970519
23419403 2 17194099544908694927
23557571 272 18198918083120765556
23559900 14 18342742906418193234
25 1 17845383149850037993
2748010 2 18262817159083630983
276578 36 18189342281366350763
305870 269 18040992882718168402
430814 3 18041565736850213531
549884 4 17416683544816290937
6333449 129 18343582975122638285
6442390 28 18269297706777891659
7364860 26 17834677097914689979
81228 2 18191593162379223291

> <PUBCHEM_SHAPE_MULTIPOLES>
302.82
5.29
2.15
1.39
2.11
0.81
0.13
-3.45
0.34
-1.29
-0.24
-0.12
0.26
0.01

> <PUBCHEM_SHAPE_SELFOVERLAP>
615.427

> <PUBCHEM_SHAPE_VOLUME>
178.4

> <PUBCHEM_COORDINATE_TYPE>
2
5
10

> <Energy>
46.4329

> <minimizedAffinity>
-7.11115

> <CNNscore>
0.9398377538

> <CNNaffinity>
7.2336945534

> <CNN_VS>
6.7984991074

> <CNNaffinity_variance>
0.8296820521

$$$$
8814


 16 16  0  0  0  0  0  0  0  0999 V2000
   -4.8740   -5.1154   21.5357 C   0  0  0  0  0  0  0  0  0  0  0  0
   -4.3167   -6.5496   21.7893 C   0  0  0  0  0  0  0  0  0  0  0  0
   -6.0506   -5.3195   20.5530 C   0  0  0  0  0  0  0  0  0  0  0  0
   -0.5779   -2.0742   19.3113 O   0  0  0  0  0  0  0  0  0  0  0  0
   -3.7175   -4.2834   20.9611 C   0  0  0  0  0  0  0  0  0  0  0  0
   -3.9167   -3.4984   19.8051 C   0  0  0  0  0  0  0  0  0  0  0  0
   -2.4366   -4.2716   21.5385 C   0  0  0  0  0  0  0  0  0  0  0  0
   -2.8785   -2.7525   19.2410 C   0  0  0  0  0  0  0  0  0  0  0  0
   -1.3968   -3.5283   20.9755 C   0  0  0  0  0  0  0  0  0  0  0  0
   -1.6244   -2.7780   19.8303 C   0  0  0  0  0  0  0  0  0  0  0  0
   -0.6979   -1.5575   18.5389 H   0  0  0  0  0  0  0  0  0  0  0  0
   -5.3893   -4.5684   22.9155 C   0  0  0  0  0  0  0  0  0  0  0  0
   -5.8434   -3.0855   23.1390 C   0  0  0  0  0  0  0  0  0  0  0  0
   -6.7768   -3.0869   24.3758 C   0  0  0  0  0  0  0  0  0  0  0  0
   -6.6445   -2.5202   21.9577 C   0  0  0  0  0  0  0  0  0  0  0  0
   -4.6875   -2.1241   23.4570 C   0  0  0  0  0  0  0  0  0  0  0  0
  4 10  1  0
  4 11  1  0
  1 12  1  0
  1  5  1  0
  1  2  1  0
  1  3  1  0
 13 12  1  0
 13 14  1  0
 13 15  1  0
 13 16  1  0
  5  6  2  0
  5  7  1  0
  6  8  1  0
  7  9  2  0
  8 10  2  0
  9 10  1  0
M  END
> <PUBCHEM_COMPOUND_CID>
8814

> <PUBCHEM_CONFORMER_RMSD>
0.6

> <PUBCHEM_CONFORMER_DIVERSEORDER>
1
5
4
3
2

> <PUBCHEM_MMFF94_PARTIAL_CHARGES>
13
1 -0.53
11 -0.15
12 -0.15
13 -0.15
14 -0.15
15 0.08
2 0.14
33 0.15
34 0.15
35 0.15
36 0.15
37 0.45
5 -0.14

> <PUBCHEM_EFFECTIVE_ROTOR_COUNT>
3

> <PUBCHEM_PHARMACOPHORE_FEATURES>
4
1 1 donor
3 2 6 7 hydrophobe
4 3 8 9 10 hydrophobe
6 5 11 12 13 14 15 rings

> <PUBCHEM_HEAVY_ATOM_COUNT>
15

> <PUBCHEM_ATOM_DEF_STEREO_COUNT>
0

> <PUBCHEM_ATOM_UDEF_STEREO_COUNT>
0

> <PUBCHEM_BOND_DEF_STEREO_COUNT>
0

> <PUBCHEM_BOND_UDEF_STEREO_COUNT>
0

> <PUBCHEM_ISOTOPIC_ATOM_COUNT>
0

> <PUBCHEM_COMPONENT_COUNT>
1

> <PUBCHEM_CACTVS_TAUTO_COUNT>
2

> <PUBCHEM_CONFORMER_ID>
0000226E00000001

> <PUBCHEM_MMFF94_ENERGY>
60.6732

> <PUBCHEM_FEATURE_SELFOVERLAP>
20.297

> <PUBCHEM_SHAPE_FINGERPRINT>
1 1 18122065299635933247
11471102 22 13984658170435925480
12138202 97 18272929444633088966
12251169 10 14923953348599690641
12423570 1 15084294979065354379
124424 183 18201999928641116818
12491281 212 18273493468196309381
12532896 13 18409735040726507851
13299463 15 16200422598337566991
13538477 17 17822291326855117498
13764800 53 18335714831507604569
13839132 238 18413110537123213324
14817 1 11689340854733718479
15375462 478 15647061443078261877
15775835 57 18339078194495494345
16945 1 17988065786023185643
18186145 218 18200036118541666588
18534176 82 18271243927656786518
19837323 101 18335708272823803859
20525323 117 18337111292773698462
20645476 183 17894351081266785547
21296965 12 18260545576729377063
21501502 16 18271800211963701222
21524375 3 18339638928324873163
21947302 44 18059017168310697110
22802520 49 18199766781279703998
23402539 116 18267296706830970519
23419403 2 17194099544908694927
23557571 272 18198918083120765556
23559900 14 18342742906418193234
25 1 17845383149850037993
2748010 2 18262817159083630983
276578 36 18189342281366350763
305870 269 18040992882718168402
430814 3 18041565736850213531
549884 4 17416683544816290937
6333449 129 18343582975122638285
6442390 28 18269297706777891659
7364860 26 17834677097914689979
81228 2 18191593162379223291

> <PUBCHEM_SHAPE_MULTIPOLES>
302.82
5.29
2.15
1.39
2.11
0.81
0.13
-3.45
0.34
-1.29
-0.24
-0.12
0.26
0.01

> <PUBCHEM_SHAPE_SELFOVERLAP>
615.427

> <PUBCHEM_SHAPE_VOLUME>
178.4

> <PUBCHEM_COORDINATE_TYPE>
2
5
10

> <Energy>
46.4329

> <minimizedAffinity>
-7.22477

> <CNNscore>
0.9351676702

> <CNNaffinity>
7.0586466789

> <CNN_VS>
6.6010179520

> <CNNaffinity_variance>
0.5896851420

$$$$
8814


 16 16  0  0  0  0  0  0  0  0999 V2000
   -4.7845   -3.3719   21.2484 C   0  0  0  0  0  0  0  0  0  0  0  0
   -5.1421   -4.2587   20.0166 C   0  0  0  0  0  0  0  0  0  0  0  0
   -5.7220   -2.1471   21.1358 C   0  0  0  0  0  0  0  0  0  0  0  0
    0.7819   -2.1783   20.7559 O   0  0  0  0  0  0  0  0  0  0  0  0
   -3.2918   -3.0287   21.1317 C   0  0  0  0  0  0  0  0  0  0  0  0
   -2.7232   -2.7645   19.8671 C   0  0  0  0  0  0  0  0  0  0  0  0
   -2.4409   -2.9719   22.2484 C   0  0  0  0  0  0  0  0  0  0  0  0
   -1.3634   -2.4770   19.7234 C   0  0  0  0  0  0  0  0  0  0  0  0
   -1.0810   -2.6866   22.1071 C   0  0  0  0  0  0  0  0  0  0  0  0
   -0.5524   -2.4450   20.8468 C   0  0  0  0  0  0  0  0  0  0  0  0
    1.1703   -2.0107   19.9199 H   0  0  0  0  0  0  0  0  0  0  0  0
   -5.1166   -4.2109   22.5347 C   0  0  0  0  0  0  0  0  0  0  0  0
   -6.3151   -3.8852   23.4900 C   0  0  0  0  0  0  0  0  0  0  0  0
   -7.6118   -4.1694   22.6909 C   0  0  0  0  0  0  0  0  0  0  0  0
   -6.3533   -2.4125   23.9219 C   0  0  0  0  0  0  0  0  0  0  0  0
   -6.3654   -4.7696   24.7457 C   0  0  0  0  0  0  0  0  0  0  0  0
  4 10  1  0
  4 11  1  0
  1 12  1  0
  1  5  1  0
  1  2  1  0
  1  3  1  0
 13 12  1  0
 13 14  1  0
 13 15  1  0
 13 16  1  0
  5  6  2  0
  5  7  1  0
  6  8  1  0
  7  9  2  0
  8 10  2  0
  9 10  1  0
M  END
> <PUBCHEM_COMPOUND_CID>
8814

> <PUBCHEM_CONFORMER_RMSD>
0.6

> <PUBCHEM_CONFORMER_DIVERSEORDER>
1
5
4
3
2

> <PUBCHEM_MMFF94_PARTIAL_CHARGES>
13
1 -0.53
11 -0.15
12 -0.15
13 -0.15
14 -0.15
15 0.08
2 0.14
33 0.15
34 0.15
35 0.15
36 0.15
37 0.45
5 -0.14

> <PUBCHEM_EFFECTIVE_ROTOR_COUNT>
3

> <PUBCHEM_PHARMACOPHORE_FEATURES>
4
1 1 donor
3 2 6 7 hydrophobe
4 3 8 9 10 hydrophobe
6 5 11 12 13 14 15 rings

> <PUBCHEM_HEAVY_ATOM_COUNT>
15

> <PUBCHEM_ATOM_DEF_STEREO_COUNT>
0

> <PUBCHEM_ATOM_UDEF_STEREO_COUNT>
0

> <PUBCHEM_BOND_DEF_STEREO_COUNT>
0

> <PUBCHEM_BOND_UDEF_STEREO_COUNT>
0

> <PUBCHEM_ISOTOPIC_ATOM_COUNT>
0

> <PUBCHEM_COMPONENT_COUNT>
1

> <PUBCHEM_CACTVS_TAUTO_COUNT>
2

> <PUBCHEM_CONFORMER_ID>
0000226E00000001

> <PUBCHEM_MMFF94_ENERGY>
60.6732

> <PUBCHEM_FEATURE_SELFOVERLAP>
20.297

> <PUBCHEM_SHAPE_FINGERPRINT>
1 1 18122065299635933247
11471102 22 13984658170435925480
12138202 97 18272929444633088966
12251169 10 14923953348599690641
12423570 1 15084294979065354379
124424 183 18201999928641116818
12491281 212 18273493468196309381
12532896 13 18409735040726507851
13299463 15 16200422598337566991
13538477 17 17822291326855117498
13764800 53 18335714831507604569
13839132 238 18413110537123213324
14817 1 11689340854733718479
15375462 478 15647061443078261877
15775835 57 18339078194495494345
16945 1 17988065786023185643
18186145 218 18200036118541666588
18534176 82 18271243927656786518
19837323 101 18335708272823803859
20525323 117 18337111292773698462
20645476 183 17894351081266785547
21296965 12 18260545576729377063
21501502 16 18271800211963701222
21524375 3 18339638928324873163
21947302 44 18059017168310697110
22802520 49 18199766781279703998
23402539 116 18267296706830970519
23419403 2 17194099544908694927
23557571 272 18198918083120765556
23559900 14 18342742906418193234
25 1 17845383149850037993
2748010 2 18262817159083630983
276578 36 18189342281366350763
305870 269 18040992882718168402
430814 3 18041565736850213531
549884 4 17416683544816290937
6333449 129 18343582975122638285
6442390 28 18269297706777891659
7364860 26 17834677097914689979
81228 2 18191593162379223291

> <PUBCHEM_SHAPE_MULTIPOLES>
302.82
5.29
2.15
1.39
2.11
0.81
0.13
-3.45
0.34
-1.29
-0.24
-0.12
0.26
0.01

> <PUBCHEM_SHAPE_SELFOVERLAP>
615.427

> <PUBCHEM_SHAPE_VOLUME>
178.4

> <PUBCHEM_COORDINATE_TYPE>
2
5
10

> <Energy>
46.4329

> <minimizedAffinity>
-7.20988

> <CNNscore>
0.9320883155

> <CNNaffinity>
7.0844244957

> <CNN_VS>
6.6033091545

> <CNNaffinity_variance>
0.4885269701

$$$$
8814


 16 16  0  0  0  0  0  0  0  0999 V2000
   -4.8487   -3.6973   22.4172 C   0  0  0  0  0  0  0  0  0  0  0  0
   -5.6995   -2.7042   21.5676 C   0  0  0  0  0  0  0  0  0  0  0  0
   -5.1651   -3.3287   23.8854 C   0  0  0  0  0  0  0  0  0  0  0  0
    0.6318   -2.9801   20.9674 O   0  0  0  0  0  0  0  0  0  0  0  0
   -3.3809   -3.4784   22.0206 C   0  0  0  0  0  0  0  0  0  0  0  0
   -2.8060   -4.2453   20.9845 C   0  0  0  0  0  0  0  0  0  0  0  0
   -2.5589   -2.5350   22.6599 C   0  0  0  0  0  0  0  0  0  0  0  0
   -1.4664   -4.0907   20.6184 C   0  0  0  0  0  0  0  0  0  0  0  0
   -1.2192   -2.3799   22.2970 C   0  0  0  0  0  0  0  0  0  0  0  0
   -0.6827   -3.1605   21.2826 C   0  0  0  0  0  0  0  0  0  0  0  0
    1.0249   -3.4910   20.2873 H   0  0  0  0  0  0  0  0  0  0  0  0
   -5.3588   -5.1457   22.0843 C   0  0  0  0  0  0  0  0  0  0  0  0
   -6.2828   -5.4739   20.8623 C   0  0  0  0  0  0  0  0  0  0  0  0
   -5.8199   -4.5643   19.6965 C   0  0  0  0  0  0  0  0  0  0  0  0
   -7.7623   -5.1632   21.1299 C   0  0  0  0  0  0  0  0  0  0  0  0
   -6.1645   -6.9239   20.3671 C   0  0  0  0  0  0  0  0  0  0  0  0
  4 10  1  0
  4 11  1  0
  1 12  1  0
  1  5  1  0
  1  2  1  0
  1  3  1  0
 13 12  1  0
 13 14  1  0
 13 15  1  0
 13 16  1  0
  5  6  2  0
  5  7  1  0
  6  8  1  0
  7  9  2  0
  8 10  2  0
  9 10  1  0
M  END
> <PUBCHEM_COMPOUND_CID>
8814

> <PUBCHEM_CONFORMER_RMSD>
0.6

> <PUBCHEM_CONFORMER_DIVERSEORDER>
1
5
4
3
2

> <PUBCHEM_MMFF94_PARTIAL_CHARGES>
13
1 -0.53
11 -0.15
12 -0.15
13 -0.15
14 -0.15
15 0.08
2 0.14
33 0.15
34 0.15
35 0.15
36 0.15
37 0.45
5 -0.14

> <PUBCHEM_EFFECTIVE_ROTOR_COUNT>
3

> <PUBCHEM_PHARMACOPHORE_FEATURES>
4
1 1 donor
3 2 6 7 hydrophobe
4 3 8 9 10 hydrophobe
6 5 11 12 13 14 15 rings

> <PUBCHEM_HEAVY_ATOM_COUNT>
15

> <PUBCHEM_ATOM_DEF_STEREO_COUNT>
0

> <PUBCHEM_ATOM_UDEF_STEREO_COUNT>
0

> <PUBCHEM_BOND_DEF_STEREO_COUNT>
0

> <PUBCHEM_BOND_UDEF_STEREO_COUNT>
0

> <PUBCHEM_ISOTOPIC_ATOM_COUNT>
0

> <PUBCHEM_COMPONENT_COUNT>
1

> <PUBCHEM_CACTVS_TAUTO_COUNT>
2

> <PUBCHEM_CONFORMER_ID>
0000226E00000001

> <PUBCHEM_MMFF94_ENERGY>
60.6732

> <PUBCHEM_FEATURE_SELFOVERLAP>
20.297

> <PUBCHEM_SHAPE_FINGERPRINT>
1 1 18122065299635933247
11471102 22 13984658170435925480
12138202 97 18272929444633088966
12251169 10 14923953348599690641
12423570 1 15084294979065354379
124424 183 18201999928641116818
12491281 212 18273493468196309381
12532896 13 18409735040726507851
13299463 15 16200422598337566991
13538477 17 17822291326855117498
13764800 53 18335714831507604569
13839132 238 18413110537123213324
14817 1 11689340854733718479
15375462 478 15647061443078261877
15775835 57 18339078194495494345
16945 1 17988065786023185643
18186145 218 18200036118541666588
18534176 82 18271243927656786518
19837323 101 18335708272823803859
20525323 117 18337111292773698462
20645476 183 17894351081266785547
21296965 12 18260545576729377063
21501502 16 18271800211963701222
21524375 3 18339638928324873163
21947302 44 18059017168310697110
22802520 49 18199766781279703998
23402539 116 18267296706830970519
23419403 2 17194099544908694927
23557571 272 18198918083120765556
23559900 14 18342742906418193234
25 1 17845383149850037993
2748010 2 18262817159083630983
276578 36 18189342281366350763
305870 269 18040992882718168402
430814 3 18041565736850213531
549884 4 17416683544816290937
6333449 129 18343582975122638285
6442390 28 18269297706777891659
7364860 26 17834677097914689979
81228 2 18191593162379223291

> <PUBCHEM_SHAPE_MULTIPOLES>
302.82
5.29
2.15
1.39
2.11
0.81
0.13
-3.45
0.34
-1.29
-0.24
-0.12
0.26
0.01

> <PUBCHEM_SHAPE_SELFOVERLAP>
615.427

> <PUBCHEM_SHAPE_VOLUME>
178.4

> <PUBCHEM_COORDINATE_TYPE>
2
5
10

> <Energy>
46.4329

> <minimizedAffinity>
-7.05663

> <CNNscore>
0.9295299053

> <CNNaffinity>
7.1588101387

> <CNN_VS>
6.6543283463

> <CNNaffinity_variance>
0.6885535121

$$$$
8814


 16 16  0  0  0  0  0  0  0  0999 V2000
   -5.0230   -2.3730   22.4801 C   0  0  0  0  0  0  0  0  0  0  0  0
   -5.3539   -0.8619   22.6773 C   0  0  0  0  0  0  0  0  0  0  0  0
   -5.3020   -3.0189   23.8573 C   0  0  0  0  0  0  0  0  0  0  0  0
    0.4589   -2.5804   20.8811 O   0  0  0  0  0  0  0  0  0  0  0  0
   -3.5539   -2.4533   22.0386 C   0  0  0  0  0  0  0  0  0  0  0  0
   -2.5238   -2.4485   23.0036 C   0  0  0  0  0  0  0  0  0  0  0  0
   -3.1746   -2.5241   20.6876 C   0  0  0  0  0  0  0  0  0  0  0  0
   -1.1769   -2.4920   22.6342 C   0  0  0  0  0  0  0  0  0  0  0  0
   -1.8289   -2.5658   20.3158 C   0  0  0  0  0  0  0  0  0  0  0  0
   -0.8413   -2.5459   21.2907 C   0  0  0  0  0  0  0  0  0  0  0  0
    1.1500   -2.5683   21.5138 H   0  0  0  0  0  0  0  0  0  0  0  0
   -6.0151   -2.9261   21.3944 C   0  0  0  0  0  0  0  0  0  0  0  0
   -6.3158   -4.4514   21.1996 C   0  0  0  0  0  0  0  0  0  0  0  0
   -7.7548   -4.6921   21.7212 C   0  0  0  0  0  0  0  0  0  0  0  0
   -5.3750   -5.3552   22.0087 C   0  0  0  0  0  0  0  0  0  0  0  0
   -6.2948   -4.9051   19.7315 C   0  0  0  0  0  0  0  0  0  0  0  0
  4 10  1  0
  4 11  1  0
  1 12  1  0
  1  5  1  0
  1  2  1  0
  1  3  1  0
 13 12  1  0
 13 14  1  0
 13 15  1  0
 13 16  1  0
  5  6  2  0
  5  7  1  0
  6  8  1  0
  7  9  2  0
  8 10  2  0
  9 10  1  0
M  END
> <PUBCHEM_COMPOUND_CID>
8814

> <PUBCHEM_CONFORMER_RMSD>
0.6

> <PUBCHEM_CONFORMER_DIVERSEORDER>
1
5
4
3
2

> <PUBCHEM_MMFF94_PARTIAL_CHARGES>
13
1 -0.53
11 -0.15
12 -0.15
13 -0.15
14 -0.15
15 0.08
2 0.14
33 0.15
34 0.15
35 0.15
36 0.15
37 0.45
5 -0.14

> <PUBCHEM_EFFECTIVE_ROTOR_COUNT>
3

> <PUBCHEM_PHARMACOPHORE_FEATURES>
4
1 1 donor
3 2 6 7 hydrophobe
4 3 8 9 10 hydrophobe
6 5 11 12 13 14 15 rings

> <PUBCHEM_HEAVY_ATOM_COUNT>
15

> <PUBCHEM_ATOM_DEF_STEREO_COUNT>
0

> <PUBCHEM_ATOM_UDEF_STEREO_COUNT>
0

> <PUBCHEM_BOND_DEF_STEREO_COUNT>
0

> <PUBCHEM_BOND_UDEF_STEREO_COUNT>
0

> <PUBCHEM_ISOTOPIC_ATOM_COUNT>
0

> <PUBCHEM_COMPONENT_COUNT>
1

> <PUBCHEM_CACTVS_TAUTO_COUNT>
2

> <PUBCHEM_CONFORMER_ID>
0000226E00000001

> <PUBCHEM_MMFF94_ENERGY>
60.6732

> <PUBCHEM_FEATURE_SELFOVERLAP>
20.297

> <PUBCHEM_SHAPE_FINGERPRINT>
1 1 18122065299635933247
11471102 22 13984658170435925480
12138202 97 18272929444633088966
12251169 10 14923953348599690641
12423570 1 15084294979065354379
124424 183 18201999928641116818
12491281 212 18273493468196309381
12532896 13 18409735040726507851
13299463 15 16200422598337566991
13538477 17 17822291326855117498
13764800 53 18335714831507604569
13839132 238 18413110537123213324
14817 1 11689340854733718479
15375462 478 15647061443078261877
15775835 57 18339078194495494345
16945 1 17988065786023185643
18186145 218 18200036118541666588
18534176 82 18271243927656786518
19837323 101 18335708272823803859
20525323 117 18337111292773698462
20645476 183 17894351081266785547
21296965 12 18260545576729377063
21501502 16 18271800211963701222
21524375 3 18339638928324873163
21947302 44 18059017168310697110
22802520 49 18199766781279703998
23402539 116 18267296706830970519
23419403 2 17194099544908694927
23557571 272 18198918083120765556
23559900 14 18342742906418193234
25 1 17845383149850037993
2748010 2 18262817159083630983
276578 36 18189342281366350763
305870 269 18040992882718168402
430814 3 18041565736850213531
549884 4 17416683544816290937
6333449 129 18343582975122638285
6442390 28 18269297706777891659
7364860 26 17834677097914689979
81228 2 18191593162379223291

> <PUBCHEM_SHAPE_MULTIPOLES>
302.82
5.29
2.15
1.39
2.11
0.81
0.13
-3.45
0.34
-1.29
-0.24
-0.12
0.26
0.01

> <PUBCHEM_SHAPE_SELFOVERLAP>
615.427

> <PUBCHEM_SHAPE_VOLUME>
178.4

> <PUBCHEM_COORDINATE_TYPE>
2
5
10

> <Energy>
46.4329

> <minimizedAffinity>
-6.98168

> <CNNscore>
0.9275096059

> <CNNaffinity>
7.2119278908

> <CNN_VS>
6.6891322136

> <CNNaffinity_variance>
0.7412930131

$$$$
8814


 16 16  0  0  0  0  0  0  0  0999 V2000
   -5.1648   -2.3216   22.4795 C   0  0  0  0  0  0  0  0  0  0  0  0
   -5.4713   -0.8009   22.6384 C   0  0  0  0  0  0  0  0  0  0  0  0
   -5.5212   -2.9393   23.8517 C   0  0  0  0  0  0  0  0  0  0  0  0
    0.3434   -2.8534   21.0553 O   0  0  0  0  0  0  0  0  0  0  0  0
   -3.6790   -2.4400   22.1081 C   0  0  0  0  0  0  0  0  0  0  0  0
   -3.2940   -2.5412   20.7539 C   0  0  0  0  0  0  0  0  0  0  0  0
   -2.6590   -2.4620   23.0741 C   0  0  0  0  0  0  0  0  0  0  0  0
   -1.9536   -2.6785   20.3840 C   0  0  0  0  0  0  0  0  0  0  0  0
   -1.3186   -2.6010   22.7070 C   0  0  0  0  0  0  0  0  0  0  0  0
   -0.9767   -2.7116   21.3664 C   0  0  0  0  0  0  0  0  0  0  0  0
    0.6080   -2.9306   20.1597 H   0  0  0  0  0  0  0  0  0  0  0  0
   -6.1175   -2.8709   21.3572 C   0  0  0  0  0  0  0  0  0  0  0  0
   -6.4835   -4.3867   21.2037 C   0  0  0  0  0  0  0  0  0  0  0  0
   -5.4806   -5.1782   22.0803 C   0  0  0  0  0  0  0  0  0  0  0  0
   -6.3370   -4.8949   19.7625 C   0  0  0  0  0  0  0  0  0  0  0  0
   -7.8905   -4.7394   21.7112 C   0  0  0  0  0  0  0  0  0  0  0  0
  4 10  1  0
  4 11  1  0
  1 12  1  0
  1  5  1  0
  1  2  1  0
  1  3  1  0
 13 12  1  0
 13 14  1  0
 13 15  1  0
 13 16  1  0
  5  6  2  0
  5  7  1  0
  6  8  1  0
  7  9  2  0
  8 10  2  0
  9 10  1  0
M  END
> <PUBCHEM_COMPOUND_CID>
8814

> <PUBCHEM_CONFORMER_RMSD>
0.6

> <PUBCHEM_CONFORMER_DIVERSEORDER>
1
5
4
3
2

> <PUBCHEM_MMFF94_PARTIAL_CHARGES>
13
1 -0.53
11 -0.15
12 -0.15
13 -0.15
14 -0.15
15 0.08
2 0.14
33 0.15
34 0.15
35 0.15
36 0.15
37 0.45
5 -0.14

> <PUBCHEM_EFFECTIVE_ROTOR_COUNT>
3

> <PUBCHEM_PHARMACOPHORE_FEATURES>
4
1 1 donor
3 2 6 7 hydrophobe
4 3 8 9 10 hydrophobe
6 5 11 12 13 14 15 rings

> <PUBCHEM_HEAVY_ATOM_COUNT>
15

> <PUBCHEM_ATOM_DEF_STEREO_COUNT>
0

> <PUBCHEM_ATOM_UDEF_STEREO_COUNT>
0

> <PUBCHEM_BOND_DEF_STEREO_COUNT>
0

> <PUBCHEM_BOND_UDEF_STEREO_COUNT>
0

> <PUBCHEM_ISOTOPIC_ATOM_COUNT>
0

> <PUBCHEM_COMPONENT_COUNT>
1

> <PUBCHEM_CACTVS_TAUTO_COUNT>
2

> <PUBCHEM_CONFORMER_ID>
0000226E00000001

> <PUBCHEM_MMFF94_ENERGY>
60.6732

> <PUBCHEM_FEATURE_SELFOVERLAP>
20.297

> <PUBCHEM_SHAPE_FINGERPRINT>
1 1 18122065299635933247
11471102 22 13984658170435925480
12138202 97 18272929444633088966
12251169 10 14923953348599690641
12423570 1 15084294979065354379
124424 183 18201999928641116818
12491281 212 18273493468196309381
12532896 13 18409735040726507851
13299463 15 16200422598337566991
13538477 17 17822291326855117498
13764800 53 18335714831507604569
13839132 238 18413110537123213324
14817 1 11689340854733718479
15375462 478 15647061443078261877
15775835 57 18339078194495494345
16945 1 17988065786023185643
18186145 218 18200036118541666588
18534176 82 18271243927656786518
19837323 101 18335708272823803859
20525323 117 18337111292773698462
20645476 183 17894351081266785547
21296965 12 18260545576729377063
21501502 16 18271800211963701222
21524375 3 18339638928324873163
21947302 44 18059017168310697110
22802520 49 18199766781279703998
23402539 116 18267296706830970519
23419403 2 17194099544908694927
23557571 272 18198918083120765556
23559900 14 18342742906418193234
25 1 17845383149850037993
2748010 2 18262817159083630983
276578 36 18189342281366350763
305870 269 18040992882718168402
430814 3 18041565736850213531
549884 4 17416683544816290937
6333449 129 18343582975122638285
6442390 28 18269297706777891659
7364860 26 17834677097914689979
81228 2 18191593162379223291

> <PUBCHEM_SHAPE_MULTIPOLES>
302.82
5.29
2.15
1.39
2.11
0.81
0.13
-3.45
0.34
-1.29
-0.24
-0.12
0.26
0.01

> <PUBCHEM_SHAPE_SELFOVERLAP>
615.427

> <PUBCHEM_SHAPE_VOLUME>
178.4

> <PUBCHEM_COORDINATE_TYPE>
2
5
10

> <Energy>
46.4329

> <minimizedAffinity>
-6.98659

> <CNNscore>
0.9207574725

> <CNNaffinity>
7.0909724236

> <CNN_VS>
6.5290656090

> <CNNaffinity_variance>
0.6227733493

$$$$
8814


 16 16  0  0  0  0  0  0  0  0999 V2000
   -4.3293   -4.9544   21.6342 C   0  0  0  0  0  0  0  0  0  0  0  0
   -4.5918   -4.2669   23.0090 C   0  0  0  0  0  0  0  0  0  0  0  0
   -3.8360   -6.3753   21.9936 C   0  0  0  0  0  0  0  0  0  0  0  0
   -0.4504   -1.7034   18.9814 O   0  0  0  0  0  0  0  0  0  0  0  0
   -3.2864   -4.0982   20.9000 C   0  0  0  0  0  0  0  0  0  0  0  0
   -2.0200   -3.8729   21.4812 C   0  0  0  0  0  0  0  0  0  0  0  0
   -3.5400   -3.5059   19.6513 C   0  0  0  0  0  0  0  0  0  0  0  0
   -1.0594   -3.0761   20.8528 C   0  0  0  0  0  0  0  0  0  0  0  0
   -2.5821   -2.7075   19.0222 C   0  0  0  0  0  0  0  0  0  0  0  0
   -1.3518   -2.4961   19.6286 C   0  0  0  0  0  0  0  0  0  0  0  0
    0.3895   -1.5404   19.3636 H   0  0  0  0  0  0  0  0  0  0  0  0
   -5.7052   -5.0173   20.8781 C   0  0  0  0  0  0  0  0  0  0  0  0
   -6.9903   -4.2638   21.3637 C   0  0  0  0  0  0  0  0  0  0  0  0
   -8.2030   -5.0175   20.7619 C   0  0  0  0  0  0  0  0  0  0  0  0
   -7.0570   -2.8126   20.8674 C   0  0  0  0  0  0  0  0  0  0  0  0
   -7.1753   -4.2730   22.8893 C   0  0  0  0  0  0  0  0  0  0  0  0
  4 10  1  0
  4 11  1  0
  1 12  1  0
  1  5  1  0
  1  2  1  0
  1  3  1  0
 13 12  1  0
 13 14  1  0
 13 15  1  0
 13 16  1  0
  5  6  2  0
  5  7  1  0
  6  8  1  0
  7  9  2  0
  8 10  2  0
  9 10  1  0
M  END
> <PUBCHEM_COMPOUND_CID>
8814

> <PUBCHEM_CONFORMER_RMSD>
0.6

> <PUBCHEM_CONFORMER_DIVERSEORDER>
1
5
4
3
2

> <PUBCHEM_MMFF94_PARTIAL_CHARGES>
13
1 -0.53
11 -0.15
12 -0.15
13 -0.15
14 -0.15
15 0.08
2 0.14
33 0.15
34 0.15
35 0.15
36 0.15
37 0.45
5 -0.14

> <PUBCHEM_EFFECTIVE_ROTOR_COUNT>
3

> <PUBCHEM_PHARMACOPHORE_FEATURES>
4
1 1 donor
3 2 6 7 hydrophobe
4 3 8 9 10 hydrophobe
6 5 11 12 13 14 15 rings

> <PUBCHEM_HEAVY_ATOM_COUNT>
15

> <PUBCHEM_ATOM_DEF_STEREO_COUNT>
0

> <PUBCHEM_ATOM_UDEF_STEREO_COUNT>
0

> <PUBCHEM_BOND_DEF_STEREO_COUNT>
0

> <PUBCHEM_BOND_UDEF_STEREO_COUNT>
0

> <PUBCHEM_ISOTOPIC_ATOM_COUNT>
0

> <PUBCHEM_COMPONENT_COUNT>
1

> <PUBCHEM_CACTVS_TAUTO_COUNT>
2

> <PUBCHEM_CONFORMER_ID>
0000226E00000001

> <PUBCHEM_MMFF94_ENERGY>
60.6732

> <PUBCHEM_FEATURE_SELFOVERLAP>
20.297

> <PUBCHEM_SHAPE_FINGERPRINT>
1 1 18122065299635933247
11471102 22 13984658170435925480
12138202 97 18272929444633088966
12251169 10 14923953348599690641
12423570 1 15084294979065354379
124424 183 18201999928641116818
12491281 212 18273493468196309381
12532896 13 18409735040726507851
13299463 15 16200422598337566991
13538477 17 17822291326855117498
13764800 53 18335714831507604569
13839132 238 18413110537123213324
14817 1 11689340854733718479
15375462 478 15647061443078261877
15775835 57 18339078194495494345
16945 1 17988065786023185643
18186145 218 18200036118541666588
18534176 82 18271243927656786518
19837323 101 18335708272823803859
20525323 117 18337111292773698462
20645476 183 17894351081266785547
21296965 12 18260545576729377063
21501502 16 18271800211963701222
21524375 3 18339638928324873163
21947302 44 18059017168310697110
22802520 49 18199766781279703998
23402539 116 18267296706830970519
23419403 2 17194099544908694927
23557571 272 18198918083120765556
23559900 14 18342742906418193234
25 1 17845383149850037993
2748010 2 18262817159083630983
276578 36 18189342281366350763
305870 269 18040992882718168402
430814 3 18041565736850213531
549884 4 17416683544816290937
6333449 129 18343582975122638285
6442390 28 18269297706777891659
7364860 26 17834677097914689979
81228 2 18191593162379223291

> <PUBCHEM_SHAPE_MULTIPOLES>
302.82
5.29
2.15
1.39
2.11
0.81
0.13
-3.45
0.34
-1.29
-0.24
-0.12
0.26
0.01

> <PUBCHEM_SHAPE_SELFOVERLAP>
615.427

> <PUBCHEM_SHAPE_VOLUME>
178.4

> <PUBCHEM_COORDINATE_TYPE>
2
5
10

> <Energy>
46.4329

> <minimizedAffinity>
-6.81911

> <CNNscore>
0.9176426530

> <CNNaffinity>
6.8948702812

> <CNN_VS>
6.3270268440

> <CNNaffinity_variance>
0.4178810418

$$$$
