896


 19 20  0  0  0  0  0  0  0  0999 V2000
   -7.1673   -5.8955   19.0381 N   0  0  0  0  0  0  0  0  0  0  0  0
   -6.8541   -7.3063   20.7379 C   0  0  0  0  0  0  0  0  0  0  0  0
   -5.6125   -6.6600   20.4352 C   0  0  0  0  0  0  0  0  0  0  0  0
   -5.8350   -5.7975   19.3646 C   0  0  0  0  0  0  0  0  0  0  0  0
   -7.7897   -6.8045   19.8541 C   0  0  0  0  0  0  0  0  0  0  0  0
   -4.3141   -6.7430   20.9829 C   0  0  0  0  0  0  0  0  0  0  0  0
   -4.8205   -5.0142   18.8057 C   0  0  0  0  0  0  0  0  0  0  0  0
   -3.2785   -5.9787   20.4361 C   0  0  0  0  0  0  0  0  0  0  0  0
   -3.5392   -5.1275   19.3619 C   0  0  0  0  0  0  0  0  0  0  0  0
   -7.6104   -5.3863   18.3215 H   0  0  0  0  0  0  0  0  0  0  0  0
   -1.9785   -5.9836   20.8677 O   0  0  0  0  0  0  0  0  0  0  0  0
   -1.1546   -4.9125   20.4206 C   0  0  0  0  0  0  0  0  0  0  0  0
   -7.0809   -8.3293   21.8117 C   0  0  0  0  0  0  0  0  0  0  0  0
   -7.9906   -7.8265   22.9382 C   0  0  0  0  0  0  0  0  0  0  0  0
   -9.9157   -5.7412   22.7855 O   0  0  0  0  0  0  0  0  0  0  0  0
   -7.7814   -6.4296   23.2827 N   0  0  0  0  0  0  0  0  0  0  0  0
   -8.7726   -5.4857   23.1450 C   0  0  0  0  0  0  0  0  0  0  0  0
   -8.3306   -4.0944   23.5100 C   0  0  0  0  0  0  0  0  0  0  0  0
   -6.9019   -6.1501   23.6257 H   0  0  0  0  0  0  0  0  0  0  0  0
 11  8  1  0
 11 12  1  0
 15 17  2  0
  1  4  1  0
  1  5  1  0
  1 10  1  0
 16 14  1  0
 16 17  1  0
 16 19  1  0
  2  3  1  0
  2 13  1  0
  2  5  2  0
  3  4  2  0
  3  6  1  0
 13 14  1  0
  4  7  1  0
  6  8  2  0
  7  9  2  0
  8  9  1  0
 17 18  1  0
M  END
> <PUBCHEM_COMPOUND_CID>
896

> <PUBCHEM_CONFORMER_RMSD>
0.6

> <PUBCHEM_CONFORMER_DIVERSEORDER>
1
13
50
55
28
16
42
48
27
15
62
60
65
61
36
4
20
58
41
17
59
21
2
63
47
57
40
56
22
64
54
37
51
7
31
53
26
8
49
39
32
11
5
33
38
52
23
45
43
12
14
9
34
44
35
10
25
29
46
6
30
24
3
19
18

> <PUBCHEM_MMFF94_PARTIAL_CHARGES>
22
1 -0.36
10 0.3
11 -0.15
12 -0.15
13 0.08
14 -0.15
15 0.57
16 0.06
17 0.28
2 -0.57
20 0.15
23 0.27
24 0.15
25 0.15
26 0.15
27 0.37
3 0.03
4 -0.73
5 -0.18
7 0.18
8 -0.15
9 -0.3

> <PUBCHEM_EFFECTIVE_ROTOR_COUNT>
5

> <PUBCHEM_PHARMACOPHORE_FEATURES>
7
1 1 acceptor
1 2 acceptor
1 3 cation
1 3 donor
1 4 donor
5 3 5 6 8 9 rings
6 6 8 11 12 13 14 rings

> <PUBCHEM_HEAVY_ATOM_COUNT>
17

> <PUBCHEM_ATOM_DEF_STEREO_COUNT>
0

> <PUBCHEM_ATOM_UDEF_STEREO_COUNT>
0

> <PUBCHEM_BOND_DEF_STEREO_COUNT>
0

> <PUBCHEM_BOND_UDEF_STEREO_COUNT>
0

> <PUBCHEM_ISOTOPIC_ATOM_COUNT>
0

> <PUBCHEM_COMPONENT_COUNT>
1

> <PUBCHEM_CACTVS_TAUTO_COUNT>
2

> <PUBCHEM_CONFORMER_ID>
0000038000000001

> <PUBCHEM_MMFF94_ENERGY>
32.7119

> <PUBCHEM_FEATURE_SELFOVERLAP>
35.612

> <PUBCHEM_SHAPE_FINGERPRINT>
10967382 1 18410853274190255273
11640471 11 17676780867509025316
13027679 85 18194690495324420133
13140716 1 17978229692519098697
13965767 371 16608554374032828400
1420 336 18266184924512803916
14787075 74 17896612875907719035
14790565 3 18341057316043312793
15006816 218 16754940689043299904
16945 1 18195239147136872059
19591789 44 18120376712306458779
19765921 60 17749382706469569763
20510252 161 18342458093286620745
21141583 151 18124894583888822372
21524375 3 17972887951224859043
2334 1 18410572855759727185
23419403 2 17326855944455494142
23557571 272 18201719608641642450
23559900 14 18342173410755765088
2748010 2 18337115553281152647
353137 74 18409164389875307419
44154327 71 18267028250037128041
526903 126 18410576235872810256
537710 114 18408601466050490037
7832392 63 17187566044572678455
9981440 41 18116712022929254594

> <PUBCHEM_SHAPE_MULTIPOLES>
328.15
4.94
3.77
0.97
2.92
1.2
-0.06
0.99
-1.27
-0.81
0.74
0.39
0.23
-0.66

> <PUBCHEM_SHAPE_SELFOVERLAP>
695.133

> <PUBCHEM_SHAPE_VOLUME>
185.3

> <PUBCHEM_COORDINATE_TYPE>
2
5
10

> <Energy>
0.232708

> <minimizedAffinity>
-7.33042

> <CNNscore>
0.5244948864

> <CNNaffinity>
6.0534663200

> <CNN_VS>
3.1750121117

> <CNNaffinity_variance>
0.4126836061

$$$$
896


 19 20  0  0  0  0  0  0  0  0999 V2000
   -5.2263   -3.6585   23.2408 N   0  0  0  0  0  0  0  0  0  0  0  0
   -5.4810   -4.2020   21.0919 C   0  0  0  0  0  0  0  0  0  0  0  0
   -6.6864   -4.5183   21.7975 C   0  0  0  0  0  0  0  0  0  0  0  0
   -6.4939   -4.1815   23.1351 C   0  0  0  0  0  0  0  0  0  0  0  0
   -4.6051   -3.6707   22.0188 C   0  0  0  0  0  0  0  0  0  0  0  0
   -7.9258   -5.0695   21.4068 C   0  0  0  0  0  0  0  0  0  0  0  0
   -7.4786   -4.3740   24.1090 C   0  0  0  0  0  0  0  0  0  0  0  0
   -8.9242   -5.2828   22.3624 C   0  0  0  0  0  0  0  0  0  0  0  0
   -8.6938   -4.9351   23.6937 C   0  0  0  0  0  0  0  0  0  0  0  0
   -4.8231   -3.3235   24.0740 H   0  0  0  0  0  0  0  0  0  0  0  0
  -10.1576   -5.8229   22.1110 O   0  0  0  0  0  0  0  0  0  0  0  0
  -10.6399   -5.7166   20.7760 C   0  0  0  0  0  0  0  0  0  0  0  0
   -5.2313   -4.4120   19.6275 C   0  0  0  0  0  0  0  0  0  0  0  0
   -4.2225   -5.5308   19.3443 C   0  0  0  0  0  0  0  0  0  0  0  0
   -2.1404   -5.8541   21.2516 O   0  0  0  0  0  0  0  0  0  0  0  0
   -2.8510   -5.0659   19.2144 N   0  0  0  0  0  0  0  0  0  0  0  0
   -1.9203   -5.2454   20.2114 C   0  0  0  0  0  0  0  0  0  0  0  0
   -0.5776   -4.6451   19.8931 C   0  0  0  0  0  0  0  0  0  0  0  0
   -2.5797   -4.6078   18.3863 H   0  0  0  0  0  0  0  0  0  0  0  0
 11  8  1  0
 11 12  1  0
 15 17  2  0
  1  4  1  0
  1  5  1  0
  1 10  1  0
 16 14  1  0
 16 17  1  0
 16 19  1  0
  2  3  1  0
  2 13  1  0
  2  5  2  0
  3  4  2  0
  3  6  1  0
 13 14  1  0
  4  7  1  0
  6  8  2  0
  7  9  2  0
  8  9  1  0
 17 18  1  0
M  END
> <PUBCHEM_COMPOUND_CID>
896

> <PUBCHEM_CONFORMER_RMSD>
0.6

> <PUBCHEM_CONFORMER_DIVERSEORDER>
1
13
50
55
28
16
42
48
27
15
62
60
65
61
36
4
20
58
41
17
59
21
2
63
47
57
40
56
22
64
54
37
51
7
31
53
26
8
49
39
32
11
5
33
38
52
23
45
43
12
14
9
34
44
35
10
25
29
46
6
30
24
3
19
18

> <PUBCHEM_MMFF94_PARTIAL_CHARGES>
22
1 -0.36
10 0.3
11 -0.15
12 -0.15
13 0.08
14 -0.15
15 0.57
16 0.06
17 0.28
2 -0.57
20 0.15
23 0.27
24 0.15
25 0.15
26 0.15
27 0.37
3 0.03
4 -0.73
5 -0.18
7 0.18
8 -0.15
9 -0.3

> <PUBCHEM_EFFECTIVE_ROTOR_COUNT>
5

> <PUBCHEM_PHARMACOPHORE_FEATURES>
7
1 1 acceptor
1 2 acceptor
1 3 cation
1 3 donor
1 4 donor
5 3 5 6 8 9 rings
6 6 8 11 12 13 14 rings

> <PUBCHEM_HEAVY_ATOM_COUNT>
17

> <PUBCHEM_ATOM_DEF_STEREO_COUNT>
0

> <PUBCHEM_ATOM_UDEF_STEREO_COUNT>
0

> <PUBCHEM_BOND_DEF_STEREO_COUNT>
0

> <PUBCHEM_BOND_UDEF_STEREO_COUNT>
0

> <PUBCHEM_ISOTOPIC_ATOM_COUNT>
0

> <PUBCHEM_COMPONENT_COUNT>
1

> <PUBCHEM_CACTVS_TAUTO_COUNT>
2

> <PUBCHEM_CONFORMER_ID>
0000038000000001

> <PUBCHEM_MMFF94_ENERGY>
32.7119

> <PUBCHEM_FEATURE_SELFOVERLAP>
35.612

> <PUBCHEM_SHAPE_FINGERPRINT>
10967382 1 18410853274190255273
11640471 11 17676780867509025316
13027679 85 18194690495324420133
13140716 1 17978229692519098697
13965767 371 16608554374032828400
1420 336 18266184924512803916
14787075 74 17896612875907719035
14790565 3 18341057316043312793
15006816 218 16754940689043299904
16945 1 18195239147136872059
19591789 44 18120376712306458779
19765921 60 17749382706469569763
20510252 161 18342458093286620745
21141583 151 18124894583888822372
21524375 3 17972887951224859043
2334 1 18410572855759727185
23419403 2 17326855944455494142
23557571 272 18201719608641642450
23559900 14 18342173410755765088
2748010 2 18337115553281152647
353137 74 18409164389875307419
44154327 71 18267028250037128041
526903 126 18410576235872810256
537710 114 18408601466050490037
7832392 63 17187566044572678455
9981440 41 18116712022929254594

> <PUBCHEM_SHAPE_MULTIPOLES>
328.15
4.94
3.77
0.97
2.92
1.2
-0.06
0.99
-1.27
-0.81
0.74
0.39
0.23
-0.66

> <PUBCHEM_SHAPE_SELFOVERLAP>
695.133

> <PUBCHEM_SHAPE_VOLUME>
185.3

> <PUBCHEM_COORDINATE_TYPE>
2
5
10

> <Energy>
0.232708

> <minimizedAffinity>
-6.64256

> <CNNscore>
0.5035599470

> <CNNaffinity>
6.5874481201

> <CNN_VS>
3.3171749115

> <CNNaffinity_variance>
0.2515712082

$$$$
896


 19 20  0  0  0  0  0  0  0  0999 V2000
   -4.6855   -5.9024   22.4936 N   0  0  0  0  0  0  0  0  0  0  0  0
   -5.8014   -5.9181   20.5617 C   0  0  0  0  0  0  0  0  0  0  0  0
   -4.4261   -5.6150   20.3017 C   0  0  0  0  0  0  0  0  0  0  0  0
   -3.7586   -5.5991   21.5240 C   0  0  0  0  0  0  0  0  0  0  0  0
   -5.9196   -6.0911   21.9271 C   0  0  0  0  0  0  0  0  0  0  0  0
   -3.6950   -5.3474   19.1243 C   0  0  0  0  0  0  0  0  0  0  0  0
   -2.3924   -5.3217   21.6319 C   0  0  0  0  0  0  0  0  0  0  0  0
   -2.3296   -5.0562   19.2046 C   0  0  0  0  0  0  0  0  0  0  0  0
   -1.6956   -5.0471   20.4473 C   0  0  0  0  0  0  0  0  0  0  0  0
   -4.4909   -5.9738   23.4560 H   0  0  0  0  0  0  0  0  0  0  0  0
   -1.5185   -4.7659   18.1396 O   0  0  0  0  0  0  0  0  0  0  0  0
   -0.4462   -3.8619   18.3830 C   0  0  0  0  0  0  0  0  0  0  0  0
   -6.8932   -6.0246   19.5381 C   0  0  0  0  0  0  0  0  0  0  0  0
   -8.1026   -5.1378   19.8550 C   0  0  0  0  0  0  0  0  0  0  0  0
   -9.7672   -5.6507   22.1008 O   0  0  0  0  0  0  0  0  0  0  0  0
   -8.0291   -4.4861   21.1526 N   0  0  0  0  0  0  0  0  0  0  0  0
   -8.9039   -4.7841   22.1715 C   0  0  0  0  0  0  0  0  0  0  0  0
   -8.6836   -3.9600   23.4111 C   0  0  0  0  0  0  0  0  0  0  0  0
   -7.3306   -3.8096   21.3070 H   0  0  0  0  0  0  0  0  0  0  0  0
 11  8  1  0
 11 12  1  0
 15 17  2  0
  1  4  1  0
  1  5  1  0
  1 10  1  0
 16 14  1  0
 16 17  1  0
 16 19  1  0
  2  3  1  0
  2 13  1  0
  2  5  2  0
  3  4  2  0
  3  6  1  0
 13 14  1  0
  4  7  1  0
  6  8  2  0
  7  9  2  0
  8  9  1  0
 17 18  1  0
M  END
> <PUBCHEM_COMPOUND_CID>
896

> <PUBCHEM_CONFORMER_RMSD>
0.6

> <PUBCHEM_CONFORMER_DIVERSEORDER>
1
13
50
55
28
16
42
48
27
15
62
60
65
61
36
4
20
58
41
17
59
21
2
63
47
57
40
56
22
64
54
37
51
7
31
53
26
8
49
39
32
11
5
33
38
52
23
45
43
12
14
9
34
44
35
10
25
29
46
6
30
24
3
19
18

> <PUBCHEM_MMFF94_PARTIAL_CHARGES>
22
1 -0.36
10 0.3
11 -0.15
12 -0.15
13 0.08
14 -0.15
15 0.57
16 0.06
17 0.28
2 -0.57
20 0.15
23 0.27
24 0.15
25 0.15
26 0.15
27 0.37
3 0.03
4 -0.73
5 -0.18
7 0.18
8 -0.15
9 -0.3

> <PUBCHEM_EFFECTIVE_ROTOR_COUNT>
5

> <PUBCHEM_PHARMACOPHORE_FEATURES>
7
1 1 acceptor
1 2 acceptor
1 3 cation
1 3 donor
1 4 donor
5 3 5 6 8 9 rings
6 6 8 11 12 13 14 rings

> <PUBCHEM_HEAVY_ATOM_COUNT>
17

> <PUBCHEM_ATOM_DEF_STEREO_COUNT>
0

> <PUBCHEM_ATOM_UDEF_STEREO_COUNT>
0

> <PUBCHEM_BOND_DEF_STEREO_COUNT>
0

> <PUBCHEM_BOND_UDEF_STEREO_COUNT>
0

> <PUBCHEM_ISOTOPIC_ATOM_COUNT>
0

> <PUBCHEM_COMPONENT_COUNT>
1

> <PUBCHEM_CACTVS_TAUTO_COUNT>
2

> <PUBCHEM_CONFORMER_ID>
0000038000000001

> <PUBCHEM_MMFF94_ENERGY>
32.7119

> <PUBCHEM_FEATURE_SELFOVERLAP>
35.612

> <PUBCHEM_SHAPE_FINGERPRINT>
10967382 1 18410853274190255273
11640471 11 17676780867509025316
13027679 85 18194690495324420133
13140716 1 17978229692519098697
13965767 371 16608554374032828400
1420 336 18266184924512803916
14787075 74 17896612875907719035
14790565 3 18341057316043312793
15006816 218 16754940689043299904
16945 1 18195239147136872059
19591789 44 18120376712306458779
19765921 60 17749382706469569763
20510252 161 18342458093286620745
21141583 151 18124894583888822372
21524375 3 17972887951224859043
2334 1 18410572855759727185
23419403 2 17326855944455494142
23557571 272 18201719608641642450
23559900 14 18342173410755765088
2748010 2 18337115553281152647
353137 74 18409164389875307419
44154327 71 18267028250037128041
526903 126 18410576235872810256
537710 114 18408601466050490037
7832392 63 17187566044572678455
9981440 41 18116712022929254594

> <PUBCHEM_SHAPE_MULTIPOLES>
328.15
4.94
3.77
0.97
2.92
1.2
-0.06
0.99
-1.27
-0.81
0.74
0.39
0.23
-0.66

> <PUBCHEM_SHAPE_SELFOVERLAP>
695.133

> <PUBCHEM_SHAPE_VOLUME>
185.3

> <PUBCHEM_COORDINATE_TYPE>
2
5
10

> <Energy>
0.232708

> <minimizedAffinity>
-5.73030

> <CNNscore>
0.4292629063

> <CNNaffinity>
6.3369159698

> <CNN_VS>
2.7202029228

> <CNNaffinity_variance>
0.2217807323

$$$$
896


 19 20  0  0  0  0  0  0  0  0999 V2000
   -6.3537   -6.0199   18.6922 N   0  0  0  0  0  0  0  0  0  0  0  0
   -6.1994   -7.1599   20.6038 C   0  0  0  0  0  0  0  0  0  0  0  0
   -4.9529   -6.5007   20.3538 C   0  0  0  0  0  0  0  0  0  0  0  0
   -5.0743   -5.8096   19.1506 C   0  0  0  0  0  0  0  0  0  0  0  0
   -7.0386   -6.8354   19.5556 C   0  0  0  0  0  0  0  0  0  0  0  0
   -3.7277   -6.4400   21.0520 C   0  0  0  0  0  0  0  0  0  0  0  0
   -4.0270   -5.0624   18.6028 C   0  0  0  0  0  0  0  0  0  0  0  0
   -2.6603   -5.7089   20.5213 C   0  0  0  0  0  0  0  0  0  0  0  0
   -2.8186   -5.0315   19.3120 C   0  0  0  0  0  0  0  0  0  0  0  0
   -6.7245   -5.6396   17.8633 H   0  0  0  0  0  0  0  0  0  0  0  0
   -1.4221   -5.5872   21.0943 O   0  0  0  0  0  0  0  0  0  0  0  0
   -0.4653   -4.8079   20.3849 C   0  0  0  0  0  0  0  0  0  0  0  0
   -6.5189   -8.0319   21.7822 C   0  0  0  0  0  0  0  0  0  0  0  0
   -7.7326   -7.5426   22.5803 C   0  0  0  0  0  0  0  0  0  0  0  0
   -9.2438   -5.1852   23.0668 O   0  0  0  0  0  0  0  0  0  0  0  0
   -8.8069   -7.0180   21.7529 N   0  0  0  0  0  0  0  0  0  0  0  0
   -9.5017   -5.8798   22.0910 C   0  0  0  0  0  0  0  0  0  0  0  0
  -10.6041   -5.5410   21.1244 C   0  0  0  0  0  0  0  0  0  0  0  0
   -9.0449   -7.4927   20.9238 H   0  0  0  0  0  0  0  0  0  0  0  0
 11  8  1  0
 11 12  1  0
 15 17  2  0
  1  4  1  0
  1  5  1  0
  1 10  1  0
 16 14  1  0
 16 17  1  0
 16 19  1  0
  2  3  1  0
  2 13  1  0
  2  5  2  0
  3  4  2  0
  3  6  1  0
 13 14  1  0
  4  7  1  0
  6  8  2  0
  7  9  2  0
  8  9  1  0
 17 18  1  0
M  END
> <PUBCHEM_COMPOUND_CID>
896

> <PUBCHEM_CONFORMER_RMSD>
0.6

> <PUBCHEM_CONFORMER_DIVERSEORDER>
1
13
50
55
28
16
42
48
27
15
62
60
65
61
36
4
20
58
41
17
59
21
2
63
47
57
40
56
22
64
54
37
51
7
31
53
26
8
49
39
32
11
5
33
38
52
23
45
43
12
14
9
34
44
35
10
25
29
46
6
30
24
3
19
18

> <PUBCHEM_MMFF94_PARTIAL_CHARGES>
22
1 -0.36
10 0.3
11 -0.15
12 -0.15
13 0.08
14 -0.15
15 0.57
16 0.06
17 0.28
2 -0.57
20 0.15
23 0.27
24 0.15
25 0.15
26 0.15
27 0.37
3 0.03
4 -0.73
5 -0.18
7 0.18
8 -0.15
9 -0.3

> <PUBCHEM_EFFECTIVE_ROTOR_COUNT>
5

> <PUBCHEM_PHARMACOPHORE_FEATURES>
7
1 1 acceptor
1 2 acceptor
1 3 cation
1 3 donor
1 4 donor
5 3 5 6 8 9 rings
6 6 8 11 12 13 14 rings

> <PUBCHEM_HEAVY_ATOM_COUNT>
17

> <PUBCHEM_ATOM_DEF_STEREO_COUNT>
0

> <PUBCHEM_ATOM_UDEF_STEREO_COUNT>
0

> <PUBCHEM_BOND_DEF_STEREO_COUNT>
0

> <PUBCHEM_BOND_UDEF_STEREO_COUNT>
0

> <PUBCHEM_ISOTOPIC_ATOM_COUNT>
0

> <PUBCHEM_COMPONENT_COUNT>
1

> <PUBCHEM_CACTVS_TAUTO_COUNT>
2

> <PUBCHEM_CONFORMER_ID>
0000038000000001

> <PUBCHEM_MMFF94_ENERGY>
32.7119

> <PUBCHEM_FEATURE_SELFOVERLAP>
35.612

> <PUBCHEM_SHAPE_FINGERPRINT>
10967382 1 18410853274190255273
11640471 11 17676780867509025316
13027679 85 18194690495324420133
13140716 1 17978229692519098697
13965767 371 16608554374032828400
1420 336 18266184924512803916
14787075 74 17896612875907719035
14790565 3 18341057316043312793
15006816 218 16754940689043299904
16945 1 18195239147136872059
19591789 44 18120376712306458779
19765921 60 17749382706469569763
20510252 161 18342458093286620745
21141583 151 18124894583888822372
21524375 3 17972887951224859043
2334 1 18410572855759727185
23419403 2 17326855944455494142
23557571 272 18201719608641642450
23559900 14 18342173410755765088
2748010 2 18337115553281152647
353137 74 18409164389875307419
44154327 71 18267028250037128041
526903 126 18410576235872810256
537710 114 18408601466050490037
7832392 63 17187566044572678455
9981440 41 18116712022929254594

> <PUBCHEM_SHAPE_MULTIPOLES>
328.15
4.94
3.77
0.97
2.92
1.2
-0.06
0.99
-1.27
-0.81
0.74
0.39
0.23
-0.66

> <PUBCHEM_SHAPE_SELFOVERLAP>
695.133

> <PUBCHEM_SHAPE_VOLUME>
185.3

> <PUBCHEM_COORDINATE_TYPE>
2
5
10

> <Energy>
0.232708

> <minimizedAffinity>
-6.47050

> <CNNscore>
0.4138385057

> <CNNaffinity>
5.8432698250

> <CNN_VS>
2.4181699753

> <CNNaffinity_variance>
0.1359362006

$$$$
896


 19 20  0  0  0  0  0  0  0  0999 V2000
   -4.5383   -3.2737   22.3379 N   0  0  0  0  0  0  0  0  0  0  0  0
   -6.3466   -4.2278   23.2312 C   0  0  0  0  0  0  0  0  0  0  0  0
   -5.7529   -5.1385   22.2990 C   0  0  0  0  0  0  0  0  0  0  0  0
   -4.6370   -4.5126   21.7489 C   0  0  0  0  0  0  0  0  0  0  0  0
   -5.5647   -3.0888   23.2277 C   0  0  0  0  0  0  0  0  0  0  0  0
   -6.0781   -6.4448   21.8743 C   0  0  0  0  0  0  0  0  0  0  0  0
   -3.8286   -5.1250   20.7863 C   0  0  0  0  0  0  0  0  0  0  0  0
   -5.2928   -7.0765   20.9048 C   0  0  0  0  0  0  0  0  0  0  0  0
   -4.1838   -6.4167   20.3747 C   0  0  0  0  0  0  0  0  0  0  0  0
   -3.8323   -2.6145   22.1479 H   0  0  0  0  0  0  0  0  0  0  0  0
   -5.5141   -8.3313   20.4018 O   0  0  0  0  0  0  0  0  0  0  0  0
   -6.8707   -8.6955   20.1717 C   0  0  0  0  0  0  0  0  0  0  0  0
   -7.5801   -4.4761   24.0483 C   0  0  0  0  0  0  0  0  0  0  0  0
   -8.8403   -4.6563   23.1944 C   0  0  0  0  0  0  0  0  0  0  0  0
  -10.6879   -5.4734   21.1953 O   0  0  0  0  0  0  0  0  0  0  0  0
   -8.5714   -4.7919   21.7720 N   0  0  0  0  0  0  0  0  0  0  0  0
   -9.5289   -5.2257   20.8846 C   0  0  0  0  0  0  0  0  0  0  0  0
   -9.0272   -5.3416   19.4706 C   0  0  0  0  0  0  0  0  0  0  0  0
   -7.6752   -4.5659   21.4330 H   0  0  0  0  0  0  0  0  0  0  0  0
 11  8  1  0
 11 12  1  0
 15 17  2  0
  1  4  1  0
  1  5  1  0
  1 10  1  0
 16 14  1  0
 16 17  1  0
 16 19  1  0
  2  3  1  0
  2 13  1  0
  2  5  2  0
  3  4  2  0
  3  6  1  0
 13 14  1  0
  4  7  1  0
  6  8  2  0
  7  9  2  0
  8  9  1  0
 17 18  1  0
M  END
> <PUBCHEM_COMPOUND_CID>
896

> <PUBCHEM_CONFORMER_RMSD>
0.6

> <PUBCHEM_CONFORMER_DIVERSEORDER>
1
13
50
55
28
16
42
48
27
15
62
60
65
61
36
4
20
58
41
17
59
21
2
63
47
57
40
56
22
64
54
37
51
7
31
53
26
8
49
39
32
11
5
33
38
52
23
45
43
12
14
9
34
44
35
10
25
29
46
6
30
24
3
19
18

> <PUBCHEM_MMFF94_PARTIAL_CHARGES>
22
1 -0.36
10 0.3
11 -0.15
12 -0.15
13 0.08
14 -0.15
15 0.57
16 0.06
17 0.28
2 -0.57
20 0.15
23 0.27
24 0.15
25 0.15
26 0.15
27 0.37
3 0.03
4 -0.73
5 -0.18
7 0.18
8 -0.15
9 -0.3

> <PUBCHEM_EFFECTIVE_ROTOR_COUNT>
5

> <PUBCHEM_PHARMACOPHORE_FEATURES>
7
1 1 acceptor
1 2 acceptor
1 3 cation
1 3 donor
1 4 donor
5 3 5 6 8 9 rings
6 6 8 11 12 13 14 rings

> <PUBCHEM_HEAVY_ATOM_COUNT>
17

> <PUBCHEM_ATOM_DEF_STEREO_COUNT>
0

> <PUBCHEM_ATOM_UDEF_STEREO_COUNT>
0

> <PUBCHEM_BOND_DEF_STEREO_COUNT>
0

> <PUBCHEM_BOND_UDEF_STEREO_COUNT>
0

> <PUBCHEM_ISOTOPIC_ATOM_COUNT>
0

> <PUBCHEM_COMPONENT_COUNT>
1

> <PUBCHEM_CACTVS_TAUTO_COUNT>
2

> <PUBCHEM_CONFORMER_ID>
0000038000000001

> <PUBCHEM_MMFF94_ENERGY>
32.7119

> <PUBCHEM_FEATURE_SELFOVERLAP>
35.612

> <PUBCHEM_SHAPE_FINGERPRINT>
10967382 1 18410853274190255273
11640471 11 17676780867509025316
13027679 85 18194690495324420133
13140716 1 17978229692519098697
13965767 371 16608554374032828400
1420 336 18266184924512803916
14787075 74 17896612875907719035
14790565 3 18341057316043312793
15006816 218 16754940689043299904
16945 1 18195239147136872059
19591789 44 18120376712306458779
19765921 60 17749382706469569763
20510252 161 18342458093286620745
21141583 151 18124894583888822372
21524375 3 17972887951224859043
2334 1 18410572855759727185
23419403 2 17326855944455494142
23557571 272 18201719608641642450
23559900 14 18342173410755765088
2748010 2 18337115553281152647
353137 74 18409164389875307419
44154327 71 18267028250037128041
526903 126 18410576235872810256
537710 114 18408601466050490037
7832392 63 17187566044572678455
9981440 41 18116712022929254594

> <PUBCHEM_SHAPE_MULTIPOLES>
328.15
4.94
3.77
0.97
2.92
1.2
-0.06
0.99
-1.27
-0.81
0.74
0.39
0.23
-0.66

> <PUBCHEM_SHAPE_SELFOVERLAP>
695.133

> <PUBCHEM_SHAPE_VOLUME>
185.3

> <PUBCHEM_COORDINATE_TYPE>
2
5
10

> <Energy>
0.232708

> <minimizedAffinity>
-6.29376

> <CNNscore>
0.4000716209

> <CNNaffinity>
5.7978310585

> <CNN_VS>
2.3195476532

> <CNNaffinity_variance>
0.1495139450

$$$$
896


 19 20  0  0  0  0  0  0  0  0999 V2000
   -7.7187   -7.9780   21.4533 N   0  0  0  0  0  0  0  0  0  0  0  0
   -5.7035   -7.1320   21.0051 C   0  0  0  0  0  0  0  0  0  0  0  0
   -6.4510   -6.1752   21.7645 C   0  0  0  0  0  0  0  0  0  0  0  0
   -7.7058   -6.7239   22.0176 C   0  0  0  0  0  0  0  0  0  0  0  0
   -6.5212   -8.2326   20.8365 C   0  0  0  0  0  0  0  0  0  0  0  0
   -6.1630   -4.8827   22.2534 C   0  0  0  0  0  0  0  0  0  0  0  0
   -8.6954   -6.0418   22.7321 C   0  0  0  0  0  0  0  0  0  0  0  0
   -7.1383   -4.1738   22.9618 C   0  0  0  0  0  0  0  0  0  0  0  0
   -8.3851   -4.7554   23.1936 C   0  0  0  0  0  0  0  0  0  0  0  0
   -8.4785   -8.6030   21.4874 H   0  0  0  0  0  0  0  0  0  0  0  0
   -6.9853   -2.9116   23.4713 O   0  0  0  0  0  0  0  0  0  0  0  0
   -5.9422   -2.1207   22.9122 C   0  0  0  0  0  0  0  0  0  0  0  0
   -4.3023   -6.9592   20.4972 C   0  0  0  0  0  0  0  0  0  0  0  0
   -4.1163   -5.6827   19.6693 C   0  0  0  0  0  0  0  0  0  0  0  0
   -2.3351   -4.3701   21.4532 O   0  0  0  0  0  0  0  0  0  0  0  0
   -2.7252   -5.3475   19.4114 N   0  0  0  0  0  0  0  0  0  0  0  0
   -1.9504   -4.6811   20.3322 C   0  0  0  0  0  0  0  0  0  0  0  0
   -0.5568   -4.3903   19.8447 C   0  0  0  0  0  0  0  0  0  0  0  0
   -2.3248   -5.6059   18.5498 H   0  0  0  0  0  0  0  0  0  0  0  0
 11  8  1  0
 11 12  1  0
 15 17  2  0
  1  4  1  0
  1  5  1  0
  1 10  1  0
 16 14  1  0
 16 17  1  0
 16 19  1  0
  2  3  1  0
  2 13  1  0
  2  5  2  0
  3  4  2  0
  3  6  1  0
 13 14  1  0
  4  7  1  0
  6  8  2  0
  7  9  2  0
  8  9  1  0
 17 18  1  0
M  END
> <PUBCHEM_COMPOUND_CID>
896

> <PUBCHEM_CONFORMER_RMSD>
0.6

> <PUBCHEM_CONFORMER_DIVERSEORDER>
1
13
50
55
28
16
42
48
27
15
62
60
65
61
36
4
20
58
41
17
59
21
2
63
47
57
40
56
22
64
54
37
51
7
31
53
26
8
49
39
32
11
5
33
38
52
23
45
43
12
14
9
34
44
35
10
25
29
46
6
30
24
3
19
18

> <PUBCHEM_MMFF94_PARTIAL_CHARGES>
22
1 -0.36
10 0.3
11 -0.15
12 -0.15
13 0.08
14 -0.15
15 0.57
16 0.06
17 0.28
2 -0.57
20 0.15
23 0.27
24 0.15
25 0.15
26 0.15
27 0.37
3 0.03
4 -0.73
5 -0.18
7 0.18
8 -0.15
9 -0.3

> <PUBCHEM_EFFECTIVE_ROTOR_COUNT>
5

> <PUBCHEM_PHARMACOPHORE_FEATURES>
7
1 1 acceptor
1 2 acceptor
1 3 cation
1 3 donor
1 4 donor
5 3 5 6 8 9 rings
6 6 8 11 12 13 14 rings

> <PUBCHEM_HEAVY_ATOM_COUNT>
17

> <PUBCHEM_ATOM_DEF_STEREO_COUNT>
0

> <PUBCHEM_ATOM_UDEF_STEREO_COUNT>
0

> <PUBCHEM_BOND_DEF_STEREO_COUNT>
0

> <PUBCHEM_BOND_UDEF_STEREO_COUNT>
0

> <PUBCHEM_ISOTOPIC_ATOM_COUNT>
0

> <PUBCHEM_COMPONENT_COUNT>
1

> <PUBCHEM_CACTVS_TAUTO_COUNT>
2

> <PUBCHEM_CONFORMER_ID>
0000038000000001

> <PUBCHEM_MMFF94_ENERGY>
32.7119

> <PUBCHEM_FEATURE_SELFOVERLAP>
35.612

> <PUBCHEM_SHAPE_FINGERPRINT>
10967382 1 18410853274190255273
11640471 11 17676780867509025316
13027679 85 18194690495324420133
13140716 1 17978229692519098697
13965767 371 16608554374032828400
1420 336 18266184924512803916
14787075 74 17896612875907719035
14790565 3 18341057316043312793
15006816 218 16754940689043299904
16945 1 18195239147136872059
19591789 44 18120376712306458779
19765921 60 17749382706469569763
20510252 161 18342458093286620745
21141583 151 18124894583888822372
21524375 3 17972887951224859043
2334 1 18410572855759727185
23419403 2 17326855944455494142
23557571 272 18201719608641642450
23559900 14 18342173410755765088
2748010 2 18337115553281152647
353137 74 18409164389875307419
44154327 71 18267028250037128041
526903 126 18410576235872810256
537710 114 18408601466050490037
7832392 63 17187566044572678455
9981440 41 18116712022929254594

> <PUBCHEM_SHAPE_MULTIPOLES>
328.15
4.94
3.77
0.97
2.92
1.2
-0.06
0.99
-1.27
-0.81
0.74
0.39
0.23
-0.66

> <PUBCHEM_SHAPE_SELFOVERLAP>
695.133

> <PUBCHEM_SHAPE_VOLUME>
185.3

> <PUBCHEM_COORDINATE_TYPE>
2
5
10

> <Energy>
0.232708

> <minimizedAffinity>
-6.27057

> <CNNscore>
0.3948163986

> <CNNaffinity>
6.6970877647

> <CNN_VS>
2.6441199780

> <CNNaffinity_variance>
0.3284250498

$$$$
896


 19 20  0  0  0  0  0  0  0  0999 V2000
   -5.6872   -8.2422   20.7562 N   0  0  0  0  0  0  0  0  0  0  0  0
   -5.2495   -6.1182   20.2318 C   0  0  0  0  0  0  0  0  0  0  0  0
   -6.3804   -6.1568   21.1096 C   0  0  0  0  0  0  0  0  0  0  0  0
   -6.6378   -7.4925   21.4087 C   0  0  0  0  0  0  0  0  0  0  0  0
   -4.8495   -7.4265   20.0404 C   0  0  0  0  0  0  0  0  0  0  0  0
   -7.2102   -5.1623   21.6708 C   0  0  0  0  0  0  0  0  0  0  0  0
   -7.6912   -7.8886   22.2385 C   0  0  0  0  0  0  0  0  0  0  0  0
   -8.2776   -5.5313   22.4955 C   0  0  0  0  0  0  0  0  0  0  0  0
   -8.5060   -6.8799   22.7704 C   0  0  0  0  0  0  0  0  0  0  0  0
   -5.6182   -9.2233   20.7971 H   0  0  0  0  0  0  0  0  0  0  0  0
   -9.1592   -4.6639   23.0843 O   0  0  0  0  0  0  0  0  0  0  0  0
   -8.5952   -3.5902   23.8294 C   0  0  0  0  0  0  0  0  0  0  0  0
   -4.6286   -4.8864   19.6417 C   0  0  0  0  0  0  0  0  0  0  0  0
   -3.6906   -5.1897   18.4680 C   0  0  0  0  0  0  0  0  0  0  0  0
   -2.5322   -4.3518   20.9243 O   0  0  0  0  0  0  0  0  0  0  0  0
   -2.2922   -5.3059   18.8486 N   0  0  0  0  0  0  0  0  0  0  0  0
   -1.8211   -4.8405   20.0544 C   0  0  0  0  0  0  0  0  0  0  0  0
   -0.3364   -5.0155   20.2259 C   0  0  0  0  0  0  0  0  0  0  0  0
   -1.6620   -5.7313   18.2232 H   0  0  0  0  0  0  0  0  0  0  0  0
 11  8  1  0
 11 12  1  0
 15 17  2  0
  1  4  1  0
  1  5  1  0
  1 10  1  0
 16 14  1  0
 16 17  1  0
 16 19  1  0
  2  3  1  0
  2 13  1  0
  2  5  2  0
  3  4  2  0
  3  6  1  0
 13 14  1  0
  4  7  1  0
  6  8  2  0
  7  9  2  0
  8  9  1  0
 17 18  1  0
M  END
> <PUBCHEM_COMPOUND_CID>
896

> <PUBCHEM_CONFORMER_RMSD>
0.6

> <PUBCHEM_CONFORMER_DIVERSEORDER>
1
13
50
55
28
16
42
48
27
15
62
60
65
61
36
4
20
58
41
17
59
21
2
63
47
57
40
56
22
64
54
37
51
7
31
53
26
8
49
39
32
11
5
33
38
52
23
45
43
12
14
9
34
44
35
10
25
29
46
6
30
24
3
19
18

> <PUBCHEM_MMFF94_PARTIAL_CHARGES>
22
1 -0.36
10 0.3
11 -0.15
12 -0.15
13 0.08
14 -0.15
15 0.57
16 0.06
17 0.28
2 -0.57
20 0.15
23 0.27
24 0.15
25 0.15
26 0.15
27 0.37
3 0.03
4 -0.73
5 -0.18
7 0.18
8 -0.15
9 -0.3

> <PUBCHEM_EFFECTIVE_ROTOR_COUNT>
5

> <PUBCHEM_PHARMACOPHORE_FEATURES>
7
1 1 acceptor
1 2 acceptor
1 3 cation
1 3 donor
1 4 donor
5 3 5 6 8 9 rings
6 6 8 11 12 13 14 rings

> <PUBCHEM_HEAVY_ATOM_COUNT>
17

> <PUBCHEM_ATOM_DEF_STEREO_COUNT>
0

> <PUBCHEM_ATOM_UDEF_STEREO_COUNT>
0

> <PUBCHEM_BOND_DEF_STEREO_COUNT>
0

> <PUBCHEM_BOND_UDEF_STEREO_COUNT>
0

> <PUBCHEM_ISOTOPIC_ATOM_COUNT>
0

> <PUBCHEM_COMPONENT_COUNT>
1

> <PUBCHEM_CACTVS_TAUTO_COUNT>
2

> <PUBCHEM_CONFORMER_ID>
0000038000000001

> <PUBCHEM_MMFF94_ENERGY>
32.7119

> <PUBCHEM_FEATURE_SELFOVERLAP>
35.612

> <PUBCHEM_SHAPE_FINGERPRINT>
10967382 1 18410853274190255273
11640471 11 17676780867509025316
13027679 85 18194690495324420133
13140716 1 17978229692519098697
13965767 371 16608554374032828400
1420 336 18266184924512803916
14787075 74 17896612875907719035
14790565 3 18341057316043312793
15006816 218 16754940689043299904
16945 1 18195239147136872059
19591789 44 18120376712306458779
19765921 60 17749382706469569763
20510252 161 18342458093286620745
21141583 151 18124894583888822372
21524375 3 17972887951224859043
2334 1 18410572855759727185
23419403 2 17326855944455494142
23557571 272 18201719608641642450
23559900 14 18342173410755765088
2748010 2 18337115553281152647
353137 74 18409164389875307419
44154327 71 18267028250037128041
526903 126 18410576235872810256
537710 114 18408601466050490037
7832392 63 17187566044572678455
9981440 41 18116712022929254594

> <PUBCHEM_SHAPE_MULTIPOLES>
328.15
4.94
3.77
0.97
2.92
1.2
-0.06
0.99
-1.27
-0.81
0.74
0.39
0.23
-0.66

> <PUBCHEM_SHAPE_SELFOVERLAP>
695.133

> <PUBCHEM_SHAPE_VOLUME>
185.3

> <PUBCHEM_COORDINATE_TYPE>
2
5
10

> <Energy>
0.232708

> <minimizedAffinity>
-5.56737

> <CNNscore>
0.3682279587

> <CNNaffinity>
6.7505073547

> <CNN_VS>
2.4857256413

> <CNNaffinity_variance>
0.6381371021

$$$$
896


 19 20  0  0  0  0  0  0  0  0999 V2000
   -4.9592   -5.6783   18.5293 N   0  0  0  0  0  0  0  0  0  0  0  0
   -4.0541   -6.0790   20.5288 C   0  0  0  0  0  0  0  0  0  0  0  0
   -5.4766   -6.2118   20.6274 C   0  0  0  0  0  0  0  0  0  0  0  0
   -6.0141   -5.9438   19.3708 C   0  0  0  0  0  0  0  0  0  0  0  0
   -3.7750   -5.7513   19.2161 C   0  0  0  0  0  0  0  0  0  0  0  0
   -6.3522   -6.5338   21.6867 C   0  0  0  0  0  0  0  0  0  0  0  0
   -7.3890   -5.9746   19.1180 C   0  0  0  0  0  0  0  0  0  0  0  0
   -7.7325   -6.5610   21.4642 C   0  0  0  0  0  0  0  0  0  0  0  0
   -8.2342   -6.2844   20.1922 C   0  0  0  0  0  0  0  0  0  0  0  0
   -5.0424   -5.4663   17.5716 H   0  0  0  0  0  0  0  0  0  0  0  0
   -8.6812   -6.8432   22.4111 O   0  0  0  0  0  0  0  0  0  0  0  0
   -9.4670   -5.7494   22.8717 C   0  0  0  0  0  0  0  0  0  0  0  0
   -3.0684   -6.2637   21.6447 C   0  0  0  0  0  0  0  0  0  0  0  0
   -2.0243   -5.1436   21.7158 C   0  0  0  0  0  0  0  0  0  0  0  0
    0.3825   -5.1238   20.2044 O   0  0  0  0  0  0  0  0  0  0  0  0
   -1.8043   -4.4647   20.4491 N   0  0  0  0  0  0  0  0  0  0  0  0
   -0.5879   -4.4900   19.8072 C   0  0  0  0  0  0  0  0  0  0  0  0
   -0.5630   -3.6824   18.5377 C   0  0  0  0  0  0  0  0  0  0  0  0
   -2.5499   -3.9708   20.0375 H   0  0  0  0  0  0  0  0  0  0  0  0
 11  8  1  0
 11 12  1  0
 15 17  2  0
  1  4  1  0
  1  5  1  0
  1 10  1  0
 16 14  1  0
 16 17  1  0
 16 19  1  0
  2  3  1  0
  2 13  1  0
  2  5  2  0
  3  4  2  0
  3  6  1  0
 13 14  1  0
  4  7  1  0
  6  8  2  0
  7  9  2  0
  8  9  1  0
 17 18  1  0
M  END
> <PUBCHEM_COMPOUND_CID>
896

> <PUBCHEM_CONFORMER_RMSD>
0.6

> <PUBCHEM_CONFORMER_DIVERSEORDER>
1
13
50
55
28
16
42
48
27
15
62
60
65
61
36
4
20
58
41
17
59
21
2
63
47
57
40
56
22
64
54
37
51
7
31
53
26
8
49
39
32
11
5
33
38
52
23
45
43
12
14
9
34
44
35
10
25
29
46
6
30
24
3
19
18

> <PUBCHEM_MMFF94_PARTIAL_CHARGES>
22
1 -0.36
10 0.3
11 -0.15
12 -0.15
13 0.08
14 -0.15
15 0.57
16 0.06
17 0.28
2 -0.57
20 0.15
23 0.27
24 0.15
25 0.15
26 0.15
27 0.37
3 0.03
4 -0.73
5 -0.18
7 0.18
8 -0.15
9 -0.3

> <PUBCHEM_EFFECTIVE_ROTOR_COUNT>
5

> <PUBCHEM_PHARMACOPHORE_FEATURES>
7
1 1 acceptor
1 2 acceptor
1 3 cation
1 3 donor
1 4 donor
5 3 5 6 8 9 rings
6 6 8 11 12 13 14 rings

> <PUBCHEM_HEAVY_ATOM_COUNT>
17

> <PUBCHEM_ATOM_DEF_STEREO_COUNT>
0

> <PUBCHEM_ATOM_UDEF_STEREO_COUNT>
0

> <PUBCHEM_BOND_DEF_STEREO_COUNT>
0

> <PUBCHEM_BOND_UDEF_STEREO_COUNT>
0

> <PUBCHEM_ISOTOPIC_ATOM_COUNT>
0

> <PUBCHEM_COMPONENT_COUNT>
1

> <PUBCHEM_CACTVS_TAUTO_COUNT>
2

> <PUBCHEM_CONFORMER_ID>
0000038000000001

> <PUBCHEM_MMFF94_ENERGY>
32.7119

> <PUBCHEM_FEATURE_SELFOVERLAP>
35.612

> <PUBCHEM_SHAPE_FINGERPRINT>
10967382 1 18410853274190255273
11640471 11 17676780867509025316
13027679 85 18194690495324420133
13140716 1 17978229692519098697
13965767 371 16608554374032828400
1420 336 18266184924512803916
14787075 74 17896612875907719035
14790565 3 18341057316043312793
15006816 218 16754940689043299904
16945 1 18195239147136872059
19591789 44 18120376712306458779
19765921 60 17749382706469569763
20510252 161 18342458093286620745
21141583 151 18124894583888822372
21524375 3 17972887951224859043
2334 1 18410572855759727185
23419403 2 17326855944455494142
23557571 272 18201719608641642450
23559900 14 18342173410755765088
2748010 2 18337115553281152647
353137 74 18409164389875307419
44154327 71 18267028250037128041
526903 126 18410576235872810256
537710 114 18408601466050490037
7832392 63 17187566044572678455
9981440 41 18116712022929254594

> <PUBCHEM_SHAPE_MULTIPOLES>
328.15
4.94
3.77
0.97
2.92
1.2
-0.06
0.99
-1.27
-0.81
0.74
0.39
0.23
-0.66

> <PUBCHEM_SHAPE_SELFOVERLAP>
695.133

> <PUBCHEM_SHAPE_VOLUME>
185.3

> <PUBCHEM_COORDINATE_TYPE>
2
5
10

> <Energy>
0.232708

> <minimizedAffinity>
-6.02573

> <CNNscore>
0.3602127433

> <CNNaffinity>
5.9333987236

> <CNN_VS>
2.1372859478

> <CNNaffinity_variance>
0.1803907156

$$$$
896


 19 20  0  0  0  0  0  0  0  0999 V2000
   -6.7571   -4.7776   19.4663 N   0  0  0  0  0  0  0  0  0  0  0  0
   -6.4917   -3.8850   21.4938 C   0  0  0  0  0  0  0  0  0  0  0  0
   -5.2242   -4.3584   21.0248 C   0  0  0  0  0  0  0  0  0  0  0  0
   -5.4225   -4.9207   19.7661 C   0  0  0  0  0  0  0  0  0  0  0  0
   -7.4117   -4.1606   20.5008 C   0  0  0  0  0  0  0  0  0  0  0  0
   -3.9230   -4.3587   21.5721 C   0  0  0  0  0  0  0  0  0  0  0  0
   -4.3838   -5.4923   19.0248 C   0  0  0  0  0  0  0  0  0  0  0  0
   -2.8678   -4.9335   20.8568 C   0  0  0  0  0  0  0  0  0  0  0  0
   -3.1056   -5.4896   19.5996 C   0  0  0  0  0  0  0  0  0  0  0  0
   -7.1813   -5.0753   18.6294 H   0  0  0  0  0  0  0  0  0  0  0  0
   -1.5692   -5.0089   21.2862 O   0  0  0  0  0  0  0  0  0  0  0  0
   -0.5600   -4.8487   20.2952 C   0  0  0  0  0  0  0  0  0  0  0  0
   -6.7553   -3.2191   22.8122 C   0  0  0  0  0  0  0  0  0  0  0  0
   -7.2599   -4.1900   23.8856 C   0  0  0  0  0  0  0  0  0  0  0  0
   -9.3693   -5.8233   22.9055 O   0  0  0  0  0  0  0  0  0  0  0  0
   -7.1638   -5.5895   23.5035 N   0  0  0  0  0  0  0  0  0  0  0  0
   -8.2545   -6.3053   23.0671 C   0  0  0  0  0  0  0  0  0  0  0  0
   -7.9456   -7.7481   22.7717 C   0  0  0  0  0  0  0  0  0  0  0  0
   -6.2899   -6.0395   23.5590 H   0  0  0  0  0  0  0  0  0  0  0  0
 11  8  1  0
 11 12  1  0
 15 17  2  0
  1  4  1  0
  1  5  1  0
  1 10  1  0
 16 14  1  0
 16 17  1  0
 16 19  1  0
  2  3  1  0
  2 13  1  0
  2  5  2  0
  3  4  2  0
  3  6  1  0
 13 14  1  0
  4  7  1  0
  6  8  2  0
  7  9  2  0
  8  9  1  0
 17 18  1  0
M  END
> <PUBCHEM_COMPOUND_CID>
896

> <PUBCHEM_CONFORMER_RMSD>
0.6

> <PUBCHEM_CONFORMER_DIVERSEORDER>
1
13
50
55
28
16
42
48
27
15
62
60
65
61
36
4
20
58
41
17
59
21
2
63
47
57
40
56
22
64
54
37
51
7
31
53
26
8
49
39
32
11
5
33
38
52
23
45
43
12
14
9
34
44
35
10
25
29
46
6
30
24
3
19
18

> <PUBCHEM_MMFF94_PARTIAL_CHARGES>
22
1 -0.36
10 0.3
11 -0.15
12 -0.15
13 0.08
14 -0.15
15 0.57
16 0.06
17 0.28
2 -0.57
20 0.15
23 0.27
24 0.15
25 0.15
26 0.15
27 0.37
3 0.03
4 -0.73
5 -0.18
7 0.18
8 -0.15
9 -0.3

> <PUBCHEM_EFFECTIVE_ROTOR_COUNT>
5

> <PUBCHEM_PHARMACOPHORE_FEATURES>
7
1 1 acceptor
1 2 acceptor
1 3 cation
1 3 donor
1 4 donor
5 3 5 6 8 9 rings
6 6 8 11 12 13 14 rings

> <PUBCHEM_HEAVY_ATOM_COUNT>
17

> <PUBCHEM_ATOM_DEF_STEREO_COUNT>
0

> <PUBCHEM_ATOM_UDEF_STEREO_COUNT>
0

> <PUBCHEM_BOND_DEF_STEREO_COUNT>
0

> <PUBCHEM_BOND_UDEF_STEREO_COUNT>
0

> <PUBCHEM_ISOTOPIC_ATOM_COUNT>
0

> <PUBCHEM_COMPONENT_COUNT>
1

> <PUBCHEM_CACTVS_TAUTO_COUNT>
2

> <PUBCHEM_CONFORMER_ID>
0000038000000001

> <PUBCHEM_MMFF94_ENERGY>
32.7119

> <PUBCHEM_FEATURE_SELFOVERLAP>
35.612

> <PUBCHEM_SHAPE_FINGERPRINT>
10967382 1 18410853274190255273
11640471 11 17676780867509025316
13027679 85 18194690495324420133
13140716 1 17978229692519098697
13965767 371 16608554374032828400
1420 336 18266184924512803916
14787075 74 17896612875907719035
14790565 3 18341057316043312793
15006816 218 16754940689043299904
16945 1 18195239147136872059
19591789 44 18120376712306458779
19765921 60 17749382706469569763
20510252 161 18342458093286620745
21141583 151 18124894583888822372
21524375 3 17972887951224859043
2334 1 18410572855759727185
23419403 2 17326855944455494142
23557571 272 18201719608641642450
23559900 14 18342173410755765088
2748010 2 18337115553281152647
353137 74 18409164389875307419
44154327 71 18267028250037128041
526903 126 18410576235872810256
537710 114 18408601466050490037
7832392 63 17187566044572678455
9981440 41 18116712022929254594

> <PUBCHEM_SHAPE_MULTIPOLES>
328.15
4.94
3.77
0.97
2.92
1.2
-0.06
0.99
-1.27
-0.81
0.74
0.39
0.23
-0.66

> <PUBCHEM_SHAPE_SELFOVERLAP>
695.133

> <PUBCHEM_SHAPE_VOLUME>
185.3

> <PUBCHEM_COORDINATE_TYPE>
2
5
10

> <Energy>
0.232708

> <minimizedAffinity>
-6.68896

> <CNNscore>
0.3596655130

> <CNNaffinity>
6.4884467125

> <CNN_VS>
2.3336706161

> <CNNaffinity_variance>
0.3188861907

$$$$
