448537


 22 23  0  0  0  0  0  0  0  0999 V2000
   -4.3931   -3.8225   21.3135 C   0  0  0  0  0  0  0  0  0  0  0  0
   -5.1224   -3.0962   22.1968 C   0  0  0  0  0  0  0  0  0  0  0  0
   -0.0326   -1.5011   18.6156 O   0  0  0  0  0  0  0  0  0  0  0  0
   -3.2401   -3.2192   20.6147 C   0  0  0  0  0  0  0  0  0  0  0  0
   -2.1202   -2.7908   21.3402 C   0  0  0  0  0  0  0  0  0  0  0  0
   -3.2592   -3.0640   19.2228 C   0  0  0  0  0  0  0  0  0  0  0  0
   -1.0333   -2.2102   20.6817 C   0  0  0  0  0  0  0  0  0  0  0  0
   -2.1727   -2.4843   18.5654 C   0  0  0  0  0  0  0  0  0  0  0  0
   -1.0707   -2.0630   19.2989 C   0  0  0  0  0  0  0  0  0  0  0  0
    0.7270   -1.2056   19.0776 H   0  0  0  0  0  0  0  0  0  0  0  0
   -9.5381   -5.3665   24.8482 O   0  0  0  0  0  0  0  0  0  0  0  0
   -6.2743   -3.6997   22.8981 C   0  0  0  0  0  0  0  0  0  0  0  0
   -7.4104   -4.0990   22.1828 C   0  0  0  0  0  0  0  0  0  0  0  0
   -6.2416   -3.8683   24.2885 C   0  0  0  0  0  0  0  0  0  0  0  0
   -8.4997   -4.6579   22.8532 C   0  0  0  0  0  0  0  0  0  0  0  0
   -7.3302   -4.4278   24.9586 C   0  0  0  0  0  0  0  0  0  0  0  0
   -8.4517   -4.8175   24.2334 C   0  0  0  0  0  0  0  0  0  0  0  0
  -10.2836   -5.6224   24.3416 H   0  0  0  0  0  0  0  0  0  0  0  0
   -4.6188   -5.2848   20.9723 C   0  0  0  0  0  0  0  0  0  0  0  0
   -3.8393   -6.2354   21.8716 C   0  0  0  0  0  0  0  0  0  0  0  0
   -4.8484   -1.6574   22.5968 C   0  0  0  0  0  0  0  0  0  0  0  0
   -6.0709   -0.7586   22.4637 C   0  0  0  0  0  0  0  0  0  0  0  0
  3  9  1  0
  3 10  1  0
 11 17  1  0
 11 18  1  0
  1  2  2  0
  1 19  1  0
  1  4  1  0
  2 21  1  0
  2 12  1  0
 19 20  1  0
 21 22  1  0
  4  5  2  0
  4  6  1  0
 12 13  2  0
 12 14  1  0
  5  7  1  0
 13 15  1  0
  6  8  2  0
 14 16  2  0
  7  9  2  0
 15 17  2  0
  8  9  1  0
 16 17  1  0
M  END
> <PUBCHEM_COMPOUND_CID>
448537

> <PUBCHEM_CONFORMER_RMSD>
0.6

> <PUBCHEM_CONFORMER_DIVERSEORDER>
1
3
2

> <PUBCHEM_MMFF94_PARTIAL_CHARGES>
28
1 -0.53
11 -0.15
12 -0.15
13 -0.15
14 -0.15
15 -0.15
16 -0.15
17 -0.15
18 -0.15
19 0.08
2 -0.53
20 0.08
3 -0.17
31 0.15
32 0.15
33 0.15
34 0.15
35 0.15
36 0.15
37 0.15
38 0.15
39 0.45
4 -0.17
40 0.45
5 0.14
6 0.14
7 0.03
8 0.03

> <PUBCHEM_EFFECTIVE_ROTOR_COUNT>
4

> <PUBCHEM_PHARMACOPHORE_FEATURES>
6
1 1 donor
1 10 hydrophobe
1 2 donor
1 9 hydrophobe
6 7 11 13 15 17 19 rings
6 8 12 14 16 18 20 rings

> <PUBCHEM_HEAVY_ATOM_COUNT>
20

> <PUBCHEM_ATOM_DEF_STEREO_COUNT>
0

> <PUBCHEM_ATOM_UDEF_STEREO_COUNT>
0

> <PUBCHEM_BOND_DEF_STEREO_COUNT>
1

> <PUBCHEM_BOND_UDEF_STEREO_COUNT>
0

> <PUBCHEM_ISOTOPIC_ATOM_COUNT>
0

> <PUBCHEM_COMPONENT_COUNT>
1

> <PUBCHEM_CACTVS_TAUTO_COUNT>
3

> <PUBCHEM_CONFORMER_ID>
0006D81900000001

> <PUBCHEM_MMFF94_ENERGY>
60.231

> <PUBCHEM_FEATURE_SELFOVERLAP>
30.447

> <PUBCHEM_SHAPE_FINGERPRINT>
10366900 7 18186514428534874893
104564 63 18339924792832442081
10906281 52 18129397028286092948
11646440 116 18130798871235594657
12592029 89 16950278473467191938
12788726 201 18270697410649816016
13140716 1 18266458895859843337
13533116 47 18340201896197096762
13760787 19 16660644076447957075
14115302 16 18186806919849492430
14341114 176 15647057049052281551
15099037 51 18335139812416525942
15848700 24 18202843262111810220
15848702 151 16988848262958300981
16752209 62 18335696105492573576
16945 1 18410855473013063775
1813 80 18272378572207267076
18186145 218 18338228362096015613
187816 3 18410857663704853992
19141452 34 17131829889222033293
19784866 9 18113613452605694563
200 152 16950282905968490344
20028762 73 18055641861278493167
20600515 1 18340218469921978116
20645477 70 16009301016701038466
21285901 2 17917162606291067244
23175994 123 18333735723499757565
23402539 116 17988639696664490244
23493267 7 17313098635762053785
23557571 272 17489592229515708168
23559900 14 15554438621982335170
266924 87 18194116322357846868
347723 3 18410856551049855057
34934 24 18129105515976021729
3545911 37 15719391732852524422
4072396 5 18261662693185545291
4214541 1 15791727494979709055
465052 167 17240208741576471315
474 4 17917140731779840409
59755656 215 18270402685366324510
633830 44 18342455975941661781
69090 78 17060620005479420895
7226269 152 18410853270196137312
7495541 125 17531535390133293585
77779 3 15719110262139125926
81228 2 18128838385973970688
8272917 22 16660357039657468298
9971528 1 17775283884826915592

> <PUBCHEM_SHAPE_MULTIPOLES>
399.85
10.42
1.74
1.37
0
0
0.06
0
1.28
0
-0.74
0
0
-0.06

> <PUBCHEM_SHAPE_SELFOVERLAP>
850.96

> <PUBCHEM_SHAPE_VOLUME>
224.1

> <PUBCHEM_COORDINATE_TYPE>
2
5
10

> <Energy>
28.3223

> <minimizedAffinity>
-7.59613

> <CNNscore>
0.9448503852

> <CNNaffinity>
7.9071483612

> <CNN_VS>
7.4710721970

> <CNNaffinity_variance>
0.4788800776

$$$$
448537


 22 23  0  0  0  0  0  0  0  0999 V2000
   -5.1946   -3.0600   22.1698 C   0  0  0  0  0  0  0  0  0  0  0  0
   -4.4621   -3.7801   21.2839 C   0  0  0  0  0  0  0  0  0  0  0  0
   -9.5778   -5.4239   24.7928 O   0  0  0  0  0  0  0  0  0  0  0  0
   -6.3428   -3.6719   22.8691 C   0  0  0  0  0  0  0  0  0  0  0  0
   -6.3188   -3.8299   24.2614 C   0  0  0  0  0  0  0  0  0  0  0  0
   -7.4615   -4.1054   22.1462 C   0  0  0  0  0  0  0  0  0  0  0  0
   -7.3997   -4.4182   24.9230 C   0  0  0  0  0  0  0  0  0  0  0  0
   -8.5413   -4.6926   22.8079 C   0  0  0  0  0  0  0  0  0  0  0  0
   -8.5015   -4.8439   24.1883 C   0  0  0  0  0  0  0  0  0  0  0  0
   -9.5858   -5.5420   25.7222 H   0  0  0  0  0  0  0  0  0  0  0  0
   -0.0791   -1.4886   18.5969 O   0  0  0  0  0  0  0  0  0  0  0  0
   -3.3119   -3.1695   20.5860 C   0  0  0  0  0  0  0  0  0  0  0  0
   -3.3267   -3.0163   19.1938 C   0  0  0  0  0  0  0  0  0  0  0  0
   -2.1914   -2.7471   21.3133 C   0  0  0  0  0  0  0  0  0  0  0  0
   -2.2318   -2.4492   18.5397 C   0  0  0  0  0  0  0  0  0  0  0  0
   -1.0972   -2.1793   20.6595 C   0  0  0  0  0  0  0  0  0  0  0  0
   -1.1273   -2.0361   19.2759 C   0  0  0  0  0  0  0  0  0  0  0  0
   -0.1191   -1.4008   17.6649 H   0  0  0  0  0  0  0  0  0  0  0  0
   -4.9258   -1.6220   22.5767 C   0  0  0  0  0  0  0  0  0  0  0  0
   -6.1356   -0.7142   22.3974 C   0  0  0  0  0  0  0  0  0  0  0  0
   -4.6830   -5.2414   20.9361 C   0  0  0  0  0  0  0  0  0  0  0  0
   -3.9743   -6.1947   21.8896 C   0  0  0  0  0  0  0  0  0  0  0  0
  3  9  1  0
  3 10  1  0
 11 17  1  0
 11 18  1  0
  1  2  2  0
  1 19  1  0
  1  4  1  0
  2 21  1  0
  2 12  1  0
 19 20  1  0
 21 22  1  0
  4  5  2  0
  4  6  1  0
 12 13  2  0
 12 14  1  0
  5  7  1  0
 13 15  1  0
  6  8  2  0
 14 16  2  0
  7  9  2  0
 15 17  2  0
  8  9  1  0
 16 17  1  0
M  END
> <PUBCHEM_COMPOUND_CID>
448537

> <PUBCHEM_CONFORMER_RMSD>
0.6

> <PUBCHEM_CONFORMER_DIVERSEORDER>
1
3
2

> <PUBCHEM_MMFF94_PARTIAL_CHARGES>
28
1 -0.53
11 -0.15
12 -0.15
13 -0.15
14 -0.15
15 -0.15
16 -0.15
17 -0.15
18 -0.15
19 0.08
2 -0.53
20 0.08
3 -0.17
31 0.15
32 0.15
33 0.15
34 0.15
35 0.15
36 0.15
37 0.15
38 0.15
39 0.45
4 -0.17
40 0.45
5 0.14
6 0.14
7 0.03
8 0.03

> <PUBCHEM_EFFECTIVE_ROTOR_COUNT>
4

> <PUBCHEM_PHARMACOPHORE_FEATURES>
6
1 1 donor
1 10 hydrophobe
1 2 donor
1 9 hydrophobe
6 7 11 13 15 17 19 rings
6 8 12 14 16 18 20 rings

> <PUBCHEM_HEAVY_ATOM_COUNT>
20

> <PUBCHEM_ATOM_DEF_STEREO_COUNT>
0

> <PUBCHEM_ATOM_UDEF_STEREO_COUNT>
0

> <PUBCHEM_BOND_DEF_STEREO_COUNT>
1

> <PUBCHEM_BOND_UDEF_STEREO_COUNT>
0

> <PUBCHEM_ISOTOPIC_ATOM_COUNT>
0

> <PUBCHEM_COMPONENT_COUNT>
1

> <PUBCHEM_CACTVS_TAUTO_COUNT>
3

> <PUBCHEM_CONFORMER_ID>
0006D81900000001

> <PUBCHEM_MMFF94_ENERGY>
60.231

> <PUBCHEM_FEATURE_SELFOVERLAP>
30.447

> <PUBCHEM_SHAPE_FINGERPRINT>
10366900 7 18186514428534874893
104564 63 18339924792832442081
10906281 52 18129397028286092948
11646440 116 18130798871235594657
12592029 89 16950278473467191938
12788726 201 18270697410649816016
13140716 1 18266458895859843337
13533116 47 18340201896197096762
13760787 19 16660644076447957075
14115302 16 18186806919849492430
14341114 176 15647057049052281551
15099037 51 18335139812416525942
15848700 24 18202843262111810220
15848702 151 16988848262958300981
16752209 62 18335696105492573576
16945 1 18410855473013063775
1813 80 18272378572207267076
18186145 218 18338228362096015613
187816 3 18410857663704853992
19141452 34 17131829889222033293
19784866 9 18113613452605694563
200 152 16950282905968490344
20028762 73 18055641861278493167
20600515 1 18340218469921978116
20645477 70 16009301016701038466
21285901 2 17917162606291067244
23175994 123 18333735723499757565
23402539 116 17988639696664490244
23493267 7 17313098635762053785
23557571 272 17489592229515708168
23559900 14 15554438621982335170
266924 87 18194116322357846868
347723 3 18410856551049855057
34934 24 18129105515976021729
3545911 37 15719391732852524422
4072396 5 18261662693185545291
4214541 1 15791727494979709055
465052 167 17240208741576471315
474 4 17917140731779840409
59755656 215 18270402685366324510
633830 44 18342455975941661781
69090 78 17060620005479420895
7226269 152 18410853270196137312
7495541 125 17531535390133293585
77779 3 15719110262139125926
81228 2 18128838385973970688
8272917 22 16660357039657468298
9971528 1 17775283884826915592

> <PUBCHEM_SHAPE_MULTIPOLES>
399.85
10.42
1.74
1.37
0
0
0.06
0
1.28
0
-0.74
0
0
-0.06

> <PUBCHEM_SHAPE_SELFOVERLAP>
850.96

> <PUBCHEM_SHAPE_VOLUME>
224.1

> <PUBCHEM_COORDINATE_TYPE>
2
5
10

> <Energy>
28.3223

> <minimizedAffinity>
-7.58550

> <CNNscore>
0.9366768599

> <CNNaffinity>
7.8852400780

> <CNN_VS>
7.3859219551

> <CNNaffinity_variance>
0.4703322947

$$$$
448537


 22 23  0  0  0  0  0  0  0  0999 V2000
   -5.3323   -2.9678   22.0892 C   0  0  0  0  0  0  0  0  0  0  0  0
   -4.2936   -3.7528   21.7089 C   0  0  0  0  0  0  0  0  0  0  0  0
   -9.5380   -5.0346   25.2072 O   0  0  0  0  0  0  0  0  0  0  0  0
   -6.4362   -3.5216   22.8994 C   0  0  0  0  0  0  0  0  0  0  0  0
   -7.4366   -4.2947   22.2949 C   0  0  0  0  0  0  0  0  0  0  0  0
   -6.4961   -3.2731   24.2766 C   0  0  0  0  0  0  0  0  0  0  0  0
   -8.4872   -4.8103   23.0582 C   0  0  0  0  0  0  0  0  0  0  0  0
   -7.5457   -3.7890   25.0387 C   0  0  0  0  0  0  0  0  0  0  0  0
   -8.5308   -4.5519   24.4243 C   0  0  0  0  0  0  0  0  0  0  0  0
  -10.2194   -5.5530   24.8269 H   0  0  0  0  0  0  0  0  0  0  0  0
   -0.0795   -1.6803   18.6060 O   0  0  0  0  0  0  0  0  0  0  0  0
   -3.1878   -3.1989   20.9007 C   0  0  0  0  0  0  0  0  0  0  0  0
   -3.2559   -3.2120   19.5018 C   0  0  0  0  0  0  0  0  0  0  0  0
   -2.0561   -2.6640   21.5300 C   0  0  0  0  0  0  0  0  0  0  0  0
   -2.2023   -2.6975   18.7443 C   0  0  0  0  0  0  0  0  0  0  0  0
   -1.0033   -2.1489   20.7728 C   0  0  0  0  0  0  0  0  0  0  0  0
   -1.0860   -2.1712   19.3842 C   0  0  0  0  0  0  0  0  0  0  0  0
   -0.1547   -1.7045   17.6724 H   0  0  0  0  0  0  0  0  0  0  0  0
   -5.4757   -1.4858   21.7910 C   0  0  0  0  0  0  0  0  0  0  0  0
   -6.8414   -1.1198   21.2244 C   0  0  0  0  0  0  0  0  0  0  0  0
   -4.1115   -5.2153   22.0738 C   0  0  0  0  0  0  0  0  0  0  0  0
   -4.7950   -6.1630   21.0967 C   0  0  0  0  0  0  0  0  0  0  0  0
  3  9  1  0
  3 10  1  0
 11 17  1  0
 11 18  1  0
  1  2  2  0
  1 19  1  0
  1  4  1  0
  2 21  1  0
  2 12  1  0
 19 20  1  0
 21 22  1  0
  4  5  2  0
  4  6  1  0
 12 13  2  0
 12 14  1  0
  5  7  1  0
 13 15  1  0
  6  8  2  0
 14 16  2  0
  7  9  2  0
 15 17  2  0
  8  9  1  0
 16 17  1  0
M  END
> <PUBCHEM_COMPOUND_CID>
448537

> <PUBCHEM_CONFORMER_RMSD>
0.6

> <PUBCHEM_CONFORMER_DIVERSEORDER>
1
3
2

> <PUBCHEM_MMFF94_PARTIAL_CHARGES>
28
1 -0.53
11 -0.15
12 -0.15
13 -0.15
14 -0.15
15 -0.15
16 -0.15
17 -0.15
18 -0.15
19 0.08
2 -0.53
20 0.08
3 -0.17
31 0.15
32 0.15
33 0.15
34 0.15
35 0.15
36 0.15
37 0.15
38 0.15
39 0.45
4 -0.17
40 0.45
5 0.14
6 0.14
7 0.03
8 0.03

> <PUBCHEM_EFFECTIVE_ROTOR_COUNT>
4

> <PUBCHEM_PHARMACOPHORE_FEATURES>
6
1 1 donor
1 10 hydrophobe
1 2 donor
1 9 hydrophobe
6 7 11 13 15 17 19 rings
6 8 12 14 16 18 20 rings

> <PUBCHEM_HEAVY_ATOM_COUNT>
20

> <PUBCHEM_ATOM_DEF_STEREO_COUNT>
0

> <PUBCHEM_ATOM_UDEF_STEREO_COUNT>
0

> <PUBCHEM_BOND_DEF_STEREO_COUNT>
1

> <PUBCHEM_BOND_UDEF_STEREO_COUNT>
0

> <PUBCHEM_ISOTOPIC_ATOM_COUNT>
0

> <PUBCHEM_COMPONENT_COUNT>
1

> <PUBCHEM_CACTVS_TAUTO_COUNT>
3

> <PUBCHEM_CONFORMER_ID>
0006D81900000001

> <PUBCHEM_MMFF94_ENERGY>
60.231

> <PUBCHEM_FEATURE_SELFOVERLAP>
30.447

> <PUBCHEM_SHAPE_FINGERPRINT>
10366900 7 18186514428534874893
104564 63 18339924792832442081
10906281 52 18129397028286092948
11646440 116 18130798871235594657
12592029 89 16950278473467191938
12788726 201 18270697410649816016
13140716 1 18266458895859843337
13533116 47 18340201896197096762
13760787 19 16660644076447957075
14115302 16 18186806919849492430
14341114 176 15647057049052281551
15099037 51 18335139812416525942
15848700 24 18202843262111810220
15848702 151 16988848262958300981
16752209 62 18335696105492573576
16945 1 18410855473013063775
1813 80 18272378572207267076
18186145 218 18338228362096015613
187816 3 18410857663704853992
19141452 34 17131829889222033293
19784866 9 18113613452605694563
200 152 16950282905968490344
20028762 73 18055641861278493167
20600515 1 18340218469921978116
20645477 70 16009301016701038466
21285901 2 17917162606291067244
23175994 123 18333735723499757565
23402539 116 17988639696664490244
23493267 7 17313098635762053785
23557571 272 17489592229515708168
23559900 14 15554438621982335170
266924 87 18194116322357846868
347723 3 18410856551049855057
34934 24 18129105515976021729
3545911 37 15719391732852524422
4072396 5 18261662693185545291
4214541 1 15791727494979709055
465052 167 17240208741576471315
474 4 17917140731779840409
59755656 215 18270402685366324510
633830 44 18342455975941661781
69090 78 17060620005479420895
7226269 152 18410853270196137312
7495541 125 17531535390133293585
77779 3 15719110262139125926
81228 2 18128838385973970688
8272917 22 16660357039657468298
9971528 1 17775283884826915592

> <PUBCHEM_SHAPE_MULTIPOLES>
399.85
10.42
1.74
1.37
0
0
0.06
0
1.28
0
-0.74
0
0
-0.06

> <PUBCHEM_SHAPE_SELFOVERLAP>
850.96

> <PUBCHEM_SHAPE_VOLUME>
224.1

> <PUBCHEM_COORDINATE_TYPE>
2
5
10

> <Energy>
28.3223

> <minimizedAffinity>
-7.31499

> <CNNscore>
0.9346631765

> <CNNaffinity>
7.9422340393

> <CNN_VS>
7.4233136177

> <CNNaffinity_variance>
0.6650733948

$$$$
448537


 22 23  0  0  0  0  0  0  0  0999 V2000
   -5.1009   -2.9573   22.2200 C   0  0  0  0  0  0  0  0  0  0  0  0
   -4.4279   -3.6918   21.2995 C   0  0  0  0  0  0  0  0  0  0  0  0
   -9.5062   -5.1770   24.9305 O   0  0  0  0  0  0  0  0  0  0  0  0
   -6.2551   -3.5307   22.9417 C   0  0  0  0  0  0  0  0  0  0  0  0
   -6.2474   -3.6031   24.3412 C   0  0  0  0  0  0  0  0  0  0  0  0
   -7.3632   -4.0128   22.2334 C   0  0  0  0  0  0  0  0  0  0  0  0
   -7.3339   -4.1550   25.0247 C   0  0  0  0  0  0  0  0  0  0  0  0
   -8.4486   -4.5635   22.9170 C   0  0  0  0  0  0  0  0  0  0  0  0
   -8.4250   -4.6300   24.3044 C   0  0  0  0  0  0  0  0  0  0  0  0
   -9.5250   -5.2381   25.8652 H   0  0  0  0  0  0  0  0  0  0  0  0
   -0.0236   -1.4776   18.5825 O   0  0  0  0  0  0  0  0  0  0  0  0
   -3.2717   -3.1198   20.5791 C   0  0  0  0  0  0  0  0  0  0  0  0
   -2.1339   -2.7027   21.2813 C   0  0  0  0  0  0  0  0  0  0  0  0
   -3.3099   -2.9815   19.1854 C   0  0  0  0  0  0  0  0  0  0  0  0
   -1.0499   -2.1524   20.5954 C   0  0  0  0  0  0  0  0  0  0  0  0
   -2.2258   -2.4323   18.4995 C   0  0  0  0  0  0  0  0  0  0  0  0
   -1.1040   -2.0213   19.2124 C   0  0  0  0  0  0  0  0  0  0  0  0
    0.7222   -1.2071   19.0809 H   0  0  0  0  0  0  0  0  0  0  0  0
   -4.7554   -1.5411   22.6451 C   0  0  0  0  0  0  0  0  0  0  0  0
   -5.9454   -0.5922   22.5854 C   0  0  0  0  0  0  0  0  0  0  0  0
   -4.7249   -5.1346   20.9316 C   0  0  0  0  0  0  0  0  0  0  0  0
   -3.9568   -6.1371   21.7831 C   0  0  0  0  0  0  0  0  0  0  0  0
  3  9  1  0
  3 10  1  0
 11 17  1  0
 11 18  1  0
  1  2  2  0
  1 19  1  0
  1  4  1  0
  2 21  1  0
  2 12  1  0
 19 20  1  0
 21 22  1  0
  4  5  2  0
  4  6  1  0
 12 13  2  0
 12 14  1  0
  5  7  1  0
 13 15  1  0
  6  8  2  0
 14 16  2  0
  7  9  2  0
 15 17  2  0
  8  9  1  0
 16 17  1  0
M  END
> <PUBCHEM_COMPOUND_CID>
448537

> <PUBCHEM_CONFORMER_RMSD>
0.6

> <PUBCHEM_CONFORMER_DIVERSEORDER>
1
3
2

> <PUBCHEM_MMFF94_PARTIAL_CHARGES>
28
1 -0.53
11 -0.15
12 -0.15
13 -0.15
14 -0.15
15 -0.15
16 -0.15
17 -0.15
18 -0.15
19 0.08
2 -0.53
20 0.08
3 -0.17
31 0.15
32 0.15
33 0.15
34 0.15
35 0.15
36 0.15
37 0.15
38 0.15
39 0.45
4 -0.17
40 0.45
5 0.14
6 0.14
7 0.03
8 0.03

> <PUBCHEM_EFFECTIVE_ROTOR_COUNT>
4

> <PUBCHEM_PHARMACOPHORE_FEATURES>
6
1 1 donor
1 10 hydrophobe
1 2 donor
1 9 hydrophobe
6 7 11 13 15 17 19 rings
6 8 12 14 16 18 20 rings

> <PUBCHEM_HEAVY_ATOM_COUNT>
20

> <PUBCHEM_ATOM_DEF_STEREO_COUNT>
0

> <PUBCHEM_ATOM_UDEF_STEREO_COUNT>
0

> <PUBCHEM_BOND_DEF_STEREO_COUNT>
1

> <PUBCHEM_BOND_UDEF_STEREO_COUNT>
0

> <PUBCHEM_ISOTOPIC_ATOM_COUNT>
0

> <PUBCHEM_COMPONENT_COUNT>
1

> <PUBCHEM_CACTVS_TAUTO_COUNT>
3

> <PUBCHEM_CONFORMER_ID>
0006D81900000001

> <PUBCHEM_MMFF94_ENERGY>
60.231

> <PUBCHEM_FEATURE_SELFOVERLAP>
30.447

> <PUBCHEM_SHAPE_FINGERPRINT>
10366900 7 18186514428534874893
104564 63 18339924792832442081
10906281 52 18129397028286092948
11646440 116 18130798871235594657
12592029 89 16950278473467191938
12788726 201 18270697410649816016
13140716 1 18266458895859843337
13533116 47 18340201896197096762
13760787 19 16660644076447957075
14115302 16 18186806919849492430
14341114 176 15647057049052281551
15099037 51 18335139812416525942
15848700 24 18202843262111810220
15848702 151 16988848262958300981
16752209 62 18335696105492573576
16945 1 18410855473013063775
1813 80 18272378572207267076
18186145 218 18338228362096015613
187816 3 18410857663704853992
19141452 34 17131829889222033293
19784866 9 18113613452605694563
200 152 16950282905968490344
20028762 73 18055641861278493167
20600515 1 18340218469921978116
20645477 70 16009301016701038466
21285901 2 17917162606291067244
23175994 123 18333735723499757565
23402539 116 17988639696664490244
23493267 7 17313098635762053785
23557571 272 17489592229515708168
23559900 14 15554438621982335170
266924 87 18194116322357846868
347723 3 18410856551049855057
34934 24 18129105515976021729
3545911 37 15719391732852524422
4072396 5 18261662693185545291
4214541 1 15791727494979709055
465052 167 17240208741576471315
474 4 17917140731779840409
59755656 215 18270402685366324510
633830 44 18342455975941661781
69090 78 17060620005479420895
7226269 152 18410853270196137312
7495541 125 17531535390133293585
77779 3 15719110262139125926
81228 2 18128838385973970688
8272917 22 16660357039657468298
9971528 1 17775283884826915592

> <PUBCHEM_SHAPE_MULTIPOLES>
399.85
10.42
1.74
1.37
0
0
0.06
0
1.28
0
-0.74
0
0
-0.06

> <PUBCHEM_SHAPE_SELFOVERLAP>
850.96

> <PUBCHEM_SHAPE_VOLUME>
224.1

> <PUBCHEM_COORDINATE_TYPE>
2
5
10

> <Energy>
28.3223

> <minimizedAffinity>
-7.59396

> <CNNscore>
0.9304851890

> <CNNaffinity>
7.8489680290

> <CNN_VS>
7.3033485413

> <CNNaffinity_variance>
0.4579688311

$$$$
448537


 22 23  0  0  0  0  0  0  0  0999 V2000
   -4.4264   -3.7629   21.2380 C   0  0  0  0  0  0  0  0  0  0  0  0
   -5.1398   -3.0379   22.1354 C   0  0  0  0  0  0  0  0  0  0  0  0
   -0.0635   -1.4574   18.5304 O   0  0  0  0  0  0  0  0  0  0  0  0
   -3.2727   -3.1651   20.5356 C   0  0  0  0  0  0  0  0  0  0  0  0
   -2.0929   -2.8763   21.2346 C   0  0  0  0  0  0  0  0  0  0  0  0
   -3.3506   -2.8757   19.1673 C   0  0  0  0  0  0  0  0  0  0  0  0
   -1.0045   -2.3011   20.5737 C   0  0  0  0  0  0  0  0  0  0  0  0
   -2.2627   -2.3015   18.5076 C   0  0  0  0  0  0  0  0  0  0  0  0
   -1.1008   -2.0194   19.2149 C   0  0  0  0  0  0  0  0  0  0  0  0
    0.7355   -1.2537   18.9751 H   0  0  0  0  0  0  0  0  0  0  0  0
   -9.5032   -5.3455   24.8405 O   0  0  0  0  0  0  0  0  0  0  0  0
   -6.2923   -3.6359   22.8403 C   0  0  0  0  0  0  0  0  0  0  0  0
   -6.2573   -3.8199   24.2283 C   0  0  0  0  0  0  0  0  0  0  0  0
   -7.4274   -4.0330   22.1214 C   0  0  0  0  0  0  0  0  0  0  0  0
   -7.3452   -4.3962   24.8863 C   0  0  0  0  0  0  0  0  0  0  0  0
   -8.5153   -4.6083   22.7793 C   0  0  0  0  0  0  0  0  0  0  0  0
   -8.4636   -4.7856   24.1582 C   0  0  0  0  0  0  0  0  0  0  0  0
   -9.4487   -5.4561   25.7693 H   0  0  0  0  0  0  0  0  0  0  0  0
   -4.6716   -5.2188   20.8833 C   0  0  0  0  0  0  0  0  0  0  0  0
   -3.9515   -6.1891   21.8108 C   0  0  0  0  0  0  0  0  0  0  0  0
   -4.8460   -1.6066   22.5481 C   0  0  0  0  0  0  0  0  0  0  0  0
   -6.0660   -0.6987   22.4607 C   0  0  0  0  0  0  0  0  0  0  0  0
  3  9  1  0
  3 10  1  0
 11 17  1  0
 11 18  1  0
  1  2  2  0
  1 19  1  0
  1  4  1  0
  2 21  1  0
  2 12  1  0
 19 20  1  0
 21 22  1  0
  4  5  2  0
  4  6  1  0
 12 13  2  0
 12 14  1  0
  5  7  1  0
 13 15  1  0
  6  8  2  0
 14 16  2  0
  7  9  2  0
 15 17  2  0
  8  9  1  0
 16 17  1  0
M  END
> <PUBCHEM_COMPOUND_CID>
448537

> <PUBCHEM_CONFORMER_RMSD>
0.6

> <PUBCHEM_CONFORMER_DIVERSEORDER>
1
3
2

> <PUBCHEM_MMFF94_PARTIAL_CHARGES>
28
1 -0.53
11 -0.15
12 -0.15
13 -0.15
14 -0.15
15 -0.15
16 -0.15
17 -0.15
18 -0.15
19 0.08
2 -0.53
20 0.08
3 -0.17
31 0.15
32 0.15
33 0.15
34 0.15
35 0.15
36 0.15
37 0.15
38 0.15
39 0.45
4 -0.17
40 0.45
5 0.14
6 0.14
7 0.03
8 0.03

> <PUBCHEM_EFFECTIVE_ROTOR_COUNT>
4

> <PUBCHEM_PHARMACOPHORE_FEATURES>
6
1 1 donor
1 10 hydrophobe
1 2 donor
1 9 hydrophobe
6 7 11 13 15 17 19 rings
6 8 12 14 16 18 20 rings

> <PUBCHEM_HEAVY_ATOM_COUNT>
20

> <PUBCHEM_ATOM_DEF_STEREO_COUNT>
0

> <PUBCHEM_ATOM_UDEF_STEREO_COUNT>
0

> <PUBCHEM_BOND_DEF_STEREO_COUNT>
1

> <PUBCHEM_BOND_UDEF_STEREO_COUNT>
0

> <PUBCHEM_ISOTOPIC_ATOM_COUNT>
0

> <PUBCHEM_COMPONENT_COUNT>
1

> <PUBCHEM_CACTVS_TAUTO_COUNT>
3

> <PUBCHEM_CONFORMER_ID>
0006D81900000001

> <PUBCHEM_MMFF94_ENERGY>
60.231

> <PUBCHEM_FEATURE_SELFOVERLAP>
30.447

> <PUBCHEM_SHAPE_FINGERPRINT>
10366900 7 18186514428534874893
104564 63 18339924792832442081
10906281 52 18129397028286092948
11646440 116 18130798871235594657
12592029 89 16950278473467191938
12788726 201 18270697410649816016
13140716 1 18266458895859843337
13533116 47 18340201896197096762
13760787 19 16660644076447957075
14115302 16 18186806919849492430
14341114 176 15647057049052281551
15099037 51 18335139812416525942
15848700 24 18202843262111810220
15848702 151 16988848262958300981
16752209 62 18335696105492573576
16945 1 18410855473013063775
1813 80 18272378572207267076
18186145 218 18338228362096015613
187816 3 18410857663704853992
19141452 34 17131829889222033293
19784866 9 18113613452605694563
200 152 16950282905968490344
20028762 73 18055641861278493167
20600515 1 18340218469921978116
20645477 70 16009301016701038466
21285901 2 17917162606291067244
23175994 123 18333735723499757565
23402539 116 17988639696664490244
23493267 7 17313098635762053785
23557571 272 17489592229515708168
23559900 14 15554438621982335170
266924 87 18194116322357846868
347723 3 18410856551049855057
34934 24 18129105515976021729
3545911 37 15719391732852524422
4072396 5 18261662693185545291
4214541 1 15791727494979709055
465052 167 17240208741576471315
474 4 17917140731779840409
59755656 215 18270402685366324510
633830 44 18342455975941661781
69090 78 17060620005479420895
7226269 152 18410853270196137312
7495541 125 17531535390133293585
77779 3 15719110262139125926
81228 2 18128838385973970688
8272917 22 16660357039657468298
9971528 1 17775283884826915592

> <PUBCHEM_SHAPE_MULTIPOLES>
399.85
10.42
1.74
1.37
0
0
0.06
0
1.28
0
-0.74
0
0
-0.06

> <PUBCHEM_SHAPE_SELFOVERLAP>
850.96

> <PUBCHEM_SHAPE_VOLUME>
224.1

> <PUBCHEM_COORDINATE_TYPE>
2
5
10

> <Energy>
28.3223

> <minimizedAffinity>
-7.48757

> <CNNscore>
0.9258441329

> <CNNaffinity>
7.8787779808

> <CNN_VS>
7.2945203781

> <CNNaffinity_variance>
0.5090664625

$$$$
448537


 22 23  0  0  0  0  0  0  0  0999 V2000
   -4.8171   -3.4756   22.8156 C   0  0  0  0  0  0  0  0  0  0  0  0
   -3.8842   -4.3269   22.3208 C   0  0  0  0  0  0  0  0  0  0  0  0
   -9.8181   -5.3634   24.5783 O   0  0  0  0  0  0  0  0  0  0  0  0
   -6.1305   -3.9789   23.2666 C   0  0  0  0  0  0  0  0  0  0  0  0
   -7.1392   -4.2544   22.3336 C   0  0  0  0  0  0  0  0  0  0  0  0
   -6.3809   -4.1781   24.6303 C   0  0  0  0  0  0  0  0  0  0  0  0
   -8.3856   -4.7204   22.7597 C   0  0  0  0  0  0  0  0  0  0  0  0
   -7.6262   -4.6442   25.0552 C   0  0  0  0  0  0  0  0  0  0  0  0
   -8.6165   -4.9110   24.1182 C   0  0  0  0  0  0  0  0  0  0  0  0
  -10.5091   -5.5538   23.9750 H   0  0  0  0  0  0  0  0  0  0  0  0
    1.1111   -2.3711   20.6165 O   0  0  0  0  0  0  0  0  0  0  0  0
   -2.5693   -3.8246   21.8719 C   0  0  0  0  0  0  0  0  0  0  0  0
   -1.8646   -2.8926   22.6442 C   0  0  0  0  0  0  0  0  0  0  0  0
   -2.0214   -4.2712   20.6622 C   0  0  0  0  0  0  0  0  0  0  0  0
   -0.6281   -2.4134   22.2083 C   0  0  0  0  0  0  0  0  0  0  0  0
   -0.7849   -3.7930   20.2269 C   0  0  0  0  0  0  0  0  0  0  0  0
   -0.0988   -2.8661   21.0051 C   0  0  0  0  0  0  0  0  0  0  0  0
    1.5571   -1.7476   21.1550 H   0  0  0  0  0  0  0  0  0  0  0  0
   -4.6366   -1.9799   23.0057 C   0  0  0  0  0  0  0  0  0  0  0  0
   -5.7348   -1.1568   22.3448 C   0  0  0  0  0  0  0  0  0  0  0  0
   -4.0358   -5.8331   22.2041 C   0  0  0  0  0  0  0  0  0  0  0  0
   -4.8786   -6.2564   21.0081 C   0  0  0  0  0  0  0  0  0  0  0  0
  3  9  1  0
  3 10  1  0
 11 17  1  0
 11 18  1  0
  1  2  2  0
  1 19  1  0
  1  4  1  0
  2 21  1  0
  2 12  1  0
 19 20  1  0
 21 22  1  0
  4  5  2  0
  4  6  1  0
 12 13  2  0
 12 14  1  0
  5  7  1  0
 13 15  1  0
  6  8  2  0
 14 16  2  0
  7  9  2  0
 15 17  2  0
  8  9  1  0
 16 17  1  0
M  END
> <PUBCHEM_COMPOUND_CID>
448537

> <PUBCHEM_CONFORMER_RMSD>
0.6

> <PUBCHEM_CONFORMER_DIVERSEORDER>
1
3
2

> <PUBCHEM_MMFF94_PARTIAL_CHARGES>
28
1 -0.53
11 -0.15
12 -0.15
13 -0.15
14 -0.15
15 -0.15
16 -0.15
17 -0.15
18 -0.15
19 0.08
2 -0.53
20 0.08
3 -0.17
31 0.15
32 0.15
33 0.15
34 0.15
35 0.15
36 0.15
37 0.15
38 0.15
39 0.45
4 -0.17
40 0.45
5 0.14
6 0.14
7 0.03
8 0.03

> <PUBCHEM_EFFECTIVE_ROTOR_COUNT>
4

> <PUBCHEM_PHARMACOPHORE_FEATURES>
6
1 1 donor
1 10 hydrophobe
1 2 donor
1 9 hydrophobe
6 7 11 13 15 17 19 rings
6 8 12 14 16 18 20 rings

> <PUBCHEM_HEAVY_ATOM_COUNT>
20

> <PUBCHEM_ATOM_DEF_STEREO_COUNT>
0

> <PUBCHEM_ATOM_UDEF_STEREO_COUNT>
0

> <PUBCHEM_BOND_DEF_STEREO_COUNT>
1

> <PUBCHEM_BOND_UDEF_STEREO_COUNT>
0

> <PUBCHEM_ISOTOPIC_ATOM_COUNT>
0

> <PUBCHEM_COMPONENT_COUNT>
1

> <PUBCHEM_CACTVS_TAUTO_COUNT>
3

> <PUBCHEM_CONFORMER_ID>
0006D81900000001

> <PUBCHEM_MMFF94_ENERGY>
60.231

> <PUBCHEM_FEATURE_SELFOVERLAP>
30.447

> <PUBCHEM_SHAPE_FINGERPRINT>
10366900 7 18186514428534874893
104564 63 18339924792832442081
10906281 52 18129397028286092948
11646440 116 18130798871235594657
12592029 89 16950278473467191938
12788726 201 18270697410649816016
13140716 1 18266458895859843337
13533116 47 18340201896197096762
13760787 19 16660644076447957075
14115302 16 18186806919849492430
14341114 176 15647057049052281551
15099037 51 18335139812416525942
15848700 24 18202843262111810220
15848702 151 16988848262958300981
16752209 62 18335696105492573576
16945 1 18410855473013063775
1813 80 18272378572207267076
18186145 218 18338228362096015613
187816 3 18410857663704853992
19141452 34 17131829889222033293
19784866 9 18113613452605694563
200 152 16950282905968490344
20028762 73 18055641861278493167
20600515 1 18340218469921978116
20645477 70 16009301016701038466
21285901 2 17917162606291067244
23175994 123 18333735723499757565
23402539 116 17988639696664490244
23493267 7 17313098635762053785
23557571 272 17489592229515708168
23559900 14 15554438621982335170
266924 87 18194116322357846868
347723 3 18410856551049855057
34934 24 18129105515976021729
3545911 37 15719391732852524422
4072396 5 18261662693185545291
4214541 1 15791727494979709055
465052 167 17240208741576471315
474 4 17917140731779840409
59755656 215 18270402685366324510
633830 44 18342455975941661781
69090 78 17060620005479420895
7226269 152 18410853270196137312
7495541 125 17531535390133293585
77779 3 15719110262139125926
81228 2 18128838385973970688
8272917 22 16660357039657468298
9971528 1 17775283884826915592

> <PUBCHEM_SHAPE_MULTIPOLES>
399.85
10.42
1.74
1.37
0
0
0.06
0
1.28
0
-0.74
0
0
-0.06

> <PUBCHEM_SHAPE_SELFOVERLAP>
850.96

> <PUBCHEM_SHAPE_VOLUME>
224.1

> <PUBCHEM_COORDINATE_TYPE>
2
5
10

> <Energy>
28.3223

> <minimizedAffinity>
-6.99757

> <CNNscore>
0.9143800735

> <CNNaffinity>
7.7107014656

> <CNN_VS>
7.0505118370

> <CNNaffinity_variance>
0.3783904612

$$$$
448537


 22 23  0  0  0  0  0  0  0  0999 V2000
   -4.8312   -4.0410   22.0613 C   0  0  0  0  0  0  0  0  0  0  0  0
   -4.6521   -2.8557   21.4267 C   0  0  0  0  0  0  0  0  0  0  0  0
   -9.5035   -4.9970   25.0507 O   0  0  0  0  0  0  0  0  0  0  0  0
   -6.0617   -4.3008   22.8359 C   0  0  0  0  0  0  0  0  0  0  0  0
   -7.2742   -4.5410   22.1755 C   0  0  0  0  0  0  0  0  0  0  0  0
   -6.0284   -4.3024   24.2362 C   0  0  0  0  0  0  0  0  0  0  0  0
   -8.4410   -4.7764   22.9071 C   0  0  0  0  0  0  0  0  0  0  0  0
   -7.1945   -4.5382   24.9665 C   0  0  0  0  0  0  0  0  0  0  0  0
   -8.3890   -4.7728   24.2971 C   0  0  0  0  0  0  0  0  0  0  0  0
  -10.3265   -5.1589   24.6332 H   0  0  0  0  0  0  0  0  0  0  0  0
    0.0339   -1.8256   18.4834 O   0  0  0  0  0  0  0  0  0  0  0  0
   -3.4226   -2.5961   20.6495 C   0  0  0  0  0  0  0  0  0  0  0  0
   -2.2741   -2.1037   21.2823 C   0  0  0  0  0  0  0  0  0  0  0  0
   -3.4004   -2.8322   19.2687 C   0  0  0  0  0  0  0  0  0  0  0  0
   -1.1197   -1.8497   20.5399 C   0  0  0  0  0  0  0  0  0  0  0  0
   -2.2460   -2.5792   18.5267 C   0  0  0  0  0  0  0  0  0  0  0  0
   -1.1144   -2.0886   19.1704 C   0  0  0  0  0  0  0  0  0  0  0  0
    0.7852   -1.4956   18.9356 H   0  0  0  0  0  0  0  0  0  0  0  0
   -3.8687   -5.2150   22.0295 C   0  0  0  0  0  0  0  0  0  0  0  0
   -4.5544   -6.5420   21.7311 C   0  0  0  0  0  0  0  0  0  0  0  0
   -5.6496   -1.7116   21.3935 C   0  0  0  0  0  0  0  0  0  0  0  0
   -5.6635   -0.8954   22.6795 C   0  0  0  0  0  0  0  0  0  0  0  0
  3  9  1  0
  3 10  1  0
 11 17  1  0
 11 18  1  0
  1  2  2  0
  1 19  1  0
  1  4  1  0
  2 21  1  0
  2 12  1  0
 19 20  1  0
 21 22  1  0
  4  5  2  0
  4  6  1  0
 12 13  2  0
 12 14  1  0
  5  7  1  0
 13 15  1  0
  6  8  2  0
 14 16  2  0
  7  9  2  0
 15 17  2  0
  8  9  1  0
 16 17  1  0
M  END
> <PUBCHEM_COMPOUND_CID>
448537

> <PUBCHEM_CONFORMER_RMSD>
0.6

> <PUBCHEM_CONFORMER_DIVERSEORDER>
1
3
2

> <PUBCHEM_MMFF94_PARTIAL_CHARGES>
28
1 -0.53
11 -0.15
12 -0.15
13 -0.15
14 -0.15
15 -0.15
16 -0.15
17 -0.15
18 -0.15
19 0.08
2 -0.53
20 0.08
3 -0.17
31 0.15
32 0.15
33 0.15
34 0.15
35 0.15
36 0.15
37 0.15
38 0.15
39 0.45
4 -0.17
40 0.45
5 0.14
6 0.14
7 0.03
8 0.03

> <PUBCHEM_EFFECTIVE_ROTOR_COUNT>
4

> <PUBCHEM_PHARMACOPHORE_FEATURES>
6
1 1 donor
1 10 hydrophobe
1 2 donor
1 9 hydrophobe
6 7 11 13 15 17 19 rings
6 8 12 14 16 18 20 rings

> <PUBCHEM_HEAVY_ATOM_COUNT>
20

> <PUBCHEM_ATOM_DEF_STEREO_COUNT>
0

> <PUBCHEM_ATOM_UDEF_STEREO_COUNT>
0

> <PUBCHEM_BOND_DEF_STEREO_COUNT>
1

> <PUBCHEM_BOND_UDEF_STEREO_COUNT>
0

> <PUBCHEM_ISOTOPIC_ATOM_COUNT>
0

> <PUBCHEM_COMPONENT_COUNT>
1

> <PUBCHEM_CACTVS_TAUTO_COUNT>
3

> <PUBCHEM_CONFORMER_ID>
0006D81900000001

> <PUBCHEM_MMFF94_ENERGY>
60.231

> <PUBCHEM_FEATURE_SELFOVERLAP>
30.447

> <PUBCHEM_SHAPE_FINGERPRINT>
10366900 7 18186514428534874893
104564 63 18339924792832442081
10906281 52 18129397028286092948
11646440 116 18130798871235594657
12592029 89 16950278473467191938
12788726 201 18270697410649816016
13140716 1 18266458895859843337
13533116 47 18340201896197096762
13760787 19 16660644076447957075
14115302 16 18186806919849492430
14341114 176 15647057049052281551
15099037 51 18335139812416525942
15848700 24 18202843262111810220
15848702 151 16988848262958300981
16752209 62 18335696105492573576
16945 1 18410855473013063775
1813 80 18272378572207267076
18186145 218 18338228362096015613
187816 3 18410857663704853992
19141452 34 17131829889222033293
19784866 9 18113613452605694563
200 152 16950282905968490344
20028762 73 18055641861278493167
20600515 1 18340218469921978116
20645477 70 16009301016701038466
21285901 2 17917162606291067244
23175994 123 18333735723499757565
23402539 116 17988639696664490244
23493267 7 17313098635762053785
23557571 272 17489592229515708168
23559900 14 15554438621982335170
266924 87 18194116322357846868
347723 3 18410856551049855057
34934 24 18129105515976021729
3545911 37 15719391732852524422
4072396 5 18261662693185545291
4214541 1 15791727494979709055
465052 167 17240208741576471315
474 4 17917140731779840409
59755656 215 18270402685366324510
633830 44 18342455975941661781
69090 78 17060620005479420895
7226269 152 18410853270196137312
7495541 125 17531535390133293585
77779 3 15719110262139125926
81228 2 18128838385973970688
8272917 22 16660357039657468298
9971528 1 17775283884826915592

> <PUBCHEM_SHAPE_MULTIPOLES>
399.85
10.42
1.74
1.37
0
0
0.06
0
1.28
0
-0.74
0
0
-0.06

> <PUBCHEM_SHAPE_SELFOVERLAP>
850.96

> <PUBCHEM_SHAPE_VOLUME>
224.1

> <PUBCHEM_COORDINATE_TYPE>
2
5
10

> <Energy>
28.3223

> <minimizedAffinity>
-7.86883

> <CNNscore>
0.9071173668

> <CNNaffinity>
7.8593096733

> <CNN_VS>
7.1293163300

> <CNNaffinity_variance>
0.6558066010

$$$$
448537


 22 23  0  0  0  0  0  0  0  0999 V2000
   -4.6318   -2.8558   21.4563 C   0  0  0  0  0  0  0  0  0  0  0  0
   -4.8139   -4.0501   22.0730 C   0  0  0  0  0  0  0  0  0  0  0  0
    0.0112   -1.8329   18.4435 O   0  0  0  0  0  0  0  0  0  0  0  0
   -3.4055   -2.5914   20.6765 C   0  0  0  0  0  0  0  0  0  0  0  0
   -2.2561   -2.1031   21.3124 C   0  0  0  0  0  0  0  0  0  0  0  0
   -3.3835   -2.8197   19.2947 C   0  0  0  0  0  0  0  0  0  0  0  0
   -1.0987   -1.8425   20.5744 C   0  0  0  0  0  0  0  0  0  0  0  0
   -2.2267   -2.5596   18.5580 C   0  0  0  0  0  0  0  0  0  0  0  0
   -1.0959   -2.0740   19.2027 C   0  0  0  0  0  0  0  0  0  0  0  0
    0.7919   -1.5051   18.8446 H   0  0  0  0  0  0  0  0  0  0  0  0
   -9.5115   -5.0315   25.0144 O   0  0  0  0  0  0  0  0  0  0  0  0
   -6.0414   -4.3162   22.8510 C   0  0  0  0  0  0  0  0  0  0  0  0
   -7.2636   -4.5233   22.1990 C   0  0  0  0  0  0  0  0  0  0  0  0
   -5.9927   -4.3536   24.2507 C   0  0  0  0  0  0  0  0  0  0  0  0
   -8.4216   -4.7627   22.9407 C   0  0  0  0  0  0  0  0  0  0  0  0
   -7.1501   -4.5938   24.9922 C   0  0  0  0  0  0  0  0  0  0  0  0
   -8.3564   -4.7958   24.3290 C   0  0  0  0  0  0  0  0  0  0  0  0
  -10.3136   -5.1651   24.5490 H   0  0  0  0  0  0  0  0  0  0  0  0
   -5.6244   -1.7067   21.4443 C   0  0  0  0  0  0  0  0  0  0  0  0
   -5.6243   -0.9035   22.7385 C   0  0  0  0  0  0  0  0  0  0  0  0
   -3.8566   -5.2272   22.0194 C   0  0  0  0  0  0  0  0  0  0  0  0
   -4.5444   -6.5392   21.6648 C   0  0  0  0  0  0  0  0  0  0  0  0
  3  9  1  0
  3 10  1  0
 11 17  1  0
 11 18  1  0
  1  2  2  0
  1 19  1  0
  1  4  1  0
  2 21  1  0
  2 12  1  0
 19 20  1  0
 21 22  1  0
  4  5  2  0
  4  6  1  0
 12 13  2  0
 12 14  1  0
  5  7  1  0
 13 15  1  0
  6  8  2  0
 14 16  2  0
  7  9  2  0
 15 17  2  0
  8  9  1  0
 16 17  1  0
M  END
> <PUBCHEM_COMPOUND_CID>
448537

> <PUBCHEM_CONFORMER_RMSD>
0.6

> <PUBCHEM_CONFORMER_DIVERSEORDER>
1
3
2

> <PUBCHEM_MMFF94_PARTIAL_CHARGES>
28
1 -0.53
11 -0.15
12 -0.15
13 -0.15
14 -0.15
15 -0.15
16 -0.15
17 -0.15
18 -0.15
19 0.08
2 -0.53
20 0.08
3 -0.17
31 0.15
32 0.15
33 0.15
34 0.15
35 0.15
36 0.15
37 0.15
38 0.15
39 0.45
4 -0.17
40 0.45
5 0.14
6 0.14
7 0.03
8 0.03

> <PUBCHEM_EFFECTIVE_ROTOR_COUNT>
4

> <PUBCHEM_PHARMACOPHORE_FEATURES>
6
1 1 donor
1 10 hydrophobe
1 2 donor
1 9 hydrophobe
6 7 11 13 15 17 19 rings
6 8 12 14 16 18 20 rings

> <PUBCHEM_HEAVY_ATOM_COUNT>
20

> <PUBCHEM_ATOM_DEF_STEREO_COUNT>
0

> <PUBCHEM_ATOM_UDEF_STEREO_COUNT>
0

> <PUBCHEM_BOND_DEF_STEREO_COUNT>
1

> <PUBCHEM_BOND_UDEF_STEREO_COUNT>
0

> <PUBCHEM_ISOTOPIC_ATOM_COUNT>
0

> <PUBCHEM_COMPONENT_COUNT>
1

> <PUBCHEM_CACTVS_TAUTO_COUNT>
3

> <PUBCHEM_CONFORMER_ID>
0006D81900000001

> <PUBCHEM_MMFF94_ENERGY>
60.231

> <PUBCHEM_FEATURE_SELFOVERLAP>
30.447

> <PUBCHEM_SHAPE_FINGERPRINT>
10366900 7 18186514428534874893
104564 63 18339924792832442081
10906281 52 18129397028286092948
11646440 116 18130798871235594657
12592029 89 16950278473467191938
12788726 201 18270697410649816016
13140716 1 18266458895859843337
13533116 47 18340201896197096762
13760787 19 16660644076447957075
14115302 16 18186806919849492430
14341114 176 15647057049052281551
15099037 51 18335139812416525942
15848700 24 18202843262111810220
15848702 151 16988848262958300981
16752209 62 18335696105492573576
16945 1 18410855473013063775
1813 80 18272378572207267076
18186145 218 18338228362096015613
187816 3 18410857663704853992
19141452 34 17131829889222033293
19784866 9 18113613452605694563
200 152 16950282905968490344
20028762 73 18055641861278493167
20600515 1 18340218469921978116
20645477 70 16009301016701038466
21285901 2 17917162606291067244
23175994 123 18333735723499757565
23402539 116 17988639696664490244
23493267 7 17313098635762053785
23557571 272 17489592229515708168
23559900 14 15554438621982335170
266924 87 18194116322357846868
347723 3 18410856551049855057
34934 24 18129105515976021729
3545911 37 15719391732852524422
4072396 5 18261662693185545291
4214541 1 15791727494979709055
465052 167 17240208741576471315
474 4 17917140731779840409
59755656 215 18270402685366324510
633830 44 18342455975941661781
69090 78 17060620005479420895
7226269 152 18410853270196137312
7495541 125 17531535390133293585
77779 3 15719110262139125926
81228 2 18128838385973970688
8272917 22 16660357039657468298
9971528 1 17775283884826915592

> <PUBCHEM_SHAPE_MULTIPOLES>
399.85
10.42
1.74
1.37
0
0
0.06
0
1.28
0
-0.74
0
0
-0.06

> <PUBCHEM_SHAPE_SELFOVERLAP>
850.96

> <PUBCHEM_SHAPE_VOLUME>
224.1

> <PUBCHEM_COORDINATE_TYPE>
2
5
10

> <Energy>
28.3223

> <minimizedAffinity>
-7.87624

> <CNNscore>
0.9046794176

> <CNNaffinity>
7.8580794334

> <CNN_VS>
7.1090426445

> <CNNaffinity_variance>
0.6551159024

$$$$
448537


 22 23  0  0  0  0  0  0  0  0999 V2000
   -4.7031   -2.8468   21.4096 C   0  0  0  0  0  0  0  0  0  0  0  0
   -4.8790   -4.0349   22.0399 C   0  0  0  0  0  0  0  0  0  0  0  0
    0.0039   -1.8566   18.4864 O   0  0  0  0  0  0  0  0  0  0  0  0
   -3.4756   -2.5829   20.6316 C   0  0  0  0  0  0  0  0  0  0  0  0
   -3.4520   -2.8153   19.2498 C   0  0  0  0  0  0  0  0  0  0  0  0
   -2.3236   -2.1050   21.2691 C   0  0  0  0  0  0  0  0  0  0  0  0
   -2.2883   -2.5761   18.5143 C   0  0  0  0  0  0  0  0  0  0  0  0
   -1.1615   -1.8657   20.5336 C   0  0  0  0  0  0  0  0  0  0  0  0
   -1.1535   -2.1029   19.1648 C   0  0  0  0  0  0  0  0  0  0  0  0
    0.0458   -2.0050   17.5623 H   0  0  0  0  0  0  0  0  0  0  0  0
   -9.5385   -5.0792   25.0200 O   0  0  0  0  0  0  0  0  0  0  0  0
   -6.1077   -4.3006   22.8162 C   0  0  0  0  0  0  0  0  0  0  0  0
   -6.0677   -4.3413   24.2156 C   0  0  0  0  0  0  0  0  0  0  0  0
   -7.3227   -4.5238   22.1553 C   0  0  0  0  0  0  0  0  0  0  0  0
   -7.2301   -4.6043   24.9423 C   0  0  0  0  0  0  0  0  0  0  0  0
   -8.4849   -4.7859   22.8817 C   0  0  0  0  0  0  0  0  0  0  0  0
   -8.4275   -4.8246   24.2713 C   0  0  0  0  0  0  0  0  0  0  0  0
   -9.4788   -5.1008   25.9547 H   0  0  0  0  0  0  0  0  0  0  0  0
   -5.7038   -1.7052   21.3799 C   0  0  0  0  0  0  0  0  0  0  0  0
   -5.6959   -0.8704   22.6540 C   0  0  0  0  0  0  0  0  0  0  0  0
   -3.9130   -5.2057   22.0041 C   0  0  0  0  0  0  0  0  0  0  0  0
   -4.5871   -6.5239   21.6463 C   0  0  0  0  0  0  0  0  0  0  0  0
  3  9  1  0
  3 10  1  0
 11 17  1  0
 11 18  1  0
  1  2  2  0
  1 19  1  0
  1  4  1  0
  2 21  1  0
  2 12  1  0
 19 20  1  0
 21 22  1  0
  4  5  2  0
  4  6  1  0
 12 13  2  0
 12 14  1  0
  5  7  1  0
 13 15  1  0
  6  8  2  0
 14 16  2  0
  7  9  2  0
 15 17  2  0
  8  9  1  0
 16 17  1  0
M  END
> <PUBCHEM_COMPOUND_CID>
448537

> <PUBCHEM_CONFORMER_RMSD>
0.6

> <PUBCHEM_CONFORMER_DIVERSEORDER>
1
3
2

> <PUBCHEM_MMFF94_PARTIAL_CHARGES>
28
1 -0.53
11 -0.15
12 -0.15
13 -0.15
14 -0.15
15 -0.15
16 -0.15
17 -0.15
18 -0.15
19 0.08
2 -0.53
20 0.08
3 -0.17
31 0.15
32 0.15
33 0.15
34 0.15
35 0.15
36 0.15
37 0.15
38 0.15
39 0.45
4 -0.17
40 0.45
5 0.14
6 0.14
7 0.03
8 0.03

> <PUBCHEM_EFFECTIVE_ROTOR_COUNT>
4

> <PUBCHEM_PHARMACOPHORE_FEATURES>
6
1 1 donor
1 10 hydrophobe
1 2 donor
1 9 hydrophobe
6 7 11 13 15 17 19 rings
6 8 12 14 16 18 20 rings

> <PUBCHEM_HEAVY_ATOM_COUNT>
20

> <PUBCHEM_ATOM_DEF_STEREO_COUNT>
0

> <PUBCHEM_ATOM_UDEF_STEREO_COUNT>
0

> <PUBCHEM_BOND_DEF_STEREO_COUNT>
1

> <PUBCHEM_BOND_UDEF_STEREO_COUNT>
0

> <PUBCHEM_ISOTOPIC_ATOM_COUNT>
0

> <PUBCHEM_COMPONENT_COUNT>
1

> <PUBCHEM_CACTVS_TAUTO_COUNT>
3

> <PUBCHEM_CONFORMER_ID>
0006D81900000001

> <PUBCHEM_MMFF94_ENERGY>
60.231

> <PUBCHEM_FEATURE_SELFOVERLAP>
30.447

> <PUBCHEM_SHAPE_FINGERPRINT>
10366900 7 18186514428534874893
104564 63 18339924792832442081
10906281 52 18129397028286092948
11646440 116 18130798871235594657
12592029 89 16950278473467191938
12788726 201 18270697410649816016
13140716 1 18266458895859843337
13533116 47 18340201896197096762
13760787 19 16660644076447957075
14115302 16 18186806919849492430
14341114 176 15647057049052281551
15099037 51 18335139812416525942
15848700 24 18202843262111810220
15848702 151 16988848262958300981
16752209 62 18335696105492573576
16945 1 18410855473013063775
1813 80 18272378572207267076
18186145 218 18338228362096015613
187816 3 18410857663704853992
19141452 34 17131829889222033293
19784866 9 18113613452605694563
200 152 16950282905968490344
20028762 73 18055641861278493167
20600515 1 18340218469921978116
20645477 70 16009301016701038466
21285901 2 17917162606291067244
23175994 123 18333735723499757565
23402539 116 17988639696664490244
23493267 7 17313098635762053785
23557571 272 17489592229515708168
23559900 14 15554438621982335170
266924 87 18194116322357846868
347723 3 18410856551049855057
34934 24 18129105515976021729
3545911 37 15719391732852524422
4072396 5 18261662693185545291
4214541 1 15791727494979709055
465052 167 17240208741576471315
474 4 17917140731779840409
59755656 215 18270402685366324510
633830 44 18342455975941661781
69090 78 17060620005479420895
7226269 152 18410853270196137312
7495541 125 17531535390133293585
77779 3 15719110262139125926
81228 2 18128838385973970688
8272917 22 16660357039657468298
9971528 1 17775283884826915592

> <PUBCHEM_SHAPE_MULTIPOLES>
399.85
10.42
1.74
1.37
0
0
0.06
0
1.28
0
-0.74
0
0
-0.06

> <PUBCHEM_SHAPE_SELFOVERLAP>
850.96

> <PUBCHEM_SHAPE_VOLUME>
224.1

> <PUBCHEM_COORDINATE_TYPE>
2
5
10

> <Energy>
28.3223

> <minimizedAffinity>
-7.79965

> <CNNscore>
0.8975694180

> <CNNaffinity>
7.8245606422

> <CNN_VS>
7.0230865479

> <CNNaffinity_variance>
0.6303517222

$$$$
