896


 19 20  0  0  0  0  0  0  0  0999 V2000
    7.9121   44.7662  129.6066 N   0  0  0  0  0  0  0  0  0  0  0  0
    8.7972   46.4071  130.8322 C   0  0  0  0  0  0  0  0  0  0  0  0
    9.5066   45.1923  131.1000 C   0  0  0  0  0  0  0  0  0  0  0  0
    8.9253   44.1855  130.3331 C   0  0  0  0  0  0  0  0  0  0  0  0
    7.8219   46.1017  129.9026 C   0  0  0  0  0  0  0  0  0  0  0  0
   10.5947   44.8661  131.9380 C   0  0  0  0  0  0  0  0  0  0  0  0
    9.3730   42.8613  130.3652 C   0  0  0  0  0  0  0  0  0  0  0  0
   11.0557   43.5472  131.9975 C   0  0  0  0  0  0  0  0  0  0  0  0
   10.4463   42.5650  131.2163 C   0  0  0  0  0  0  0  0  0  0  0  0
    7.3348   44.2912  128.9662 H   0  0  0  0  0  0  0  0  0  0  0  0
   12.0890   43.1047  132.7803 O   0  0  0  0  0  0  0  0  0  0  0  0
   12.4299   43.9121  133.9019 C   0  0  0  0  0  0  0  0  0  0  0  0
    9.0714   47.7469  131.4493 C   0  0  0  0  0  0  0  0  0  0  0  0
    9.4734   48.8108  130.4216 C   0  0  0  0  0  0  0  0  0  0  0  0
    7.4066   49.0739  128.4886 O   0  0  0  0  0  0  0  0  0  0  0  0
    8.5266   49.9088  130.3120 N   0  0  0  0  0  0  0  0  0  0  0  0
    7.5773   49.9597  129.3177 C   0  0  0  0  0  0  0  0  0  0  0  0
    6.7334   51.2049  129.3578 C   0  0  0  0  0  0  0  0  0  0  0  0
    8.5662   50.6395  130.9706 H   0  0  0  0  0  0  0  0  0  0  0  0
 11  8  1  0
 11 12  1  0
 15 17  2  0
  1  4  1  0
  1  5  1  0
  1 10  1  0
 16 14  1  0
 16 17  1  0
 16 19  1  0
  2  3  1  0
  2 13  1  0
  2  5  2  0
  3  4  2  0
  3  6  1  0
 13 14  1  0
  4  7  1  0
  6  8  2  0
  7  9  2  0
  8  9  1  0
 17 18  1  0
M  END
> <PUBCHEM_COMPOUND_CID>
896

> <PUBCHEM_CONFORMER_RMSD>
0.6

> <PUBCHEM_CONFORMER_DIVERSEORDER>
1
13
50
55
28
16
42
48
27
15
62
60
65
61
36
4
20
58
41
17
59
21
2
63
47
57
40
56
22
64
54
37
51
7
31
53
26
8
49
39
32
11
5
33
38
52
23
45
43
12
14
9
34
44
35
10
25
29
46
6
30
24
3
19
18

> <PUBCHEM_MMFF94_PARTIAL_CHARGES>
22
1 -0.36
10 0.3
11 -0.15
12 -0.15
13 0.08
14 -0.15
15 0.57
16 0.06
17 0.28
2 -0.57
20 0.15
23 0.27
24 0.15
25 0.15
26 0.15
27 0.37
3 0.03
4 -0.73
5 -0.18
7 0.18
8 -0.15
9 -0.3

> <PUBCHEM_EFFECTIVE_ROTOR_COUNT>
5

> <PUBCHEM_PHARMACOPHORE_FEATURES>
7
1 1 acceptor
1 2 acceptor
1 3 cation
1 3 donor
1 4 donor
5 3 5 6 8 9 rings
6 6 8 11 12 13 14 rings

> <PUBCHEM_HEAVY_ATOM_COUNT>
17

> <PUBCHEM_ATOM_DEF_STEREO_COUNT>
0

> <PUBCHEM_ATOM_UDEF_STEREO_COUNT>
0

> <PUBCHEM_BOND_DEF_STEREO_COUNT>
0

> <PUBCHEM_BOND_UDEF_STEREO_COUNT>
0

> <PUBCHEM_ISOTOPIC_ATOM_COUNT>
0

> <PUBCHEM_COMPONENT_COUNT>
1

> <PUBCHEM_CACTVS_TAUTO_COUNT>
2

> <PUBCHEM_CONFORMER_ID>
0000038000000001

> <PUBCHEM_MMFF94_ENERGY>
32.7119

> <PUBCHEM_FEATURE_SELFOVERLAP>
35.612

> <PUBCHEM_SHAPE_FINGERPRINT>
10967382 1 18410853274190255273
11640471 11 17676780867509025316
13027679 85 18194690495324420133
13140716 1 17978229692519098697
13965767 371 16608554374032828400
1420 336 18266184924512803916
14787075 74 17896612875907719035
14790565 3 18341057316043312793
15006816 218 16754940689043299904
16945 1 18195239147136872059
19591789 44 18120376712306458779
19765921 60 17749382706469569763
20510252 161 18342458093286620745
21141583 151 18124894583888822372
21524375 3 17972887951224859043
2334 1 18410572855759727185
23419403 2 17326855944455494142
23557571 272 18201719608641642450
23559900 14 18342173410755765088
2748010 2 18337115553281152647
353137 74 18409164389875307419
44154327 71 18267028250037128041
526903 126 18410576235872810256
537710 114 18408601466050490037
7832392 63 17187566044572678455
9981440 41 18116712022929254594

> <PUBCHEM_SHAPE_MULTIPOLES>
328.15
4.94
3.77
0.97
2.92
1.2
-0.06
0.99
-1.27
-0.81
0.74
0.39
0.23
-0.66

> <PUBCHEM_SHAPE_SELFOVERLAP>
695.133

> <PUBCHEM_SHAPE_VOLUME>
185.3

> <PUBCHEM_COORDINATE_TYPE>
2
5
10

> <Energy>
0.232708

> <minimizedAffinity>
-6.43215

> <CNNscore>
0.5166960359

> <CNNaffinity>
6.5992412567

> <CNN_VS>
3.4098017216

> <CNNaffinity_variance>
0.7155053616

$$$$
896


 19 20  0  0  0  0  0  0  0  0999 V2000
    8.8420   44.1417  128.9377 N   0  0  0  0  0  0  0  0  0  0  0  0
   10.8204   44.6825  129.8160 C   0  0  0  0  0  0  0  0  0  0  0  0
    9.8704   45.7016  130.1473 C   0  0  0  0  0  0  0  0  0  0  0  0
    8.6513   45.3448  129.5762 C   0  0  0  0  0  0  0  0  0  0  0  0
   10.1447   43.7359  129.0705 C   0  0  0  0  0  0  0  0  0  0  0  0
    9.9504   46.9033  130.8837 C   0  0  0  0  0  0  0  0  0  0  0  0
    7.5035   46.1339  129.6978 C   0  0  0  0  0  0  0  0  0  0  0  0
    8.8203   47.7169  131.0119 C   0  0  0  0  0  0  0  0  0  0  0  0
    7.6167   47.3276  130.4235 C   0  0  0  0  0  0  0  0  0  0  0  0
    8.1435   43.6437  128.4548 H   0  0  0  0  0  0  0  0  0  0  0  0
    8.7758   48.9089  131.6852 O   0  0  0  0  0  0  0  0  0  0  0  0
    9.9091   49.2328  132.4832 C   0  0  0  0  0  0  0  0  0  0  0  0
   12.2679   44.6596  130.2100 C   0  0  0  0  0  0  0  0  0  0  0  0
   12.4834   44.3052  131.6856 C   0  0  0  0  0  0  0  0  0  0  0  0
   11.2714   41.7671  132.0939 O   0  0  0  0  0  0  0  0  0  0  0  0
   11.2520   44.0419  132.4124 N   0  0  0  0  0  0  0  0  0  0  0  0
   10.7281   42.7753  132.5293 C   0  0  0  0  0  0  0  0  0  0  0  0
    9.4234   42.7330  133.2780 C   0  0  0  0  0  0  0  0  0  0  0  0
   10.7777   44.7944  132.8343 H   0  0  0  0  0  0  0  0  0  0  0  0
 11  8  1  0
 11 12  1  0
 15 17  2  0
  1  4  1  0
  1  5  1  0
  1 10  1  0
 16 14  1  0
 16 17  1  0
 16 19  1  0
  2  3  1  0
  2 13  1  0
  2  5  2  0
  3  4  2  0
  3  6  1  0
 13 14  1  0
  4  7  1  0
  6  8  2  0
  7  9  2  0
  8  9  1  0
 17 18  1  0
M  END
> <PUBCHEM_COMPOUND_CID>
896

> <PUBCHEM_CONFORMER_RMSD>
0.6

> <PUBCHEM_CONFORMER_DIVERSEORDER>
1
13
50
55
28
16
42
48
27
15
62
60
65
61
36
4
20
58
41
17
59
21
2
63
47
57
40
56
22
64
54
37
51
7
31
53
26
8
49
39
32
11
5
33
38
52
23
45
43
12
14
9
34
44
35
10
25
29
46
6
30
24
3
19
18

> <PUBCHEM_MMFF94_PARTIAL_CHARGES>
22
1 -0.36
10 0.3
11 -0.15
12 -0.15
13 0.08
14 -0.15
15 0.57
16 0.06
17 0.28
2 -0.57
20 0.15
23 0.27
24 0.15
25 0.15
26 0.15
27 0.37
3 0.03
4 -0.73
5 -0.18
7 0.18
8 -0.15
9 -0.3

> <PUBCHEM_EFFECTIVE_ROTOR_COUNT>
5

> <PUBCHEM_PHARMACOPHORE_FEATURES>
7
1 1 acceptor
1 2 acceptor
1 3 cation
1 3 donor
1 4 donor
5 3 5 6 8 9 rings
6 6 8 11 12 13 14 rings

> <PUBCHEM_HEAVY_ATOM_COUNT>
17

> <PUBCHEM_ATOM_DEF_STEREO_COUNT>
0

> <PUBCHEM_ATOM_UDEF_STEREO_COUNT>
0

> <PUBCHEM_BOND_DEF_STEREO_COUNT>
0

> <PUBCHEM_BOND_UDEF_STEREO_COUNT>
0

> <PUBCHEM_ISOTOPIC_ATOM_COUNT>
0

> <PUBCHEM_COMPONENT_COUNT>
1

> <PUBCHEM_CACTVS_TAUTO_COUNT>
2

> <PUBCHEM_CONFORMER_ID>
0000038000000001

> <PUBCHEM_MMFF94_ENERGY>
32.7119

> <PUBCHEM_FEATURE_SELFOVERLAP>
35.612

> <PUBCHEM_SHAPE_FINGERPRINT>
10967382 1 18410853274190255273
11640471 11 17676780867509025316
13027679 85 18194690495324420133
13140716 1 17978229692519098697
13965767 371 16608554374032828400
1420 336 18266184924512803916
14787075 74 17896612875907719035
14790565 3 18341057316043312793
15006816 218 16754940689043299904
16945 1 18195239147136872059
19591789 44 18120376712306458779
19765921 60 17749382706469569763
20510252 161 18342458093286620745
21141583 151 18124894583888822372
21524375 3 17972887951224859043
2334 1 18410572855759727185
23419403 2 17326855944455494142
23557571 272 18201719608641642450
23559900 14 18342173410755765088
2748010 2 18337115553281152647
353137 74 18409164389875307419
44154327 71 18267028250037128041
526903 126 18410576235872810256
537710 114 18408601466050490037
7832392 63 17187566044572678455
9981440 41 18116712022929254594

> <PUBCHEM_SHAPE_MULTIPOLES>
328.15
4.94
3.77
0.97
2.92
1.2
-0.06
0.99
-1.27
-0.81
0.74
0.39
0.23
-0.66

> <PUBCHEM_SHAPE_SELFOVERLAP>
695.133

> <PUBCHEM_SHAPE_VOLUME>
185.3

> <PUBCHEM_COORDINATE_TYPE>
2
5
10

> <Energy>
0.232708

> <minimizedAffinity>
-6.57112

> <CNNscore>
0.4495743811

> <CNNaffinity>
5.9120841026

> <CNN_VS>
2.6579215527

> <CNNaffinity_variance>
0.7055163383

$$$$
896


 19 20  0  0  0  0  0  0  0  0999 V2000
    9.9539   47.2066  133.8079 N   0  0  0  0  0  0  0  0  0  0  0  0
    9.9518   48.2172  131.8188 C   0  0  0  0  0  0  0  0  0  0  0  0
   10.1941   46.8185  131.6294 C   0  0  0  0  0  0  0  0  0  0  0  0
   10.2030   46.2173  132.8857 C   0  0  0  0  0  0  0  0  0  0  0  0
    9.8064   48.4154  133.1782 C   0  0  0  0  0  0  0  0  0  0  0  0
   10.4121   46.0149  130.4896 C   0  0  0  0  0  0  0  0  0  0  0  0
   10.4261   44.8484  133.0635 C   0  0  0  0  0  0  0  0  0  0  0  0
   10.6485   44.6448  130.6395 C   0  0  0  0  0  0  0  0  0  0  0  0
   10.6524   44.0785  131.9146 C   0  0  0  0  0  0  0  0  0  0  0  0
    9.8905   47.0670  134.7803 H   0  0  0  0  0  0  0  0  0  0  0  0
   10.8879   43.7664  129.6161 O   0  0  0  0  0  0  0  0  0  0  0  0
   10.5245   44.1968  128.3088 C   0  0  0  0  0  0  0  0  0  0  0  0
    9.8730   49.2561  130.7392 C   0  0  0  0  0  0  0  0  0  0  0  0
    8.4362   49.6863  130.4230 C   0  0  0  0  0  0  0  0  0  0  0  0
    5.8234   49.9618  129.3389 O   0  0  0  0  0  0  0  0  0  0  0  0
    7.6132   48.6232  129.8694 N   0  0  0  0  0  0  0  0  0  0  0  0
    6.3429   48.8535  129.3943 C   0  0  0  0  0  0  0  0  0  0  0  0
    5.6482   47.6086  128.9126 C   0  0  0  0  0  0  0  0  0  0  0  0
    7.9768   47.7090  129.8334 H   0  0  0  0  0  0  0  0  0  0  0  0
 11  8  1  0
 11 12  1  0
 15 17  2  0
  1  4  1  0
  1  5  1  0
  1 10  1  0
 16 14  1  0
 16 17  1  0
 16 19  1  0
  2  3  1  0
  2 13  1  0
  2  5  2  0
  3  4  2  0
  3  6  1  0
 13 14  1  0
  4  7  1  0
  6  8  2  0
  7  9  2  0
  8  9  1  0
 17 18  1  0
M  END
> <PUBCHEM_COMPOUND_CID>
896

> <PUBCHEM_CONFORMER_RMSD>
0.6

> <PUBCHEM_CONFORMER_DIVERSEORDER>
1
13
50
55
28
16
42
48
27
15
62
60
65
61
36
4
20
58
41
17
59
21
2
63
47
57
40
56
22
64
54
37
51
7
31
53
26
8
49
39
32
11
5
33
38
52
23
45
43
12
14
9
34
44
35
10
25
29
46
6
30
24
3
19
18

> <PUBCHEM_MMFF94_PARTIAL_CHARGES>
22
1 -0.36
10 0.3
11 -0.15
12 -0.15
13 0.08
14 -0.15
15 0.57
16 0.06
17 0.28
2 -0.57
20 0.15
23 0.27
24 0.15
25 0.15
26 0.15
27 0.37
3 0.03
4 -0.73
5 -0.18
7 0.18
8 -0.15
9 -0.3

> <PUBCHEM_EFFECTIVE_ROTOR_COUNT>
5

> <PUBCHEM_PHARMACOPHORE_FEATURES>
7
1 1 acceptor
1 2 acceptor
1 3 cation
1 3 donor
1 4 donor
5 3 5 6 8 9 rings
6 6 8 11 12 13 14 rings

> <PUBCHEM_HEAVY_ATOM_COUNT>
17

> <PUBCHEM_ATOM_DEF_STEREO_COUNT>
0

> <PUBCHEM_ATOM_UDEF_STEREO_COUNT>
0

> <PUBCHEM_BOND_DEF_STEREO_COUNT>
0

> <PUBCHEM_BOND_UDEF_STEREO_COUNT>
0

> <PUBCHEM_ISOTOPIC_ATOM_COUNT>
0

> <PUBCHEM_COMPONENT_COUNT>
1

> <PUBCHEM_CACTVS_TAUTO_COUNT>
2

> <PUBCHEM_CONFORMER_ID>
0000038000000001

> <PUBCHEM_MMFF94_ENERGY>
32.7119

> <PUBCHEM_FEATURE_SELFOVERLAP>
35.612

> <PUBCHEM_SHAPE_FINGERPRINT>
10967382 1 18410853274190255273
11640471 11 17676780867509025316
13027679 85 18194690495324420133
13140716 1 17978229692519098697
13965767 371 16608554374032828400
1420 336 18266184924512803916
14787075 74 17896612875907719035
14790565 3 18341057316043312793
15006816 218 16754940689043299904
16945 1 18195239147136872059
19591789 44 18120376712306458779
19765921 60 17749382706469569763
20510252 161 18342458093286620745
21141583 151 18124894583888822372
21524375 3 17972887951224859043
2334 1 18410572855759727185
23419403 2 17326855944455494142
23557571 272 18201719608641642450
23559900 14 18342173410755765088
2748010 2 18337115553281152647
353137 74 18409164389875307419
44154327 71 18267028250037128041
526903 126 18410576235872810256
537710 114 18408601466050490037
7832392 63 17187566044572678455
9981440 41 18116712022929254594

> <PUBCHEM_SHAPE_MULTIPOLES>
328.15
4.94
3.77
0.97
2.92
1.2
-0.06
0.99
-1.27
-0.81
0.74
0.39
0.23
-0.66

> <PUBCHEM_SHAPE_SELFOVERLAP>
695.133

> <PUBCHEM_SHAPE_VOLUME>
185.3

> <PUBCHEM_COORDINATE_TYPE>
2
5
10

> <Energy>
0.232708

> <minimizedAffinity>
-6.62151

> <CNNscore>
0.4191291630

> <CNNaffinity>
6.5283527374

> <CNN_VS>
2.7362229824

> <CNNaffinity_variance>
0.4190827310

$$$$
896


 19 20  0  0  0  0  0  0  0  0999 V2000
    9.5550   42.6421  129.8496 N   0  0  0  0  0  0  0  0  0  0  0  0
    8.6785   44.6920  129.9376 C   0  0  0  0  0  0  0  0  0  0  0  0
    9.3209   44.4071  131.1854 C   0  0  0  0  0  0  0  0  0  0  0  0
    9.8459   43.1196  131.1061 C   0  0  0  0  0  0  0  0  0  0  0  0
    8.8480   43.5774  129.1392 C   0  0  0  0  0  0  0  0  0  0  0  0
    9.4941   45.1397  132.3795 C   0  0  0  0  0  0  0  0  0  0  0  0
   10.5330   42.5203  132.1663 C   0  0  0  0  0  0  0  0  0  0  0  0
   10.1678   44.5602  133.4593 C   0  0  0  0  0  0  0  0  0  0  0  0
   10.6778   43.2668  133.3435 C   0  0  0  0  0  0  0  0  0  0  0  0
    9.8168   41.7563  129.5093 H   0  0  0  0  0  0  0  0  0  0  0  0
   10.3852   45.1612  134.6709 O   0  0  0  0  0  0  0  0  0  0  0  0
    9.5272   46.2460  135.0072 C   0  0  0  0  0  0  0  0  0  0  0  0
    7.9632   45.9613  129.5796 C   0  0  0  0  0  0  0  0  0  0  0  0
    8.9019   47.1673  129.4614 C   0  0  0  0  0  0  0  0  0  0  0  0
    7.1187   48.8973  128.0813 O   0  0  0  0  0  0  0  0  0  0  0  0
    8.3334   48.4059  129.9679 N   0  0  0  0  0  0  0  0  0  0  0  0
    7.4994   49.1926  129.2078 C   0  0  0  0  0  0  0  0  0  0  0  0
    7.0645   50.4534  129.9048 C   0  0  0  0  0  0  0  0  0  0  0  0
    8.5524   48.6908  130.8845 H   0  0  0  0  0  0  0  0  0  0  0  0
 11  8  1  0
 11 12  1  0
 15 17  2  0
  1  4  1  0
  1  5  1  0
  1 10  1  0
 16 14  1  0
 16 17  1  0
 16 19  1  0
  2  3  1  0
  2 13  1  0
  2  5  2  0
  3  4  2  0
  3  6  1  0
 13 14  1  0
  4  7  1  0
  6  8  2  0
  7  9  2  0
  8  9  1  0
 17 18  1  0
M  END
> <PUBCHEM_COMPOUND_CID>
896

> <PUBCHEM_CONFORMER_RMSD>
0.6

> <PUBCHEM_CONFORMER_DIVERSEORDER>
1
13
50
55
28
16
42
48
27
15
62
60
65
61
36
4
20
58
41
17
59
21
2
63
47
57
40
56
22
64
54
37
51
7
31
53
26
8
49
39
32
11
5
33
38
52
23
45
43
12
14
9
34
44
35
10
25
29
46
6
30
24
3
19
18

> <PUBCHEM_MMFF94_PARTIAL_CHARGES>
22
1 -0.36
10 0.3
11 -0.15
12 -0.15
13 0.08
14 -0.15
15 0.57
16 0.06
17 0.28
2 -0.57
20 0.15
23 0.27
24 0.15
25 0.15
26 0.15
27 0.37
3 0.03
4 -0.73
5 -0.18
7 0.18
8 -0.15
9 -0.3

> <PUBCHEM_EFFECTIVE_ROTOR_COUNT>
5

> <PUBCHEM_PHARMACOPHORE_FEATURES>
7
1 1 acceptor
1 2 acceptor
1 3 cation
1 3 donor
1 4 donor
5 3 5 6 8 9 rings
6 6 8 11 12 13 14 rings

> <PUBCHEM_HEAVY_ATOM_COUNT>
17

> <PUBCHEM_ATOM_DEF_STEREO_COUNT>
0

> <PUBCHEM_ATOM_UDEF_STEREO_COUNT>
0

> <PUBCHEM_BOND_DEF_STEREO_COUNT>
0

> <PUBCHEM_BOND_UDEF_STEREO_COUNT>
0

> <PUBCHEM_ISOTOPIC_ATOM_COUNT>
0

> <PUBCHEM_COMPONENT_COUNT>
1

> <PUBCHEM_CACTVS_TAUTO_COUNT>
2

> <PUBCHEM_CONFORMER_ID>
0000038000000001

> <PUBCHEM_MMFF94_ENERGY>
32.7119

> <PUBCHEM_FEATURE_SELFOVERLAP>
35.612

> <PUBCHEM_SHAPE_FINGERPRINT>
10967382 1 18410853274190255273
11640471 11 17676780867509025316
13027679 85 18194690495324420133
13140716 1 17978229692519098697
13965767 371 16608554374032828400
1420 336 18266184924512803916
14787075 74 17896612875907719035
14790565 3 18341057316043312793
15006816 218 16754940689043299904
16945 1 18195239147136872059
19591789 44 18120376712306458779
19765921 60 17749382706469569763
20510252 161 18342458093286620745
21141583 151 18124894583888822372
21524375 3 17972887951224859043
2334 1 18410572855759727185
23419403 2 17326855944455494142
23557571 272 18201719608641642450
23559900 14 18342173410755765088
2748010 2 18337115553281152647
353137 74 18409164389875307419
44154327 71 18267028250037128041
526903 126 18410576235872810256
537710 114 18408601466050490037
7832392 63 17187566044572678455
9981440 41 18116712022929254594

> <PUBCHEM_SHAPE_MULTIPOLES>
328.15
4.94
3.77
0.97
2.92
1.2
-0.06
0.99
-1.27
-0.81
0.74
0.39
0.23
-0.66

> <PUBCHEM_SHAPE_SELFOVERLAP>
695.133

> <PUBCHEM_SHAPE_VOLUME>
185.3

> <PUBCHEM_COORDINATE_TYPE>
2
5
10

> <Energy>
0.232708

> <minimizedAffinity>
-6.71839

> <CNNscore>
0.3987428546

> <CNNaffinity>
6.6829171181

> <CNN_VS>
2.6647653580

> <CNNaffinity_variance>
0.7470502257

$$$$
896


 19 20  0  0  0  0  0  0  0  0999 V2000
   11.9130   44.7280  129.1394 N   0  0  0  0  0  0  0  0  0  0  0  0
    9.8535   45.5341  129.4335 C   0  0  0  0  0  0  0  0  0  0  0  0
   10.4562   45.3198  130.7148 C   0  0  0  0  0  0  0  0  0  0  0  0
   11.7327   44.8054  130.5006 C   0  0  0  0  0  0  0  0  0  0  0  0
   10.7869   45.1586  128.4868 C   0  0  0  0  0  0  0  0  0  0  0  0
   10.0167   45.5174  132.0416 C   0  0  0  0  0  0  0  0  0  0  0  0
   12.5948   44.4702  131.5492 C   0  0  0  0  0  0  0  0  0  0  0  0
   10.8545   45.1804  133.1092 C   0  0  0  0  0  0  0  0  0  0  0  0
   12.1259   44.6650  132.8555 C   0  0  0  0  0  0  0  0  0  0  0  0
   12.7327   44.4092  128.6973 H   0  0  0  0  0  0  0  0  0  0  0  0
   10.5375   45.3105  134.4354 O   0  0  0  0  0  0  0  0  0  0  0  0
    9.4344   46.1543  134.7472 C   0  0  0  0  0  0  0  0  0  0  0  0
    8.4730   46.0653  129.1823 C   0  0  0  0  0  0  0  0  0  0  0  0
    7.8802   46.7946  130.3932 C   0  0  0  0  0  0  0  0  0  0  0  0
    5.9367   48.3856  129.0633 O   0  0  0  0  0  0  0  0  0  0  0  0
    7.8874   48.2430  130.2678 N   0  0  0  0  0  0  0  0  0  0  0  0
    6.9122   48.9222  129.5748 C   0  0  0  0  0  0  0  0  0  0  0  0
    7.1368   50.4093  129.5260 C   0  0  0  0  0  0  0  0  0  0  0  0
    8.6136   48.7544  130.6926 H   0  0  0  0  0  0  0  0  0  0  0  0
 11  8  1  0
 11 12  1  0
 15 17  2  0
  1  4  1  0
  1  5  1  0
  1 10  1  0
 16 14  1  0
 16 17  1  0
 16 19  1  0
  2  3  1  0
  2 13  1  0
  2  5  2  0
  3  4  2  0
  3  6  1  0
 13 14  1  0
  4  7  1  0
  6  8  2  0
  7  9  2  0
  8  9  1  0
 17 18  1  0
M  END
> <PUBCHEM_COMPOUND_CID>
896

> <PUBCHEM_CONFORMER_RMSD>
0.6

> <PUBCHEM_CONFORMER_DIVERSEORDER>
1
13
50
55
28
16
42
48
27
15
62
60
65
61
36
4
20
58
41
17
59
21
2
63
47
57
40
56
22
64
54
37
51
7
31
53
26
8
49
39
32
11
5
33
38
52
23
45
43
12
14
9
34
44
35
10
25
29
46
6
30
24
3
19
18

> <PUBCHEM_MMFF94_PARTIAL_CHARGES>
22
1 -0.36
10 0.3
11 -0.15
12 -0.15
13 0.08
14 -0.15
15 0.57
16 0.06
17 0.28
2 -0.57
20 0.15
23 0.27
24 0.15
25 0.15
26 0.15
27 0.37
3 0.03
4 -0.73
5 -0.18
7 0.18
8 -0.15
9 -0.3

> <PUBCHEM_EFFECTIVE_ROTOR_COUNT>
5

> <PUBCHEM_PHARMACOPHORE_FEATURES>
7
1 1 acceptor
1 2 acceptor
1 3 cation
1 3 donor
1 4 donor
5 3 5 6 8 9 rings
6 6 8 11 12 13 14 rings

> <PUBCHEM_HEAVY_ATOM_COUNT>
17

> <PUBCHEM_ATOM_DEF_STEREO_COUNT>
0

> <PUBCHEM_ATOM_UDEF_STEREO_COUNT>
0

> <PUBCHEM_BOND_DEF_STEREO_COUNT>
0

> <PUBCHEM_BOND_UDEF_STEREO_COUNT>
0

> <PUBCHEM_ISOTOPIC_ATOM_COUNT>
0

> <PUBCHEM_COMPONENT_COUNT>
1

> <PUBCHEM_CACTVS_TAUTO_COUNT>
2

> <PUBCHEM_CONFORMER_ID>
0000038000000001

> <PUBCHEM_MMFF94_ENERGY>
32.7119

> <PUBCHEM_FEATURE_SELFOVERLAP>
35.612

> <PUBCHEM_SHAPE_FINGERPRINT>
10967382 1 18410853274190255273
11640471 11 17676780867509025316
13027679 85 18194690495324420133
13140716 1 17978229692519098697
13965767 371 16608554374032828400
1420 336 18266184924512803916
14787075 74 17896612875907719035
14790565 3 18341057316043312793
15006816 218 16754940689043299904
16945 1 18195239147136872059
19591789 44 18120376712306458779
19765921 60 17749382706469569763
20510252 161 18342458093286620745
21141583 151 18124894583888822372
21524375 3 17972887951224859043
2334 1 18410572855759727185
23419403 2 17326855944455494142
23557571 272 18201719608641642450
23559900 14 18342173410755765088
2748010 2 18337115553281152647
353137 74 18409164389875307419
44154327 71 18267028250037128041
526903 126 18410576235872810256
537710 114 18408601466050490037
7832392 63 17187566044572678455
9981440 41 18116712022929254594

> <PUBCHEM_SHAPE_MULTIPOLES>
328.15
4.94
3.77
0.97
2.92
1.2
-0.06
0.99
-1.27
-0.81
0.74
0.39
0.23
-0.66

> <PUBCHEM_SHAPE_SELFOVERLAP>
695.133

> <PUBCHEM_SHAPE_VOLUME>
185.3

> <PUBCHEM_COORDINATE_TYPE>
2
5
10

> <Energy>
0.232708

> <minimizedAffinity>
-6.48887

> <CNNscore>
0.3667849600

> <CNNaffinity>
6.3352799416

> <CNN_VS>
2.3236854076

> <CNNaffinity_variance>
0.3559702635

$$$$
896


 19 20  0  0  0  0  0  0  0  0999 V2000
   10.7318   47.1335  132.3932 N   0  0  0  0  0  0  0  0  0  0  0  0
   10.8850   45.7754  130.6297 C   0  0  0  0  0  0  0  0  0  0  0  0
    9.8301   46.7166  130.4013 C   0  0  0  0  0  0  0  0  0  0  0  0
    9.7493   47.5406  131.5212 C   0  0  0  0  0  0  0  0  0  0  0  0
   11.4182   46.0684  131.8699 C   0  0  0  0  0  0  0  0  0  0  0  0
    8.9327   46.9313  129.3331 C   0  0  0  0  0  0  0  0  0  0  0  0
    8.8088   48.5694  131.6324 C   0  0  0  0  0  0  0  0  0  0  0  0
    7.9749   47.9462  129.4227 C   0  0  0  0  0  0  0  0  0  0  0  0
    7.9227   48.7501  130.5618 C   0  0  0  0  0  0  0  0  0  0  0  0
   10.9157   47.5473  133.2673 H   0  0  0  0  0  0  0  0  0  0  0  0
    7.0429   48.2416  128.4634 O   0  0  0  0  0  0  0  0  0  0  0  0
    5.7147   47.7902  128.7049 C   0  0  0  0  0  0  0  0  0  0  0  0
   11.3176   44.6861  129.6930 C   0  0  0  0  0  0  0  0  0  0  0  0
   10.4798   43.4096  129.8280 C   0  0  0  0  0  0  0  0  0  0  0  0
   11.2107   42.1016  132.2430 O   0  0  0  0  0  0  0  0  0  0  0  0
    9.6948   43.3489  131.0503 N   0  0  0  0  0  0  0  0  0  0  0  0
   10.1240   42.6616  132.1620 C   0  0  0  0  0  0  0  0  0  0  0  0
    9.1382   42.6848  133.2987 C   0  0  0  0  0  0  0  0  0  0  0  0
    8.8281   43.8146  131.0834 H   0  0  0  0  0  0  0  0  0  0  0  0
 11  8  1  0
 11 12  1  0
 15 17  2  0
  1  4  1  0
  1  5  1  0
  1 10  1  0
 16 14  1  0
 16 17  1  0
 16 19  1  0
  2  3  1  0
  2 13  1  0
  2  5  2  0
  3  4  2  0
  3  6  1  0
 13 14  1  0
  4  7  1  0
  6  8  2  0
  7  9  2  0
  8  9  1  0
 17 18  1  0
M  END
> <PUBCHEM_COMPOUND_CID>
896

> <PUBCHEM_CONFORMER_RMSD>
0.6

> <PUBCHEM_CONFORMER_DIVERSEORDER>
1
13
50
55
28
16
42
48
27
15
62
60
65
61
36
4
20
58
41
17
59
21
2
63
47
57
40
56
22
64
54
37
51
7
31
53
26
8
49
39
32
11
5
33
38
52
23
45
43
12
14
9
34
44
35
10
25
29
46
6
30
24
3
19
18

> <PUBCHEM_MMFF94_PARTIAL_CHARGES>
22
1 -0.36
10 0.3
11 -0.15
12 -0.15
13 0.08
14 -0.15
15 0.57
16 0.06
17 0.28
2 -0.57
20 0.15
23 0.27
24 0.15
25 0.15
26 0.15
27 0.37
3 0.03
4 -0.73
5 -0.18
7 0.18
8 -0.15
9 -0.3

> <PUBCHEM_EFFECTIVE_ROTOR_COUNT>
5

> <PUBCHEM_PHARMACOPHORE_FEATURES>
7
1 1 acceptor
1 2 acceptor
1 3 cation
1 3 donor
1 4 donor
5 3 5 6 8 9 rings
6 6 8 11 12 13 14 rings

> <PUBCHEM_HEAVY_ATOM_COUNT>
17

> <PUBCHEM_ATOM_DEF_STEREO_COUNT>
0

> <PUBCHEM_ATOM_UDEF_STEREO_COUNT>
0

> <PUBCHEM_BOND_DEF_STEREO_COUNT>
0

> <PUBCHEM_BOND_UDEF_STEREO_COUNT>
0

> <PUBCHEM_ISOTOPIC_ATOM_COUNT>
0

> <PUBCHEM_COMPONENT_COUNT>
1

> <PUBCHEM_CACTVS_TAUTO_COUNT>
2

> <PUBCHEM_CONFORMER_ID>
0000038000000001

> <PUBCHEM_MMFF94_ENERGY>
32.7119

> <PUBCHEM_FEATURE_SELFOVERLAP>
35.612

> <PUBCHEM_SHAPE_FINGERPRINT>
10967382 1 18410853274190255273
11640471 11 17676780867509025316
13027679 85 18194690495324420133
13140716 1 17978229692519098697
13965767 371 16608554374032828400
1420 336 18266184924512803916
14787075 74 17896612875907719035
14790565 3 18341057316043312793
15006816 218 16754940689043299904
16945 1 18195239147136872059
19591789 44 18120376712306458779
19765921 60 17749382706469569763
20510252 161 18342458093286620745
21141583 151 18124894583888822372
21524375 3 17972887951224859043
2334 1 18410572855759727185
23419403 2 17326855944455494142
23557571 272 18201719608641642450
23559900 14 18342173410755765088
2748010 2 18337115553281152647
353137 74 18409164389875307419
44154327 71 18267028250037128041
526903 126 18410576235872810256
537710 114 18408601466050490037
7832392 63 17187566044572678455
9981440 41 18116712022929254594

> <PUBCHEM_SHAPE_MULTIPOLES>
328.15
4.94
3.77
0.97
2.92
1.2
-0.06
0.99
-1.27
-0.81
0.74
0.39
0.23
-0.66

> <PUBCHEM_SHAPE_SELFOVERLAP>
695.133

> <PUBCHEM_SHAPE_VOLUME>
185.3

> <PUBCHEM_COORDINATE_TYPE>
2
5
10

> <Energy>
0.232708

> <minimizedAffinity>
-6.57259

> <CNNscore>
0.3632316291

> <CNNaffinity>
6.2419624329

> <CNN_VS>
2.2672781944

> <CNNaffinity_variance>
0.1694096923

$$$$
896


 19 20  0  0  0  0  0  0  0  0999 V2000
    9.9456   47.6581  133.3885 N   0  0  0  0  0  0  0  0  0  0  0  0
    8.6543   46.4735  132.0075 C   0  0  0  0  0  0  0  0  0  0  0  0
    9.7690   45.6682  132.4073 C   0  0  0  0  0  0  0  0  0  0  0  0
   10.5624   46.4361  133.2561 C   0  0  0  0  0  0  0  0  0  0  0  0
    8.7993   47.6944  132.6375 C   0  0  0  0  0  0  0  0  0  0  0  0
   10.1705   44.3477  132.1111 C   0  0  0  0  0  0  0  0  0  0  0  0
   11.7460   45.9526  133.8221 C   0  0  0  0  0  0  0  0  0  0  0  0
   11.3556   43.8426  132.6551 C   0  0  0  0  0  0  0  0  0  0  0  0
   12.1258   44.6427  133.4995 C   0  0  0  0  0  0  0  0  0  0  0  0
   10.2792   48.4001  133.9429 H   0  0  0  0  0  0  0  0  0  0  0  0
   11.8573   42.5879  132.4312 O   0  0  0  0  0  0  0  0  0  0  0  0
   10.9594   41.6318  131.8782 C   0  0  0  0  0  0  0  0  0  0  0  0
    7.5487   46.0582  131.0824 C   0  0  0  0  0  0  0  0  0  0  0  0
    7.7358   46.5759  129.6518 C   0  0  0  0  0  0  0  0  0  0  0  0
    5.7238   48.4946  129.0620 O   0  0  0  0  0  0  0  0  0  0  0  0
    7.9130   48.0165  129.5670 N   0  0  0  0  0  0  0  0  0  0  0  0
    6.8780   48.8631  129.2439 C   0  0  0  0  0  0  0  0  0  0  0  0
    7.2890   50.3084  129.1622 C   0  0  0  0  0  0  0  0  0  0  0  0
    8.8025   48.3985  129.7467 H   0  0  0  0  0  0  0  0  0  0  0  0
 11  8  1  0
 11 12  1  0
 15 17  2  0
  1  4  1  0
  1  5  1  0
  1 10  1  0
 16 14  1  0
 16 17  1  0
 16 19  1  0
  2  3  1  0
  2 13  1  0
  2  5  2  0
  3  4  2  0
  3  6  1  0
 13 14  1  0
  4  7  1  0
  6  8  2  0
  7  9  2  0
  8  9  1  0
 17 18  1  0
M  END
> <PUBCHEM_COMPOUND_CID>
896

> <PUBCHEM_CONFORMER_RMSD>
0.6

> <PUBCHEM_CONFORMER_DIVERSEORDER>
1
13
50
55
28
16
42
48
27
15
62
60
65
61
36
4
20
58
41
17
59
21
2
63
47
57
40
56
22
64
54
37
51
7
31
53
26
8
49
39
32
11
5
33
38
52
23
45
43
12
14
9
34
44
35
10
25
29
46
6
30
24
3
19
18

> <PUBCHEM_MMFF94_PARTIAL_CHARGES>
22
1 -0.36
10 0.3
11 -0.15
12 -0.15
13 0.08
14 -0.15
15 0.57
16 0.06
17 0.28
2 -0.57
20 0.15
23 0.27
24 0.15
25 0.15
26 0.15
27 0.37
3 0.03
4 -0.73
5 -0.18
7 0.18
8 -0.15
9 -0.3

> <PUBCHEM_EFFECTIVE_ROTOR_COUNT>
5

> <PUBCHEM_PHARMACOPHORE_FEATURES>
7
1 1 acceptor
1 2 acceptor
1 3 cation
1 3 donor
1 4 donor
5 3 5 6 8 9 rings
6 6 8 11 12 13 14 rings

> <PUBCHEM_HEAVY_ATOM_COUNT>
17

> <PUBCHEM_ATOM_DEF_STEREO_COUNT>
0

> <PUBCHEM_ATOM_UDEF_STEREO_COUNT>
0

> <PUBCHEM_BOND_DEF_STEREO_COUNT>
0

> <PUBCHEM_BOND_UDEF_STEREO_COUNT>
0

> <PUBCHEM_ISOTOPIC_ATOM_COUNT>
0

> <PUBCHEM_COMPONENT_COUNT>
1

> <PUBCHEM_CACTVS_TAUTO_COUNT>
2

> <PUBCHEM_CONFORMER_ID>
0000038000000001

> <PUBCHEM_MMFF94_ENERGY>
32.7119

> <PUBCHEM_FEATURE_SELFOVERLAP>
35.612

> <PUBCHEM_SHAPE_FINGERPRINT>
10967382 1 18410853274190255273
11640471 11 17676780867509025316
13027679 85 18194690495324420133
13140716 1 17978229692519098697
13965767 371 16608554374032828400
1420 336 18266184924512803916
14787075 74 17896612875907719035
14790565 3 18341057316043312793
15006816 218 16754940689043299904
16945 1 18195239147136872059
19591789 44 18120376712306458779
19765921 60 17749382706469569763
20510252 161 18342458093286620745
21141583 151 18124894583888822372
21524375 3 17972887951224859043
2334 1 18410572855759727185
23419403 2 17326855944455494142
23557571 272 18201719608641642450
23559900 14 18342173410755765088
2748010 2 18337115553281152647
353137 74 18409164389875307419
44154327 71 18267028250037128041
526903 126 18410576235872810256
537710 114 18408601466050490037
7832392 63 17187566044572678455
9981440 41 18116712022929254594

> <PUBCHEM_SHAPE_MULTIPOLES>
328.15
4.94
3.77
0.97
2.92
1.2
-0.06
0.99
-1.27
-0.81
0.74
0.39
0.23
-0.66

> <PUBCHEM_SHAPE_SELFOVERLAP>
695.133

> <PUBCHEM_SHAPE_VOLUME>
185.3

> <PUBCHEM_COORDINATE_TYPE>
2
5
10

> <Energy>
0.232708

> <minimizedAffinity>
-6.01035

> <CNNscore>
0.3465739489

> <CNNaffinity>
6.4300704002

> <CNN_VS>
2.2284948826

> <CNNaffinity_variance>
0.6347382665

$$$$
896


 19 20  0  0  0  0  0  0  0  0999 V2000
    8.9543   45.7790  134.0022 N   0  0  0  0  0  0  0  0  0  0  0  0
    9.4885   47.0380  132.2394 C   0  0  0  0  0  0  0  0  0  0  0  0
    9.2552   45.6956  131.7984 C   0  0  0  0  0  0  0  0  0  0  0  0
    8.9375   44.9319  132.9189 C   0  0  0  0  0  0  0  0  0  0  0  0
    9.2900   47.0479  133.6065 C   0  0  0  0  0  0  0  0  0  0  0  0
    9.2935   45.0664  130.5354 C   0  0  0  0  0  0  0  0  0  0  0  0
    8.6611   43.5633  132.8434 C   0  0  0  0  0  0  0  0  0  0  0  0
    9.0320   43.6965  130.4327 C   0  0  0  0  0  0  0  0  0  0  0  0
    8.7197   42.9636  131.5780 C   0  0  0  0  0  0  0  0  0  0  0  0
    8.7541   45.5126  134.9285 H   0  0  0  0  0  0  0  0  0  0  0  0
    9.0536   42.9718  129.2706 O   0  0  0  0  0  0  0  0  0  0  0  0
    9.9617   43.4074  128.2647 C   0  0  0  0  0  0  0  0  0  0  0  0
    9.8735   48.2003  131.3724 C   0  0  0  0  0  0  0  0  0  0  0  0
    8.6733   49.0489  130.9373 C   0  0  0  0  0  0  0  0  0  0  0  0
    7.2805   49.5614  128.5134 O   0  0  0  0  0  0  0  0  0  0  0  0
    7.5718   48.2722  130.3922 N   0  0  0  0  0  0  0  0  0  0  0  0
    6.9402   48.6207  129.2208 C   0  0  0  0  0  0  0  0  0  0  0  0
    5.7955   47.7115  128.8635 C   0  0  0  0  0  0  0  0  0  0  0  0
    7.2680   47.4710  130.8770 H   0  0  0  0  0  0  0  0  0  0  0  0
 11  8  1  0
 11 12  1  0
 15 17  2  0
  1  4  1  0
  1  5  1  0
  1 10  1  0
 16 14  1  0
 16 17  1  0
 16 19  1  0
  2  3  1  0
  2 13  1  0
  2  5  2  0
  3  4  2  0
  3  6  1  0
 13 14  1  0
  4  7  1  0
  6  8  2  0
  7  9  2  0
  8  9  1  0
 17 18  1  0
M  END
> <PUBCHEM_COMPOUND_CID>
896

> <PUBCHEM_CONFORMER_RMSD>
0.6

> <PUBCHEM_CONFORMER_DIVERSEORDER>
1
13
50
55
28
16
42
48
27
15
62
60
65
61
36
4
20
58
41
17
59
21
2
63
47
57
40
56
22
64
54
37
51
7
31
53
26
8
49
39
32
11
5
33
38
52
23
45
43
12
14
9
34
44
35
10
25
29
46
6
30
24
3
19
18

> <PUBCHEM_MMFF94_PARTIAL_CHARGES>
22
1 -0.36
10 0.3
11 -0.15
12 -0.15
13 0.08
14 -0.15
15 0.57
16 0.06
17 0.28
2 -0.57
20 0.15
23 0.27
24 0.15
25 0.15
26 0.15
27 0.37
3 0.03
4 -0.73
5 -0.18
7 0.18
8 -0.15
9 -0.3

> <PUBCHEM_EFFECTIVE_ROTOR_COUNT>
5

> <PUBCHEM_PHARMACOPHORE_FEATURES>
7
1 1 acceptor
1 2 acceptor
1 3 cation
1 3 donor
1 4 donor
5 3 5 6 8 9 rings
6 6 8 11 12 13 14 rings

> <PUBCHEM_HEAVY_ATOM_COUNT>
17

> <PUBCHEM_ATOM_DEF_STEREO_COUNT>
0

> <PUBCHEM_ATOM_UDEF_STEREO_COUNT>
0

> <PUBCHEM_BOND_DEF_STEREO_COUNT>
0

> <PUBCHEM_BOND_UDEF_STEREO_COUNT>
0

> <PUBCHEM_ISOTOPIC_ATOM_COUNT>
0

> <PUBCHEM_COMPONENT_COUNT>
1

> <PUBCHEM_CACTVS_TAUTO_COUNT>
2

> <PUBCHEM_CONFORMER_ID>
0000038000000001

> <PUBCHEM_MMFF94_ENERGY>
32.7119

> <PUBCHEM_FEATURE_SELFOVERLAP>
35.612

> <PUBCHEM_SHAPE_FINGERPRINT>
10967382 1 18410853274190255273
11640471 11 17676780867509025316
13027679 85 18194690495324420133
13140716 1 17978229692519098697
13965767 371 16608554374032828400
1420 336 18266184924512803916
14787075 74 17896612875907719035
14790565 3 18341057316043312793
15006816 218 16754940689043299904
16945 1 18195239147136872059
19591789 44 18120376712306458779
19765921 60 17749382706469569763
20510252 161 18342458093286620745
21141583 151 18124894583888822372
21524375 3 17972887951224859043
2334 1 18410572855759727185
23419403 2 17326855944455494142
23557571 272 18201719608641642450
23559900 14 18342173410755765088
2748010 2 18337115553281152647
353137 74 18409164389875307419
44154327 71 18267028250037128041
526903 126 18410576235872810256
537710 114 18408601466050490037
7832392 63 17187566044572678455
9981440 41 18116712022929254594

> <PUBCHEM_SHAPE_MULTIPOLES>
328.15
4.94
3.77
0.97
2.92
1.2
-0.06
0.99
-1.27
-0.81
0.74
0.39
0.23
-0.66

> <PUBCHEM_SHAPE_SELFOVERLAP>
695.133

> <PUBCHEM_SHAPE_VOLUME>
185.3

> <PUBCHEM_COORDINATE_TYPE>
2
5
10

> <Energy>
0.232708

> <minimizedAffinity>
-6.78730

> <CNNscore>
0.3382563293

> <CNNaffinity>
6.3851208687

> <CNN_VS>
2.1598074436

> <CNNaffinity_variance>
0.4254499972

$$$$
896


 19 20  0  0  0  0  0  0  0  0999 V2000
    8.3141   43.8367  130.1783 N   0  0  0  0  0  0  0  0  0  0  0  0
   10.3376   44.5669  129.5867 C   0  0  0  0  0  0  0  0  0  0  0  0
    9.4656   45.6917  129.7461 C   0  0  0  0  0  0  0  0  0  0  0  0
    8.2097   45.2058  130.1015 C   0  0  0  0  0  0  0  0  0  0  0  0
    9.5885   43.4401  129.8653 C   0  0  0  0  0  0  0  0  0  0  0  0
    9.6421   47.0858  129.6115 C   0  0  0  0  0  0  0  0  0  0  0  0
    7.1135   46.0448  130.3242 C   0  0  0  0  0  0  0  0  0  0  0  0
    8.5598   47.9469  129.8178 C   0  0  0  0  0  0  0  0  0  0  0  0
    7.3158   47.4230  130.1703 C   0  0  0  0  0  0  0  0  0  0  0  0
    7.5794   43.2288  130.4227 H   0  0  0  0  0  0  0  0  0  0  0  0
    8.6010   49.3112  129.7023 O   0  0  0  0  0  0  0  0  0  0  0  0
    7.3818   49.9584  129.3545 C   0  0  0  0  0  0  0  0  0  0  0  0
   11.7845   44.6173  129.1932 C   0  0  0  0  0  0  0  0  0  0  0  0
   12.7297   44.1935  130.3231 C   0  0  0  0  0  0  0  0  0  0  0  0
   12.4892   42.6298  132.6842 O   0  0  0  0  0  0  0  0  0  0  0  0
   12.3244   44.6674  131.6365 N   0  0  0  0  0  0  0  0  0  0  0  0
   12.2085   43.8220  132.7156 C   0  0  0  0  0  0  0  0  0  0  0  0
   11.7282   44.5081  133.9658 C   0  0  0  0  0  0  0  0  0  0  0  0
   12.1264   45.6241  131.7576 H   0  0  0  0  0  0  0  0  0  0  0  0
 11  8  1  0
 11 12  1  0
 15 17  2  0
  1  4  1  0
  1  5  1  0
  1 10  1  0
 16 14  1  0
 16 17  1  0
 16 19  1  0
  2  3  1  0
  2 13  1  0
  2  5  2  0
  3  4  2  0
  3  6  1  0
 13 14  1  0
  4  7  1  0
  6  8  2  0
  7  9  2  0
  8  9  1  0
 17 18  1  0
M  END
> <PUBCHEM_COMPOUND_CID>
896

> <PUBCHEM_CONFORMER_RMSD>
0.6

> <PUBCHEM_CONFORMER_DIVERSEORDER>
1
13
50
55
28
16
42
48
27
15
62
60
65
61
36
4
20
58
41
17
59
21
2
63
47
57
40
56
22
64
54
37
51
7
31
53
26
8
49
39
32
11
5
33
38
52
23
45
43
12
14
9
34
44
35
10
25
29
46
6
30
24
3
19
18

> <PUBCHEM_MMFF94_PARTIAL_CHARGES>
22
1 -0.36
10 0.3
11 -0.15
12 -0.15
13 0.08
14 -0.15
15 0.57
16 0.06
17 0.28
2 -0.57
20 0.15
23 0.27
24 0.15
25 0.15
26 0.15
27 0.37
3 0.03
4 -0.73
5 -0.18
7 0.18
8 -0.15
9 -0.3

> <PUBCHEM_EFFECTIVE_ROTOR_COUNT>
5

> <PUBCHEM_PHARMACOPHORE_FEATURES>
7
1 1 acceptor
1 2 acceptor
1 3 cation
1 3 donor
1 4 donor
5 3 5 6 8 9 rings
6 6 8 11 12 13 14 rings

> <PUBCHEM_HEAVY_ATOM_COUNT>
17

> <PUBCHEM_ATOM_DEF_STEREO_COUNT>
0

> <PUBCHEM_ATOM_UDEF_STEREO_COUNT>
0

> <PUBCHEM_BOND_DEF_STEREO_COUNT>
0

> <PUBCHEM_BOND_UDEF_STEREO_COUNT>
0

> <PUBCHEM_ISOTOPIC_ATOM_COUNT>
0

> <PUBCHEM_COMPONENT_COUNT>
1

> <PUBCHEM_CACTVS_TAUTO_COUNT>
2

> <PUBCHEM_CONFORMER_ID>
0000038000000001

> <PUBCHEM_MMFF94_ENERGY>
32.7119

> <PUBCHEM_FEATURE_SELFOVERLAP>
35.612

> <PUBCHEM_SHAPE_FINGERPRINT>
10967382 1 18410853274190255273
11640471 11 17676780867509025316
13027679 85 18194690495324420133
13140716 1 17978229692519098697
13965767 371 16608554374032828400
1420 336 18266184924512803916
14787075 74 17896612875907719035
14790565 3 18341057316043312793
15006816 218 16754940689043299904
16945 1 18195239147136872059
19591789 44 18120376712306458779
19765921 60 17749382706469569763
20510252 161 18342458093286620745
21141583 151 18124894583888822372
21524375 3 17972887951224859043
2334 1 18410572855759727185
23419403 2 17326855944455494142
23557571 272 18201719608641642450
23559900 14 18342173410755765088
2748010 2 18337115553281152647
353137 74 18409164389875307419
44154327 71 18267028250037128041
526903 126 18410576235872810256
537710 114 18408601466050490037
7832392 63 17187566044572678455
9981440 41 18116712022929254594

> <PUBCHEM_SHAPE_MULTIPOLES>
328.15
4.94
3.77
0.97
2.92
1.2
-0.06
0.99
-1.27
-0.81
0.74
0.39
0.23
-0.66

> <PUBCHEM_SHAPE_SELFOVERLAP>
695.133

> <PUBCHEM_SHAPE_VOLUME>
185.3

> <PUBCHEM_COORDINATE_TYPE>
2
5
10

> <Energy>
0.232708

> <minimizedAffinity>
-7.28419

> <CNNscore>
0.3080616593

> <CNNaffinity>
5.7002320290

> <CNN_VS>
1.7560229301

> <CNNaffinity_variance>
0.3295857608

$$$$
