2519


 14 15  0  0  0  0  0  0  0  0999 V2000
  103.3830   13.3786   22.8042 O   0  0  0  0  0  0  0  0  0  0  0  0
  101.5236   17.4246   24.0723 O   0  0  0  0  0  0  0  0  0  0  0  0
  103.7340   17.0431   24.5957 N   0  0  0  0  0  0  0  0  0  0  0  0
  105.9084   14.3730   24.0593 N   0  0  0  0  0  0  0  0  0  0  0  0
  102.4287   15.4039   23.4317 N   0  0  0  0  0  0  0  0  0  0  0  0
  106.0439   16.3753   25.0191 N   0  0  0  0  0  0  0  0  0  0  0  0
  104.6761   14.9469   23.9324 C   0  0  0  0  0  0  0  0  0  0  0  0
  104.7912   16.1660   24.5276 C   0  0  0  0  0  0  0  0  0  0  0  0
  103.4738   14.4798   23.3384 C   0  0  0  0  0  0  0  0  0  0  0  0
  102.5058   16.6764   24.0396 C   0  0  0  0  0  0  0  0  0  0  0  0
  106.7019   15.2720   24.7220 C   0  0  0  0  0  0  0  0  0  0  0  0
  103.9024   18.3339   25.2402 C   0  0  0  0  0  0  0  0  0  0  0  0
  106.3076   13.0712   23.5889 C   0  0  0  0  0  0  0  0  0  0  0  0
  101.1482   15.0374   22.8580 C   0  0  0  0  0  0  0  0  0  0  0  0
  1  9  2  0
  2 10  2  0
  3  8  1  0
  3 10  1  0
  3 12  1  0
  4  7  1  0
  4 11  1  0
  4 13  1  0
  5  9  1  0
  5 10  1  0
  5 14  1  0
  6  8  1  0
  6 11  2  0
  7  8  2  0
  7  9  1  0
M  END
> <PUBCHEM_COMPOUND_CID>
2519

> <PUBCHEM_CONFORMER_RMSD>
0.4

> <PUBCHEM_CONFORMER_DIVERSEORDER>
1

> <PUBCHEM_MMFF94_PARTIAL_CHARGES>
15
1 -0.57
10 0.69
11 0.04
12 0.3
13 0.26
14 0.3
15 0.15
2 -0.57
3 -0.42
4 0.05
5 -0.42
6 -0.57
7 -0.24
8 0.29
9 0.71

> <PUBCHEM_EFFECTIVE_ROTOR_COUNT>
0

> <PUBCHEM_PHARMACOPHORE_FEATURES>
5
1 1 acceptor
1 2 acceptor
3 4 6 11 cation
5 4 6 7 8 11 rings
6 3 5 7 8 9 10 rings

> <PUBCHEM_HEAVY_ATOM_COUNT>
14

> <PUBCHEM_ATOM_DEF_STEREO_COUNT>
0

> <PUBCHEM_ATOM_UDEF_STEREO_COUNT>
0

> <PUBCHEM_BOND_DEF_STEREO_COUNT>
0

> <PUBCHEM_BOND_UDEF_STEREO_COUNT>
0

> <PUBCHEM_ISOTOPIC_ATOM_COUNT>
0

> <PUBCHEM_COMPONENT_COUNT>
1

> <PUBCHEM_CACTVS_TAUTO_COUNT>
1

> <PUBCHEM_CONFORMER_ID>
000009D700000001

> <PUBCHEM_MMFF94_ENERGY>
22.901

> <PUBCHEM_FEATURE_SELFOVERLAP>
25.487

> <PUBCHEM_SHAPE_FINGERPRINT>
10967382 1 18338799025773621285
11132069 177 18339075025094499008
12524768 44 18342463625094026902
13140716 1 17978511158789908153
16945 1 18338517550775811621
193761 8 15816500986559935910
20588541 1 18339082691204868851
21501502 16 18338796715286957384
22802520 49 18128840606503503494
2334 1 18338516344016692929
23402539 116 18270382932679789735
23552423 10 18262240993325675966
23559900 14 18199193898169584358
241688 4 18266458702623303353
2748010 2 18266180539182415717
5084963 1 17698433339235542986
528886 8 18267580380709240570
53812653 166 18198902694142226312
66348 1 18339079396917369615

> <PUBCHEM_SHAPE_MULTIPOLES>
256.45
4.01
2.83
0.58
0.71
0.08
0
-0.48
0
-0.81
0
0.01
0
0

> <PUBCHEM_SHAPE_SELFOVERLAP>
550.88

> <PUBCHEM_SHAPE_VOLUME>
143.9

> <PUBCHEM_COORDINATE_TYPE>
2
5
10

> <Energy>
-122.511

> <minimizedAffinity>
-5.93730

> <CNNscore>
0.5494476557

> <CNNaffinity>
4.9794888496

> <CNN_VS>
2.7359685898

> <CNNaffinity_variance>
0.1180327758

$$$$
2519


 14 15  0  0  0  0  0  0  0  0999 V2000
  106.0350   16.4456   24.9824 O   0  0  0  0  0  0  0  0  0  0  0  0
  101.5793   17.4075   24.1716 O   0  0  0  0  0  0  0  0  0  0  0  0
  102.4101   15.4074   23.3877 N   0  0  0  0  0  0  0  0  0  0  0  0
  105.5415   13.8838   23.5211 N   0  0  0  0  0  0  0  0  0  0  0  0
  103.7999   16.9492   24.5863 N   0  0  0  0  0  0  0  0  0  0  0  0
  103.5496   13.3692   22.6748 N   0  0  0  0  0  0  0  0  0  0  0  0
  104.7142   14.9290   23.8162 C   0  0  0  0  0  0  0  0  0  0  0  0
  103.5080   14.5852   23.2868 C   0  0  0  0  0  0  0  0  0  0  0  0
  104.9427   16.1474   24.5089 C   0  0  0  0  0  0  0  0  0  0  0  0
  102.5320   16.6307   24.0516 C   0  0  0  0  0  0  0  0  0  0  0  0
  104.7950   12.9654   22.8310 C   0  0  0  0  0  0  0  0  0  0  0  0
  101.1423   14.9996   22.8076 C   0  0  0  0  0  0  0  0  0  0  0  0
  106.9349   13.7612   23.8656 C   0  0  0  0  0  0  0  0  0  0  0  0
  103.9112   18.2215   25.2734 C   0  0  0  0  0  0  0  0  0  0  0  0
  1  9  2  0
  2 10  2  0
  3  8  1  0
  3 10  1  0
  3 12  1  0
  4  7  1  0
  4 11  1  0
  4 13  1  0
  5  9  1  0
  5 10  1  0
  5 14  1  0
  6  8  1  0
  6 11  2  0
  7  8  2  0
  7  9  1  0
M  END
> <PUBCHEM_COMPOUND_CID>
2519

> <PUBCHEM_CONFORMER_RMSD>
0.4

> <PUBCHEM_CONFORMER_DIVERSEORDER>
1

> <PUBCHEM_MMFF94_PARTIAL_CHARGES>
15
1 -0.57
10 0.69
11 0.04
12 0.3
13 0.26
14 0.3
15 0.15
2 -0.57
3 -0.42
4 0.05
5 -0.42
6 -0.57
7 -0.24
8 0.29
9 0.71

> <PUBCHEM_EFFECTIVE_ROTOR_COUNT>
0

> <PUBCHEM_PHARMACOPHORE_FEATURES>
5
1 1 acceptor
1 2 acceptor
3 4 6 11 cation
5 4 6 7 8 11 rings
6 3 5 7 8 9 10 rings

> <PUBCHEM_HEAVY_ATOM_COUNT>
14

> <PUBCHEM_ATOM_DEF_STEREO_COUNT>
0

> <PUBCHEM_ATOM_UDEF_STEREO_COUNT>
0

> <PUBCHEM_BOND_DEF_STEREO_COUNT>
0

> <PUBCHEM_BOND_UDEF_STEREO_COUNT>
0

> <PUBCHEM_ISOTOPIC_ATOM_COUNT>
0

> <PUBCHEM_COMPONENT_COUNT>
1

> <PUBCHEM_CACTVS_TAUTO_COUNT>
1

> <PUBCHEM_CONFORMER_ID>
000009D700000001

> <PUBCHEM_MMFF94_ENERGY>
22.901

> <PUBCHEM_FEATURE_SELFOVERLAP>
25.487

> <PUBCHEM_SHAPE_FINGERPRINT>
10967382 1 18338799025773621285
11132069 177 18339075025094499008
12524768 44 18342463625094026902
13140716 1 17978511158789908153
16945 1 18338517550775811621
193761 8 15816500986559935910
20588541 1 18339082691204868851
21501502 16 18338796715286957384
22802520 49 18128840606503503494
2334 1 18338516344016692929
23402539 116 18270382932679789735
23552423 10 18262240993325675966
23559900 14 18199193898169584358
241688 4 18266458702623303353
2748010 2 18266180539182415717
5084963 1 17698433339235542986
528886 8 18267580380709240570
53812653 166 18198902694142226312
66348 1 18339079396917369615

> <PUBCHEM_SHAPE_MULTIPOLES>
256.45
4.01
2.83
0.58
0.71
0.08
0
-0.48
0
-0.81
0
0.01
0
0

> <PUBCHEM_SHAPE_SELFOVERLAP>
550.88

> <PUBCHEM_SHAPE_VOLUME>
143.9

> <PUBCHEM_COORDINATE_TYPE>
2
5
10

> <Energy>
-122.511

> <minimizedAffinity>
-5.91528

> <CNNscore>
0.4637232125

> <CNNaffinity>
5.0193009377

> <CNN_VS>
2.3275663853

> <CNNaffinity_variance>
0.1101924405

$$$$
2519


 14 15  0  0  0  0  0  0  0  0999 V2000
  106.1148   15.6581   24.6162 O   0  0  0  0  0  0  0  0  0  0  0  0
  109.4538   13.1093   22.6695 O   0  0  0  0  0  0  0  0  0  0  0  0
  107.2668   12.5068   22.2703 N   0  0  0  0  0  0  0  0  0  0  0  0
  104.1917   13.7955   23.2842 N   0  0  0  0  0  0  0  0  0  0  0  0
  107.8078   14.3918   23.6486 N   0  0  0  0  0  0  0  0  0  0  0  0
  104.8730   12.0982   22.0179 N   0  0  0  0  0  0  0  0  0  0  0  0
  105.5563   13.8357   23.2852 C   0  0  0  0  0  0  0  0  0  0  0  0
  105.9412   12.7884   22.5051 C   0  0  0  0  0  0  0  0  0  0  0  0
  106.4744   14.7168   23.9157 C   0  0  0  0  0  0  0  0  0  0  0  0
  108.2491   13.3161   22.8467 C   0  0  0  0  0  0  0  0  0  0  0  0
  103.8235   12.7298   22.5060 C   0  0  0  0  0  0  0  0  0  0  0  0
  107.6314   11.3788   21.4308 C   0  0  0  0  0  0  0  0  0  0  0  0
  103.3004   14.6976   23.9678 C   0  0  0  0  0  0  0  0  0  0  0  0
  108.8383   15.2236   24.2394 C   0  0  0  0  0  0  0  0  0  0  0  0
  1  9  2  0
  2 10  2  0
  3  8  1  0
  3 10  1  0
  3 12  1  0
  4  7  1  0
  4 11  1  0
  4 13  1  0
  5  9  1  0
  5 10  1  0
  5 14  1  0
  6  8  1  0
  6 11  2  0
  7  8  2  0
  7  9  1  0
M  END
> <PUBCHEM_COMPOUND_CID>
2519

> <PUBCHEM_CONFORMER_RMSD>
0.4

> <PUBCHEM_CONFORMER_DIVERSEORDER>
1

> <PUBCHEM_MMFF94_PARTIAL_CHARGES>
15
1 -0.57
10 0.69
11 0.04
12 0.3
13 0.26
14 0.3
15 0.15
2 -0.57
3 -0.42
4 0.05
5 -0.42
6 -0.57
7 -0.24
8 0.29
9 0.71

> <PUBCHEM_EFFECTIVE_ROTOR_COUNT>
0

> <PUBCHEM_PHARMACOPHORE_FEATURES>
5
1 1 acceptor
1 2 acceptor
3 4 6 11 cation
5 4 6 7 8 11 rings
6 3 5 7 8 9 10 rings

> <PUBCHEM_HEAVY_ATOM_COUNT>
14

> <PUBCHEM_ATOM_DEF_STEREO_COUNT>
0

> <PUBCHEM_ATOM_UDEF_STEREO_COUNT>
0

> <PUBCHEM_BOND_DEF_STEREO_COUNT>
0

> <PUBCHEM_BOND_UDEF_STEREO_COUNT>
0

> <PUBCHEM_ISOTOPIC_ATOM_COUNT>
0

> <PUBCHEM_COMPONENT_COUNT>
1

> <PUBCHEM_CACTVS_TAUTO_COUNT>
1

> <PUBCHEM_CONFORMER_ID>
000009D700000001

> <PUBCHEM_MMFF94_ENERGY>
22.901

> <PUBCHEM_FEATURE_SELFOVERLAP>
25.487

> <PUBCHEM_SHAPE_FINGERPRINT>
10967382 1 18338799025773621285
11132069 177 18339075025094499008
12524768 44 18342463625094026902
13140716 1 17978511158789908153
16945 1 18338517550775811621
193761 8 15816500986559935910
20588541 1 18339082691204868851
21501502 16 18338796715286957384
22802520 49 18128840606503503494
2334 1 18338516344016692929
23402539 116 18270382932679789735
23552423 10 18262240993325675966
23559900 14 18199193898169584358
241688 4 18266458702623303353
2748010 2 18266180539182415717
5084963 1 17698433339235542986
528886 8 18267580380709240570
53812653 166 18198902694142226312
66348 1 18339079396917369615

> <PUBCHEM_SHAPE_MULTIPOLES>
256.45
4.01
2.83
0.58
0.71
0.08
0
-0.48
0
-0.81
0
0.01
0
0

> <PUBCHEM_SHAPE_SELFOVERLAP>
550.88

> <PUBCHEM_SHAPE_VOLUME>
143.9

> <PUBCHEM_COORDINATE_TYPE>
2
5
10

> <Energy>
-122.511

> <minimizedAffinity>
-6.03901

> <CNNscore>
0.4461834431

> <CNNaffinity>
4.9994597435

> <CNN_VS>
2.2306761742

> <CNNaffinity_variance>
0.0628469437

$$$$
2519


 14 15  0  0  0  0  0  0  0  0999 V2000
  106.6925   15.9017   24.7486 O   0  0  0  0  0  0  0  0  0  0  0  0
  108.6167   12.8489   21.8480 O   0  0  0  0  0  0  0  0  0  0  0  0
  106.3246   12.8238   22.0743 N   0  0  0  0  0  0  0  0  0  0  0  0
  104.0721   14.6916   23.9669 N   0  0  0  0  0  0  0  0  0  0  0  0
  107.6800   14.3770   23.2973 N   0  0  0  0  0  0  0  0  0  0  0  0
  103.9297   13.0197   22.5064 N   0  0  0  0  0  0  0  0  0  0  0  0
  105.3496   14.4082   23.5778 C   0  0  0  0  0  0  0  0  0  0  0  0
  105.2291   13.3849   22.6880 C   0  0  0  0  0  0  0  0  0  0  0  0
  106.5971   14.9786   23.9455 C   0  0  0  0  0  0  0  0  0  0  0  0
  107.5988   13.3151   22.3696 C   0  0  0  0  0  0  0  0  0  0  0  0
  103.2483   13.8280   23.2944 C   0  0  0  0  0  0  0  0  0  0  0  0
  106.1487   11.7333   21.1309 C   0  0  0  0  0  0  0  0  0  0  0  0
  103.6594   15.7040   24.9051 C   0  0  0  0  0  0  0  0  0  0  0  0
  109.0087   14.8773   23.5933 C   0  0  0  0  0  0  0  0  0  0  0  0
  1  9  2  0
  2 10  2  0
  3  8  1  0
  3 10  1  0
  3 12  1  0
  4  7  1  0
  4 11  1  0
  4 13  1  0
  5  9  1  0
  5 10  1  0
  5 14  1  0
  6  8  1  0
  6 11  2  0
  7  8  2  0
  7  9  1  0
M  END
> <PUBCHEM_COMPOUND_CID>
2519

> <PUBCHEM_CONFORMER_RMSD>
0.4

> <PUBCHEM_CONFORMER_DIVERSEORDER>
1

> <PUBCHEM_MMFF94_PARTIAL_CHARGES>
15
1 -0.57
10 0.69
11 0.04
12 0.3
13 0.26
14 0.3
15 0.15
2 -0.57
3 -0.42
4 0.05
5 -0.42
6 -0.57
7 -0.24
8 0.29
9 0.71

> <PUBCHEM_EFFECTIVE_ROTOR_COUNT>
0

> <PUBCHEM_PHARMACOPHORE_FEATURES>
5
1 1 acceptor
1 2 acceptor
3 4 6 11 cation
5 4 6 7 8 11 rings
6 3 5 7 8 9 10 rings

> <PUBCHEM_HEAVY_ATOM_COUNT>
14

> <PUBCHEM_ATOM_DEF_STEREO_COUNT>
0

> <PUBCHEM_ATOM_UDEF_STEREO_COUNT>
0

> <PUBCHEM_BOND_DEF_STEREO_COUNT>
0

> <PUBCHEM_BOND_UDEF_STEREO_COUNT>
0

> <PUBCHEM_ISOTOPIC_ATOM_COUNT>
0

> <PUBCHEM_COMPONENT_COUNT>
1

> <PUBCHEM_CACTVS_TAUTO_COUNT>
1

> <PUBCHEM_CONFORMER_ID>
000009D700000001

> <PUBCHEM_MMFF94_ENERGY>
22.901

> <PUBCHEM_FEATURE_SELFOVERLAP>
25.487

> <PUBCHEM_SHAPE_FINGERPRINT>
10967382 1 18338799025773621285
11132069 177 18339075025094499008
12524768 44 18342463625094026902
13140716 1 17978511158789908153
16945 1 18338517550775811621
193761 8 15816500986559935910
20588541 1 18339082691204868851
21501502 16 18338796715286957384
22802520 49 18128840606503503494
2334 1 18338516344016692929
23402539 116 18270382932679789735
23552423 10 18262240993325675966
23559900 14 18199193898169584358
241688 4 18266458702623303353
2748010 2 18266180539182415717
5084963 1 17698433339235542986
528886 8 18267580380709240570
53812653 166 18198902694142226312
66348 1 18339079396917369615

> <PUBCHEM_SHAPE_MULTIPOLES>
256.45
4.01
2.83
0.58
0.71
0.08
0
-0.48
0
-0.81
0
0.01
0
0

> <PUBCHEM_SHAPE_SELFOVERLAP>
550.88

> <PUBCHEM_SHAPE_VOLUME>
143.9

> <PUBCHEM_COORDINATE_TYPE>
2
5
10

> <Energy>
-122.511

> <minimizedAffinity>
-5.99707

> <CNNscore>
0.4032516479

> <CNNaffinity>
4.8626456261

> <CNN_VS>
1.9608699083

> <CNNaffinity_variance>
0.1472266763

$$$$
2519


 14 15  0  0  0  0  0  0  0  0999 V2000
  104.1153   12.6228   22.4206 O   0  0  0  0  0  0  0  0  0  0  0  0
  108.7025   12.9189   21.8681 O   0  0  0  0  0  0  0  0  0  0  0  0
  107.6834   14.4472   23.2577 N   0  0  0  0  0  0  0  0  0  0  0  0
  104.3834   14.9773   24.2445 N   0  0  0  0  0  0  0  0  0  0  0  0
  106.4182   12.7532   22.1285 N   0  0  0  0  0  0  0  0  0  0  0  0
  106.3490   15.9300   24.6654 N   0  0  0  0  0  0  0  0  0  0  0  0
  105.3130   14.2780   23.5298 C   0  0  0  0  0  0  0  0  0  0  0  0
  106.5005   14.8833   23.8073 C   0  0  0  0  0  0  0  0  0  0  0  0
  105.1918   13.1602   22.6623 C   0  0  0  0  0  0  0  0  0  0  0  0
  107.6703   13.3524   22.3897 C   0  0  0  0  0  0  0  0  0  0  0  0
  105.0548   15.9656   24.9148 C   0  0  0  0  0  0  0  0  0  0  0  0
  108.9273   15.1236   23.5823 C   0  0  0  0  0  0  0  0  0  0  0  0
  102.9649   14.7302   24.2912 C   0  0  0  0  0  0  0  0  0  0  0  0
  106.4202   11.6174   21.2267 C   0  0  0  0  0  0  0  0  0  0  0  0
  1  9  2  0
  2 10  2  0
  3  8  1  0
  3 10  1  0
  3 12  1  0
  4  7  1  0
  4 11  1  0
  4 13  1  0
  5  9  1  0
  5 10  1  0
  5 14  1  0
  6  8  1  0
  6 11  2  0
  7  8  2  0
  7  9  1  0
M  END
> <PUBCHEM_COMPOUND_CID>
2519

> <PUBCHEM_CONFORMER_RMSD>
0.4

> <PUBCHEM_CONFORMER_DIVERSEORDER>
1

> <PUBCHEM_MMFF94_PARTIAL_CHARGES>
15
1 -0.57
10 0.69
11 0.04
12 0.3
13 0.26
14 0.3
15 0.15
2 -0.57
3 -0.42
4 0.05
5 -0.42
6 -0.57
7 -0.24
8 0.29
9 0.71

> <PUBCHEM_EFFECTIVE_ROTOR_COUNT>
0

> <PUBCHEM_PHARMACOPHORE_FEATURES>
5
1 1 acceptor
1 2 acceptor
3 4 6 11 cation
5 4 6 7 8 11 rings
6 3 5 7 8 9 10 rings

> <PUBCHEM_HEAVY_ATOM_COUNT>
14

> <PUBCHEM_ATOM_DEF_STEREO_COUNT>
0

> <PUBCHEM_ATOM_UDEF_STEREO_COUNT>
0

> <PUBCHEM_BOND_DEF_STEREO_COUNT>
0

> <PUBCHEM_BOND_UDEF_STEREO_COUNT>
0

> <PUBCHEM_ISOTOPIC_ATOM_COUNT>
0

> <PUBCHEM_COMPONENT_COUNT>
1

> <PUBCHEM_CACTVS_TAUTO_COUNT>
1

> <PUBCHEM_CONFORMER_ID>
000009D700000001

> <PUBCHEM_MMFF94_ENERGY>
22.901

> <PUBCHEM_FEATURE_SELFOVERLAP>
25.487

> <PUBCHEM_SHAPE_FINGERPRINT>
10967382 1 18338799025773621285
11132069 177 18339075025094499008
12524768 44 18342463625094026902
13140716 1 17978511158789908153
16945 1 18338517550775811621
193761 8 15816500986559935910
20588541 1 18339082691204868851
21501502 16 18338796715286957384
22802520 49 18128840606503503494
2334 1 18338516344016692929
23402539 116 18270382932679789735
23552423 10 18262240993325675966
23559900 14 18199193898169584358
241688 4 18266458702623303353
2748010 2 18266180539182415717
5084963 1 17698433339235542986
528886 8 18267580380709240570
53812653 166 18198902694142226312
66348 1 18339079396917369615

> <PUBCHEM_SHAPE_MULTIPOLES>
256.45
4.01
2.83
0.58
0.71
0.08
0
-0.48
0
-0.81
0
0.01
0
0

> <PUBCHEM_SHAPE_SELFOVERLAP>
550.88

> <PUBCHEM_SHAPE_VOLUME>
143.9

> <PUBCHEM_COORDINATE_TYPE>
2
5
10

> <Energy>
-122.511

> <minimizedAffinity>
-6.04616

> <CNNscore>
0.3611156344

> <CNNaffinity>
4.9394307137

> <CNN_VS>
1.7837057114

> <CNNaffinity_variance>
0.1130034328

$$$$
2519


 14 15  0  0  0  0  0  0  0  0999 V2000
  104.5379   17.0408   25.4104 O   0  0  0  0  0  0  0  0  0  0  0  0
  106.6418   14.0402   22.5808 O   0  0  0  0  0  0  0  0  0  0  0  0
  104.3576   14.2742   22.3980 N   0  0  0  0  0  0  0  0  0  0  0  0
  101.9979   16.2305   24.0562 N   0  0  0  0  0  0  0  0  0  0  0  0
  105.6151   15.5392   23.9993 N   0  0  0  0  0  0  0  0  0  0  0  0
  101.9576   14.7213   22.4223 N   0  0  0  0  0  0  0  0  0  0  0  0
  103.2893   15.8288   23.8688 C   0  0  0  0  0  0  0  0  0  0  0  0
  103.2312   14.9088   22.8669 C   0  0  0  0  0  0  0  0  0  0  0  0
  104.4986   16.2093   24.5085 C   0  0  0  0  0  0  0  0  0  0  0  0
  105.5985   14.5796   22.9631 C   0  0  0  0  0  0  0  0  0  0  0  0
  101.2288   15.5350   23.1609 C   0  0  0  0  0  0  0  0  0  0  0  0
  104.2485   13.2991   21.3268 C   0  0  0  0  0  0  0  0  0  0  0  0
  101.5249   17.2002   25.0107 C   0  0  0  0  0  0  0  0  0  0  0  0
  106.9099   15.8468   24.5755 C   0  0  0  0  0  0  0  0  0  0  0  0
  1  9  2  0
  2 10  2  0
  3  8  1  0
  3 10  1  0
  3 12  1  0
  4  7  1  0
  4 11  1  0
  4 13  1  0
  5  9  1  0
  5 10  1  0
  5 14  1  0
  6  8  1  0
  6 11  2  0
  7  8  2  0
  7  9  1  0
M  END
> <PUBCHEM_COMPOUND_CID>
2519

> <PUBCHEM_CONFORMER_RMSD>
0.4

> <PUBCHEM_CONFORMER_DIVERSEORDER>
1

> <PUBCHEM_MMFF94_PARTIAL_CHARGES>
15
1 -0.57
10 0.69
11 0.04
12 0.3
13 0.26
14 0.3
15 0.15
2 -0.57
3 -0.42
4 0.05
5 -0.42
6 -0.57
7 -0.24
8 0.29
9 0.71

> <PUBCHEM_EFFECTIVE_ROTOR_COUNT>
0

> <PUBCHEM_PHARMACOPHORE_FEATURES>
5
1 1 acceptor
1 2 acceptor
3 4 6 11 cation
5 4 6 7 8 11 rings
6 3 5 7 8 9 10 rings

> <PUBCHEM_HEAVY_ATOM_COUNT>
14

> <PUBCHEM_ATOM_DEF_STEREO_COUNT>
0

> <PUBCHEM_ATOM_UDEF_STEREO_COUNT>
0

> <PUBCHEM_BOND_DEF_STEREO_COUNT>
0

> <PUBCHEM_BOND_UDEF_STEREO_COUNT>
0

> <PUBCHEM_ISOTOPIC_ATOM_COUNT>
0

> <PUBCHEM_COMPONENT_COUNT>
1

> <PUBCHEM_CACTVS_TAUTO_COUNT>
1

> <PUBCHEM_CONFORMER_ID>
000009D700000001

> <PUBCHEM_MMFF94_ENERGY>
22.901

> <PUBCHEM_FEATURE_SELFOVERLAP>
25.487

> <PUBCHEM_SHAPE_FINGERPRINT>
10967382 1 18338799025773621285
11132069 177 18339075025094499008
12524768 44 18342463625094026902
13140716 1 17978511158789908153
16945 1 18338517550775811621
193761 8 15816500986559935910
20588541 1 18339082691204868851
21501502 16 18338796715286957384
22802520 49 18128840606503503494
2334 1 18338516344016692929
23402539 116 18270382932679789735
23552423 10 18262240993325675966
23559900 14 18199193898169584358
241688 4 18266458702623303353
2748010 2 18266180539182415717
5084963 1 17698433339235542986
528886 8 18267580380709240570
53812653 166 18198902694142226312
66348 1 18339079396917369615

> <PUBCHEM_SHAPE_MULTIPOLES>
256.45
4.01
2.83
0.58
0.71
0.08
0
-0.48
0
-0.81
0
0.01
0
0

> <PUBCHEM_SHAPE_SELFOVERLAP>
550.88

> <PUBCHEM_SHAPE_VOLUME>
143.9

> <PUBCHEM_COORDINATE_TYPE>
2
5
10

> <Energy>
-122.511

> <minimizedAffinity>
-5.91278

> <CNNscore>
0.3362476230

> <CNNaffinity>
4.8404307365

> <CNN_VS>
1.6275833845

> <CNNaffinity_variance>
0.2501496375

$$$$
2519


 14 15  0  0  0  0  0  0  0  0999 V2000
  104.2637   15.7660   25.7103 O   0  0  0  0  0  0  0  0  0  0  0  0
  102.4164   14.7109   21.5981 O   0  0  0  0  0  0  0  0  0  0  0  0
  104.2774   13.5357   22.2771 N   0  0  0  0  0  0  0  0  0  0  0  0
  106.2825   13.6389   25.1255 N   0  0  0  0  0  0  0  0  0  0  0  0
  103.3196   15.2526   23.6484 N   0  0  0  0  0  0  0  0  0  0  0  0
  106.2424   12.4553   23.2424 N   0  0  0  0  0  0  0  0  0  0  0  0
  105.2172   14.0958   24.4042 C   0  0  0  0  0  0  0  0  0  0  0  0
  105.2201   13.3549   23.2620 C   0  0  0  0  0  0  0  0  0  0  0  0
  104.2560   15.1051   24.6762 C   0  0  0  0  0  0  0  0  0  0  0  0
  103.2871   14.5062   22.4498 C   0  0  0  0  0  0  0  0  0  0  0  0
  106.8720   12.6487   24.3847 C   0  0  0  0  0  0  0  0  0  0  0  0
  104.3189   12.7220   21.0745 C   0  0  0  0  0  0  0  0  0  0  0  0
  106.7122   14.1033   26.4198 C   0  0  0  0  0  0  0  0  0  0  0  0
  102.2852   16.2554   23.8143 C   0  0  0  0  0  0  0  0  0  0  0  0
  1  9  2  0
  2 10  2  0
  3  8  1  0
  3 10  1  0
  3 12  1  0
  4  7  1  0
  4 11  1  0
  4 13  1  0
  5  9  1  0
  5 10  1  0
  5 14  1  0
  6  8  1  0
  6 11  2  0
  7  8  2  0
  7  9  1  0
M  END
> <PUBCHEM_COMPOUND_CID>
2519

> <PUBCHEM_CONFORMER_RMSD>
0.4

> <PUBCHEM_CONFORMER_DIVERSEORDER>
1

> <PUBCHEM_MMFF94_PARTIAL_CHARGES>
15
1 -0.57
10 0.69
11 0.04
12 0.3
13 0.26
14 0.3
15 0.15
2 -0.57
3 -0.42
4 0.05
5 -0.42
6 -0.57
7 -0.24
8 0.29
9 0.71

> <PUBCHEM_EFFECTIVE_ROTOR_COUNT>
0

> <PUBCHEM_PHARMACOPHORE_FEATURES>
5
1 1 acceptor
1 2 acceptor
3 4 6 11 cation
5 4 6 7 8 11 rings
6 3 5 7 8 9 10 rings

> <PUBCHEM_HEAVY_ATOM_COUNT>
14

> <PUBCHEM_ATOM_DEF_STEREO_COUNT>
0

> <PUBCHEM_ATOM_UDEF_STEREO_COUNT>
0

> <PUBCHEM_BOND_DEF_STEREO_COUNT>
0

> <PUBCHEM_BOND_UDEF_STEREO_COUNT>
0

> <PUBCHEM_ISOTOPIC_ATOM_COUNT>
0

> <PUBCHEM_COMPONENT_COUNT>
1

> <PUBCHEM_CACTVS_TAUTO_COUNT>
1

> <PUBCHEM_CONFORMER_ID>
000009D700000001

> <PUBCHEM_MMFF94_ENERGY>
22.901

> <PUBCHEM_FEATURE_SELFOVERLAP>
25.487

> <PUBCHEM_SHAPE_FINGERPRINT>
10967382 1 18338799025773621285
11132069 177 18339075025094499008
12524768 44 18342463625094026902
13140716 1 17978511158789908153
16945 1 18338517550775811621
193761 8 15816500986559935910
20588541 1 18339082691204868851
21501502 16 18338796715286957384
22802520 49 18128840606503503494
2334 1 18338516344016692929
23402539 116 18270382932679789735
23552423 10 18262240993325675966
23559900 14 18199193898169584358
241688 4 18266458702623303353
2748010 2 18266180539182415717
5084963 1 17698433339235542986
528886 8 18267580380709240570
53812653 166 18198902694142226312
66348 1 18339079396917369615

> <PUBCHEM_SHAPE_MULTIPOLES>
256.45
4.01
2.83
0.58
0.71
0.08
0
-0.48
0
-0.81
0
0.01
0
0

> <PUBCHEM_SHAPE_SELFOVERLAP>
550.88

> <PUBCHEM_SHAPE_VOLUME>
143.9

> <PUBCHEM_COORDINATE_TYPE>
2
5
10

> <Energy>
-122.511

> <minimizedAffinity>
-5.80616

> <CNNscore>
0.3225781322

> <CNNaffinity>
5.0896134377

> <CNN_VS>
1.6417980194

> <CNNaffinity_variance>
0.0687455311

$$$$
2519


 14 15  0  0  0  0  0  0  0  0999 V2000
  102.5292   14.6652   21.5232 O   0  0  0  0  0  0  0  0  0  0  0  0
  103.8419   16.3439   25.6335 O   0  0  0  0  0  0  0  0  0  0  0  0
  105.4806   15.5670   24.2135 N   0  0  0  0  0  0  0  0  0  0  0  0
  105.4352   14.1703   21.0209 N   0  0  0  0  0  0  0  0  0  0  0  0
  103.1660   15.5125   23.5927 N   0  0  0  0  0  0  0  0  0  0  0  0
  106.9985   14.6812   22.5188 N   0  0  0  0  0  0  0  0  0  0  0  0
  104.7823   14.7033   22.0949 C   0  0  0  0  0  0  0  0  0  0  0  0
  105.7625   15.0041   22.9906 C   0  0  0  0  0  0  0  0  0  0  0  0
  103.4036   14.9402   22.3393 C   0  0  0  0  0  0  0  0  0  0  0  0
  104.1520   15.8394   24.5496 C   0  0  0  0  0  0  0  0  0  0  0  0
  106.7717   14.1767   21.3219 C   0  0  0  0  0  0  0  0  0  0  0  0
  106.5587   15.8715   25.1381 C   0  0  0  0  0  0  0  0  0  0  0  0
  104.8406   13.6903   19.7997 C   0  0  0  0  0  0  0  0  0  0  0  0
  101.7918   15.8017   23.9549 C   0  0  0  0  0  0  0  0  0  0  0  0
  1  9  2  0
  2 10  2  0
  3  8  1  0
  3 10  1  0
  3 12  1  0
  4  7  1  0
  4 11  1  0
  4 13  1  0
  5  9  1  0
  5 10  1  0
  5 14  1  0
  6  8  1  0
  6 11  2  0
  7  8  2  0
  7  9  1  0
M  END
> <PUBCHEM_COMPOUND_CID>
2519

> <PUBCHEM_CONFORMER_RMSD>
0.4

> <PUBCHEM_CONFORMER_DIVERSEORDER>
1

> <PUBCHEM_MMFF94_PARTIAL_CHARGES>
15
1 -0.57
10 0.69
11 0.04
12 0.3
13 0.26
14 0.3
15 0.15
2 -0.57
3 -0.42
4 0.05
5 -0.42
6 -0.57
7 -0.24
8 0.29
9 0.71

> <PUBCHEM_EFFECTIVE_ROTOR_COUNT>
0

> <PUBCHEM_PHARMACOPHORE_FEATURES>
5
1 1 acceptor
1 2 acceptor
3 4 6 11 cation
5 4 6 7 8 11 rings
6 3 5 7 8 9 10 rings

> <PUBCHEM_HEAVY_ATOM_COUNT>
14

> <PUBCHEM_ATOM_DEF_STEREO_COUNT>
0

> <PUBCHEM_ATOM_UDEF_STEREO_COUNT>
0

> <PUBCHEM_BOND_DEF_STEREO_COUNT>
0

> <PUBCHEM_BOND_UDEF_STEREO_COUNT>
0

> <PUBCHEM_ISOTOPIC_ATOM_COUNT>
0

> <PUBCHEM_COMPONENT_COUNT>
1

> <PUBCHEM_CACTVS_TAUTO_COUNT>
1

> <PUBCHEM_CONFORMER_ID>
000009D700000001

> <PUBCHEM_MMFF94_ENERGY>
22.901

> <PUBCHEM_FEATURE_SELFOVERLAP>
25.487

> <PUBCHEM_SHAPE_FINGERPRINT>
10967382 1 18338799025773621285
11132069 177 18339075025094499008
12524768 44 18342463625094026902
13140716 1 17978511158789908153
16945 1 18338517550775811621
193761 8 15816500986559935910
20588541 1 18339082691204868851
21501502 16 18338796715286957384
22802520 49 18128840606503503494
2334 1 18338516344016692929
23402539 116 18270382932679789735
23552423 10 18262240993325675966
23559900 14 18199193898169584358
241688 4 18266458702623303353
2748010 2 18266180539182415717
5084963 1 17698433339235542986
528886 8 18267580380709240570
53812653 166 18198902694142226312
66348 1 18339079396917369615

> <PUBCHEM_SHAPE_MULTIPOLES>
256.45
4.01
2.83
0.58
0.71
0.08
0
-0.48
0
-0.81
0
0.01
0
0

> <PUBCHEM_SHAPE_SELFOVERLAP>
550.88

> <PUBCHEM_SHAPE_VOLUME>
143.9

> <PUBCHEM_COORDINATE_TYPE>
2
5
10

> <Energy>
-122.511

> <minimizedAffinity>
-5.76499

> <CNNscore>
0.3019499183

> <CNNaffinity>
4.9848327637

> <CNN_VS>
1.5051698685

> <CNNaffinity_variance>
0.0271061808

$$$$
2519


 14 15  0  0  0  0  0  0  0  0999 V2000
  103.4561   13.0840   21.6946 O   0  0  0  0  0  0  0  0  0  0  0  0
  107.3301   12.2702   24.0958 O   0  0  0  0  0  0  0  0  0  0  0  0
  105.9142   13.9182   24.8605 N   0  0  0  0  0  0  0  0  0  0  0  0
  102.8693   15.1877   23.7371 N   0  0  0  0  0  0  0  0  0  0  0  0
  105.4075   12.6586   22.8851 N   0  0  0  0  0  0  0  0  0  0  0  0
  104.2407   15.5989   25.4396 N   0  0  0  0  0  0  0  0  0  0  0  0
  103.9183   14.3238   23.6060 C   0  0  0  0  0  0  0  0  0  0  0  0
  104.7368   14.5998   24.6584 C   0  0  0  0  0  0  0  0  0  0  0  0
  104.2026   13.3238   22.6387 C   0  0  0  0  0  0  0  0  0  0  0  0
  106.2842   12.9136   23.9626 C   0  0  0  0  0  0  0  0  0  0  0  0
  103.1070   15.9383   24.8583 C   0  0  0  0  0  0  0  0  0  0  0  0
  106.7566   14.2461   25.9975 C   0  0  0  0  0  0  0  0  0  0  0  0
  101.7259   15.2962   22.8675 C   0  0  0  0  0  0  0  0  0  0  0  0
  105.8040   11.6127   21.9620 C   0  0  0  0  0  0  0  0  0  0  0  0
  1  9  2  0
  2 10  2  0
  3  8  1  0
  3 10  1  0
  3 12  1  0
  4  7  1  0
  4 11  1  0
  4 13  1  0
  5  9  1  0
  5 10  1  0
  5 14  1  0
  6  8  1  0
  6 11  2  0
  7  8  2  0
  7  9  1  0
M  END
> <PUBCHEM_COMPOUND_CID>
2519

> <PUBCHEM_CONFORMER_RMSD>
0.4

> <PUBCHEM_CONFORMER_DIVERSEORDER>
1

> <PUBCHEM_MMFF94_PARTIAL_CHARGES>
15
1 -0.57
10 0.69
11 0.04
12 0.3
13 0.26
14 0.3
15 0.15
2 -0.57
3 -0.42
4 0.05
5 -0.42
6 -0.57
7 -0.24
8 0.29
9 0.71

> <PUBCHEM_EFFECTIVE_ROTOR_COUNT>
0

> <PUBCHEM_PHARMACOPHORE_FEATURES>
5
1 1 acceptor
1 2 acceptor
3 4 6 11 cation
5 4 6 7 8 11 rings
6 3 5 7 8 9 10 rings

> <PUBCHEM_HEAVY_ATOM_COUNT>
14

> <PUBCHEM_ATOM_DEF_STEREO_COUNT>
0

> <PUBCHEM_ATOM_UDEF_STEREO_COUNT>
0

> <PUBCHEM_BOND_DEF_STEREO_COUNT>
0

> <PUBCHEM_BOND_UDEF_STEREO_COUNT>
0

> <PUBCHEM_ISOTOPIC_ATOM_COUNT>
0

> <PUBCHEM_COMPONENT_COUNT>
1

> <PUBCHEM_CACTVS_TAUTO_COUNT>
1

> <PUBCHEM_CONFORMER_ID>
000009D700000001

> <PUBCHEM_MMFF94_ENERGY>
22.901

> <PUBCHEM_FEATURE_SELFOVERLAP>
25.487

> <PUBCHEM_SHAPE_FINGERPRINT>
10967382 1 18338799025773621285
11132069 177 18339075025094499008
12524768 44 18342463625094026902
13140716 1 17978511158789908153
16945 1 18338517550775811621
193761 8 15816500986559935910
20588541 1 18339082691204868851
21501502 16 18338796715286957384
22802520 49 18128840606503503494
2334 1 18338516344016692929
23402539 116 18270382932679789735
23552423 10 18262240993325675966
23559900 14 18199193898169584358
241688 4 18266458702623303353
2748010 2 18266180539182415717
5084963 1 17698433339235542986
528886 8 18267580380709240570
53812653 166 18198902694142226312
66348 1 18339079396917369615

> <PUBCHEM_SHAPE_MULTIPOLES>
256.45
4.01
2.83
0.58
0.71
0.08
0
-0.48
0
-0.81
0
0.01
0
0

> <PUBCHEM_SHAPE_SELFOVERLAP>
550.88

> <PUBCHEM_SHAPE_VOLUME>
143.9

> <PUBCHEM_COORDINATE_TYPE>
2
5
10

> <Energy>
-122.511

> <minimizedAffinity>
-6.04111

> <CNNscore>
0.2993306518

> <CNNaffinity>
5.1276464462

> <CNN_VS>
1.5348618031

> <CNNaffinity_variance>
0.0977027044

$$$$
