2519


 14 15  0  0  0  0  0  0  0  0999 V2000
   23.5425    5.7640    2.9333 O   0  0  0  0  0  0  0  0  0  0  0  0
   26.2764    2.3330    4.4130 O   0  0  0  0  0  0  0  0  0  0  0  0
   24.0947    2.3672    5.1509 N   0  0  0  0  0  0  0  0  0  0  0  0
   21.3951    4.4969    4.5841 N   0  0  0  0  0  0  0  0  0  0  0  0
   24.9332    4.0500    3.6640 N   0  0  0  0  0  0  0  0  0  0  0  0
   21.7500    2.6487    5.7702 N   0  0  0  0  0  0  0  0  0  0  0  0
   22.6984    4.1479    4.3756 C   0  0  0  0  0  0  0  0  0  0  0  0
   22.8838    3.0181    5.1123 C   0  0  0  0  0  0  0  0  0  0  0  0
   23.7223    4.7454    3.5939 C   0  0  0  0  0  0  0  0  0  0  0  0
   25.1674    2.8767    4.4147 C   0  0  0  0  0  0  0  0  0  0  0  0
   20.8618    3.5630    5.4329 C   0  0  0  0  0  0  0  0  0  0  0  0
   24.2469    1.1642    5.9508 C   0  0  0  0  0  0  0  0  0  0  0  0
   20.7037    5.6292    4.0227 C   0  0  0  0  0  0  0  0  0  0  0  0
   26.0552    4.5666    2.9042 C   0  0  0  0  0  0  0  0  0  0  0  0
  1  9  2  0
  2 10  2  0
  3  8  1  0
  3 10  1  0
  3 12  1  0
  4  7  1  0
  4 11  1  0
  4 13  1  0
  5  9  1  0
  5 10  1  0
  5 14  1  0
  6  8  1  0
  6 11  2  0
  7  8  2  0
  7  9  1  0
M  END
> <PUBCHEM_COMPOUND_CID>
2519

> <PUBCHEM_CONFORMER_RMSD>
0.4

> <PUBCHEM_CONFORMER_DIVERSEORDER>
1

> <PUBCHEM_MMFF94_PARTIAL_CHARGES>
15
1 -0.57
10 0.69
11 0.04
12 0.3
13 0.26
14 0.3
15 0.15
2 -0.57
3 -0.42
4 0.05
5 -0.42
6 -0.57
7 -0.24
8 0.29
9 0.71

> <PUBCHEM_EFFECTIVE_ROTOR_COUNT>
0

> <PUBCHEM_PHARMACOPHORE_FEATURES>
5
1 1 acceptor
1 2 acceptor
3 4 6 11 cation
5 4 6 7 8 11 rings
6 3 5 7 8 9 10 rings

> <PUBCHEM_HEAVY_ATOM_COUNT>
14

> <PUBCHEM_ATOM_DEF_STEREO_COUNT>
0

> <PUBCHEM_ATOM_UDEF_STEREO_COUNT>
0

> <PUBCHEM_BOND_DEF_STEREO_COUNT>
0

> <PUBCHEM_BOND_UDEF_STEREO_COUNT>
0

> <PUBCHEM_ISOTOPIC_ATOM_COUNT>
0

> <PUBCHEM_COMPONENT_COUNT>
1

> <PUBCHEM_CACTVS_TAUTO_COUNT>
1

> <PUBCHEM_CONFORMER_ID>
000009D700000001

> <PUBCHEM_MMFF94_ENERGY>
22.901

> <PUBCHEM_FEATURE_SELFOVERLAP>
25.487

> <PUBCHEM_SHAPE_FINGERPRINT>
10967382 1 18338799025773621285
11132069 177 18339075025094499008
12524768 44 18342463625094026902
13140716 1 17978511158789908153
16945 1 18338517550775811621
193761 8 15816500986559935910
20588541 1 18339082691204868851
21501502 16 18338796715286957384
22802520 49 18128840606503503494
2334 1 18338516344016692929
23402539 116 18270382932679789735
23552423 10 18262240993325675966
23559900 14 18199193898169584358
241688 4 18266458702623303353
2748010 2 18266180539182415717
5084963 1 17698433339235542986
528886 8 18267580380709240570
53812653 166 18198902694142226312
66348 1 18339079396917369615

> <PUBCHEM_SHAPE_MULTIPOLES>
256.45
4.01
2.83
0.58
0.71
0.08
0
-0.48
0
-0.81
0
0.01
0
0

> <PUBCHEM_SHAPE_SELFOVERLAP>
550.88

> <PUBCHEM_SHAPE_VOLUME>
143.9

> <PUBCHEM_COORDINATE_TYPE>
2
5
10

> <Energy>
-122.511

> <minimizedAffinity>
-5.66669

> <CNNscore>
0.6986697912

> <CNNaffinity>
5.1738586426

> <CNN_VS>
3.6148188114

> <CNNaffinity_variance>
0.1904350668

$$$$
2519


 14 15  0  0  0  0  0  0  0  0999 V2000
   21.5449    2.6096    5.9419 O   0  0  0  0  0  0  0  0  0  0  0  0
   25.8471    2.0654    4.3201 O   0  0  0  0  0  0  0  0  0  0  0  0
   24.6766    3.9375    3.6638 N   0  0  0  0  0  0  0  0  0  0  0  0
   21.4813    5.1440    4.3562 N   0  0  0  0  0  0  0  0  0  0  0  0
   23.7072    2.3161    5.1393 N   0  0  0  0  0  0  0  0  0  0  0  0
   23.2138    5.8193    3.1351 N   0  0  0  0  0  0  0  0  0  0  0  0
   22.4556    4.2003    4.5120 C   0  0  0  0  0  0  0  0  0  0  0  0
   23.4981    4.6406    3.7551 C   0  0  0  0  0  0  0  0  0  0  0  0
   22.4914    2.9954    5.2627 C   0  0  0  0  0  0  0  0  0  0  0  0
   24.8116    2.7371    4.3661 C   0  0  0  0  0  0  0  0  0  0  0  0
   21.9838    6.1026    3.5163 C   0  0  0  0  0  0  0  0  0  0  0  0
   25.7630    4.4453    2.8441 C   0  0  0  0  0  0  0  0  0  0  0  0
   20.1718    5.1409    4.9567 C   0  0  0  0  0  0  0  0  0  0  0  0
   23.8621    1.0692    5.8634 C   0  0  0  0  0  0  0  0  0  0  0  0
  1  9  2  0
  2 10  2  0
  3  8  1  0
  3 10  1  0
  3 12  1  0
  4  7  1  0
  4 11  1  0
  4 13  1  0
  5  9  1  0
  5 10  1  0
  5 14  1  0
  6  8  1  0
  6 11  2  0
  7  8  2  0
  7  9  1  0
M  END
> <PUBCHEM_COMPOUND_CID>
2519

> <PUBCHEM_CONFORMER_RMSD>
0.4

> <PUBCHEM_CONFORMER_DIVERSEORDER>
1

> <PUBCHEM_MMFF94_PARTIAL_CHARGES>
15
1 -0.57
10 0.69
11 0.04
12 0.3
13 0.26
14 0.3
15 0.15
2 -0.57
3 -0.42
4 0.05
5 -0.42
6 -0.57
7 -0.24
8 0.29
9 0.71

> <PUBCHEM_EFFECTIVE_ROTOR_COUNT>
0

> <PUBCHEM_PHARMACOPHORE_FEATURES>
5
1 1 acceptor
1 2 acceptor
3 4 6 11 cation
5 4 6 7 8 11 rings
6 3 5 7 8 9 10 rings

> <PUBCHEM_HEAVY_ATOM_COUNT>
14

> <PUBCHEM_ATOM_DEF_STEREO_COUNT>
0

> <PUBCHEM_ATOM_UDEF_STEREO_COUNT>
0

> <PUBCHEM_BOND_DEF_STEREO_COUNT>
0

> <PUBCHEM_BOND_UDEF_STEREO_COUNT>
0

> <PUBCHEM_ISOTOPIC_ATOM_COUNT>
0

> <PUBCHEM_COMPONENT_COUNT>
1

> <PUBCHEM_CACTVS_TAUTO_COUNT>
1

> <PUBCHEM_CONFORMER_ID>
000009D700000001

> <PUBCHEM_MMFF94_ENERGY>
22.901

> <PUBCHEM_FEATURE_SELFOVERLAP>
25.487

> <PUBCHEM_SHAPE_FINGERPRINT>
10967382 1 18338799025773621285
11132069 177 18339075025094499008
12524768 44 18342463625094026902
13140716 1 17978511158789908153
16945 1 18338517550775811621
193761 8 15816500986559935910
20588541 1 18339082691204868851
21501502 16 18338796715286957384
22802520 49 18128840606503503494
2334 1 18338516344016692929
23402539 116 18270382932679789735
23552423 10 18262240993325675966
23559900 14 18199193898169584358
241688 4 18266458702623303353
2748010 2 18266180539182415717
5084963 1 17698433339235542986
528886 8 18267580380709240570
53812653 166 18198902694142226312
66348 1 18339079396917369615

> <PUBCHEM_SHAPE_MULTIPOLES>
256.45
4.01
2.83
0.58
0.71
0.08
0
-0.48
0
-0.81
0
0.01
0
0

> <PUBCHEM_SHAPE_SELFOVERLAP>
550.88

> <PUBCHEM_SHAPE_VOLUME>
143.9

> <PUBCHEM_COORDINATE_TYPE>
2
5
10

> <Energy>
-122.511

> <minimizedAffinity>
-5.60826

> <CNNscore>
0.6051872969

> <CNNaffinity>
5.0321116447

> <CNN_VS>
3.0453701019

> <CNNaffinity_variance>
0.2061165124

$$$$
2519


 14 15  0  0  0  0  0  0  0  0999 V2000
   21.4912    5.6692    3.2639 O   0  0  0  0  0  0  0  0  0  0  0  0
   24.7785    3.0977    5.2679 O   0  0  0  0  0  0  0  0  0  0  0  0
   22.7073    3.1734    6.2728 N   0  0  0  0  0  0  0  0  0  0  0  0
   19.7182    4.7933    5.5070 N   0  0  0  0  0  0  0  0  0  0  0  0
   23.1571    4.3840    4.2534 N   0  0  0  0  0  0  0  0  0  0  0  0
   20.4312    3.4337    7.1169 N   0  0  0  0  0  0  0  0  0  0  0  0
   21.0226    4.5077    5.2224 C   0  0  0  0  0  0  0  0  0  0  0  0
   21.4286    3.6774    6.2221 C   0  0  0  0  0  0  0  0  0  0  0  0
   21.8694    4.9206    4.1599 C   0  0  0  0  0  0  0  0  0  0  0  0
   23.6183    3.5209    5.2719 C   0  0  0  0  0  0  0  0  0  0  0  0
   19.4043    4.1230    6.6599 C   0  0  0  0  0  0  0  0  0  0  0  0
   23.0969    2.2903    7.3583 C   0  0  0  0  0  0  0  0  0  0  0  0
   18.8329    5.6373    4.7458 C   0  0  0  0  0  0  0  0  0  0  0  0
   24.1131    4.7352    3.2210 C   0  0  0  0  0  0  0  0  0  0  0  0
  1  9  2  0
  2 10  2  0
  3  8  1  0
  3 10  1  0
  3 12  1  0
  4  7  1  0
  4 11  1  0
  4 13  1  0
  5  9  1  0
  5 10  1  0
  5 14  1  0
  6  8  1  0
  6 11  2  0
  7  8  2  0
  7  9  1  0
M  END
> <PUBCHEM_COMPOUND_CID>
2519

> <PUBCHEM_CONFORMER_RMSD>
0.4

> <PUBCHEM_CONFORMER_DIVERSEORDER>
1

> <PUBCHEM_MMFF94_PARTIAL_CHARGES>
15
1 -0.57
10 0.69
11 0.04
12 0.3
13 0.26
14 0.3
15 0.15
2 -0.57
3 -0.42
4 0.05
5 -0.42
6 -0.57
7 -0.24
8 0.29
9 0.71

> <PUBCHEM_EFFECTIVE_ROTOR_COUNT>
0

> <PUBCHEM_PHARMACOPHORE_FEATURES>
5
1 1 acceptor
1 2 acceptor
3 4 6 11 cation
5 4 6 7 8 11 rings
6 3 5 7 8 9 10 rings

> <PUBCHEM_HEAVY_ATOM_COUNT>
14

> <PUBCHEM_ATOM_DEF_STEREO_COUNT>
0

> <PUBCHEM_ATOM_UDEF_STEREO_COUNT>
0

> <PUBCHEM_BOND_DEF_STEREO_COUNT>
0

> <PUBCHEM_BOND_UDEF_STEREO_COUNT>
0

> <PUBCHEM_ISOTOPIC_ATOM_COUNT>
0

> <PUBCHEM_COMPONENT_COUNT>
1

> <PUBCHEM_CACTVS_TAUTO_COUNT>
1

> <PUBCHEM_CONFORMER_ID>
000009D700000001

> <PUBCHEM_MMFF94_ENERGY>
22.901

> <PUBCHEM_FEATURE_SELFOVERLAP>
25.487

> <PUBCHEM_SHAPE_FINGERPRINT>
10967382 1 18338799025773621285
11132069 177 18339075025094499008
12524768 44 18342463625094026902
13140716 1 17978511158789908153
16945 1 18338517550775811621
193761 8 15816500986559935910
20588541 1 18339082691204868851
21501502 16 18338796715286957384
22802520 49 18128840606503503494
2334 1 18338516344016692929
23402539 116 18270382932679789735
23552423 10 18262240993325675966
23559900 14 18199193898169584358
241688 4 18266458702623303353
2748010 2 18266180539182415717
5084963 1 17698433339235542986
528886 8 18267580380709240570
53812653 166 18198902694142226312
66348 1 18339079396917369615

> <PUBCHEM_SHAPE_MULTIPOLES>
256.45
4.01
2.83
0.58
0.71
0.08
0
-0.48
0
-0.81
0
0.01
0
0

> <PUBCHEM_SHAPE_SELFOVERLAP>
550.88

> <PUBCHEM_SHAPE_VOLUME>
143.9

> <PUBCHEM_COORDINATE_TYPE>
2
5
10

> <Energy>
-122.511

> <minimizedAffinity>
-5.60390

> <CNNscore>
0.5661913753

> <CNNaffinity>
5.2080550194

> <CNN_VS>
2.9487557411

> <CNNaffinity_variance>
0.1100748777

$$$$
2519


 14 15  0  0  0  0  0  0  0  0999 V2000
   20.6695    2.5270    6.0594 O   0  0  0  0  0  0  0  0  0  0  0  0
   21.9719    6.4623    3.9973 O   0  0  0  0  0  0  0  0  0  0  0  0
   23.5134    4.7564    4.1350 N   0  0  0  0  0  0  0  0  0  0  0  0
   23.4295    1.5384    5.4701 N   0  0  0  0  0  0  0  0  0  0  0  0
   21.3024    4.5124    5.0280 N   0  0  0  0  0  0  0  0  0  0  0  0
   24.9364    2.7930    4.4195 N   0  0  0  0  0  0  0  0  0  0  0  0
   22.8216    2.7316    5.2043 C   0  0  0  0  0  0  0  0  0  0  0  0
   23.7660    3.4743    4.5640 C   0  0  0  0  0  0  0  0  0  0  0  0
   21.5125    3.2067    5.4818 C   0  0  0  0  0  0  0  0  0  0  0  0
   22.2532    5.3160    4.3609 C   0  0  0  0  0  0  0  0  0  0  0  0
   24.7054    1.6212    4.9783 C   0  0  0  0  0  0  0  0  0  0  0  0
   24.5513    5.5121    3.4556 C   0  0  0  0  0  0  0  0  0  0  0  0
   22.8479    0.4030    6.1395 C   0  0  0  0  0  0  0  0  0  0  0  0
   19.9987    5.1059    5.2545 C   0  0  0  0  0  0  0  0  0  0  0  0
  1  9  2  0
  2 10  2  0
  3  8  1  0
  3 10  1  0
  3 12  1  0
  4  7  1  0
  4 11  1  0
  4 13  1  0
  5  9  1  0
  5 10  1  0
  5 14  1  0
  6  8  1  0
  6 11  2  0
  7  8  2  0
  7  9  1  0
M  END
> <PUBCHEM_COMPOUND_CID>
2519

> <PUBCHEM_CONFORMER_RMSD>
0.4

> <PUBCHEM_CONFORMER_DIVERSEORDER>
1

> <PUBCHEM_MMFF94_PARTIAL_CHARGES>
15
1 -0.57
10 0.69
11 0.04
12 0.3
13 0.26
14 0.3
15 0.15
2 -0.57
3 -0.42
4 0.05
5 -0.42
6 -0.57
7 -0.24
8 0.29
9 0.71

> <PUBCHEM_EFFECTIVE_ROTOR_COUNT>
0

> <PUBCHEM_PHARMACOPHORE_FEATURES>
5
1 1 acceptor
1 2 acceptor
3 4 6 11 cation
5 4 6 7 8 11 rings
6 3 5 7 8 9 10 rings

> <PUBCHEM_HEAVY_ATOM_COUNT>
14

> <PUBCHEM_ATOM_DEF_STEREO_COUNT>
0

> <PUBCHEM_ATOM_UDEF_STEREO_COUNT>
0

> <PUBCHEM_BOND_DEF_STEREO_COUNT>
0

> <PUBCHEM_BOND_UDEF_STEREO_COUNT>
0

> <PUBCHEM_ISOTOPIC_ATOM_COUNT>
0

> <PUBCHEM_COMPONENT_COUNT>
1

> <PUBCHEM_CACTVS_TAUTO_COUNT>
1

> <PUBCHEM_CONFORMER_ID>
000009D700000001

> <PUBCHEM_MMFF94_ENERGY>
22.901

> <PUBCHEM_FEATURE_SELFOVERLAP>
25.487

> <PUBCHEM_SHAPE_FINGERPRINT>
10967382 1 18338799025773621285
11132069 177 18339075025094499008
12524768 44 18342463625094026902
13140716 1 17978511158789908153
16945 1 18338517550775811621
193761 8 15816500986559935910
20588541 1 18339082691204868851
21501502 16 18338796715286957384
22802520 49 18128840606503503494
2334 1 18338516344016692929
23402539 116 18270382932679789735
23552423 10 18262240993325675966
23559900 14 18199193898169584358
241688 4 18266458702623303353
2748010 2 18266180539182415717
5084963 1 17698433339235542986
528886 8 18267580380709240570
53812653 166 18198902694142226312
66348 1 18339079396917369615

> <PUBCHEM_SHAPE_MULTIPOLES>
256.45
4.01
2.83
0.58
0.71
0.08
0
-0.48
0
-0.81
0
0.01
0
0

> <PUBCHEM_SHAPE_SELFOVERLAP>
550.88

> <PUBCHEM_SHAPE_VOLUME>
143.9

> <PUBCHEM_COORDINATE_TYPE>
2
5
10

> <Energy>
-122.511

> <minimizedAffinity>
-5.29805

> <CNNscore>
0.5520840883

> <CNNaffinity>
5.0308504105

> <CNN_VS>
2.7774524689

> <CNNaffinity_variance>
0.0381808281

$$$$
2519


 14 15  0  0  0  0  0  0  0  0999 V2000
   24.6931    1.5427    4.3968 O   0  0  0  0  0  0  0  0  0  0  0  0
   24.4070    5.9931    3.1529 O   0  0  0  0  0  0  0  0  0  0  0  0
   22.6200    5.0709    4.2760 N   0  0  0  0  0  0  0  0  0  0  0  0
   21.9635    1.9001    5.5644 N   0  0  0  0  0  0  0  0  0  0  0  0
   24.5707    3.7762    3.7624 N   0  0  0  0  0  0  0  0  0  0  0  0
   20.8819    3.8418    5.4714 N   0  0  0  0  0  0  0  0  0  0  0  0
   22.7868    2.7704    4.9097 C   0  0  0  0  0  0  0  0  0  0  0  0
   22.0989    3.9446    4.8688 C   0  0  0  0  0  0  0  0  0  0  0  0
   24.0828    2.6065    4.3529 C   0  0  0  0  0  0  0  0  0  0  0  0
   23.8909    5.0125    3.6983 C   0  0  0  0  0  0  0  0  0  0  0  0
   20.8246    2.5909    5.8845 C   0  0  0  0  0  0  0  0  0  0  0  0
   21.8503    6.3027    4.2560 C   0  0  0  0  0  0  0  0  0  0  0  0
   22.2326    0.5173    5.8658 C   0  0  0  0  0  0  0  0  0  0  0  0
   25.8890    3.7308    3.1596 C   0  0  0  0  0  0  0  0  0  0  0  0
  1  9  2  0
  2 10  2  0
  3  8  1  0
  3 10  1  0
  3 12  1  0
  4  7  1  0
  4 11  1  0
  4 13  1  0
  5  9  1  0
  5 10  1  0
  5 14  1  0
  6  8  1  0
  6 11  2  0
  7  8  2  0
  7  9  1  0
M  END
> <PUBCHEM_COMPOUND_CID>
2519

> <PUBCHEM_CONFORMER_RMSD>
0.4

> <PUBCHEM_CONFORMER_DIVERSEORDER>
1

> <PUBCHEM_MMFF94_PARTIAL_CHARGES>
15
1 -0.57
10 0.69
11 0.04
12 0.3
13 0.26
14 0.3
15 0.15
2 -0.57
3 -0.42
4 0.05
5 -0.42
6 -0.57
7 -0.24
8 0.29
9 0.71

> <PUBCHEM_EFFECTIVE_ROTOR_COUNT>
0

> <PUBCHEM_PHARMACOPHORE_FEATURES>
5
1 1 acceptor
1 2 acceptor
3 4 6 11 cation
5 4 6 7 8 11 rings
6 3 5 7 8 9 10 rings

> <PUBCHEM_HEAVY_ATOM_COUNT>
14

> <PUBCHEM_ATOM_DEF_STEREO_COUNT>
0

> <PUBCHEM_ATOM_UDEF_STEREO_COUNT>
0

> <PUBCHEM_BOND_DEF_STEREO_COUNT>
0

> <PUBCHEM_BOND_UDEF_STEREO_COUNT>
0

> <PUBCHEM_ISOTOPIC_ATOM_COUNT>
0

> <PUBCHEM_COMPONENT_COUNT>
1

> <PUBCHEM_CACTVS_TAUTO_COUNT>
1

> <PUBCHEM_CONFORMER_ID>
000009D700000001

> <PUBCHEM_MMFF94_ENERGY>
22.901

> <PUBCHEM_FEATURE_SELFOVERLAP>
25.487

> <PUBCHEM_SHAPE_FINGERPRINT>
10967382 1 18338799025773621285
11132069 177 18339075025094499008
12524768 44 18342463625094026902
13140716 1 17978511158789908153
16945 1 18338517550775811621
193761 8 15816500986559935910
20588541 1 18339082691204868851
21501502 16 18338796715286957384
22802520 49 18128840606503503494
2334 1 18338516344016692929
23402539 116 18270382932679789735
23552423 10 18262240993325675966
23559900 14 18199193898169584358
241688 4 18266458702623303353
2748010 2 18266180539182415717
5084963 1 17698433339235542986
528886 8 18267580380709240570
53812653 166 18198902694142226312
66348 1 18339079396917369615

> <PUBCHEM_SHAPE_MULTIPOLES>
256.45
4.01
2.83
0.58
0.71
0.08
0
-0.48
0
-0.81
0
0.01
0
0

> <PUBCHEM_SHAPE_SELFOVERLAP>
550.88

> <PUBCHEM_SHAPE_VOLUME>
143.9

> <PUBCHEM_COORDINATE_TYPE>
2
5
10

> <Energy>
-122.511

> <minimizedAffinity>
-5.50663

> <CNNscore>
0.5389116406

> <CNNaffinity>
5.0413069725

> <CNN_VS>
2.7168190479

> <CNNaffinity_variance>
0.1014861986

$$$$
2519


 14 15  0  0  0  0  0  0  0  0999 V2000
   21.7190    4.8855    3.2673 O   0  0  0  0  0  0  0  0  0  0  0  0
   26.0294    3.3179    3.8986 O   0  0  0  0  0  0  0  0  0  0  0  0
   24.5230    3.0522    5.6206 N   0  0  0  0  0  0  0  0  0  0  0  0
   21.1668    3.8949    6.0342 N   0  0  0  0  0  0  0  0  0  0  0  0
   23.8894    4.1057    3.5629 N   0  0  0  0  0  0  0  0  0  0  0  0
   22.7288    2.9039    7.2698 N   0  0  0  0  0  0  0  0  0  0  0  0
   22.3014    3.8690    5.2753 C   0  0  0  0  0  0  0  0  0  0  0  0
   23.2350    3.2593    6.0564 C   0  0  0  0  0  0  0  0  0  0  0  0
   22.5697    4.3379    3.9620 C   0  0  0  0  0  0  0  0  0  0  0  0
   24.8874    3.4782    4.3407 C   0  0  0  0  0  0  0  0  0  0  0  0
   21.4722    3.3013    7.2305 C   0  0  0  0  0  0  0  0  0  0  0  0
   25.4862    2.3970    6.4883 C   0  0  0  0  0  0  0  0  0  0  0  0
   19.8877    4.4400    5.6571 C   0  0  0  0  0  0  0  0  0  0  0  0
   24.2818    4.5415    2.2365 C   0  0  0  0  0  0  0  0  0  0  0  0
  1  9  2  0
  2 10  2  0
  3  8  1  0
  3 10  1  0
  3 12  1  0
  4  7  1  0
  4 11  1  0
  4 13  1  0
  5  9  1  0
  5 10  1  0
  5 14  1  0
  6  8  1  0
  6 11  2  0
  7  8  2  0
  7  9  1  0
M  END
> <PUBCHEM_COMPOUND_CID>
2519

> <PUBCHEM_CONFORMER_RMSD>
0.4

> <PUBCHEM_CONFORMER_DIVERSEORDER>
1

> <PUBCHEM_MMFF94_PARTIAL_CHARGES>
15
1 -0.57
10 0.69
11 0.04
12 0.3
13 0.26
14 0.3
15 0.15
2 -0.57
3 -0.42
4 0.05
5 -0.42
6 -0.57
7 -0.24
8 0.29
9 0.71

> <PUBCHEM_EFFECTIVE_ROTOR_COUNT>
0

> <PUBCHEM_PHARMACOPHORE_FEATURES>
5
1 1 acceptor
1 2 acceptor
3 4 6 11 cation
5 4 6 7 8 11 rings
6 3 5 7 8 9 10 rings

> <PUBCHEM_HEAVY_ATOM_COUNT>
14

> <PUBCHEM_ATOM_DEF_STEREO_COUNT>
0

> <PUBCHEM_ATOM_UDEF_STEREO_COUNT>
0

> <PUBCHEM_BOND_DEF_STEREO_COUNT>
0

> <PUBCHEM_BOND_UDEF_STEREO_COUNT>
0

> <PUBCHEM_ISOTOPIC_ATOM_COUNT>
0

> <PUBCHEM_COMPONENT_COUNT>
1

> <PUBCHEM_CACTVS_TAUTO_COUNT>
1

> <PUBCHEM_CONFORMER_ID>
000009D700000001

> <PUBCHEM_MMFF94_ENERGY>
22.901

> <PUBCHEM_FEATURE_SELFOVERLAP>
25.487

> <PUBCHEM_SHAPE_FINGERPRINT>
10967382 1 18338799025773621285
11132069 177 18339075025094499008
12524768 44 18342463625094026902
13140716 1 17978511158789908153
16945 1 18338517550775811621
193761 8 15816500986559935910
20588541 1 18339082691204868851
21501502 16 18338796715286957384
22802520 49 18128840606503503494
2334 1 18338516344016692929
23402539 116 18270382932679789735
23552423 10 18262240993325675966
23559900 14 18199193898169584358
241688 4 18266458702623303353
2748010 2 18266180539182415717
5084963 1 17698433339235542986
528886 8 18267580380709240570
53812653 166 18198902694142226312
66348 1 18339079396917369615

> <PUBCHEM_SHAPE_MULTIPOLES>
256.45
4.01
2.83
0.58
0.71
0.08
0
-0.48
0
-0.81
0
0.01
0
0

> <PUBCHEM_SHAPE_SELFOVERLAP>
550.88

> <PUBCHEM_SHAPE_VOLUME>
143.9

> <PUBCHEM_COORDINATE_TYPE>
2
5
10

> <Energy>
-122.511

> <minimizedAffinity>
-4.98916

> <CNNscore>
0.5032534003

> <CNNaffinity>
5.1248226166

> <CNN_VS>
2.5790843964

> <CNNaffinity_variance>
0.2493477613

$$$$
2519


 14 15  0  0  0  0  0  0  0  0999 V2000
   25.7890    4.8016    4.1541 O   0  0  0  0  0  0  0  0  0  0  0  0
   23.8654    0.8614    5.6408 O   0  0  0  0  0  0  0  0  0  0  0  0
   22.4923    2.6872    5.3469 N   0  0  0  0  0  0  0  0  0  0  0  0
   23.0378    5.9647    4.2953 N   0  0  0  0  0  0  0  0  0  0  0  0
   24.8440    2.8125    4.9003 N   0  0  0  0  0  0  0  0  0  0  0  0
   21.2799    4.7689    4.9501 N   0  0  0  0  0  0  0  0  0  0  0  0
   23.5050    4.7136    4.5787 C   0  0  0  0  0  0  0  0  0  0  0  0
   22.4097    4.0089    4.9754 C   0  0  0  0  0  0  0  0  0  0  0  0
   24.8094    4.1559    4.5141 C   0  0  0  0  0  0  0  0  0  0  0  0
   23.7335    2.0462    5.3178 C   0  0  0  0  0  0  0  0  0  0  0  0
   21.6888    5.9515    4.5343 C   0  0  0  0  0  0  0  0  0  0  0  0
   21.2971    1.9743    5.7631 C   0  0  0  0  0  0  0  0  0  0  0  0
   23.8086    7.0903    3.8325 C   0  0  0  0  0  0  0  0  0  0  0  0
   26.1253    2.1338    4.8741 C   0  0  0  0  0  0  0  0  0  0  0  0
  1  9  2  0
  2 10  2  0
  3  8  1  0
  3 10  1  0
  3 12  1  0
  4  7  1  0
  4 11  1  0
  4 13  1  0
  5  9  1  0
  5 10  1  0
  5 14  1  0
  6  8  1  0
  6 11  2  0
  7  8  2  0
  7  9  1  0
M  END
> <PUBCHEM_COMPOUND_CID>
2519

> <PUBCHEM_CONFORMER_RMSD>
0.4

> <PUBCHEM_CONFORMER_DIVERSEORDER>
1

> <PUBCHEM_MMFF94_PARTIAL_CHARGES>
15
1 -0.57
10 0.69
11 0.04
12 0.3
13 0.26
14 0.3
15 0.15
2 -0.57
3 -0.42
4 0.05
5 -0.42
6 -0.57
7 -0.24
8 0.29
9 0.71

> <PUBCHEM_EFFECTIVE_ROTOR_COUNT>
0

> <PUBCHEM_PHARMACOPHORE_FEATURES>
5
1 1 acceptor
1 2 acceptor
3 4 6 11 cation
5 4 6 7 8 11 rings
6 3 5 7 8 9 10 rings

> <PUBCHEM_HEAVY_ATOM_COUNT>
14

> <PUBCHEM_ATOM_DEF_STEREO_COUNT>
0

> <PUBCHEM_ATOM_UDEF_STEREO_COUNT>
0

> <PUBCHEM_BOND_DEF_STEREO_COUNT>
0

> <PUBCHEM_BOND_UDEF_STEREO_COUNT>
0

> <PUBCHEM_ISOTOPIC_ATOM_COUNT>
0

> <PUBCHEM_COMPONENT_COUNT>
1

> <PUBCHEM_CACTVS_TAUTO_COUNT>
1

> <PUBCHEM_CONFORMER_ID>
000009D700000001

> <PUBCHEM_MMFF94_ENERGY>
22.901

> <PUBCHEM_FEATURE_SELFOVERLAP>
25.487

> <PUBCHEM_SHAPE_FINGERPRINT>
10967382 1 18338799025773621285
11132069 177 18339075025094499008
12524768 44 18342463625094026902
13140716 1 17978511158789908153
16945 1 18338517550775811621
193761 8 15816500986559935910
20588541 1 18339082691204868851
21501502 16 18338796715286957384
22802520 49 18128840606503503494
2334 1 18338516344016692929
23402539 116 18270382932679789735
23552423 10 18262240993325675966
23559900 14 18199193898169584358
241688 4 18266458702623303353
2748010 2 18266180539182415717
5084963 1 17698433339235542986
528886 8 18267580380709240570
53812653 166 18198902694142226312
66348 1 18339079396917369615

> <PUBCHEM_SHAPE_MULTIPOLES>
256.45
4.01
2.83
0.58
0.71
0.08
0
-0.48
0
-0.81
0
0.01
0
0

> <PUBCHEM_SHAPE_SELFOVERLAP>
550.88

> <PUBCHEM_SHAPE_VOLUME>
143.9

> <PUBCHEM_COORDINATE_TYPE>
2
5
10

> <Energy>
-122.511

> <minimizedAffinity>
-5.33595

> <CNNscore>
0.4782427847

> <CNNaffinity>
5.2562842369

> <CNN_VS>
2.5137801170

> <CNNaffinity_variance>
0.0457065850

$$$$
2519


 14 15  0  0  0  0  0  0  0  0999 V2000
   21.2596    5.9750    4.8809 O   0  0  0  0  0  0  0  0  0  0  0  0
   21.3507    1.4341    5.7798 O   0  0  0  0  0  0  0  0  0  0  0  0
   23.2620    2.4045    4.9369 N   0  0  0  0  0  0  0  0  0  0  0  0
   24.0958    5.6530    3.9898 N   0  0  0  0  0  0  0  0  0  0  0  0
   21.2830    3.6957    5.3394 N   0  0  0  0  0  0  0  0  0  0  0  0
   25.1367    3.6877    4.0425 N   0  0  0  0  0  0  0  0  0  0  0  0
   23.1949    4.7512    4.4787 C   0  0  0  0  0  0  0  0  0  0  0  0
   23.8593    3.5631    4.4982 C   0  0  0  0  0  0  0  0  0  0  0  0
   21.8476    4.8979    4.9028 C   0  0  0  0  0  0  0  0  0  0  0  0
   21.9360    2.4438    5.3757 C   0  0  0  0  0  0  0  0  0  0  0  0
   25.2544    4.9657    3.7402 C   0  0  0  0  0  0  0  0  0  0  0  0
   24.0095    1.1590    4.9405 C   0  0  0  0  0  0  0  0  0  0  0  0
   23.8788    7.0608    3.7743 C   0  0  0  0  0  0  0  0  0  0  0  0
   19.9077    3.7214    5.7987 C   0  0  0  0  0  0  0  0  0  0  0  0
  1  9  2  0
  2 10  2  0
  3  8  1  0
  3 10  1  0
  3 12  1  0
  4  7  1  0
  4 11  1  0
  4 13  1  0
  5  9  1  0
  5 10  1  0
  5 14  1  0
  6  8  1  0
  6 11  2  0
  7  8  2  0
  7  9  1  0
M  END
> <PUBCHEM_COMPOUND_CID>
2519

> <PUBCHEM_CONFORMER_RMSD>
0.4

> <PUBCHEM_CONFORMER_DIVERSEORDER>
1

> <PUBCHEM_MMFF94_PARTIAL_CHARGES>
15
1 -0.57
10 0.69
11 0.04
12 0.3
13 0.26
14 0.3
15 0.15
2 -0.57
3 -0.42
4 0.05
5 -0.42
6 -0.57
7 -0.24
8 0.29
9 0.71

> <PUBCHEM_EFFECTIVE_ROTOR_COUNT>
0

> <PUBCHEM_PHARMACOPHORE_FEATURES>
5
1 1 acceptor
1 2 acceptor
3 4 6 11 cation
5 4 6 7 8 11 rings
6 3 5 7 8 9 10 rings

> <PUBCHEM_HEAVY_ATOM_COUNT>
14

> <PUBCHEM_ATOM_DEF_STEREO_COUNT>
0

> <PUBCHEM_ATOM_UDEF_STEREO_COUNT>
0

> <PUBCHEM_BOND_DEF_STEREO_COUNT>
0

> <PUBCHEM_BOND_UDEF_STEREO_COUNT>
0

> <PUBCHEM_ISOTOPIC_ATOM_COUNT>
0

> <PUBCHEM_COMPONENT_COUNT>
1

> <PUBCHEM_CACTVS_TAUTO_COUNT>
1

> <PUBCHEM_CONFORMER_ID>
000009D700000001

> <PUBCHEM_MMFF94_ENERGY>
22.901

> <PUBCHEM_FEATURE_SELFOVERLAP>
25.487

> <PUBCHEM_SHAPE_FINGERPRINT>
10967382 1 18338799025773621285
11132069 177 18339075025094499008
12524768 44 18342463625094026902
13140716 1 17978511158789908153
16945 1 18338517550775811621
193761 8 15816500986559935910
20588541 1 18339082691204868851
21501502 16 18338796715286957384
22802520 49 18128840606503503494
2334 1 18338516344016692929
23402539 116 18270382932679789735
23552423 10 18262240993325675966
23559900 14 18199193898169584358
241688 4 18266458702623303353
2748010 2 18266180539182415717
5084963 1 17698433339235542986
528886 8 18267580380709240570
53812653 166 18198902694142226312
66348 1 18339079396917369615

> <PUBCHEM_SHAPE_MULTIPOLES>
256.45
4.01
2.83
0.58
0.71
0.08
0
-0.48
0
-0.81
0
0.01
0
0

> <PUBCHEM_SHAPE_SELFOVERLAP>
550.88

> <PUBCHEM_SHAPE_VOLUME>
143.9

> <PUBCHEM_COORDINATE_TYPE>
2
5
10

> <Energy>
-122.511

> <minimizedAffinity>
-5.24075

> <CNNscore>
0.4771185815

> <CNNaffinity>
4.9964299202

> <CNN_VS>
2.3838896751

> <CNNaffinity_variance>
0.0926413611

$$$$
2519


 14 15  0  0  0  0  0  0  0  0999 V2000
   23.1785    5.7050    3.3133 O   0  0  0  0  0  0  0  0  0  0  0  0
   20.4009    3.0541    5.9004 O   0  0  0  0  0  0  0  0  0  0  0  0
   22.5004    2.2491    5.4008 N   0  0  0  0  0  0  0  0  0  0  0  0
   25.1886    3.5065    3.5740 N   0  0  0  0  0  0  0  0  0  0  0  0
   21.7669    4.3901    4.6111 N   0  0  0  0  0  0  0  0  0  0  0  0
   24.7674    1.6484    4.7224 N   0  0  0  0  0  0  0  0  0  0  0  0
   23.9202    3.6332    4.0629 C   0  0  0  0  0  0  0  0  0  0  0  0
   23.6931    2.4846    4.7577 C   0  0  0  0  0  0  0  0  0  0  0  0
   22.9614    4.6737    3.9422 C   0  0  0  0  0  0  0  0  0  0  0  0
   21.4909    3.2133    5.3418 C   0  0  0  0  0  0  0  0  0  0  0  0
   25.6610    2.2922    3.9974 C   0  0  0  0  0  0  0  0  0  0  0  0
   22.3020    1.0091    6.1309 C   0  0  0  0  0  0  0  0  0  0  0  0
   25.9024    4.4623    2.7663 C   0  0  0  0  0  0  0  0  0  0  0  0
   20.7103    5.3822    4.5593 C   0  0  0  0  0  0  0  0  0  0  0  0
  1  9  2  0
  2 10  2  0
  3  8  1  0
  3 10  1  0
  3 12  1  0
  4  7  1  0
  4 11  1  0
  4 13  1  0
  5  9  1  0
  5 10  1  0
  5 14  1  0
  6  8  1  0
  6 11  2  0
  7  8  2  0
  7  9  1  0
M  END
> <PUBCHEM_COMPOUND_CID>
2519

> <PUBCHEM_CONFORMER_RMSD>
0.4

> <PUBCHEM_CONFORMER_DIVERSEORDER>
1

> <PUBCHEM_MMFF94_PARTIAL_CHARGES>
15
1 -0.57
10 0.69
11 0.04
12 0.3
13 0.26
14 0.3
15 0.15
2 -0.57
3 -0.42
4 0.05
5 -0.42
6 -0.57
7 -0.24
8 0.29
9 0.71

> <PUBCHEM_EFFECTIVE_ROTOR_COUNT>
0

> <PUBCHEM_PHARMACOPHORE_FEATURES>
5
1 1 acceptor
1 2 acceptor
3 4 6 11 cation
5 4 6 7 8 11 rings
6 3 5 7 8 9 10 rings

> <PUBCHEM_HEAVY_ATOM_COUNT>
14

> <PUBCHEM_ATOM_DEF_STEREO_COUNT>
0

> <PUBCHEM_ATOM_UDEF_STEREO_COUNT>
0

> <PUBCHEM_BOND_DEF_STEREO_COUNT>
0

> <PUBCHEM_BOND_UDEF_STEREO_COUNT>
0

> <PUBCHEM_ISOTOPIC_ATOM_COUNT>
0

> <PUBCHEM_COMPONENT_COUNT>
1

> <PUBCHEM_CACTVS_TAUTO_COUNT>
1

> <PUBCHEM_CONFORMER_ID>
000009D700000001

> <PUBCHEM_MMFF94_ENERGY>
22.901

> <PUBCHEM_FEATURE_SELFOVERLAP>
25.487

> <PUBCHEM_SHAPE_FINGERPRINT>
10967382 1 18338799025773621285
11132069 177 18339075025094499008
12524768 44 18342463625094026902
13140716 1 17978511158789908153
16945 1 18338517550775811621
193761 8 15816500986559935910
20588541 1 18339082691204868851
21501502 16 18338796715286957384
22802520 49 18128840606503503494
2334 1 18338516344016692929
23402539 116 18270382932679789735
23552423 10 18262240993325675966
23559900 14 18199193898169584358
241688 4 18266458702623303353
2748010 2 18266180539182415717
5084963 1 17698433339235542986
528886 8 18267580380709240570
53812653 166 18198902694142226312
66348 1 18339079396917369615

> <PUBCHEM_SHAPE_MULTIPOLES>
256.45
4.01
2.83
0.58
0.71
0.08
0
-0.48
0
-0.81
0
0.01
0
0

> <PUBCHEM_SHAPE_SELFOVERLAP>
550.88

> <PUBCHEM_SHAPE_VOLUME>
143.9

> <PUBCHEM_COORDINATE_TYPE>
2
5
10

> <Energy>
-122.511

> <minimizedAffinity>
-5.59214

> <CNNscore>
0.4737684131

> <CNNaffinity>
4.7022852898

> <CNN_VS>
2.2277941704

> <CNNaffinity_variance>
0.3822088540

$$$$
