5757


 22 25  0  0  0  0  0  0  0  0999 V2000
   -8.9765   -5.6486   20.9654 O   0  0  0  0  0  0  0  0  0  0  0  0
    1.4185   -2.1687   20.7928 O   0  0  0  0  0  0  0  0  0  0  0  0
   -6.7199   -4.6979   21.2548 C   0  0  0  0  0  0  0  0  0  0  0  0
   -6.1584   -3.8371   22.4043 C   0  0  0  0  0  0  0  0  0  0  0  0
   -4.6334   -3.7419   22.3622 C   0  0  0  0  0  0  0  0  0  0  0  0
   -4.2125   -3.0618   21.0240 C   0  0  0  0  0  0  0  0  0  0  0  0
   -8.2172   -4.6480   21.6151 C   0  0  0  0  0  0  0  0  0  0  0  0
   -6.3528   -4.0211   19.9286 C   0  0  0  0  0  0  0  0  0  0  0  0
   -6.8378   -4.4127   23.6436 C   0  0  0  0  0  0  0  0  0  0  0  0
   -4.8340   -3.7923   19.8030 C   0  0  0  0  0  0  0  0  0  0  0  0
   -8.2376   -4.8180   23.1468 C   0  0  0  0  0  0  0  0  0  0  0  0
   -4.0614   -2.9367   23.5305 C   0  0  0  0  0  0  0  0  0  0  0  0
   -6.2189   -6.1648   21.2364 C   0  0  0  0  0  0  0  0  0  0  0  0
   -2.6994   -2.8601   20.9579 C   0  0  0  0  0  0  0  0  0  0  0  0
   -2.5361   -3.0011   23.5092 C   0  0  0  0  0  0  0  0  0  0  0  0
   -1.9305   -2.7906   22.1407 C   0  0  0  0  0  0  0  0  0  0  0  0
   -2.0494   -2.6483   19.7287 C   0  0  0  0  0  0  0  0  0  0  0  0
   -0.5429   -2.5696   22.0626 C   0  0  0  0  0  0  0  0  0  0  0  0
   -0.6729   -2.4195   19.6636 C   0  0  0  0  0  0  0  0  0  0  0  0
    0.0720   -2.3866   20.8307 C   0  0  0  0  0  0  0  0  0  0  0  0
   -8.9406   -5.5099   20.0060 H   0  0  0  0  0  0  0  0  0  0  0  0
    1.9124   -2.1487   21.5888 H   0  0  0  0  0  0  0  0  0  0  0  0
  1  7  1  0
  1 21  1  0
  2 20  1  0
  2 22  1  0
  3  4  1  0
  3  7  1  0
  3  8  1  0
  3 13  1  0
  4  5  1  0
  4  9  1  0
  5  6  1  0
  5 12  1  0
  6 10  1  0
  6 14  1  0
  7 11  1  0
  8 10  1  0
  9 11  1  0
 12 15  1  0
 14 16  2  0
 14 17  1  0
 15 16  1  0
 16 18  1  0
 17 19  2  0
 18 20  2  0
 19 20  1  0
M  END
> <PUBCHEM_COMPOUND_CID>
5757

> <PUBCHEM_CONFORMER_RMSD>
0.6

> <PUBCHEM_CONFORMER_DIVERSEORDER>
1

> <PUBCHEM_MMFF94_PARTIAL_CHARGES>
16
1 -0.68
14 -0.14
15 0.14
16 -0.14
17 -0.15
18 -0.15
19 -0.15
2 -0.53
20 0.08
40 0.4
41 0.15
42 0.15
43 0.15
44 0.45
6 0.14
7 0.28

> <PUBCHEM_EFFECTIVE_ROTOR_COUNT>
1.4

> <PUBCHEM_PHARMACOPHORE_FEATURES>
7
1 1 acceptor
1 1 donor
1 2 donor
5 3 4 7 9 11 rings
6 14 16 17 18 19 20 rings
6 3 4 5 6 8 10 rings
6 5 6 12 14 15 16 rings

> <PUBCHEM_HEAVY_ATOM_COUNT>
20

> <PUBCHEM_ATOM_DEF_STEREO_COUNT>
5

> <PUBCHEM_ATOM_UDEF_STEREO_COUNT>
0

> <PUBCHEM_BOND_DEF_STEREO_COUNT>
0

> <PUBCHEM_BOND_UDEF_STEREO_COUNT>
0

> <PUBCHEM_ISOTOPIC_ATOM_COUNT>
0

> <PUBCHEM_COMPONENT_COUNT>
1

> <PUBCHEM_CACTVS_TAUTO_COUNT>
9

> <PUBCHEM_CONFORMER_ID>
0000167D00000001

> <PUBCHEM_MMFF94_ENERGY>
68.4596

> <PUBCHEM_FEATURE_SELFOVERLAP>
35.62

> <PUBCHEM_SHAPE_FINGERPRINT>
10 15 18262512710780645640
10411042 1 16969703283687688743
10616163 171 18338239395883154686
10967382 1 18410012100429229070
11132069 177 18409162216832884669
11578080 2 17201347718505248258
12011746 2 18410859841042374310
12107183 9 17690845558000159065
12236239 1 13470690338792453460
12251169 10 18335139816864396069
12403259 415 18410852127603240605
12403814 3 17530960289353343621
12500047 106 18271238421624861530
12592029 89 18334859377112304987
12788726 201 17703518696578858128
128620 24 11818992989152349105
13140716 1 18192429898953651512
13533116 47 17846218813073552003
13544592 145 18272379637759764926
13675066 3 18341893012844745609
14178342 30 18123731313450613666
14341114 176 18409738343777605753
14866123 147 17046555868986690930
15042514 8 18263932206156989787
15196674 1 18410012108982090935
15256400 18 18410857620686823693
15295992 7 17845930826899781123
15536298 74 18413671296627645270
1601671 61 18409168826940819996
16945 1 18266170819592368622
17349148 13 18412820287929204701
17804303 29 18410296916890392117
1813 80 16950285091842931756
18186145 218 17417805158171412875
19141452 34 18413108389914235807
192875 21 13830133918406568194
19591789 44 18192993725128068838
200 152 18131627885965453901
20028762 73 18272929458099065015
20261772 1 18410856577167961319
20510252 161 18341895147623301209
20645477 70 18200878374956666302
21033648 29 18271512131406579929
21267235 1 18337399244825179854
21279426 13 18124035632930519374
21421861 104 17895744090149736410
22854114 59 18412546505207311417
22892500 29 17274814788166584896
23184049 59 18410576175690384255
23402539 116 18342170081765240151
23557571 272 17773880972535682807
23558518 356 17682680979747269074
23559900 14 18413389822146813342
2748010 2 18337666399911122230
3004659 81 18260835844047909814
335352 9 18410013195572088855
34934 24 18411133675799850702
350125 39 18409735045496469133
351380 180 18409730664571278687
3545911 37 18411703192367818988
4214541 1 18409167684326479901
465052 167 17967541176940287083
495365 180 17346587600050392546
5104073 3 18409449150412323065
542803 24 17346883342628774985
59755656 215 18335983048405458773
69090 78 18341891905091661271
77779 3 18409450271409361990
7832392 63 18341046427736201710
9709674 26 18410862087368844367
9999458 23 17967819357476725574

> <PUBCHEM_SHAPE_MULTIPOLES>
399.85
9.72
2.11
0.84
3.73
0.39
0.22
-1.2
1.2
-0.24
-0.15
-0.38
-0.13
0.32

> <PUBCHEM_SHAPE_SELFOVERLAP>
871.414

> <PUBCHEM_SHAPE_VOLUME>
217.1

> <PUBCHEM_COORDINATE_TYPE>
2
5
10

> <Energy>
58.4396

> <minimizedAffinity>
-8.19845

> <CNNscore>
0.8679413795

> <CNNaffinity>
7.9823093414

> <CNN_VS>
6.9281764030

> <CNNaffinity_variance>
1.3114701509

$$$$
5757


 22 25  0  0  0  0  0  0  0  0999 V2000
   -9.1295   -5.4547   24.2115 O   0  0  0  0  0  0  0  0  0  0  0  0
   -0.1607   -1.9994   18.9373 O   0  0  0  0  0  0  0  0  0  0  0  0
   -7.1294   -4.3771   23.2533 C   0  0  0  0  0  0  0  0  0  0  0  0
   -6.4526   -3.0464   23.6390 C   0  0  0  0  0  0  0  0  0  0  0  0
   -5.0564   -2.9117   23.0316 C   0  0  0  0  0  0  0  0  0  0  0  0
   -5.1834   -2.9352   21.4780 C   0  0  0  0  0  0  0  0  0  0  0  0
   -8.4387   -4.2310   24.0524 C   0  0  0  0  0  0  0  0  0  0  0  0
   -7.3028   -4.4002   21.7298 C   0  0  0  0  0  0  0  0  0  0  0  0
   -6.6172   -2.9904   25.1551 C   0  0  0  0  0  0  0  0  0  0  0  0
   -5.9636   -4.1887   20.9972 C   0  0  0  0  0  0  0  0  0  0  0  0
   -7.9862   -3.6489   25.4058 C   0  0  0  0  0  0  0  0  0  0  0  0
   -4.3530   -1.6202   23.4533 C   0  0  0  0  0  0  0  0  0  0  0  0
   -6.3644   -5.6490   23.7005 C   0  0  0  0  0  0  0  0  0  0  0  0
   -3.8271   -2.7192   20.8086 C   0  0  0  0  0  0  0  0  0  0  0  0
   -2.9178   -1.6157   22.9325 C   0  0  0  0  0  0  0  0  0  0  0  0
   -2.7842   -2.0569   21.4933 C   0  0  0  0  0  0  0  0  0  0  0  0
   -3.6125   -3.0907   19.4690 C   0  0  0  0  0  0  0  0  0  0  0  0
   -1.5527   -1.8356   20.8492 C   0  0  0  0  0  0  0  0  0  0  0  0
   -2.3892   -2.8568   18.8363 C   0  0  0  0  0  0  0  0  0  0  0  0
   -1.3658   -2.2353   19.5322 C   0  0  0  0  0  0  0  0  0  0  0  0
   -9.3979   -5.7900   23.3417 H   0  0  0  0  0  0  0  0  0  0  0  0
    0.5246   -1.5782   19.4179 H   0  0  0  0  0  0  0  0  0  0  0  0
  1  7  1  0
  1 21  1  0
  2 20  1  0
  2 22  1  0
  3  4  1  0
  3  7  1  0
  3  8  1  0
  3 13  1  0
  4  5  1  0
  4  9  1  0
  5  6  1  0
  5 12  1  0
  6 10  1  0
  6 14  1  0
  7 11  1  0
  8 10  1  0
  9 11  1  0
 12 15  1  0
 14 16  2  0
 14 17  1  0
 15 16  1  0
 16 18  1  0
 17 19  2  0
 18 20  2  0
 19 20  1  0
M  END
> <PUBCHEM_COMPOUND_CID>
5757

> <PUBCHEM_CONFORMER_RMSD>
0.6

> <PUBCHEM_CONFORMER_DIVERSEORDER>
1

> <PUBCHEM_MMFF94_PARTIAL_CHARGES>
16
1 -0.68
14 -0.14
15 0.14
16 -0.14
17 -0.15
18 -0.15
19 -0.15
2 -0.53
20 0.08
40 0.4
41 0.15
42 0.15
43 0.15
44 0.45
6 0.14
7 0.28

> <PUBCHEM_EFFECTIVE_ROTOR_COUNT>
1.4

> <PUBCHEM_PHARMACOPHORE_FEATURES>
7
1 1 acceptor
1 1 donor
1 2 donor
5 3 4 7 9 11 rings
6 14 16 17 18 19 20 rings
6 3 4 5 6 8 10 rings
6 5 6 12 14 15 16 rings

> <PUBCHEM_HEAVY_ATOM_COUNT>
20

> <PUBCHEM_ATOM_DEF_STEREO_COUNT>
5

> <PUBCHEM_ATOM_UDEF_STEREO_COUNT>
0

> <PUBCHEM_BOND_DEF_STEREO_COUNT>
0

> <PUBCHEM_BOND_UDEF_STEREO_COUNT>
0

> <PUBCHEM_ISOTOPIC_ATOM_COUNT>
0

> <PUBCHEM_COMPONENT_COUNT>
1

> <PUBCHEM_CACTVS_TAUTO_COUNT>
9

> <PUBCHEM_CONFORMER_ID>
0000167D00000001

> <PUBCHEM_MMFF94_ENERGY>
68.4596

> <PUBCHEM_FEATURE_SELFOVERLAP>
35.62

> <PUBCHEM_SHAPE_FINGERPRINT>
10 15 18262512710780645640
10411042 1 16969703283687688743
10616163 171 18338239395883154686
10967382 1 18410012100429229070
11132069 177 18409162216832884669
11578080 2 17201347718505248258
12011746 2 18410859841042374310
12107183 9 17690845558000159065
12236239 1 13470690338792453460
12251169 10 18335139816864396069
12403259 415 18410852127603240605
12403814 3 17530960289353343621
12500047 106 18271238421624861530
12592029 89 18334859377112304987
12788726 201 17703518696578858128
128620 24 11818992989152349105
13140716 1 18192429898953651512
13533116 47 17846218813073552003
13544592 145 18272379637759764926
13675066 3 18341893012844745609
14178342 30 18123731313450613666
14341114 176 18409738343777605753
14866123 147 17046555868986690930
15042514 8 18263932206156989787
15196674 1 18410012108982090935
15256400 18 18410857620686823693
15295992 7 17845930826899781123
15536298 74 18413671296627645270
1601671 61 18409168826940819996
16945 1 18266170819592368622
17349148 13 18412820287929204701
17804303 29 18410296916890392117
1813 80 16950285091842931756
18186145 218 17417805158171412875
19141452 34 18413108389914235807
192875 21 13830133918406568194
19591789 44 18192993725128068838
200 152 18131627885965453901
20028762 73 18272929458099065015
20261772 1 18410856577167961319
20510252 161 18341895147623301209
20645477 70 18200878374956666302
21033648 29 18271512131406579929
21267235 1 18337399244825179854
21279426 13 18124035632930519374
21421861 104 17895744090149736410
22854114 59 18412546505207311417
22892500 29 17274814788166584896
23184049 59 18410576175690384255
23402539 116 18342170081765240151
23557571 272 17773880972535682807
23558518 356 17682680979747269074
23559900 14 18413389822146813342
2748010 2 18337666399911122230
3004659 81 18260835844047909814
335352 9 18410013195572088855
34934 24 18411133675799850702
350125 39 18409735045496469133
351380 180 18409730664571278687
3545911 37 18411703192367818988
4214541 1 18409167684326479901
465052 167 17967541176940287083
495365 180 17346587600050392546
5104073 3 18409449150412323065
542803 24 17346883342628774985
59755656 215 18335983048405458773
69090 78 18341891905091661271
77779 3 18409450271409361990
7832392 63 18341046427736201710
9709674 26 18410862087368844367
9999458 23 17967819357476725574

> <PUBCHEM_SHAPE_MULTIPOLES>
399.85
9.72
2.11
0.84
3.73
0.39
0.22
-1.2
1.2
-0.24
-0.15
-0.38
-0.13
0.32

> <PUBCHEM_SHAPE_SELFOVERLAP>
871.414

> <PUBCHEM_SHAPE_VOLUME>
217.1

> <PUBCHEM_COORDINATE_TYPE>
2
5
10

> <Energy>
58.4396

> <minimizedAffinity>
-8.04163

> <CNNscore>
0.8647122979

> <CNNaffinity>
8.0373678207

> <CNN_VS>
6.9500107765

> <CNNaffinity_variance>
1.1211127043

$$$$
5757


 22 25  0  0  0  0  0  0  0  0999 V2000
   -7.6191   -3.4463   25.9699 O   0  0  0  0  0  0  0  0  0  0  0  0
    0.0195   -1.6090   18.3231 O   0  0  0  0  0  0  0  0  0  0  0  0
   -6.0521   -3.3285   24.0698 C   0  0  0  0  0  0  0  0  0  0  0  0
   -5.9741   -4.2097   22.8069 C   0  0  0  0  0  0  0  0  0  0  0  0
   -5.0815   -3.5954   21.7287 C   0  0  0  0  0  0  0  0  0  0  0  0
   -3.6344   -3.4642   22.2938 C   0  0  0  0  0  0  0  0  0  0  0  0
   -7.0446   -4.1674   24.8976 C   0  0  0  0  0  0  0  0  0  0  0  0
   -4.6430   -3.2229   24.6657 C   0  0  0  0  0  0  0  0  0  0  0  0
   -7.4371   -4.5039   22.4881 C   0  0  0  0  0  0  0  0  0  0  0  0
   -3.6250   -2.6890   23.6392 C   0  0  0  0  0  0  0  0  0  0  0  0
   -8.1059   -4.6090   23.8710 C   0  0  0  0  0  0  0  0  0  0  0  0
   -5.0414   -4.4337   20.4496 C   0  0  0  0  0  0  0  0  0  0  0  0
   -6.6161   -1.9038   23.8346 C   0  0  0  0  0  0  0  0  0  0  0  0
   -2.6720   -2.9330   21.2326 C   0  0  0  0  0  0  0  0  0  0  0  0
   -4.2533   -3.6969   19.3693 C   0  0  0  0  0  0  0  0  0  0  0  0
   -2.9587   -3.0897   19.8585 C   0  0  0  0  0  0  0  0  0  0  0  0
   -1.4397   -2.3591   21.5937 C   0  0  0  0  0  0  0  0  0  0  0  0
   -2.0446   -2.6254   18.8944 C   0  0  0  0  0  0  0  0  0  0  0  0
   -0.5352   -1.9110   20.6281 C   0  0  0  0  0  0  0  0  0  0  0  0
   -0.8459   -2.0426   19.2850 C   0  0  0  0  0  0  0  0  0  0  0  0
   -6.9235   -3.1857   26.5937 H   0  0  0  0  0  0  0  0  0  0  0  0
   -0.2012   -1.7031   17.4174 H   0  0  0  0  0  0  0  0  0  0  0  0
  1  7  1  0
  1 21  1  0
  2 20  1  0
  2 22  1  0
  3  4  1  0
  3  7  1  0
  3  8  1  0
  3 13  1  0
  4  5  1  0
  4  9  1  0
  5  6  1  0
  5 12  1  0
  6 10  1  0
  6 14  1  0
  7 11  1  0
  8 10  1  0
  9 11  1  0
 12 15  1  0
 14 16  2  0
 14 17  1  0
 15 16  1  0
 16 18  1  0
 17 19  2  0
 18 20  2  0
 19 20  1  0
M  END
> <PUBCHEM_COMPOUND_CID>
5757

> <PUBCHEM_CONFORMER_RMSD>
0.6

> <PUBCHEM_CONFORMER_DIVERSEORDER>
1

> <PUBCHEM_MMFF94_PARTIAL_CHARGES>
16
1 -0.68
14 -0.14
15 0.14
16 -0.14
17 -0.15
18 -0.15
19 -0.15
2 -0.53
20 0.08
40 0.4
41 0.15
42 0.15
43 0.15
44 0.45
6 0.14
7 0.28

> <PUBCHEM_EFFECTIVE_ROTOR_COUNT>
1.4

> <PUBCHEM_PHARMACOPHORE_FEATURES>
7
1 1 acceptor
1 1 donor
1 2 donor
5 3 4 7 9 11 rings
6 14 16 17 18 19 20 rings
6 3 4 5 6 8 10 rings
6 5 6 12 14 15 16 rings

> <PUBCHEM_HEAVY_ATOM_COUNT>
20

> <PUBCHEM_ATOM_DEF_STEREO_COUNT>
5

> <PUBCHEM_ATOM_UDEF_STEREO_COUNT>
0

> <PUBCHEM_BOND_DEF_STEREO_COUNT>
0

> <PUBCHEM_BOND_UDEF_STEREO_COUNT>
0

> <PUBCHEM_ISOTOPIC_ATOM_COUNT>
0

> <PUBCHEM_COMPONENT_COUNT>
1

> <PUBCHEM_CACTVS_TAUTO_COUNT>
9

> <PUBCHEM_CONFORMER_ID>
0000167D00000001

> <PUBCHEM_MMFF94_ENERGY>
68.4596

> <PUBCHEM_FEATURE_SELFOVERLAP>
35.62

> <PUBCHEM_SHAPE_FINGERPRINT>
10 15 18262512710780645640
10411042 1 16969703283687688743
10616163 171 18338239395883154686
10967382 1 18410012100429229070
11132069 177 18409162216832884669
11578080 2 17201347718505248258
12011746 2 18410859841042374310
12107183 9 17690845558000159065
12236239 1 13470690338792453460
12251169 10 18335139816864396069
12403259 415 18410852127603240605
12403814 3 17530960289353343621
12500047 106 18271238421624861530
12592029 89 18334859377112304987
12788726 201 17703518696578858128
128620 24 11818992989152349105
13140716 1 18192429898953651512
13533116 47 17846218813073552003
13544592 145 18272379637759764926
13675066 3 18341893012844745609
14178342 30 18123731313450613666
14341114 176 18409738343777605753
14866123 147 17046555868986690930
15042514 8 18263932206156989787
15196674 1 18410012108982090935
15256400 18 18410857620686823693
15295992 7 17845930826899781123
15536298 74 18413671296627645270
1601671 61 18409168826940819996
16945 1 18266170819592368622
17349148 13 18412820287929204701
17804303 29 18410296916890392117
1813 80 16950285091842931756
18186145 218 17417805158171412875
19141452 34 18413108389914235807
192875 21 13830133918406568194
19591789 44 18192993725128068838
200 152 18131627885965453901
20028762 73 18272929458099065015
20261772 1 18410856577167961319
20510252 161 18341895147623301209
20645477 70 18200878374956666302
21033648 29 18271512131406579929
21267235 1 18337399244825179854
21279426 13 18124035632930519374
21421861 104 17895744090149736410
22854114 59 18412546505207311417
22892500 29 17274814788166584896
23184049 59 18410576175690384255
23402539 116 18342170081765240151
23557571 272 17773880972535682807
23558518 356 17682680979747269074
23559900 14 18413389822146813342
2748010 2 18337666399911122230
3004659 81 18260835844047909814
335352 9 18410013195572088855
34934 24 18411133675799850702
350125 39 18409735045496469133
351380 180 18409730664571278687
3545911 37 18411703192367818988
4214541 1 18409167684326479901
465052 167 17967541176940287083
495365 180 17346587600050392546
5104073 3 18409449150412323065
542803 24 17346883342628774985
59755656 215 18335983048405458773
69090 78 18341891905091661271
77779 3 18409450271409361990
7832392 63 18341046427736201710
9709674 26 18410862087368844367
9999458 23 17967819357476725574

> <PUBCHEM_SHAPE_MULTIPOLES>
399.85
9.72
2.11
0.84
3.73
0.39
0.22
-1.2
1.2
-0.24
-0.15
-0.38
-0.13
0.32

> <PUBCHEM_SHAPE_SELFOVERLAP>
871.414

> <PUBCHEM_SHAPE_VOLUME>
217.1

> <PUBCHEM_COORDINATE_TYPE>
2
5
10

> <Energy>
58.4396

> <minimizedAffinity>
-7.77627

> <CNNscore>
0.6834038496

> <CNNaffinity>
7.6513485909

> <CNN_VS>
5.2289609909

> <CNNaffinity_variance>
0.9529118538

$$$$
5757


 22 25  0  0  0  0  0  0  0  0999 V2000
   -8.8321   -4.4647   25.1389 O   0  0  0  0  0  0  0  0  0  0  0  0
    0.3860   -1.7883   19.8417 O   0  0  0  0  0  0  0  0  0  0  0  0
   -6.8945   -4.0735   23.6651 C   0  0  0  0  0  0  0  0  0  0  0  0
   -6.6313   -4.5854   22.2346 C   0  0  0  0  0  0  0  0  0  0  0  0
   -5.4788   -3.8427   21.5588 C   0  0  0  0  0  0  0  0  0  0  0  0
   -4.1783   -4.0820   22.3846 C   0  0  0  0  0  0  0  0  0  0  0  0
   -8.1116   -4.9483   24.0223 C   0  0  0  0  0  0  0  0  0  0  0  0
   -5.6398   -4.3399   24.5056 C   0  0  0  0  0  0  0  0  0  0  0  0
   -8.0143   -4.5650   21.5899 C   0  0  0  0  0  0  0  0  0  0  0  0
   -4.3836   -3.7061   23.8771 C   0  0  0  0  0  0  0  0  0  0  0  0
   -8.9672   -4.9374   22.7405 C   0  0  0  0  0  0  0  0  0  0  0  0
   -5.2452   -4.3038   20.1189 C   0  0  0  0  0  0  0  0  0  0  0  0
   -7.2645   -2.5711   23.7601 C   0  0  0  0  0  0  0  0  0  0  0  0
   -2.9690   -3.4333   21.7128 C   0  0  0  0  0  0  0  0  0  0  0  0
   -4.1828   -3.4285   19.4583 C   0  0  0  0  0  0  0  0  0  0  0  0
   -2.9714   -3.1719   20.3247 C   0  0  0  0  0  0  0  0  0  0  0  0
   -1.7942   -3.1648   22.4381 C   0  0  0  0  0  0  0  0  0  0  0  0
   -1.8358   -2.6058   19.7162 C   0  0  0  0  0  0  0  0  0  0  0  0
   -0.6690   -2.6123   21.8217 C   0  0  0  0  0  0  0  0  0  0  0  0
   -0.6990   -2.3318   20.4658 C   0  0  0  0  0  0  0  0  0  0  0  0
   -8.2636   -4.4861   25.9245 H   0  0  0  0  0  0  0  0  0  0  0  0
    0.3542   -1.6027   18.9238 H   0  0  0  0  0  0  0  0  0  0  0  0
  1  7  1  0
  1 21  1  0
  2 20  1  0
  2 22  1  0
  3  4  1  0
  3  7  1  0
  3  8  1  0
  3 13  1  0
  4  5  1  0
  4  9  1  0
  5  6  1  0
  5 12  1  0
  6 10  1  0
  6 14  1  0
  7 11  1  0
  8 10  1  0
  9 11  1  0
 12 15  1  0
 14 16  2  0
 14 17  1  0
 15 16  1  0
 16 18  1  0
 17 19  2  0
 18 20  2  0
 19 20  1  0
M  END
> <PUBCHEM_COMPOUND_CID>
5757

> <PUBCHEM_CONFORMER_RMSD>
0.6

> <PUBCHEM_CONFORMER_DIVERSEORDER>
1

> <PUBCHEM_MMFF94_PARTIAL_CHARGES>
16
1 -0.68
14 -0.14
15 0.14
16 -0.14
17 -0.15
18 -0.15
19 -0.15
2 -0.53
20 0.08
40 0.4
41 0.15
42 0.15
43 0.15
44 0.45
6 0.14
7 0.28

> <PUBCHEM_EFFECTIVE_ROTOR_COUNT>
1.4

> <PUBCHEM_PHARMACOPHORE_FEATURES>
7
1 1 acceptor
1 1 donor
1 2 donor
5 3 4 7 9 11 rings
6 14 16 17 18 19 20 rings
6 3 4 5 6 8 10 rings
6 5 6 12 14 15 16 rings

> <PUBCHEM_HEAVY_ATOM_COUNT>
20

> <PUBCHEM_ATOM_DEF_STEREO_COUNT>
5

> <PUBCHEM_ATOM_UDEF_STEREO_COUNT>
0

> <PUBCHEM_BOND_DEF_STEREO_COUNT>
0

> <PUBCHEM_BOND_UDEF_STEREO_COUNT>
0

> <PUBCHEM_ISOTOPIC_ATOM_COUNT>
0

> <PUBCHEM_COMPONENT_COUNT>
1

> <PUBCHEM_CACTVS_TAUTO_COUNT>
9

> <PUBCHEM_CONFORMER_ID>
0000167D00000001

> <PUBCHEM_MMFF94_ENERGY>
68.4596

> <PUBCHEM_FEATURE_SELFOVERLAP>
35.62

> <PUBCHEM_SHAPE_FINGERPRINT>
10 15 18262512710780645640
10411042 1 16969703283687688743
10616163 171 18338239395883154686
10967382 1 18410012100429229070
11132069 177 18409162216832884669
11578080 2 17201347718505248258
12011746 2 18410859841042374310
12107183 9 17690845558000159065
12236239 1 13470690338792453460
12251169 10 18335139816864396069
12403259 415 18410852127603240605
12403814 3 17530960289353343621
12500047 106 18271238421624861530
12592029 89 18334859377112304987
12788726 201 17703518696578858128
128620 24 11818992989152349105
13140716 1 18192429898953651512
13533116 47 17846218813073552003
13544592 145 18272379637759764926
13675066 3 18341893012844745609
14178342 30 18123731313450613666
14341114 176 18409738343777605753
14866123 147 17046555868986690930
15042514 8 18263932206156989787
15196674 1 18410012108982090935
15256400 18 18410857620686823693
15295992 7 17845930826899781123
15536298 74 18413671296627645270
1601671 61 18409168826940819996
16945 1 18266170819592368622
17349148 13 18412820287929204701
17804303 29 18410296916890392117
1813 80 16950285091842931756
18186145 218 17417805158171412875
19141452 34 18413108389914235807
192875 21 13830133918406568194
19591789 44 18192993725128068838
200 152 18131627885965453901
20028762 73 18272929458099065015
20261772 1 18410856577167961319
20510252 161 18341895147623301209
20645477 70 18200878374956666302
21033648 29 18271512131406579929
21267235 1 18337399244825179854
21279426 13 18124035632930519374
21421861 104 17895744090149736410
22854114 59 18412546505207311417
22892500 29 17274814788166584896
23184049 59 18410576175690384255
23402539 116 18342170081765240151
23557571 272 17773880972535682807
23558518 356 17682680979747269074
23559900 14 18413389822146813342
2748010 2 18337666399911122230
3004659 81 18260835844047909814
335352 9 18410013195572088855
34934 24 18411133675799850702
350125 39 18409735045496469133
351380 180 18409730664571278687
3545911 37 18411703192367818988
4214541 1 18409167684326479901
465052 167 17967541176940287083
495365 180 17346587600050392546
5104073 3 18409449150412323065
542803 24 17346883342628774985
59755656 215 18335983048405458773
69090 78 18341891905091661271
77779 3 18409450271409361990
7832392 63 18341046427736201710
9709674 26 18410862087368844367
9999458 23 17967819357476725574

> <PUBCHEM_SHAPE_MULTIPOLES>
399.85
9.72
2.11
0.84
3.73
0.39
0.22
-1.2
1.2
-0.24
-0.15
-0.38
-0.13
0.32

> <PUBCHEM_SHAPE_SELFOVERLAP>
871.414

> <PUBCHEM_SHAPE_VOLUME>
217.1

> <PUBCHEM_COORDINATE_TYPE>
2
5
10

> <Energy>
58.4396

> <minimizedAffinity>
-7.15030

> <CNNscore>
0.5988917947

> <CNNaffinity>
7.4321112633

> <CNN_VS>
4.4510302544

> <CNNaffinity_variance>
0.7641455531

$$$$
5757


 22 25  0  0  0  0  0  0  0  0999 V2000
    0.1103   -1.7816   20.7218 O   0  0  0  0  0  0  0  0  0  0  0  0
   -9.4446   -5.4425   24.6585 O   0  0  0  0  0  0  0  0  0  0  0  0
   -2.1810   -2.5079   21.2712 C   0  0  0  0  0  0  0  0  0  0  0  0
   -3.4542   -2.4782   20.4019 C   0  0  0  0  0  0  0  0  0  0  0  0
   -4.5792   -3.3249   20.9969 C   0  0  0  0  0  0  0  0  0  0  0  0
   -4.9564   -2.7435   22.3934 C   0  0  0  0  0  0  0  0  0  0  0  0
   -1.2575   -1.6456   20.3894 C   0  0  0  0  0  0  0  0  0  0  0  0
   -2.5214   -1.8991   22.6369 C   0  0  0  0  0  0  0  0  0  0  0  0
   -2.9366   -2.7993   19.0027 C   0  0  0  0  0  0  0  0  0  0  0  0
   -3.7068   -2.6210   23.3069 C   0  0  0  0  0  0  0  0  0  0  0  0
   -1.5495   -2.1325   18.9566 C   0  0  0  0  0  0  0  0  0  0  0  0
   -5.8285   -3.3480   20.1142 C   0  0  0  0  0  0  0  0  0  0  0  0
   -1.5675   -3.9165   21.4776 C   0  0  0  0  0  0  0  0  0  0  0  0
   -6.1362   -3.4966   23.0060 C   0  0  0  0  0  0  0  0  0  0  0  0
   -6.8547   -4.3205   20.6906 C   0  0  0  0  0  0  0  0  0  0  0  0
   -7.0459   -4.1989   22.1848 C   0  0  0  0  0  0  0  0  0  0  0  0
   -6.3976   -3.4349   24.3866 C   0  0  0  0  0  0  0  0  0  0  0  0
   -8.1468   -4.8582   22.7627 C   0  0  0  0  0  0  0  0  0  0  0  0
   -7.4993   -4.0847   24.9482 C   0  0  0  0  0  0  0  0  0  0  0  0
   -8.3638   -4.7961   24.1331 C   0  0  0  0  0  0  0  0  0  0  0  0
    0.2558   -1.4663   21.6276 H   0  0  0  0  0  0  0  0  0  0  0  0
  -10.0227   -5.9209   24.0974 H   0  0  0  0  0  0  0  0  0  0  0  0
  1  7  1  0
  1 21  1  0
  2 20  1  0
  2 22  1  0
  3  4  1  0
  3  7  1  0
  3  8  1  0
  3 13  1  0
  4  5  1  0
  4  9  1  0
  5  6  1  0
  5 12  1  0
  6 10  1  0
  6 14  1  0
  7 11  1  0
  8 10  1  0
  9 11  1  0
 12 15  1  0
 14 16  2  0
 14 17  1  0
 15 16  1  0
 16 18  1  0
 17 19  2  0
 18 20  2  0
 19 20  1  0
M  END
> <PUBCHEM_COMPOUND_CID>
5757

> <PUBCHEM_CONFORMER_RMSD>
0.6

> <PUBCHEM_CONFORMER_DIVERSEORDER>
1

> <PUBCHEM_MMFF94_PARTIAL_CHARGES>
16
1 -0.68
14 -0.14
15 0.14
16 -0.14
17 -0.15
18 -0.15
19 -0.15
2 -0.53
20 0.08
40 0.4
41 0.15
42 0.15
43 0.15
44 0.45
6 0.14
7 0.28

> <PUBCHEM_EFFECTIVE_ROTOR_COUNT>
1.4

> <PUBCHEM_PHARMACOPHORE_FEATURES>
7
1 1 acceptor
1 1 donor
1 2 donor
5 3 4 7 9 11 rings
6 14 16 17 18 19 20 rings
6 3 4 5 6 8 10 rings
6 5 6 12 14 15 16 rings

> <PUBCHEM_HEAVY_ATOM_COUNT>
20

> <PUBCHEM_ATOM_DEF_STEREO_COUNT>
5

> <PUBCHEM_ATOM_UDEF_STEREO_COUNT>
0

> <PUBCHEM_BOND_DEF_STEREO_COUNT>
0

> <PUBCHEM_BOND_UDEF_STEREO_COUNT>
0

> <PUBCHEM_ISOTOPIC_ATOM_COUNT>
0

> <PUBCHEM_COMPONENT_COUNT>
1

> <PUBCHEM_CACTVS_TAUTO_COUNT>
9

> <PUBCHEM_CONFORMER_ID>
0000167D00000001

> <PUBCHEM_MMFF94_ENERGY>
68.4596

> <PUBCHEM_FEATURE_SELFOVERLAP>
35.62

> <PUBCHEM_SHAPE_FINGERPRINT>
10 15 18262512710780645640
10411042 1 16969703283687688743
10616163 171 18338239395883154686
10967382 1 18410012100429229070
11132069 177 18409162216832884669
11578080 2 17201347718505248258
12011746 2 18410859841042374310
12107183 9 17690845558000159065
12236239 1 13470690338792453460
12251169 10 18335139816864396069
12403259 415 18410852127603240605
12403814 3 17530960289353343621
12500047 106 18271238421624861530
12592029 89 18334859377112304987
12788726 201 17703518696578858128
128620 24 11818992989152349105
13140716 1 18192429898953651512
13533116 47 17846218813073552003
13544592 145 18272379637759764926
13675066 3 18341893012844745609
14178342 30 18123731313450613666
14341114 176 18409738343777605753
14866123 147 17046555868986690930
15042514 8 18263932206156989787
15196674 1 18410012108982090935
15256400 18 18410857620686823693
15295992 7 17845930826899781123
15536298 74 18413671296627645270
1601671 61 18409168826940819996
16945 1 18266170819592368622
17349148 13 18412820287929204701
17804303 29 18410296916890392117
1813 80 16950285091842931756
18186145 218 17417805158171412875
19141452 34 18413108389914235807
192875 21 13830133918406568194
19591789 44 18192993725128068838
200 152 18131627885965453901
20028762 73 18272929458099065015
20261772 1 18410856577167961319
20510252 161 18341895147623301209
20645477 70 18200878374956666302
21033648 29 18271512131406579929
21267235 1 18337399244825179854
21279426 13 18124035632930519374
21421861 104 17895744090149736410
22854114 59 18412546505207311417
22892500 29 17274814788166584896
23184049 59 18410576175690384255
23402539 116 18342170081765240151
23557571 272 17773880972535682807
23558518 356 17682680979747269074
23559900 14 18413389822146813342
2748010 2 18337666399911122230
3004659 81 18260835844047909814
335352 9 18410013195572088855
34934 24 18411133675799850702
350125 39 18409735045496469133
351380 180 18409730664571278687
3545911 37 18411703192367818988
4214541 1 18409167684326479901
465052 167 17967541176940287083
495365 180 17346587600050392546
5104073 3 18409449150412323065
542803 24 17346883342628774985
59755656 215 18335983048405458773
69090 78 18341891905091661271
77779 3 18409450271409361990
7832392 63 18341046427736201710
9709674 26 18410862087368844367
9999458 23 17967819357476725574

> <PUBCHEM_SHAPE_MULTIPOLES>
399.85
9.72
2.11
0.84
3.73
0.39
0.22
-1.2
1.2
-0.24
-0.15
-0.38
-0.13
0.32

> <PUBCHEM_SHAPE_SELFOVERLAP>
871.414

> <PUBCHEM_SHAPE_VOLUME>
217.1

> <PUBCHEM_COORDINATE_TYPE>
2
5
10

> <Energy>
58.4396

> <minimizedAffinity>
-8.94824

> <CNNscore>
0.5782785416

> <CNNaffinity>
7.3892722130

> <CNN_VS>
4.2730574608

> <CNNaffinity_variance>
0.3276501894

$$$$
5757


 22 25  0  0  0  0  0  0  0  0999 V2000
    0.2427   -2.3036   19.9060 O   0  0  0  0  0  0  0  0  0  0  0  0
  -10.0558   -5.3605   22.0951 O   0  0  0  0  0  0  0  0  0  0  0  0
   -1.9561   -3.0272   20.7554 C   0  0  0  0  0  0  0  0  0  0  0  0
   -2.3822   -3.3865   22.1930 C   0  0  0  0  0  0  0  0  0  0  0  0
   -3.9017   -3.4557   22.3444 C   0  0  0  0  0  0  0  0  0  0  0  0
   -4.4465   -4.5743   21.4050 C   0  0  0  0  0  0  0  0  0  0  0  0
   -0.4291   -2.9739   20.9545 C   0  0  0  0  0  0  0  0  0  0  0  0
   -2.4462   -4.1395   19.8204 C   0  0  0  0  0  0  0  0  0  0  0  0
   -1.5888   -2.4076   23.0539 C   0  0  0  0  0  0  0  0  0  0  0  0
   -3.9659   -4.3638   19.9436 C   0  0  0  0  0  0  0  0  0  0  0  0
   -0.2543   -2.2478   22.3026 C   0  0  0  0  0  0  0  0  0  0  0  0
   -4.3373   -3.7563   23.7798 C   0  0  0  0  0  0  0  0  0  0  0  0
   -2.4807   -1.6609   20.2441 C   0  0  0  0  0  0  0  0  0  0  0  0
   -5.9548   -4.7515   21.5725 C   0  0  0  0  0  0  0  0  0  0  0  0
   -5.8575   -3.6695   23.8910 C   0  0  0  0  0  0  0  0  0  0  0  0
   -6.5969   -4.3593   22.7679 C   0  0  0  0  0  0  0  0  0  0  0  0
   -6.7240   -5.3897   20.5829 C   0  0  0  0  0  0  0  0  0  0  0  0
   -7.9814   -4.5617   22.9188 C   0  0  0  0  0  0  0  0  0  0  0  0
   -8.0959   -5.5948   20.7476 C   0  0  0  0  0  0  0  0  0  0  0  0
   -8.7163   -5.1750   21.9124 C   0  0  0  0  0  0  0  0  0  0  0  0
    0.1107   -2.7878   19.0758 H   0  0  0  0  0  0  0  0  0  0  0  0
  -10.4650   -5.0723   22.8872 H   0  0  0  0  0  0  0  0  0  0  0  0
  1  7  1  0
  1 21  1  0
  2 20  1  0
  2 22  1  0
  3  4  1  0
  3  7  1  0
  3  8  1  0
  3 13  1  0
  4  5  1  0
  4  9  1  0
  5  6  1  0
  5 12  1  0
  6 10  1  0
  6 14  1  0
  7 11  1  0
  8 10  1  0
  9 11  1  0
 12 15  1  0
 14 16  2  0
 14 17  1  0
 15 16  1  0
 16 18  1  0
 17 19  2  0
 18 20  2  0
 19 20  1  0
M  END
> <PUBCHEM_COMPOUND_CID>
5757

> <PUBCHEM_CONFORMER_RMSD>
0.6

> <PUBCHEM_CONFORMER_DIVERSEORDER>
1

> <PUBCHEM_MMFF94_PARTIAL_CHARGES>
16
1 -0.68
14 -0.14
15 0.14
16 -0.14
17 -0.15
18 -0.15
19 -0.15
2 -0.53
20 0.08
40 0.4
41 0.15
42 0.15
43 0.15
44 0.45
6 0.14
7 0.28

> <PUBCHEM_EFFECTIVE_ROTOR_COUNT>
1.4

> <PUBCHEM_PHARMACOPHORE_FEATURES>
7
1 1 acceptor
1 1 donor
1 2 donor
5 3 4 7 9 11 rings
6 14 16 17 18 19 20 rings
6 3 4 5 6 8 10 rings
6 5 6 12 14 15 16 rings

> <PUBCHEM_HEAVY_ATOM_COUNT>
20

> <PUBCHEM_ATOM_DEF_STEREO_COUNT>
5

> <PUBCHEM_ATOM_UDEF_STEREO_COUNT>
0

> <PUBCHEM_BOND_DEF_STEREO_COUNT>
0

> <PUBCHEM_BOND_UDEF_STEREO_COUNT>
0

> <PUBCHEM_ISOTOPIC_ATOM_COUNT>
0

> <PUBCHEM_COMPONENT_COUNT>
1

> <PUBCHEM_CACTVS_TAUTO_COUNT>
9

> <PUBCHEM_CONFORMER_ID>
0000167D00000001

> <PUBCHEM_MMFF94_ENERGY>
68.4596

> <PUBCHEM_FEATURE_SELFOVERLAP>
35.62

> <PUBCHEM_SHAPE_FINGERPRINT>
10 15 18262512710780645640
10411042 1 16969703283687688743
10616163 171 18338239395883154686
10967382 1 18410012100429229070
11132069 177 18409162216832884669
11578080 2 17201347718505248258
12011746 2 18410859841042374310
12107183 9 17690845558000159065
12236239 1 13470690338792453460
12251169 10 18335139816864396069
12403259 415 18410852127603240605
12403814 3 17530960289353343621
12500047 106 18271238421624861530
12592029 89 18334859377112304987
12788726 201 17703518696578858128
128620 24 11818992989152349105
13140716 1 18192429898953651512
13533116 47 17846218813073552003
13544592 145 18272379637759764926
13675066 3 18341893012844745609
14178342 30 18123731313450613666
14341114 176 18409738343777605753
14866123 147 17046555868986690930
15042514 8 18263932206156989787
15196674 1 18410012108982090935
15256400 18 18410857620686823693
15295992 7 17845930826899781123
15536298 74 18413671296627645270
1601671 61 18409168826940819996
16945 1 18266170819592368622
17349148 13 18412820287929204701
17804303 29 18410296916890392117
1813 80 16950285091842931756
18186145 218 17417805158171412875
19141452 34 18413108389914235807
192875 21 13830133918406568194
19591789 44 18192993725128068838
200 152 18131627885965453901
20028762 73 18272929458099065015
20261772 1 18410856577167961319
20510252 161 18341895147623301209
20645477 70 18200878374956666302
21033648 29 18271512131406579929
21267235 1 18337399244825179854
21279426 13 18124035632930519374
21421861 104 17895744090149736410
22854114 59 18412546505207311417
22892500 29 17274814788166584896
23184049 59 18410576175690384255
23402539 116 18342170081765240151
23557571 272 17773880972535682807
23558518 356 17682680979747269074
23559900 14 18413389822146813342
2748010 2 18337666399911122230
3004659 81 18260835844047909814
335352 9 18410013195572088855
34934 24 18411133675799850702
350125 39 18409735045496469133
351380 180 18409730664571278687
3545911 37 18411703192367818988
4214541 1 18409167684326479901
465052 167 17967541176940287083
495365 180 17346587600050392546
5104073 3 18409449150412323065
542803 24 17346883342628774985
59755656 215 18335983048405458773
69090 78 18341891905091661271
77779 3 18409450271409361990
7832392 63 18341046427736201710
9709674 26 18410862087368844367
9999458 23 17967819357476725574

> <PUBCHEM_SHAPE_MULTIPOLES>
399.85
9.72
2.11
0.84
3.73
0.39
0.22
-1.2
1.2
-0.24
-0.15
-0.38
-0.13
0.32

> <PUBCHEM_SHAPE_SELFOVERLAP>
871.414

> <PUBCHEM_SHAPE_VOLUME>
217.1

> <PUBCHEM_COORDINATE_TYPE>
2
5
10

> <Energy>
58.4396

> <minimizedAffinity>
-5.71554

> <CNNscore>
0.4401467144

> <CNNaffinity>
7.3994350433

> <CNN_VS>
3.2568371296

> <CNNaffinity_variance>
0.8618178368

$$$$
5757


 22 25  0  0  0  0  0  0  0  0999 V2000
    0.0244   -2.1496   19.6991 O   0  0  0  0  0  0  0  0  0  0  0  0
   -8.6512   -4.2495   26.0645 O   0  0  0  0  0  0  0  0  0  0  0  0
   -2.1248   -2.6273   20.8092 C   0  0  0  0  0  0  0  0  0  0  0  0
   -3.5229   -2.8328   20.1923 C   0  0  0  0  0  0  0  0  0  0  0  0
   -4.5109   -3.4368   21.1900 C   0  0  0  0  0  0  0  0  0  0  0  0
   -4.6722   -2.4544   22.3897 C   0  0  0  0  0  0  0  0  0  0  0  0
   -1.3826   -2.0903   19.5703 C   0  0  0  0  0  0  0  0  0  0  0  0
   -2.2556   -1.6288   21.9657 C   0  0  0  0  0  0  0  0  0  0  0  0
   -3.2311   -3.5708   18.8888 C   0  0  0  0  0  0  0  0  0  0  0  0
   -3.2946   -2.0900   23.0064 C   0  0  0  0  0  0  0  0  0  0  0  0
   -1.8899   -2.9791   18.4178 C   0  0  0  0  0  0  0  0  0  0  0  0
   -5.8861   -3.6972   20.5724 C   0  0  0  0  0  0  0  0  0  0  0  0
   -1.4453   -3.9216   21.3251 C   0  0  0  0  0  0  0  0  0  0  0  0
   -5.7141   -2.9627   23.3849 C   0  0  0  0  0  0  0  0  0  0  0  0
   -6.7761   -4.4289   21.5743 C   0  0  0  0  0  0  0  0  0  0  0  0
   -6.7247   -3.8595   22.9732 C   0  0  0  0  0  0  0  0  0  0  0  0
   -5.7487   -2.4831   24.7067 C   0  0  0  0  0  0  0  0  0  0  0  0
   -7.6972   -4.2906   23.8947 C   0  0  0  0  0  0  0  0  0  0  0  0
   -6.7249   -2.9099   25.6102 C   0  0  0  0  0  0  0  0  0  0  0  0
   -7.6897   -3.8146   25.1995 C   0  0  0  0  0  0  0  0  0  0  0  0
    0.3063   -1.5798   20.4317 H   0  0  0  0  0  0  0  0  0  0  0  0
   -9.2990   -4.8619   25.7757 H   0  0  0  0  0  0  0  0  0  0  0  0
  1  7  1  0
  1 21  1  0
  2 20  1  0
  2 22  1  0
  3  4  1  0
  3  7  1  0
  3  8  1  0
  3 13  1  0
  4  5  1  0
  4  9  1  0
  5  6  1  0
  5 12  1  0
  6 10  1  0
  6 14  1  0
  7 11  1  0
  8 10  1  0
  9 11  1  0
 12 15  1  0
 14 16  2  0
 14 17  1  0
 15 16  1  0
 16 18  1  0
 17 19  2  0
 18 20  2  0
 19 20  1  0
M  END
> <PUBCHEM_COMPOUND_CID>
5757

> <PUBCHEM_CONFORMER_RMSD>
0.6

> <PUBCHEM_CONFORMER_DIVERSEORDER>
1

> <PUBCHEM_MMFF94_PARTIAL_CHARGES>
16
1 -0.68
14 -0.14
15 0.14
16 -0.14
17 -0.15
18 -0.15
19 -0.15
2 -0.53
20 0.08
40 0.4
41 0.15
42 0.15
43 0.15
44 0.45
6 0.14
7 0.28

> <PUBCHEM_EFFECTIVE_ROTOR_COUNT>
1.4

> <PUBCHEM_PHARMACOPHORE_FEATURES>
7
1 1 acceptor
1 1 donor
1 2 donor
5 3 4 7 9 11 rings
6 14 16 17 18 19 20 rings
6 3 4 5 6 8 10 rings
6 5 6 12 14 15 16 rings

> <PUBCHEM_HEAVY_ATOM_COUNT>
20

> <PUBCHEM_ATOM_DEF_STEREO_COUNT>
5

> <PUBCHEM_ATOM_UDEF_STEREO_COUNT>
0

> <PUBCHEM_BOND_DEF_STEREO_COUNT>
0

> <PUBCHEM_BOND_UDEF_STEREO_COUNT>
0

> <PUBCHEM_ISOTOPIC_ATOM_COUNT>
0

> <PUBCHEM_COMPONENT_COUNT>
1

> <PUBCHEM_CACTVS_TAUTO_COUNT>
9

> <PUBCHEM_CONFORMER_ID>
0000167D00000001

> <PUBCHEM_MMFF94_ENERGY>
68.4596

> <PUBCHEM_FEATURE_SELFOVERLAP>
35.62

> <PUBCHEM_SHAPE_FINGERPRINT>
10 15 18262512710780645640
10411042 1 16969703283687688743
10616163 171 18338239395883154686
10967382 1 18410012100429229070
11132069 177 18409162216832884669
11578080 2 17201347718505248258
12011746 2 18410859841042374310
12107183 9 17690845558000159065
12236239 1 13470690338792453460
12251169 10 18335139816864396069
12403259 415 18410852127603240605
12403814 3 17530960289353343621
12500047 106 18271238421624861530
12592029 89 18334859377112304987
12788726 201 17703518696578858128
128620 24 11818992989152349105
13140716 1 18192429898953651512
13533116 47 17846218813073552003
13544592 145 18272379637759764926
13675066 3 18341893012844745609
14178342 30 18123731313450613666
14341114 176 18409738343777605753
14866123 147 17046555868986690930
15042514 8 18263932206156989787
15196674 1 18410012108982090935
15256400 18 18410857620686823693
15295992 7 17845930826899781123
15536298 74 18413671296627645270
1601671 61 18409168826940819996
16945 1 18266170819592368622
17349148 13 18412820287929204701
17804303 29 18410296916890392117
1813 80 16950285091842931756
18186145 218 17417805158171412875
19141452 34 18413108389914235807
192875 21 13830133918406568194
19591789 44 18192993725128068838
200 152 18131627885965453901
20028762 73 18272929458099065015
20261772 1 18410856577167961319
20510252 161 18341895147623301209
20645477 70 18200878374956666302
21033648 29 18271512131406579929
21267235 1 18337399244825179854
21279426 13 18124035632930519374
21421861 104 17895744090149736410
22854114 59 18412546505207311417
22892500 29 17274814788166584896
23184049 59 18410576175690384255
23402539 116 18342170081765240151
23557571 272 17773880972535682807
23558518 356 17682680979747269074
23559900 14 18413389822146813342
2748010 2 18337666399911122230
3004659 81 18260835844047909814
335352 9 18410013195572088855
34934 24 18411133675799850702
350125 39 18409735045496469133
351380 180 18409730664571278687
3545911 37 18411703192367818988
4214541 1 18409167684326479901
465052 167 17967541176940287083
495365 180 17346587600050392546
5104073 3 18409449150412323065
542803 24 17346883342628774985
59755656 215 18335983048405458773
69090 78 18341891905091661271
77779 3 18409450271409361990
7832392 63 18341046427736201710
9709674 26 18410862087368844367
9999458 23 17967819357476725574

> <PUBCHEM_SHAPE_MULTIPOLES>
399.85
9.72
2.11
0.84
3.73
0.39
0.22
-1.2
1.2
-0.24
-0.15
-0.38
-0.13
0.32

> <PUBCHEM_SHAPE_SELFOVERLAP>
871.414

> <PUBCHEM_SHAPE_VOLUME>
217.1

> <PUBCHEM_COORDINATE_TYPE>
2
5
10

> <Energy>
58.4396

> <minimizedAffinity>
-6.31682

> <CNNscore>
0.3975580931

> <CNNaffinity>
7.1029791832

> <CNN_VS>
2.8238468170

> <CNNaffinity_variance>
0.3223723471

$$$$
5757


 22 25  0  0  0  0  0  0  0  0999 V2000
  -10.3721    1.1132   17.4207 O   0  0  0  0  0  0  0  0  0  0  0  0
   -5.7928   -4.7285   25.4892 O   0  0  0  0  0  0  0  0  0  0  0  0
   -9.0402    0.0202   19.1845 C   0  0  0  0  0  0  0  0  0  0  0  0
   -7.6111    0.3344   19.6711 C   0  0  0  0  0  0  0  0  0  0  0  0
   -7.2896   -0.3514   20.9987 C   0  0  0  0  0  0  0  0  0  0  0  0
   -7.3836   -1.8947   20.7990 C   0  0  0  0  0  0  0  0  0  0  0  0
   -9.0649    0.8855   17.9099 C   0  0  0  0  0  0  0  0  0  0  0  0
   -9.1398   -1.4905   18.9405 C   0  0  0  0  0  0  0  0  0  0  0  0
   -7.5299    1.8553   19.5761 C   0  0  0  0  0  0  0  0  0  0  0  0
   -8.7550   -2.3002   20.1941 C   0  0  0  0  0  0  0  0  0  0  0  0
   -8.3769    2.1970   18.3365 C   0  0  0  0  0  0  0  0  0  0  0  0
   -5.8942   -0.0017   21.5193 C   0  0  0  0  0  0  0  0  0  0  0  0
  -10.1679    0.4573   20.1543 C   0  0  0  0  0  0  0  0  0  0  0  0
   -6.9898   -2.6424   22.0719 C   0  0  0  0  0  0  0  0  0  0  0  0
   -5.6925   -0.6000   22.9094 C   0  0  0  0  0  0  0  0  0  0  0  0
   -6.1566   -2.0326   23.0358 C   0  0  0  0  0  0  0  0  0  0  0  0
   -7.3694   -3.9817   22.2728 C   0  0  0  0  0  0  0  0  0  0  0  0
   -5.7753   -2.7483   24.1860 C   0  0  0  0  0  0  0  0  0  0  0  0
   -6.9765   -4.6860   23.4134 C   0  0  0  0  0  0  0  0  0  0  0  0
   -6.1862   -4.0629   24.3648 C   0  0  0  0  0  0  0  0  0  0  0  0
  -10.7725    0.2681   17.1628 H   0  0  0  0  0  0  0  0  0  0  0  0
   -5.2581   -4.2969   26.1262 H   0  0  0  0  0  0  0  0  0  0  0  0
  1  7  1  0
  1 21  1  0
  2 20  1  0
  2 22  1  0
  3  4  1  0
  3  7  1  0
  3  8  1  0
  3 13  1  0
  4  5  1  0
  4  9  1  0
  5  6  1  0
  5 12  1  0
  6 10  1  0
  6 14  1  0
  7 11  1  0
  8 10  1  0
  9 11  1  0
 12 15  1  0
 14 16  2  0
 14 17  1  0
 15 16  1  0
 16 18  1  0
 17 19  2  0
 18 20  2  0
 19 20  1  0
M  END
> <PUBCHEM_COMPOUND_CID>
5757

> <PUBCHEM_CONFORMER_RMSD>
0.6

> <PUBCHEM_CONFORMER_DIVERSEORDER>
1

> <PUBCHEM_MMFF94_PARTIAL_CHARGES>
16
1 -0.68
14 -0.14
15 0.14
16 -0.14
17 -0.15
18 -0.15
19 -0.15
2 -0.53
20 0.08
40 0.4
41 0.15
42 0.15
43 0.15
44 0.45
6 0.14
7 0.28

> <PUBCHEM_EFFECTIVE_ROTOR_COUNT>
1.4

> <PUBCHEM_PHARMACOPHORE_FEATURES>
7
1 1 acceptor
1 1 donor
1 2 donor
5 3 4 7 9 11 rings
6 14 16 17 18 19 20 rings
6 3 4 5 6 8 10 rings
6 5 6 12 14 15 16 rings

> <PUBCHEM_HEAVY_ATOM_COUNT>
20

> <PUBCHEM_ATOM_DEF_STEREO_COUNT>
5

> <PUBCHEM_ATOM_UDEF_STEREO_COUNT>
0

> <PUBCHEM_BOND_DEF_STEREO_COUNT>
0

> <PUBCHEM_BOND_UDEF_STEREO_COUNT>
0

> <PUBCHEM_ISOTOPIC_ATOM_COUNT>
0

> <PUBCHEM_COMPONENT_COUNT>
1

> <PUBCHEM_CACTVS_TAUTO_COUNT>
9

> <PUBCHEM_CONFORMER_ID>
0000167D00000001

> <PUBCHEM_MMFF94_ENERGY>
68.4596

> <PUBCHEM_FEATURE_SELFOVERLAP>
35.62

> <PUBCHEM_SHAPE_FINGERPRINT>
10 15 18262512710780645640
10411042 1 16969703283687688743
10616163 171 18338239395883154686
10967382 1 18410012100429229070
11132069 177 18409162216832884669
11578080 2 17201347718505248258
12011746 2 18410859841042374310
12107183 9 17690845558000159065
12236239 1 13470690338792453460
12251169 10 18335139816864396069
12403259 415 18410852127603240605
12403814 3 17530960289353343621
12500047 106 18271238421624861530
12592029 89 18334859377112304987
12788726 201 17703518696578858128
128620 24 11818992989152349105
13140716 1 18192429898953651512
13533116 47 17846218813073552003
13544592 145 18272379637759764926
13675066 3 18341893012844745609
14178342 30 18123731313450613666
14341114 176 18409738343777605753
14866123 147 17046555868986690930
15042514 8 18263932206156989787
15196674 1 18410012108982090935
15256400 18 18410857620686823693
15295992 7 17845930826899781123
15536298 74 18413671296627645270
1601671 61 18409168826940819996
16945 1 18266170819592368622
17349148 13 18412820287929204701
17804303 29 18410296916890392117
1813 80 16950285091842931756
18186145 218 17417805158171412875
19141452 34 18413108389914235807
192875 21 13830133918406568194
19591789 44 18192993725128068838
200 152 18131627885965453901
20028762 73 18272929458099065015
20261772 1 18410856577167961319
20510252 161 18341895147623301209
20645477 70 18200878374956666302
21033648 29 18271512131406579929
21267235 1 18337399244825179854
21279426 13 18124035632930519374
21421861 104 17895744090149736410
22854114 59 18412546505207311417
22892500 29 17274814788166584896
23184049 59 18410576175690384255
23402539 116 18342170081765240151
23557571 272 17773880972535682807
23558518 356 17682680979747269074
23559900 14 18413389822146813342
2748010 2 18337666399911122230
3004659 81 18260835844047909814
335352 9 18410013195572088855
34934 24 18411133675799850702
350125 39 18409735045496469133
351380 180 18409730664571278687
3545911 37 18411703192367818988
4214541 1 18409167684326479901
465052 167 17967541176940287083
495365 180 17346587600050392546
5104073 3 18409449150412323065
542803 24 17346883342628774985
59755656 215 18335983048405458773
69090 78 18341891905091661271
77779 3 18409450271409361990
7832392 63 18341046427736201710
9709674 26 18410862087368844367
9999458 23 17967819357476725574

> <PUBCHEM_SHAPE_MULTIPOLES>
399.85
9.72
2.11
0.84
3.73
0.39
0.22
-1.2
1.2
-0.24
-0.15
-0.38
-0.13
0.32

> <PUBCHEM_SHAPE_SELFOVERLAP>
871.414

> <PUBCHEM_SHAPE_VOLUME>
217.1

> <PUBCHEM_COORDINATE_TYPE>
2
5
10

> <Energy>
58.4396

> <minimizedAffinity>
29.65167

> <CNNscore>
0.2575844228

> <CNNaffinity>
5.4126629829

> <CNN_VS>
1.3942177296

> <CNNaffinity_variance>
0.2400283813

$$$$
5757


 22 25  0  0  0  0  0  0  0  0999 V2000
   -1.5787   -3.7961   18.1740 O   0  0  0  0  0  0  0  0  0  0  0  0
   -9.3182   -3.5257   25.9344 O   0  0  0  0  0  0  0  0  0  0  0  0
   -3.0530   -3.5822   20.1389 C   0  0  0  0  0  0  0  0  0  0  0  0
   -2.7473   -3.0066   21.5363 C   0  0  0  0  0  0  0  0  0  0  0  0
   -4.0183   -2.7516   22.3461 C   0  0  0  0  0  0  0  0  0  0  0  0
   -4.7583   -4.1080   22.5540 C   0  0  0  0  0  0  0  0  0  0  0  0
   -1.6187   -3.6551   19.5806 C   0  0  0  0  0  0  0  0  0  0  0  0
   -3.7433   -4.9392   20.3224 C   0  0  0  0  0  0  0  0  0  0  0  0
   -1.8019   -1.8451   21.2430 C   0  0  0  0  0  0  0  0  0  0  0  0
   -5.0052   -4.8263   21.1998 C   0  0  0  0  0  0  0  0  0  0  0  0
   -0.9718   -2.3345   20.0421 C   0  0  0  0  0  0  0  0  0  0  0  0
   -3.7302   -2.1280   23.7131 C   0  0  0  0  0  0  0  0  0  0  0  0
   -3.9349   -2.6767   19.2415 C   0  0  0  0  0  0  0  0  0  0  0  0
   -5.9971   -3.9337   23.4311 C   0  0  0  0  0  0  0  0  0  0  0  0
   -5.0415   -1.7683   24.4075 C   0  0  0  0  0  0  0  0  0  0  0  0
   -6.0951   -2.8490   24.3304 C   0  0  0  0  0  0  0  0  0  0  0  0
   -7.0256   -4.8932   23.4318 C   0  0  0  0  0  0  0  0  0  0  0  0
   -7.2279   -2.7230   25.1558 C   0  0  0  0  0  0  0  0  0  0  0  0
   -8.1408   -4.7635   24.2630 C   0  0  0  0  0  0  0  0  0  0  0  0
   -8.2369   -3.6766   25.1158 C   0  0  0  0  0  0  0  0  0  0  0  0
   -1.9934   -4.6358   17.9214 H   0  0  0  0  0  0  0  0  0  0  0  0
   -9.3726   -2.7863   26.5073 H   0  0  0  0  0  0  0  0  0  0  0  0
  1  7  1  0
  1 21  1  0
  2 20  1  0
  2 22  1  0
  3  4  1  0
  3  7  1  0
  3  8  1  0
  3 13  1  0
  4  5  1  0
  4  9  1  0
  5  6  1  0
  5 12  1  0
  6 10  1  0
  6 14  1  0
  7 11  1  0
  8 10  1  0
  9 11  1  0
 12 15  1  0
 14 16  2  0
 14 17  1  0
 15 16  1  0
 16 18  1  0
 17 19  2  0
 18 20  2  0
 19 20  1  0
M  END
> <PUBCHEM_COMPOUND_CID>
5757

> <PUBCHEM_CONFORMER_RMSD>
0.6

> <PUBCHEM_CONFORMER_DIVERSEORDER>
1

> <PUBCHEM_MMFF94_PARTIAL_CHARGES>
16
1 -0.68
14 -0.14
15 0.14
16 -0.14
17 -0.15
18 -0.15
19 -0.15
2 -0.53
20 0.08
40 0.4
41 0.15
42 0.15
43 0.15
44 0.45
6 0.14
7 0.28

> <PUBCHEM_EFFECTIVE_ROTOR_COUNT>
1.4

> <PUBCHEM_PHARMACOPHORE_FEATURES>
7
1 1 acceptor
1 1 donor
1 2 donor
5 3 4 7 9 11 rings
6 14 16 17 18 19 20 rings
6 3 4 5 6 8 10 rings
6 5 6 12 14 15 16 rings

> <PUBCHEM_HEAVY_ATOM_COUNT>
20

> <PUBCHEM_ATOM_DEF_STEREO_COUNT>
5

> <PUBCHEM_ATOM_UDEF_STEREO_COUNT>
0

> <PUBCHEM_BOND_DEF_STEREO_COUNT>
0

> <PUBCHEM_BOND_UDEF_STEREO_COUNT>
0

> <PUBCHEM_ISOTOPIC_ATOM_COUNT>
0

> <PUBCHEM_COMPONENT_COUNT>
1

> <PUBCHEM_CACTVS_TAUTO_COUNT>
9

> <PUBCHEM_CONFORMER_ID>
0000167D00000001

> <PUBCHEM_MMFF94_ENERGY>
68.4596

> <PUBCHEM_FEATURE_SELFOVERLAP>
35.62

> <PUBCHEM_SHAPE_FINGERPRINT>
10 15 18262512710780645640
10411042 1 16969703283687688743
10616163 171 18338239395883154686
10967382 1 18410012100429229070
11132069 177 18409162216832884669
11578080 2 17201347718505248258
12011746 2 18410859841042374310
12107183 9 17690845558000159065
12236239 1 13470690338792453460
12251169 10 18335139816864396069
12403259 415 18410852127603240605
12403814 3 17530960289353343621
12500047 106 18271238421624861530
12592029 89 18334859377112304987
12788726 201 17703518696578858128
128620 24 11818992989152349105
13140716 1 18192429898953651512
13533116 47 17846218813073552003
13544592 145 18272379637759764926
13675066 3 18341893012844745609
14178342 30 18123731313450613666
14341114 176 18409738343777605753
14866123 147 17046555868986690930
15042514 8 18263932206156989787
15196674 1 18410012108982090935
15256400 18 18410857620686823693
15295992 7 17845930826899781123
15536298 74 18413671296627645270
1601671 61 18409168826940819996
16945 1 18266170819592368622
17349148 13 18412820287929204701
17804303 29 18410296916890392117
1813 80 16950285091842931756
18186145 218 17417805158171412875
19141452 34 18413108389914235807
192875 21 13830133918406568194
19591789 44 18192993725128068838
200 152 18131627885965453901
20028762 73 18272929458099065015
20261772 1 18410856577167961319
20510252 161 18341895147623301209
20645477 70 18200878374956666302
21033648 29 18271512131406579929
21267235 1 18337399244825179854
21279426 13 18124035632930519374
21421861 104 17895744090149736410
22854114 59 18412546505207311417
22892500 29 17274814788166584896
23184049 59 18410576175690384255
23402539 116 18342170081765240151
23557571 272 17773880972535682807
23558518 356 17682680979747269074
23559900 14 18413389822146813342
2748010 2 18337666399911122230
3004659 81 18260835844047909814
335352 9 18410013195572088855
34934 24 18411133675799850702
350125 39 18409735045496469133
351380 180 18409730664571278687
3545911 37 18411703192367818988
4214541 1 18409167684326479901
465052 167 17967541176940287083
495365 180 17346587600050392546
5104073 3 18409449150412323065
542803 24 17346883342628774985
59755656 215 18335983048405458773
69090 78 18341891905091661271
77779 3 18409450271409361990
7832392 63 18341046427736201710
9709674 26 18410862087368844367
9999458 23 17967819357476725574

> <PUBCHEM_SHAPE_MULTIPOLES>
399.85
9.72
2.11
0.84
3.73
0.39
0.22
-1.2
1.2
-0.24
-0.15
-0.38
-0.13
0.32

> <PUBCHEM_SHAPE_SELFOVERLAP>
871.414

> <PUBCHEM_SHAPE_VOLUME>
217.1

> <PUBCHEM_COORDINATE_TYPE>
2
5
10

> <Energy>
58.4396

> <minimizedAffinity>
-6.98309

> <CNNscore>
0.2403168678

> <CNNaffinity>
7.0614047050

> <CNN_VS>
1.6969746351

> <CNNaffinity_variance>
0.4244619906

$$$$
