2519


 14 15  0  0  0  0  0  0  0  0999 V2000
   22.7938   -4.6677    9.6458 O   0  0  0  0  0  0  0  0  0  0  0  0
   27.0772   -3.1966   10.6072 O   0  0  0  0  0  0  0  0  0  0  0  0
   26.0045   -2.2766    8.7883 N   0  0  0  0  0  0  0  0  0  0  0  0
   22.8672   -2.7549    7.3485 N   0  0  0  0  0  0  0  0  0  0  0  0
   24.9458   -3.9437   10.1468 N   0  0  0  0  0  0  0  0  0  0  0  0
   24.6393   -1.4773    6.9288 N   0  0  0  0  0  0  0  0  0  0  0  0
   23.7926   -3.0499    8.3079 C   0  0  0  0  0  0  0  0  0  0  0  0
   24.8611   -2.2553    8.0243 C   0  0  0  0  0  0  0  0  0  0  0  0
   23.7637   -3.9570    9.4002 C   0  0  0  0  0  0  0  0  0  0  0  0
   26.0754   -3.1366    9.8872 C   0  0  0  0  0  0  0  0  0  0  0  0
   23.4222   -1.8002    6.5376 C   0  0  0  0  0  0  0  0  0  0  0  0
   27.1204   -1.4109    8.4488 C   0  0  0  0  0  0  0  0  0  0  0  0
   21.5547   -3.3319    7.2078 C   0  0  0  0  0  0  0  0  0  0  0  0
   25.0333   -4.8304   11.2910 C   0  0  0  0  0  0  0  0  0  0  0  0
  1  9  2  0
  2 10  2  0
  3  8  1  0
  3 10  1  0
  3 12  1  0
  4  7  1  0
  4 11  1  0
  4 13  1  0
  5  9  1  0
  5 10  1  0
  5 14  1  0
  6  8  1  0
  6 11  2  0
  7  8  2  0
  7  9  1  0
M  END
> <PUBCHEM_COMPOUND_CID>
2519

> <PUBCHEM_CONFORMER_RMSD>
0.4

> <PUBCHEM_CONFORMER_DIVERSEORDER>
1

> <PUBCHEM_MMFF94_PARTIAL_CHARGES>
15
1 -0.57
10 0.69
11 0.04
12 0.3
13 0.26
14 0.3
15 0.15
2 -0.57
3 -0.42
4 0.05
5 -0.42
6 -0.57
7 -0.24
8 0.29
9 0.71

> <PUBCHEM_EFFECTIVE_ROTOR_COUNT>
0

> <PUBCHEM_PHARMACOPHORE_FEATURES>
5
1 1 acceptor
1 2 acceptor
3 4 6 11 cation
5 4 6 7 8 11 rings
6 3 5 7 8 9 10 rings

> <PUBCHEM_HEAVY_ATOM_COUNT>
14

> <PUBCHEM_ATOM_DEF_STEREO_COUNT>
0

> <PUBCHEM_ATOM_UDEF_STEREO_COUNT>
0

> <PUBCHEM_BOND_DEF_STEREO_COUNT>
0

> <PUBCHEM_BOND_UDEF_STEREO_COUNT>
0

> <PUBCHEM_ISOTOPIC_ATOM_COUNT>
0

> <PUBCHEM_COMPONENT_COUNT>
1

> <PUBCHEM_CACTVS_TAUTO_COUNT>
1

> <PUBCHEM_CONFORMER_ID>
000009D700000001

> <PUBCHEM_MMFF94_ENERGY>
22.901

> <PUBCHEM_FEATURE_SELFOVERLAP>
25.487

> <PUBCHEM_SHAPE_FINGERPRINT>
10967382 1 18338799025773621285
11132069 177 18339075025094499008
12524768 44 18342463625094026902
13140716 1 17978511158789908153
16945 1 18338517550775811621
193761 8 15816500986559935910
20588541 1 18339082691204868851
21501502 16 18338796715286957384
22802520 49 18128840606503503494
2334 1 18338516344016692929
23402539 116 18270382932679789735
23552423 10 18262240993325675966
23559900 14 18199193898169584358
241688 4 18266458702623303353
2748010 2 18266180539182415717
5084963 1 17698433339235542986
528886 8 18267580380709240570
53812653 166 18198902694142226312
66348 1 18339079396917369615

> <PUBCHEM_SHAPE_MULTIPOLES>
256.45
4.01
2.83
0.58
0.71
0.08
0
-0.48
0
-0.81
0
0.01
0
0

> <PUBCHEM_SHAPE_SELFOVERLAP>
550.88

> <PUBCHEM_SHAPE_VOLUME>
143.9

> <PUBCHEM_COORDINATE_TYPE>
2
5
10

> <Energy>
-122.511

> <minimizedAffinity>
-5.70687

> <CNNscore>
0.6748811603

> <CNNaffinity>
4.9584279060

> <CNN_VS>
3.3463494778

> <CNNaffinity_variance>
0.1446324587

$$$$
2519


 14 15  0  0  0  0  0  0  0  0999 V2000
   24.4642   -1.0520    7.2126 O   0  0  0  0  0  0  0  0  0  0  0  0
   26.6504   -3.1258   10.7275 O   0  0  0  0  0  0  0  0  0  0  0  0
   24.6250   -3.9931   10.0560 N   0  0  0  0  0  0  0  0  0  0  0  0
   22.3347   -3.1191    7.5790 N   0  0  0  0  0  0  0  0  0  0  0  0
   25.5794   -2.0777    8.9761 N   0  0  0  0  0  0  0  0  0  0  0  0
   22.4737   -4.6968    9.1410 N   0  0  0  0  0  0  0  0  0  0  0  0
   23.5110   -2.9074    8.2388 C   0  0  0  0  0  0  0  0  0  0  0  0
   23.5662   -3.8850    9.1848 C   0  0  0  0  0  0  0  0  0  0  0  0
   24.5253   -1.9280    8.0698 C   0  0  0  0  0  0  0  0  0  0  0  0
   25.6754   -3.0756    9.9710 C   0  0  0  0  0  0  0  0  0  0  0  0
   21.7419   -4.2100    8.1581 C   0  0  0  0  0  0  0  0  0  0  0  0
   24.6420   -5.0525   11.0496 C   0  0  0  0  0  0  0  0  0  0  0  0
   21.8089   -2.3477    6.4817 C   0  0  0  0  0  0  0  0  0  0  0  0
   26.6773   -1.1333    8.8990 C   0  0  0  0  0  0  0  0  0  0  0  0
  1  9  2  0
  2 10  2  0
  3  8  1  0
  3 10  1  0
  3 12  1  0
  4  7  1  0
  4 11  1  0
  4 13  1  0
  5  9  1  0
  5 10  1  0
  5 14  1  0
  6  8  1  0
  6 11  2  0
  7  8  2  0
  7  9  1  0
M  END
> <PUBCHEM_COMPOUND_CID>
2519

> <PUBCHEM_CONFORMER_RMSD>
0.4

> <PUBCHEM_CONFORMER_DIVERSEORDER>
1

> <PUBCHEM_MMFF94_PARTIAL_CHARGES>
15
1 -0.57
10 0.69
11 0.04
12 0.3
13 0.26
14 0.3
15 0.15
2 -0.57
3 -0.42
4 0.05
5 -0.42
6 -0.57
7 -0.24
8 0.29
9 0.71

> <PUBCHEM_EFFECTIVE_ROTOR_COUNT>
0

> <PUBCHEM_PHARMACOPHORE_FEATURES>
5
1 1 acceptor
1 2 acceptor
3 4 6 11 cation
5 4 6 7 8 11 rings
6 3 5 7 8 9 10 rings

> <PUBCHEM_HEAVY_ATOM_COUNT>
14

> <PUBCHEM_ATOM_DEF_STEREO_COUNT>
0

> <PUBCHEM_ATOM_UDEF_STEREO_COUNT>
0

> <PUBCHEM_BOND_DEF_STEREO_COUNT>
0

> <PUBCHEM_BOND_UDEF_STEREO_COUNT>
0

> <PUBCHEM_ISOTOPIC_ATOM_COUNT>
0

> <PUBCHEM_COMPONENT_COUNT>
1

> <PUBCHEM_CACTVS_TAUTO_COUNT>
1

> <PUBCHEM_CONFORMER_ID>
000009D700000001

> <PUBCHEM_MMFF94_ENERGY>
22.901

> <PUBCHEM_FEATURE_SELFOVERLAP>
25.487

> <PUBCHEM_SHAPE_FINGERPRINT>
10967382 1 18338799025773621285
11132069 177 18339075025094499008
12524768 44 18342463625094026902
13140716 1 17978511158789908153
16945 1 18338517550775811621
193761 8 15816500986559935910
20588541 1 18339082691204868851
21501502 16 18338796715286957384
22802520 49 18128840606503503494
2334 1 18338516344016692929
23402539 116 18270382932679789735
23552423 10 18262240993325675966
23559900 14 18199193898169584358
241688 4 18266458702623303353
2748010 2 18266180539182415717
5084963 1 17698433339235542986
528886 8 18267580380709240570
53812653 166 18198902694142226312
66348 1 18339079396917369615

> <PUBCHEM_SHAPE_MULTIPOLES>
256.45
4.01
2.83
0.58
0.71
0.08
0
-0.48
0
-0.81
0
0.01
0
0

> <PUBCHEM_SHAPE_SELFOVERLAP>
550.88

> <PUBCHEM_SHAPE_VOLUME>
143.9

> <PUBCHEM_COORDINATE_TYPE>
2
5
10

> <Energy>
-122.511

> <minimizedAffinity>
-5.73647

> <CNNscore>
0.5872326493

> <CNNaffinity>
4.9109463692

> <CNN_VS>
2.8838679790

> <CNNaffinity_variance>
0.1367874146

$$$$
2519


 14 15  0  0  0  0  0  0  0  0999 V2000
   22.0135   -4.2117    8.6594 O   0  0  0  0  0  0  0  0  0  0  0  0
   25.5956   -2.0348   10.6255 O   0  0  0  0  0  0  0  0  0  0  0  0
   25.0400   -1.4614    8.4650 N   0  0  0  0  0  0  0  0  0  0  0  0
   22.5756   -2.5358    6.2474 N   0  0  0  0  0  0  0  0  0  0  0  0
   23.8092   -3.1311    9.6663 N   0  0  0  0  0  0  0  0  0  0  0  0
   24.2343   -1.0543    6.1966 N   0  0  0  0  0  0  0  0  0  0  0  0
   23.1868   -2.5975    7.4667 C   0  0  0  0  0  0  0  0  0  0  0  0
   24.1936   -1.6832    7.4039 C   0  0  0  0  0  0  0  0  0  0  0  0
   22.9249   -3.3910    8.6149 C   0  0  0  0  0  0  0  0  0  0  0  0
   24.8650   -2.1932    9.6424 C   0  0  0  0  0  0  0  0  0  0  0  0
   23.2422   -1.5905    5.5133 C   0  0  0  0  0  0  0  0  0  0  0  0
   26.1008   -0.4754    8.3534 C   0  0  0  0  0  0  0  0  0  0  0  0
   21.4448   -3.3126    5.8078 C   0  0  0  0  0  0  0  0  0  0  0  0
   23.6390   -3.8824   10.8950 C   0  0  0  0  0  0  0  0  0  0  0  0
  1  9  2  0
  2 10  2  0
  3  8  1  0
  3 10  1  0
  3 12  1  0
  4  7  1  0
  4 11  1  0
  4 13  1  0
  5  9  1  0
  5 10  1  0
  5 14  1  0
  6  8  1  0
  6 11  2  0
  7  8  2  0
  7  9  1  0
M  END
> <PUBCHEM_COMPOUND_CID>
2519

> <PUBCHEM_CONFORMER_RMSD>
0.4

> <PUBCHEM_CONFORMER_DIVERSEORDER>
1

> <PUBCHEM_MMFF94_PARTIAL_CHARGES>
15
1 -0.57
10 0.69
11 0.04
12 0.3
13 0.26
14 0.3
15 0.15
2 -0.57
3 -0.42
4 0.05
5 -0.42
6 -0.57
7 -0.24
8 0.29
9 0.71

> <PUBCHEM_EFFECTIVE_ROTOR_COUNT>
0

> <PUBCHEM_PHARMACOPHORE_FEATURES>
5
1 1 acceptor
1 2 acceptor
3 4 6 11 cation
5 4 6 7 8 11 rings
6 3 5 7 8 9 10 rings

> <PUBCHEM_HEAVY_ATOM_COUNT>
14

> <PUBCHEM_ATOM_DEF_STEREO_COUNT>
0

> <PUBCHEM_ATOM_UDEF_STEREO_COUNT>
0

> <PUBCHEM_BOND_DEF_STEREO_COUNT>
0

> <PUBCHEM_BOND_UDEF_STEREO_COUNT>
0

> <PUBCHEM_ISOTOPIC_ATOM_COUNT>
0

> <PUBCHEM_COMPONENT_COUNT>
1

> <PUBCHEM_CACTVS_TAUTO_COUNT>
1

> <PUBCHEM_CONFORMER_ID>
000009D700000001

> <PUBCHEM_MMFF94_ENERGY>
22.901

> <PUBCHEM_FEATURE_SELFOVERLAP>
25.487

> <PUBCHEM_SHAPE_FINGERPRINT>
10967382 1 18338799025773621285
11132069 177 18339075025094499008
12524768 44 18342463625094026902
13140716 1 17978511158789908153
16945 1 18338517550775811621
193761 8 15816500986559935910
20588541 1 18339082691204868851
21501502 16 18338796715286957384
22802520 49 18128840606503503494
2334 1 18338516344016692929
23402539 116 18270382932679789735
23552423 10 18262240993325675966
23559900 14 18199193898169584358
241688 4 18266458702623303353
2748010 2 18266180539182415717
5084963 1 17698433339235542986
528886 8 18267580380709240570
53812653 166 18198902694142226312
66348 1 18339079396917369615

> <PUBCHEM_SHAPE_MULTIPOLES>
256.45
4.01
2.83
0.58
0.71
0.08
0
-0.48
0
-0.81
0
0.01
0
0

> <PUBCHEM_SHAPE_SELFOVERLAP>
550.88

> <PUBCHEM_SHAPE_VOLUME>
143.9

> <PUBCHEM_COORDINATE_TYPE>
2
5
10

> <Energy>
-122.511

> <minimizedAffinity>
-5.64170

> <CNNscore>
0.5441693664

> <CNNaffinity>
4.9494829178

> <CNN_VS>
2.6933569908

> <CNNaffinity_variance>
0.2908650339

$$$$
2519


 14 15  0  0  0  0  0  0  0  0999 V2000
   22.2945   -4.2141    7.2629 O   0  0  0  0  0  0  0  0  0  0  0  0
   24.6040   -0.2268    6.8121 O   0  0  0  0  0  0  0  0  0  0  0  0
   25.3348   -1.7214    8.4050 N   0  0  0  0  0  0  0  0  0  0  0  0
   24.2521   -4.8730    9.4251 N   0  0  0  0  0  0  0  0  0  0  0  0
   23.4395   -2.2051    7.0195 N   0  0  0  0  0  0  0  0  0  0  0  0
   25.8873   -3.4807   10.0052 N   0  0  0  0  0  0  0  0  0  0  0  0
   24.1283   -3.7753    8.6227 C   0  0  0  0  0  0  0  0  0  0  0  0
   25.1389   -2.9453    9.0011 C   0  0  0  0  0  0  0  0  0  0  0  0
   23.2012   -3.4567    7.5953 C   0  0  0  0  0  0  0  0  0  0  0  0
   24.4744   -1.3149    7.3818 C   0  0  0  0  0  0  0  0  0  0  0  0
   25.3277   -4.6504   10.2440 C   0  0  0  0  0  0  0  0  0  0  0  0
   26.4267   -0.8683    8.8408 C   0  0  0  0  0  0  0  0  0  0  0  0
   23.4162   -6.0462    9.4189 C   0  0  0  0  0  0  0  0  0  0  0  0
   22.5551   -1.7703    5.9556 C   0  0  0  0  0  0  0  0  0  0  0  0
  1  9  2  0
  2 10  2  0
  3  8  1  0
  3 10  1  0
  3 12  1  0
  4  7  1  0
  4 11  1  0
  4 13  1  0
  5  9  1  0
  5 10  1  0
  5 14  1  0
  6  8  1  0
  6 11  2  0
  7  8  2  0
  7  9  1  0
M  END
> <PUBCHEM_COMPOUND_CID>
2519

> <PUBCHEM_CONFORMER_RMSD>
0.4

> <PUBCHEM_CONFORMER_DIVERSEORDER>
1

> <PUBCHEM_MMFF94_PARTIAL_CHARGES>
15
1 -0.57
10 0.69
11 0.04
12 0.3
13 0.26
14 0.3
15 0.15
2 -0.57
3 -0.42
4 0.05
5 -0.42
6 -0.57
7 -0.24
8 0.29
9 0.71

> <PUBCHEM_EFFECTIVE_ROTOR_COUNT>
0

> <PUBCHEM_PHARMACOPHORE_FEATURES>
5
1 1 acceptor
1 2 acceptor
3 4 6 11 cation
5 4 6 7 8 11 rings
6 3 5 7 8 9 10 rings

> <PUBCHEM_HEAVY_ATOM_COUNT>
14

> <PUBCHEM_ATOM_DEF_STEREO_COUNT>
0

> <PUBCHEM_ATOM_UDEF_STEREO_COUNT>
0

> <PUBCHEM_BOND_DEF_STEREO_COUNT>
0

> <PUBCHEM_BOND_UDEF_STEREO_COUNT>
0

> <PUBCHEM_ISOTOPIC_ATOM_COUNT>
0

> <PUBCHEM_COMPONENT_COUNT>
1

> <PUBCHEM_CACTVS_TAUTO_COUNT>
1

> <PUBCHEM_CONFORMER_ID>
000009D700000001

> <PUBCHEM_MMFF94_ENERGY>
22.901

> <PUBCHEM_FEATURE_SELFOVERLAP>
25.487

> <PUBCHEM_SHAPE_FINGERPRINT>
10967382 1 18338799025773621285
11132069 177 18339075025094499008
12524768 44 18342463625094026902
13140716 1 17978511158789908153
16945 1 18338517550775811621
193761 8 15816500986559935910
20588541 1 18339082691204868851
21501502 16 18338796715286957384
22802520 49 18128840606503503494
2334 1 18338516344016692929
23402539 116 18270382932679789735
23552423 10 18262240993325675966
23559900 14 18199193898169584358
241688 4 18266458702623303353
2748010 2 18266180539182415717
5084963 1 17698433339235542986
528886 8 18267580380709240570
53812653 166 18198902694142226312
66348 1 18339079396917369615

> <PUBCHEM_SHAPE_MULTIPOLES>
256.45
4.01
2.83
0.58
0.71
0.08
0
-0.48
0
-0.81
0
0.01
0
0

> <PUBCHEM_SHAPE_SELFOVERLAP>
550.88

> <PUBCHEM_SHAPE_VOLUME>
143.9

> <PUBCHEM_COORDINATE_TYPE>
2
5
10

> <Energy>
-122.511

> <minimizedAffinity>
-5.43323

> <CNNscore>
0.4959334731

> <CNNaffinity>
4.8618721962

> <CNN_VS>
2.4111652374

> <CNNaffinity_variance>
0.2772670984

$$$$
2519


 14 15  0  0  0  0  0  0  0  0999 V2000
   22.7809   -4.3175    7.6207 O   0  0  0  0  0  0  0  0  0  0  0  0
   25.8239   -4.8029   11.0761 O   0  0  0  0  0  0  0  0  0  0  0  0
   25.9105   -2.8694    9.8274 N   0  0  0  0  0  0  0  0  0  0  0  0
   24.0773   -1.6703    7.1169 N   0  0  0  0  0  0  0  0  0  0  0  0
   24.3000   -4.5823    9.3609 N   0  0  0  0  0  0  0  0  0  0  0  0
   25.7759   -0.9313    8.3487 N   0  0  0  0  0  0  0  0  0  0  0  0
   24.3305   -2.6376    8.0465 C   0  0  0  0  0  0  0  0  0  0  0  0
   25.3710   -2.1575    8.7815 C   0  0  0  0  0  0  0  0  0  0  0  0
   23.7191   -3.8959    8.2902 C   0  0  0  0  0  0  0  0  0  0  0  0
   25.3785   -4.1210   10.1476 C   0  0  0  0  0  0  0  0  0  0  0  0
   24.9747   -0.6589    7.3375 C   0  0  0  0  0  0  0  0  0  0  0  0
   27.0206   -2.3177   10.5847 C   0  0  0  0  0  0  0  0  0  0  0  0
   23.0621   -1.6989    6.0951 C   0  0  0  0  0  0  0  0  0  0  0  0
   23.7574   -5.8823    9.7055 C   0  0  0  0  0  0  0  0  0  0  0  0
  1  9  2  0
  2 10  2  0
  3  8  1  0
  3 10  1  0
  3 12  1  0
  4  7  1  0
  4 11  1  0
  4 13  1  0
  5  9  1  0
  5 10  1  0
  5 14  1  0
  6  8  1  0
  6 11  2  0
  7  8  2  0
  7  9  1  0
M  END
> <PUBCHEM_COMPOUND_CID>
2519

> <PUBCHEM_CONFORMER_RMSD>
0.4

> <PUBCHEM_CONFORMER_DIVERSEORDER>
1

> <PUBCHEM_MMFF94_PARTIAL_CHARGES>
15
1 -0.57
10 0.69
11 0.04
12 0.3
13 0.26
14 0.3
15 0.15
2 -0.57
3 -0.42
4 0.05
5 -0.42
6 -0.57
7 -0.24
8 0.29
9 0.71

> <PUBCHEM_EFFECTIVE_ROTOR_COUNT>
0

> <PUBCHEM_PHARMACOPHORE_FEATURES>
5
1 1 acceptor
1 2 acceptor
3 4 6 11 cation
5 4 6 7 8 11 rings
6 3 5 7 8 9 10 rings

> <PUBCHEM_HEAVY_ATOM_COUNT>
14

> <PUBCHEM_ATOM_DEF_STEREO_COUNT>
0

> <PUBCHEM_ATOM_UDEF_STEREO_COUNT>
0

> <PUBCHEM_BOND_DEF_STEREO_COUNT>
0

> <PUBCHEM_BOND_UDEF_STEREO_COUNT>
0

> <PUBCHEM_ISOTOPIC_ATOM_COUNT>
0

> <PUBCHEM_COMPONENT_COUNT>
1

> <PUBCHEM_CACTVS_TAUTO_COUNT>
1

> <PUBCHEM_CONFORMER_ID>
000009D700000001

> <PUBCHEM_MMFF94_ENERGY>
22.901

> <PUBCHEM_FEATURE_SELFOVERLAP>
25.487

> <PUBCHEM_SHAPE_FINGERPRINT>
10967382 1 18338799025773621285
11132069 177 18339075025094499008
12524768 44 18342463625094026902
13140716 1 17978511158789908153
16945 1 18338517550775811621
193761 8 15816500986559935910
20588541 1 18339082691204868851
21501502 16 18338796715286957384
22802520 49 18128840606503503494
2334 1 18338516344016692929
23402539 116 18270382932679789735
23552423 10 18262240993325675966
23559900 14 18199193898169584358
241688 4 18266458702623303353
2748010 2 18266180539182415717
5084963 1 17698433339235542986
528886 8 18267580380709240570
53812653 166 18198902694142226312
66348 1 18339079396917369615

> <PUBCHEM_SHAPE_MULTIPOLES>
256.45
4.01
2.83
0.58
0.71
0.08
0
-0.48
0
-0.81
0
0.01
0
0

> <PUBCHEM_SHAPE_SELFOVERLAP>
550.88

> <PUBCHEM_SHAPE_VOLUME>
143.9

> <PUBCHEM_COORDINATE_TYPE>
2
5
10

> <Energy>
-122.511

> <minimizedAffinity>
-5.67257

> <CNNscore>
0.4717390835

> <CNNaffinity>
4.9132580757

> <CNN_VS>
2.3177759647

> <CNNaffinity_variance>
0.2332698703

$$$$
2519


 14 15  0  0  0  0  0  0  0  0999 V2000
   26.1927   -1.3748    9.9944 O   0  0  0  0  0  0  0  0  0  0  0  0
   23.0906   -4.8058   10.1973 O   0  0  0  0  0  0  0  0  0  0  0  0
   23.0827   -3.4545    8.3320 N   0  0  0  0  0  0  0  0  0  0  0  0
   24.9890   -0.7114    7.3387 N   0  0  0  0  0  0  0  0  0  0  0  0
   24.6432   -3.1040   10.1173 N   0  0  0  0  0  0  0  0  0  0  0  0
   23.2991   -1.8768    6.4814 N   0  0  0  0  0  0  0  0  0  0  0  0
   24.6926   -1.6875    8.2461 C   0  0  0  0  0  0  0  0  0  0  0  0
   23.6585   -2.3803    7.6946 C   0  0  0  0  0  0  0  0  0  0  0  0
   25.2599   -2.0069    9.5082 C   0  0  0  0  0  0  0  0  0  0  0  0
   23.5699   -3.8489    9.5807 C   0  0  0  0  0  0  0  0  0  0  0  0
   24.1218   -0.8645    6.2891 C   0  0  0  0  0  0  0  0  0  0  0  0
   21.9811   -4.1648    7.7057 C   0  0  0  0  0  0  0  0  0  0  0  0
   26.0160    0.2922    7.4541 C   0  0  0  0  0  0  0  0  0  0  0  0
   25.1390   -3.5254   11.4134 C   0  0  0  0  0  0  0  0  0  0  0  0
  1  9  2  0
  2 10  2  0
  3  8  1  0
  3 10  1  0
  3 12  1  0
  4  7  1  0
  4 11  1  0
  4 13  1  0
  5  9  1  0
  5 10  1  0
  5 14  1  0
  6  8  1  0
  6 11  2  0
  7  8  2  0
  7  9  1  0
M  END
> <PUBCHEM_COMPOUND_CID>
2519

> <PUBCHEM_CONFORMER_RMSD>
0.4

> <PUBCHEM_CONFORMER_DIVERSEORDER>
1

> <PUBCHEM_MMFF94_PARTIAL_CHARGES>
15
1 -0.57
10 0.69
11 0.04
12 0.3
13 0.26
14 0.3
15 0.15
2 -0.57
3 -0.42
4 0.05
5 -0.42
6 -0.57
7 -0.24
8 0.29
9 0.71

> <PUBCHEM_EFFECTIVE_ROTOR_COUNT>
0

> <PUBCHEM_PHARMACOPHORE_FEATURES>
5
1 1 acceptor
1 2 acceptor
3 4 6 11 cation
5 4 6 7 8 11 rings
6 3 5 7 8 9 10 rings

> <PUBCHEM_HEAVY_ATOM_COUNT>
14

> <PUBCHEM_ATOM_DEF_STEREO_COUNT>
0

> <PUBCHEM_ATOM_UDEF_STEREO_COUNT>
0

> <PUBCHEM_BOND_DEF_STEREO_COUNT>
0

> <PUBCHEM_BOND_UDEF_STEREO_COUNT>
0

> <PUBCHEM_ISOTOPIC_ATOM_COUNT>
0

> <PUBCHEM_COMPONENT_COUNT>
1

> <PUBCHEM_CACTVS_TAUTO_COUNT>
1

> <PUBCHEM_CONFORMER_ID>
000009D700000001

> <PUBCHEM_MMFF94_ENERGY>
22.901

> <PUBCHEM_FEATURE_SELFOVERLAP>
25.487

> <PUBCHEM_SHAPE_FINGERPRINT>
10967382 1 18338799025773621285
11132069 177 18339075025094499008
12524768 44 18342463625094026902
13140716 1 17978511158789908153
16945 1 18338517550775811621
193761 8 15816500986559935910
20588541 1 18339082691204868851
21501502 16 18338796715286957384
22802520 49 18128840606503503494
2334 1 18338516344016692929
23402539 116 18270382932679789735
23552423 10 18262240993325675966
23559900 14 18199193898169584358
241688 4 18266458702623303353
2748010 2 18266180539182415717
5084963 1 17698433339235542986
528886 8 18267580380709240570
53812653 166 18198902694142226312
66348 1 18339079396917369615

> <PUBCHEM_SHAPE_MULTIPOLES>
256.45
4.01
2.83
0.58
0.71
0.08
0
-0.48
0
-0.81
0
0.01
0
0

> <PUBCHEM_SHAPE_SELFOVERLAP>
550.88

> <PUBCHEM_SHAPE_VOLUME>
143.9

> <PUBCHEM_COORDINATE_TYPE>
2
5
10

> <Energy>
-122.511

> <minimizedAffinity>
-5.67559

> <CNNscore>
0.4586215317

> <CNNaffinity>
4.6599020958

> <CNN_VS>
2.1371314526

> <CNNaffinity_variance>
0.5182898641

$$$$
2519


 14 15  0  0  0  0  0  0  0  0999 V2000
   23.8727   -1.0309    5.8316 O   0  0  0  0  0  0  0  0  0  0  0  0
   21.8834   -4.5836    8.0354 O   0  0  0  0  0  0  0  0  0  0  0  0
   23.5075   -3.3941    9.1547 N   0  0  0  0  0  0  0  0  0  0  0  0
   25.4899   -0.6526    8.3183 N   0  0  0  0  0  0  0  0  0  0  0  0
   22.8605   -2.8193    6.9194 N   0  0  0  0  0  0  0  0  0  0  0  0
   25.2496   -1.9666   10.0971 N   0  0  0  0  0  0  0  0  0  0  0  0
   24.5236   -1.5627    7.9991 C   0  0  0  0  0  0  0  0  0  0  0  0
   24.4006   -2.3494    9.1034 C   0  0  0  0  0  0  0  0  0  0  0  0
   23.7530   -1.7475    6.8206 C   0  0  0  0  0  0  0  0  0  0  0  0
   22.7019   -3.6587    8.0441 C   0  0  0  0  0  0  0  0  0  0  0  0
   25.8994   -0.9352    9.5947 C   0  0  0  0  0  0  0  0  0  0  0  0
   23.4100   -4.2073   10.3543 C   0  0  0  0  0  0  0  0  0  0  0  0
   25.9898    0.4065    7.4794 C   0  0  0  0  0  0  0  0  0  0  0  0
   22.0172   -3.1051    5.7747 C   0  0  0  0  0  0  0  0  0  0  0  0
  1  9  2  0
  2 10  2  0
  3  8  1  0
  3 10  1  0
  3 12  1  0
  4  7  1  0
  4 11  1  0
  4 13  1  0
  5  9  1  0
  5 10  1  0
  5 14  1  0
  6  8  1  0
  6 11  2  0
  7  8  2  0
  7  9  1  0
M  END
> <PUBCHEM_COMPOUND_CID>
2519

> <PUBCHEM_CONFORMER_RMSD>
0.4

> <PUBCHEM_CONFORMER_DIVERSEORDER>
1

> <PUBCHEM_MMFF94_PARTIAL_CHARGES>
15
1 -0.57
10 0.69
11 0.04
12 0.3
13 0.26
14 0.3
15 0.15
2 -0.57
3 -0.42
4 0.05
5 -0.42
6 -0.57
7 -0.24
8 0.29
9 0.71

> <PUBCHEM_EFFECTIVE_ROTOR_COUNT>
0

> <PUBCHEM_PHARMACOPHORE_FEATURES>
5
1 1 acceptor
1 2 acceptor
3 4 6 11 cation
5 4 6 7 8 11 rings
6 3 5 7 8 9 10 rings

> <PUBCHEM_HEAVY_ATOM_COUNT>
14

> <PUBCHEM_ATOM_DEF_STEREO_COUNT>
0

> <PUBCHEM_ATOM_UDEF_STEREO_COUNT>
0

> <PUBCHEM_BOND_DEF_STEREO_COUNT>
0

> <PUBCHEM_BOND_UDEF_STEREO_COUNT>
0

> <PUBCHEM_ISOTOPIC_ATOM_COUNT>
0

> <PUBCHEM_COMPONENT_COUNT>
1

> <PUBCHEM_CACTVS_TAUTO_COUNT>
1

> <PUBCHEM_CONFORMER_ID>
000009D700000001

> <PUBCHEM_MMFF94_ENERGY>
22.901

> <PUBCHEM_FEATURE_SELFOVERLAP>
25.487

> <PUBCHEM_SHAPE_FINGERPRINT>
10967382 1 18338799025773621285
11132069 177 18339075025094499008
12524768 44 18342463625094026902
13140716 1 17978511158789908153
16945 1 18338517550775811621
193761 8 15816500986559935910
20588541 1 18339082691204868851
21501502 16 18338796715286957384
22802520 49 18128840606503503494
2334 1 18338516344016692929
23402539 116 18270382932679789735
23552423 10 18262240993325675966
23559900 14 18199193898169584358
241688 4 18266458702623303353
2748010 2 18266180539182415717
5084963 1 17698433339235542986
528886 8 18267580380709240570
53812653 166 18198902694142226312
66348 1 18339079396917369615

> <PUBCHEM_SHAPE_MULTIPOLES>
256.45
4.01
2.83
0.58
0.71
0.08
0
-0.48
0
-0.81
0
0.01
0
0

> <PUBCHEM_SHAPE_SELFOVERLAP>
550.88

> <PUBCHEM_SHAPE_VOLUME>
143.9

> <PUBCHEM_COORDINATE_TYPE>
2
5
10

> <Energy>
-122.511

> <minimizedAffinity>
-5.62376

> <CNNscore>
0.4429625571

> <CNNaffinity>
4.8441901207

> <CNN_VS>
2.1457948685

> <CNNaffinity_variance>
0.1048265696

$$$$
2519


 14 15  0  0  0  0  0  0  0  0999 V2000
   26.1076   -1.0270    8.6452 O   0  0  0  0  0  0  0  0  0  0  0  0
   25.8253   -4.8438   11.2505 O   0  0  0  0  0  0  0  0  0  0  0  0
   24.3551   -4.6292    9.4904 N   0  0  0  0  0  0  0  0  0  0  0  0
   23.8437   -2.1779    7.0666 N   0  0  0  0  0  0  0  0  0  0  0  0
   25.9834   -2.9358    9.9669 N   0  0  0  0  0  0  0  0  0  0  0  0
   22.9287   -4.1422    7.5697 N   0  0  0  0  0  0  0  0  0  0  0  0
   24.5166   -2.6501    8.1566 C   0  0  0  0  0  0  0  0  0  0  0  0
   23.9352   -3.8484    8.4389 C   0  0  0  0  0  0  0  0  0  0  0  0
   25.5913   -2.1084    8.9103 C   0  0  0  0  0  0  0  0  0  0  0  0
   25.4079   -4.1836   10.2938 C   0  0  0  0  0  0  0  0  0  0  0  0
   22.8938   -3.1121    6.7474 C   0  0  0  0  0  0  0  0  0  0  0  0
   23.7055   -5.9013    9.7545 C   0  0  0  0  0  0  0  0  0  0  0  0
   24.0805   -0.9356    6.3767 C   0  0  0  0  0  0  0  0  0  0  0  0
   27.0756   -2.4868   10.8087 C   0  0  0  0  0  0  0  0  0  0  0  0
  1  9  2  0
  2 10  2  0
  3  8  1  0
  3 10  1  0
  3 12  1  0
  4  7  1  0
  4 11  1  0
  4 13  1  0
  5  9  1  0
  5 10  1  0
  5 14  1  0
  6  8  1  0
  6 11  2  0
  7  8  2  0
  7  9  1  0
M  END
> <PUBCHEM_COMPOUND_CID>
2519

> <PUBCHEM_CONFORMER_RMSD>
0.4

> <PUBCHEM_CONFORMER_DIVERSEORDER>
1

> <PUBCHEM_MMFF94_PARTIAL_CHARGES>
15
1 -0.57
10 0.69
11 0.04
12 0.3
13 0.26
14 0.3
15 0.15
2 -0.57
3 -0.42
4 0.05
5 -0.42
6 -0.57
7 -0.24
8 0.29
9 0.71

> <PUBCHEM_EFFECTIVE_ROTOR_COUNT>
0

> <PUBCHEM_PHARMACOPHORE_FEATURES>
5
1 1 acceptor
1 2 acceptor
3 4 6 11 cation
5 4 6 7 8 11 rings
6 3 5 7 8 9 10 rings

> <PUBCHEM_HEAVY_ATOM_COUNT>
14

> <PUBCHEM_ATOM_DEF_STEREO_COUNT>
0

> <PUBCHEM_ATOM_UDEF_STEREO_COUNT>
0

> <PUBCHEM_BOND_DEF_STEREO_COUNT>
0

> <PUBCHEM_BOND_UDEF_STEREO_COUNT>
0

> <PUBCHEM_ISOTOPIC_ATOM_COUNT>
0

> <PUBCHEM_COMPONENT_COUNT>
1

> <PUBCHEM_CACTVS_TAUTO_COUNT>
1

> <PUBCHEM_CONFORMER_ID>
000009D700000001

> <PUBCHEM_MMFF94_ENERGY>
22.901

> <PUBCHEM_FEATURE_SELFOVERLAP>
25.487

> <PUBCHEM_SHAPE_FINGERPRINT>
10967382 1 18338799025773621285
11132069 177 18339075025094499008
12524768 44 18342463625094026902
13140716 1 17978511158789908153
16945 1 18338517550775811621
193761 8 15816500986559935910
20588541 1 18339082691204868851
21501502 16 18338796715286957384
22802520 49 18128840606503503494
2334 1 18338516344016692929
23402539 116 18270382932679789735
23552423 10 18262240993325675966
23559900 14 18199193898169584358
241688 4 18266458702623303353
2748010 2 18266180539182415717
5084963 1 17698433339235542986
528886 8 18267580380709240570
53812653 166 18198902694142226312
66348 1 18339079396917369615

> <PUBCHEM_SHAPE_MULTIPOLES>
256.45
4.01
2.83
0.58
0.71
0.08
0
-0.48
0
-0.81
0
0.01
0
0

> <PUBCHEM_SHAPE_SELFOVERLAP>
550.88

> <PUBCHEM_SHAPE_VOLUME>
143.9

> <PUBCHEM_COORDINATE_TYPE>
2
5
10

> <Energy>
-122.511

> <minimizedAffinity>
-5.67535

> <CNNscore>
0.4389257431

> <CNNaffinity>
4.7519149780

> <CNN_VS>
2.0857377052

> <CNNaffinity_variance>
0.2660403550

$$$$
2519


 14 15  0  0  0  0  0  0  0  0999 V2000
   23.5594   -3.3995    9.5801 O   0  0  0  0  0  0  0  0  0  0  0  0
   21.7341   -3.3551    5.3255 O   0  0  0  0  0  0  0  0  0  0  0  0
   23.8097   -2.4001    5.6179 N   0  0  0  0  0  0  0  0  0  0  0  0
   25.9002   -1.9819    8.3747 N   0  0  0  0  0  0  0  0  0  0  0  0
   22.6237   -3.3882    7.4517 N   0  0  0  0  0  0  0  0  0  0  0  0
   25.9844   -1.4636    6.2130 N   0  0  0  0  0  0  0  0  0  0  0  0
   24.7354   -2.4327    7.8232 C   0  0  0  0  0  0  0  0  0  0  0  0
   24.8171   -2.1014    6.5052 C   0  0  0  0  0  0  0  0  0  0  0  0
   23.6208   -3.1056    8.3902 C   0  0  0  0  0  0  0  0  0  0  0  0
   22.6687   -3.0624    6.0781 C   0  0  0  0  0  0  0  0  0  0  0  0
   26.6232   -1.4036    7.3649 C   0  0  0  0  0  0  0  0  0  0  0  0
   23.9399   -2.0276    4.2199 C   0  0  0  0  0  0  0  0  0  0  0  0
   26.3011   -2.0895    9.7542 C   0  0  0  0  0  0  0  0  0  0  0  0
   21.4340   -4.0761    7.9148 C   0  0  0  0  0  0  0  0  0  0  0  0
  1  9  2  0
  2 10  2  0
  3  8  1  0
  3 10  1  0
  3 12  1  0
  4  7  1  0
  4 11  1  0
  4 13  1  0
  5  9  1  0
  5 10  1  0
  5 14  1  0
  6  8  1  0
  6 11  2  0
  7  8  2  0
  7  9  1  0
M  END
> <PUBCHEM_COMPOUND_CID>
2519

> <PUBCHEM_CONFORMER_RMSD>
0.4

> <PUBCHEM_CONFORMER_DIVERSEORDER>
1

> <PUBCHEM_MMFF94_PARTIAL_CHARGES>
15
1 -0.57
10 0.69
11 0.04
12 0.3
13 0.26
14 0.3
15 0.15
2 -0.57
3 -0.42
4 0.05
5 -0.42
6 -0.57
7 -0.24
8 0.29
9 0.71

> <PUBCHEM_EFFECTIVE_ROTOR_COUNT>
0

> <PUBCHEM_PHARMACOPHORE_FEATURES>
5
1 1 acceptor
1 2 acceptor
3 4 6 11 cation
5 4 6 7 8 11 rings
6 3 5 7 8 9 10 rings

> <PUBCHEM_HEAVY_ATOM_COUNT>
14

> <PUBCHEM_ATOM_DEF_STEREO_COUNT>
0

> <PUBCHEM_ATOM_UDEF_STEREO_COUNT>
0

> <PUBCHEM_BOND_DEF_STEREO_COUNT>
0

> <PUBCHEM_BOND_UDEF_STEREO_COUNT>
0

> <PUBCHEM_ISOTOPIC_ATOM_COUNT>
0

> <PUBCHEM_COMPONENT_COUNT>
1

> <PUBCHEM_CACTVS_TAUTO_COUNT>
1

> <PUBCHEM_CONFORMER_ID>
000009D700000001

> <PUBCHEM_MMFF94_ENERGY>
22.901

> <PUBCHEM_FEATURE_SELFOVERLAP>
25.487

> <PUBCHEM_SHAPE_FINGERPRINT>
10967382 1 18338799025773621285
11132069 177 18339075025094499008
12524768 44 18342463625094026902
13140716 1 17978511158789908153
16945 1 18338517550775811621
193761 8 15816500986559935910
20588541 1 18339082691204868851
21501502 16 18338796715286957384
22802520 49 18128840606503503494
2334 1 18338516344016692929
23402539 116 18270382932679789735
23552423 10 18262240993325675966
23559900 14 18199193898169584358
241688 4 18266458702623303353
2748010 2 18266180539182415717
5084963 1 17698433339235542986
528886 8 18267580380709240570
53812653 166 18198902694142226312
66348 1 18339079396917369615

> <PUBCHEM_SHAPE_MULTIPOLES>
256.45
4.01
2.83
0.58
0.71
0.08
0
-0.48
0
-0.81
0
0.01
0
0

> <PUBCHEM_SHAPE_SELFOVERLAP>
550.88

> <PUBCHEM_SHAPE_VOLUME>
143.9

> <PUBCHEM_COORDINATE_TYPE>
2
5
10

> <Energy>
-122.511

> <minimizedAffinity>
-5.51575

> <CNNscore>
0.4301463962

> <CNNaffinity>
4.8608803749

> <CNN_VS>
2.0908901691

> <CNNaffinity_variance>
0.2468646169

$$$$
