448537


 22 23  0  0  0  0  0  0  0  0999 V2000
   -6.8352   -3.8716   12.9616 C   0  0  0  0  0  0  0  0  0  0  0  0
   -6.4716   -4.5565   11.8487 C   0  0  0  0  0  0  0  0  0  0  0  0
   -3.7873   -4.1899   17.6828 O   0  0  0  0  0  0  0  0  0  0  0  0
   -6.0237   -3.9528   14.1931 C   0  0  0  0  0  0  0  0  0  0  0  0
   -4.7357   -4.5035   14.1548 C   0  0  0  0  0  0  0  0  0  0  0  0
   -6.5373   -3.4866   15.4101 C   0  0  0  0  0  0  0  0  0  0  0  0
   -3.9710   -4.5906   15.3210 C   0  0  0  0  0  0  0  0  0  0  0  0
   -5.7726   -3.5735   16.5747 C   0  0  0  0  0  0  0  0  0  0  0  0
   -4.4982   -4.1238   16.5206 C   0  0  0  0  0  0  0  0  0  0  0  0
   -2.9244   -4.5548   17.6840 H   0  0  0  0  0  0  0  0  0  0  0  0
   -9.5936   -4.2489    7.1752 O   0  0  0  0  0  0  0  0  0  0  0  0
   -7.2814   -4.4738   10.6157 C   0  0  0  0  0  0  0  0  0  0  0  0
   -8.4034   -3.6373   10.5586 C   0  0  0  0  0  0  0  0  0  0  0  0
   -6.9369   -5.2411    9.4952 C   0  0  0  0  0  0  0  0  0  0  0  0
   -9.1707   -3.5729    9.3944 C   0  0  0  0  0  0  0  0  0  0  0  0
   -7.7034   -5.1759    8.3310 C   0  0  0  0  0  0  0  0  0  0  0  0
   -8.8158   -4.3413    8.2916 C   0  0  0  0  0  0  0  0  0  0  0  0
  -10.3386   -3.6807    7.1690 H   0  0  0  0  0  0  0  0  0  0  0  0
   -8.0322   -2.9445   13.0773 C   0  0  0  0  0  0  0  0  0  0  0  0
   -9.2888   -3.6500   13.5707 C   0  0  0  0  0  0  0  0  0  0  0  0
   -5.2315   -5.4212   11.7090 C   0  0  0  0  0  0  0  0  0  0  0  0
   -5.5477   -6.9092   11.6330 C   0  0  0  0  0  0  0  0  0  0  0  0
  3  9  1  0
  3 10  1  0
 11 17  1  0
 11 18  1  0
  1  2  2  0
  1 19  1  0
  1  4  1  0
  2 21  1  0
  2 12  1  0
 19 20  1  0
 21 22  1  0
  4  5  2  0
  4  6  1  0
 12 13  2  0
 12 14  1  0
  5  7  1  0
 13 15  1  0
  6  8  2  0
 14 16  2  0
  7  9  2  0
 15 17  2  0
  8  9  1  0
 16 17  1  0
M  END
> <PUBCHEM_COMPOUND_CID>
448537

> <PUBCHEM_CONFORMER_RMSD>
0.6

> <PUBCHEM_CONFORMER_DIVERSEORDER>
1
3
2

> <PUBCHEM_MMFF94_PARTIAL_CHARGES>
28
1 -0.53
11 -0.15
12 -0.15
13 -0.15
14 -0.15
15 -0.15
16 -0.15
17 -0.15
18 -0.15
19 0.08
2 -0.53
20 0.08
3 -0.17
31 0.15
32 0.15
33 0.15
34 0.15
35 0.15
36 0.15
37 0.15
38 0.15
39 0.45
4 -0.17
40 0.45
5 0.14
6 0.14
7 0.03
8 0.03

> <PUBCHEM_EFFECTIVE_ROTOR_COUNT>
4

> <PUBCHEM_PHARMACOPHORE_FEATURES>
6
1 1 donor
1 10 hydrophobe
1 2 donor
1 9 hydrophobe
6 7 11 13 15 17 19 rings
6 8 12 14 16 18 20 rings

> <PUBCHEM_HEAVY_ATOM_COUNT>
20

> <PUBCHEM_ATOM_DEF_STEREO_COUNT>
0

> <PUBCHEM_ATOM_UDEF_STEREO_COUNT>
0

> <PUBCHEM_BOND_DEF_STEREO_COUNT>
1

> <PUBCHEM_BOND_UDEF_STEREO_COUNT>
0

> <PUBCHEM_ISOTOPIC_ATOM_COUNT>
0

> <PUBCHEM_COMPONENT_COUNT>
1

> <PUBCHEM_CACTVS_TAUTO_COUNT>
3

> <PUBCHEM_CONFORMER_ID>
0006D81900000001

> <PUBCHEM_MMFF94_ENERGY>
60.231

> <PUBCHEM_FEATURE_SELFOVERLAP>
30.447

> <PUBCHEM_SHAPE_FINGERPRINT>
10366900 7 18186514428534874893
104564 63 18339924792832442081
10906281 52 18129397028286092948
11646440 116 18130798871235594657
12592029 89 16950278473467191938
12788726 201 18270697410649816016
13140716 1 18266458895859843337
13533116 47 18340201896197096762
13760787 19 16660644076447957075
14115302 16 18186806919849492430
14341114 176 15647057049052281551
15099037 51 18335139812416525942
15848700 24 18202843262111810220
15848702 151 16988848262958300981
16752209 62 18335696105492573576
16945 1 18410855473013063775
1813 80 18272378572207267076
18186145 218 18338228362096015613
187816 3 18410857663704853992
19141452 34 17131829889222033293
19784866 9 18113613452605694563
200 152 16950282905968490344
20028762 73 18055641861278493167
20600515 1 18340218469921978116
20645477 70 16009301016701038466
21285901 2 17917162606291067244
23175994 123 18333735723499757565
23402539 116 17988639696664490244
23493267 7 17313098635762053785
23557571 272 17489592229515708168
23559900 14 15554438621982335170
266924 87 18194116322357846868
347723 3 18410856551049855057
34934 24 18129105515976021729
3545911 37 15719391732852524422
4072396 5 18261662693185545291
4214541 1 15791727494979709055
465052 167 17240208741576471315
474 4 17917140731779840409
59755656 215 18270402685366324510
633830 44 18342455975941661781
69090 78 17060620005479420895
7226269 152 18410853270196137312
7495541 125 17531535390133293585
77779 3 15719110262139125926
81228 2 18128838385973970688
8272917 22 16660357039657468298
9971528 1 17775283884826915592

> <PUBCHEM_SHAPE_MULTIPOLES>
399.85
10.42
1.74
1.37
0
0
0.06
0
1.28
0
-0.74
0
0
-0.06

> <PUBCHEM_SHAPE_SELFOVERLAP>
850.96

> <PUBCHEM_SHAPE_VOLUME>
224.1

> <PUBCHEM_COORDINATE_TYPE>
2
5
10

> <Energy>
28.3223

> <minimizedAffinity>
-8.76872

> <CNNscore>
0.9194298983

> <CNNaffinity>
7.9628834724

> <CNN_VS>
7.3213129044

> <CNNaffinity_variance>
0.7782426476

$$$$
448537


 22 23  0  0  0  0  0  0  0  0999 V2000
   -6.5616   -4.6157   11.8141 C   0  0  0  0  0  0  0  0  0  0  0  0
   -6.9273   -3.9885   12.9598 C   0  0  0  0  0  0  0  0  0  0  0  0
   -9.7443   -4.2003    7.1904 O   0  0  0  0  0  0  0  0  0  0  0  0
   -7.4016   -4.5196   10.6030 C   0  0  0  0  0  0  0  0  0  0  0  0
   -7.6289   -5.6524    9.8097 C   0  0  0  0  0  0  0  0  0  0  0  0
   -7.9720   -3.2948   10.2336 C   0  0  0  0  0  0  0  0  0  0  0  0
   -8.4146   -5.5606    8.6580 C   0  0  0  0  0  0  0  0  0  0  0  0
   -8.7574   -3.2040    9.0831 C   0  0  0  0  0  0  0  0  0  0  0  0
   -8.9717   -4.3355    8.3062 C   0  0  0  0  0  0  0  0  0  0  0  0
   -9.9102   -4.9422    6.6428 H   0  0  0  0  0  0  0  0  0  0  0  0
   -3.7280   -4.3009   17.5802 O   0  0  0  0  0  0  0  0  0  0  0  0
   -6.0862   -4.0820   14.1708 C   0  0  0  0  0  0  0  0  0  0  0  0
   -6.5310   -3.5470   15.3864 C   0  0  0  0  0  0  0  0  0  0  0  0
   -4.8303   -4.6999   14.1088 C   0  0  0  0  0  0  0  0  0  0  0  0
   -5.7261   -3.6286   16.5240 C   0  0  0  0  0  0  0  0  0  0  0  0
   -4.0262   -4.7823   15.2462 C   0  0  0  0  0  0  0  0  0  0  0  0
   -4.4821   -4.2442   16.4454 C   0  0  0  0  0  0  0  0  0  0  0  0
   -4.0532   -3.9325   18.3779 H   0  0  0  0  0  0  0  0  0  0  0  0
   -5.2895   -5.4205   11.6143 C   0  0  0  0  0  0  0  0  0  0  0  0
   -5.5250   -6.9252   11.6346 C   0  0  0  0  0  0  0  0  0  0  0  0
   -8.1593   -3.1189   13.1364 C   0  0  0  0  0  0  0  0  0  0  0  0
   -9.4005   -3.9145   13.5194 C   0  0  0  0  0  0  0  0  0  0  0  0
  3  9  1  0
  3 10  1  0
 11 17  1  0
 11 18  1  0
  1  2  2  0
  1 19  1  0
  1  4  1  0
  2 21  1  0
  2 12  1  0
 19 20  1  0
 21 22  1  0
  4  5  2  0
  4  6  1  0
 12 13  2  0
 12 14  1  0
  5  7  1  0
 13 15  1  0
  6  8  2  0
 14 16  2  0
  7  9  2  0
 15 17  2  0
  8  9  1  0
 16 17  1  0
M  END
> <PUBCHEM_COMPOUND_CID>
448537

> <PUBCHEM_CONFORMER_RMSD>
0.6

> <PUBCHEM_CONFORMER_DIVERSEORDER>
1
3
2

> <PUBCHEM_MMFF94_PARTIAL_CHARGES>
28
1 -0.53
11 -0.15
12 -0.15
13 -0.15
14 -0.15
15 -0.15
16 -0.15
17 -0.15
18 -0.15
19 0.08
2 -0.53
20 0.08
3 -0.17
31 0.15
32 0.15
33 0.15
34 0.15
35 0.15
36 0.15
37 0.15
38 0.15
39 0.45
4 -0.17
40 0.45
5 0.14
6 0.14
7 0.03
8 0.03

> <PUBCHEM_EFFECTIVE_ROTOR_COUNT>
4

> <PUBCHEM_PHARMACOPHORE_FEATURES>
6
1 1 donor
1 10 hydrophobe
1 2 donor
1 9 hydrophobe
6 7 11 13 15 17 19 rings
6 8 12 14 16 18 20 rings

> <PUBCHEM_HEAVY_ATOM_COUNT>
20

> <PUBCHEM_ATOM_DEF_STEREO_COUNT>
0

> <PUBCHEM_ATOM_UDEF_STEREO_COUNT>
0

> <PUBCHEM_BOND_DEF_STEREO_COUNT>
1

> <PUBCHEM_BOND_UDEF_STEREO_COUNT>
0

> <PUBCHEM_ISOTOPIC_ATOM_COUNT>
0

> <PUBCHEM_COMPONENT_COUNT>
1

> <PUBCHEM_CACTVS_TAUTO_COUNT>
3

> <PUBCHEM_CONFORMER_ID>
0006D81900000001

> <PUBCHEM_MMFF94_ENERGY>
60.231

> <PUBCHEM_FEATURE_SELFOVERLAP>
30.447

> <PUBCHEM_SHAPE_FINGERPRINT>
10366900 7 18186514428534874893
104564 63 18339924792832442081
10906281 52 18129397028286092948
11646440 116 18130798871235594657
12592029 89 16950278473467191938
12788726 201 18270697410649816016
13140716 1 18266458895859843337
13533116 47 18340201896197096762
13760787 19 16660644076447957075
14115302 16 18186806919849492430
14341114 176 15647057049052281551
15099037 51 18335139812416525942
15848700 24 18202843262111810220
15848702 151 16988848262958300981
16752209 62 18335696105492573576
16945 1 18410855473013063775
1813 80 18272378572207267076
18186145 218 18338228362096015613
187816 3 18410857663704853992
19141452 34 17131829889222033293
19784866 9 18113613452605694563
200 152 16950282905968490344
20028762 73 18055641861278493167
20600515 1 18340218469921978116
20645477 70 16009301016701038466
21285901 2 17917162606291067244
23175994 123 18333735723499757565
23402539 116 17988639696664490244
23493267 7 17313098635762053785
23557571 272 17489592229515708168
23559900 14 15554438621982335170
266924 87 18194116322357846868
347723 3 18410856551049855057
34934 24 18129105515976021729
3545911 37 15719391732852524422
4072396 5 18261662693185545291
4214541 1 15791727494979709055
465052 167 17240208741576471315
474 4 17917140731779840409
59755656 215 18270402685366324510
633830 44 18342455975941661781
69090 78 17060620005479420895
7226269 152 18410853270196137312
7495541 125 17531535390133293585
77779 3 15719110262139125926
81228 2 18128838385973970688
8272917 22 16660357039657468298
9971528 1 17775283884826915592

> <PUBCHEM_SHAPE_MULTIPOLES>
399.85
10.42
1.74
1.37
0
0
0.06
0
1.28
0
-0.74
0
0
-0.06

> <PUBCHEM_SHAPE_SELFOVERLAP>
850.96

> <PUBCHEM_SHAPE_VOLUME>
224.1

> <PUBCHEM_COORDINATE_TYPE>
2
5
10

> <Energy>
28.3223

> <minimizedAffinity>
-8.51930

> <CNNscore>
0.9181745648

> <CNNaffinity>
8.0548925400

> <CNN_VS>
7.3957972527

> <CNNaffinity_variance>
0.8851103187

$$$$
448537


 22 23  0  0  0  0  0  0  0  0999 V2000
   -7.6443   -4.0415   12.6484 C   0  0  0  0  0  0  0  0  0  0  0  0
   -6.3185   -4.2806   12.8066 C   0  0  0  0  0  0  0  0  0  0  0  0
   -9.9448   -4.1025    7.5119 O   0  0  0  0  0  0  0  0  0  0  0  0
   -8.2578   -4.0663   11.3051 C   0  0  0  0  0  0  0  0  0  0  0  0
   -8.8493   -5.2408   10.8207 C   0  0  0  0  0  0  0  0  0  0  0  0
   -8.2475   -2.9188   10.5018 C   0  0  0  0  0  0  0  0  0  0  0  0
   -9.4207   -5.2687    9.5460 C   0  0  0  0  0  0  0  0  0  0  0  0
   -8.8189   -2.9473    9.2286 C   0  0  0  0  0  0  0  0  0  0  0  0
   -9.3997   -4.1199    8.7620 C   0  0  0  0  0  0  0  0  0  0  0  0
  -10.3452   -4.8751    7.1646 H   0  0  0  0  0  0  0  0  0  0  0  0
   -3.9805   -4.2409   17.9266 O   0  0  0  0  0  0  0  0  0  0  0  0
   -5.7046   -4.2584   14.1503 C   0  0  0  0  0  0  0  0  0  0  0  0
   -4.5684   -5.0305   14.4239 C   0  0  0  0  0  0  0  0  0  0  0  0
   -6.2622   -3.4700   15.1654 C   0  0  0  0  0  0  0  0  0  0  0  0
   -4.0005   -5.0137   15.6989 C   0  0  0  0  0  0  0  0  0  0  0  0
   -5.6939   -3.4526   16.4397 C   0  0  0  0  0  0  0  0  0  0  0  0
   -4.5665   -4.2267   16.6953 C   0  0  0  0  0  0  0  0  0  0  0  0
   -3.2216   -4.7691   18.0783 H   0  0  0  0  0  0  0  0  0  0  0  0
   -8.6341   -3.7746   13.7686 C   0  0  0  0  0  0  0  0  0  0  0  0
   -9.9543   -3.1974   13.2744 C   0  0  0  0  0  0  0  0  0  0  0  0
   -5.3440   -4.6252   11.6945 C   0  0  0  0  0  0  0  0  0  0  0  0
   -5.3483   -6.1055   11.3357 C   0  0  0  0  0  0  0  0  0  0  0  0
  3  9  1  0
  3 10  1  0
 11 17  1  0
 11 18  1  0
  1  2  2  0
  1 19  1  0
  1  4  1  0
  2 21  1  0
  2 12  1  0
 19 20  1  0
 21 22  1  0
  4  5  2  0
  4  6  1  0
 12 13  2  0
 12 14  1  0
  5  7  1  0
 13 15  1  0
  6  8  2  0
 14 16  2  0
  7  9  2  0
 15 17  2  0
  8  9  1  0
 16 17  1  0
M  END
> <PUBCHEM_COMPOUND_CID>
448537

> <PUBCHEM_CONFORMER_RMSD>
0.6

> <PUBCHEM_CONFORMER_DIVERSEORDER>
1
3
2

> <PUBCHEM_MMFF94_PARTIAL_CHARGES>
28
1 -0.53
11 -0.15
12 -0.15
13 -0.15
14 -0.15
15 -0.15
16 -0.15
17 -0.15
18 -0.15
19 0.08
2 -0.53
20 0.08
3 -0.17
31 0.15
32 0.15
33 0.15
34 0.15
35 0.15
36 0.15
37 0.15
38 0.15
39 0.45
4 -0.17
40 0.45
5 0.14
6 0.14
7 0.03
8 0.03

> <PUBCHEM_EFFECTIVE_ROTOR_COUNT>
4

> <PUBCHEM_PHARMACOPHORE_FEATURES>
6
1 1 donor
1 10 hydrophobe
1 2 donor
1 9 hydrophobe
6 7 11 13 15 17 19 rings
6 8 12 14 16 18 20 rings

> <PUBCHEM_HEAVY_ATOM_COUNT>
20

> <PUBCHEM_ATOM_DEF_STEREO_COUNT>
0

> <PUBCHEM_ATOM_UDEF_STEREO_COUNT>
0

> <PUBCHEM_BOND_DEF_STEREO_COUNT>
1

> <PUBCHEM_BOND_UDEF_STEREO_COUNT>
0

> <PUBCHEM_ISOTOPIC_ATOM_COUNT>
0

> <PUBCHEM_COMPONENT_COUNT>
1

> <PUBCHEM_CACTVS_TAUTO_COUNT>
3

> <PUBCHEM_CONFORMER_ID>
0006D81900000001

> <PUBCHEM_MMFF94_ENERGY>
60.231

> <PUBCHEM_FEATURE_SELFOVERLAP>
30.447

> <PUBCHEM_SHAPE_FINGERPRINT>
10366900 7 18186514428534874893
104564 63 18339924792832442081
10906281 52 18129397028286092948
11646440 116 18130798871235594657
12592029 89 16950278473467191938
12788726 201 18270697410649816016
13140716 1 18266458895859843337
13533116 47 18340201896197096762
13760787 19 16660644076447957075
14115302 16 18186806919849492430
14341114 176 15647057049052281551
15099037 51 18335139812416525942
15848700 24 18202843262111810220
15848702 151 16988848262958300981
16752209 62 18335696105492573576
16945 1 18410855473013063775
1813 80 18272378572207267076
18186145 218 18338228362096015613
187816 3 18410857663704853992
19141452 34 17131829889222033293
19784866 9 18113613452605694563
200 152 16950282905968490344
20028762 73 18055641861278493167
20600515 1 18340218469921978116
20645477 70 16009301016701038466
21285901 2 17917162606291067244
23175994 123 18333735723499757565
23402539 116 17988639696664490244
23493267 7 17313098635762053785
23557571 272 17489592229515708168
23559900 14 15554438621982335170
266924 87 18194116322357846868
347723 3 18410856551049855057
34934 24 18129105515976021729
3545911 37 15719391732852524422
4072396 5 18261662693185545291
4214541 1 15791727494979709055
465052 167 17240208741576471315
474 4 17917140731779840409
59755656 215 18270402685366324510
633830 44 18342455975941661781
69090 78 17060620005479420895
7226269 152 18410853270196137312
7495541 125 17531535390133293585
77779 3 15719110262139125926
81228 2 18128838385973970688
8272917 22 16660357039657468298
9971528 1 17775283884826915592

> <PUBCHEM_SHAPE_MULTIPOLES>
399.85
10.42
1.74
1.37
0
0
0.06
0
1.28
0
-0.74
0
0
-0.06

> <PUBCHEM_SHAPE_SELFOVERLAP>
850.96

> <PUBCHEM_SHAPE_VOLUME>
224.1

> <PUBCHEM_COORDINATE_TYPE>
2
5
10

> <Energy>
28.3223

> <minimizedAffinity>
-9.01811

> <CNNscore>
0.9175797701

> <CNNaffinity>
8.1800165176

> <CNN_VS>
7.5058178902

> <CNNaffinity_variance>
1.1383780241

$$$$
448537


 22 23  0  0  0  0  0  0  0  0999 V2000
   -6.3276   -4.2637   12.7954 C   0  0  0  0  0  0  0  0  0  0  0  0
   -7.6454   -3.9873   12.6318 C   0  0  0  0  0  0  0  0  0  0  0  0
   -3.9520   -4.2022   17.8977 O   0  0  0  0  0  0  0  0  0  0  0  0
   -5.7169   -4.2461   14.1402 C   0  0  0  0  0  0  0  0  0  0  0  0
   -6.2672   -3.4520   15.1552 C   0  0  0  0  0  0  0  0  0  0  0  0
   -4.5791   -5.0173   14.4100 C   0  0  0  0  0  0  0  0  0  0  0  0
   -5.6843   -3.4262   16.4247 C   0  0  0  0  0  0  0  0  0  0  0  0
   -3.9975   -4.9916   15.6787 C   0  0  0  0  0  0  0  0  0  0  0  0
   -4.5539   -4.1976   16.6738 C   0  0  0  0  0  0  0  0  0  0  0  0
   -4.2999   -3.6789   18.5927 H   0  0  0  0  0  0  0  0  0  0  0  0
   -9.9544   -4.0999    7.4997 O   0  0  0  0  0  0  0  0  0  0  0  0
   -8.2576   -4.0072   11.2873 C   0  0  0  0  0  0  0  0  0  0  0  0
   -8.8636   -5.1725   10.8009 C   0  0  0  0  0  0  0  0  0  0  0  0
   -8.2273   -2.8599   10.4838 C   0  0  0  0  0  0  0  0  0  0  0  0
   -9.4297   -5.1876    9.5251 C   0  0  0  0  0  0  0  0  0  0  0  0
   -8.7941   -2.8747    9.2087 C   0  0  0  0  0  0  0  0  0  0  0  0
   -9.3905   -4.0410    8.7400 C   0  0  0  0  0  0  0  0  0  0  0  0
  -10.3511   -4.8950    7.2028 H   0  0  0  0  0  0  0  0  0  0  0  0
   -5.3617   -4.6508   11.6896 C   0  0  0  0  0  0  0  0  0  0  0  0
   -5.3754   -6.1420   11.3793 C   0  0  0  0  0  0  0  0  0  0  0  0
   -8.6283   -3.6774   13.7468 C   0  0  0  0  0  0  0  0  0  0  0  0
   -9.9865   -3.2175   13.2333 C   0  0  0  0  0  0  0  0  0  0  0  0
  3  9  1  0
  3 10  1  0
 11 17  1  0
 11 18  1  0
  1  2  2  0
  1 19  1  0
  1  4  1  0
  2 21  1  0
  2 12  1  0
 19 20  1  0
 21 22  1  0
  4  5  2  0
  4  6  1  0
 12 13  2  0
 12 14  1  0
  5  7  1  0
 13 15  1  0
  6  8  2  0
 14 16  2  0
  7  9  2  0
 15 17  2  0
  8  9  1  0
 16 17  1  0
M  END
> <PUBCHEM_COMPOUND_CID>
448537

> <PUBCHEM_CONFORMER_RMSD>
0.6

> <PUBCHEM_CONFORMER_DIVERSEORDER>
1
3
2

> <PUBCHEM_MMFF94_PARTIAL_CHARGES>
28
1 -0.53
11 -0.15
12 -0.15
13 -0.15
14 -0.15
15 -0.15
16 -0.15
17 -0.15
18 -0.15
19 0.08
2 -0.53
20 0.08
3 -0.17
31 0.15
32 0.15
33 0.15
34 0.15
35 0.15
36 0.15
37 0.15
38 0.15
39 0.45
4 -0.17
40 0.45
5 0.14
6 0.14
7 0.03
8 0.03

> <PUBCHEM_EFFECTIVE_ROTOR_COUNT>
4

> <PUBCHEM_PHARMACOPHORE_FEATURES>
6
1 1 donor
1 10 hydrophobe
1 2 donor
1 9 hydrophobe
6 7 11 13 15 17 19 rings
6 8 12 14 16 18 20 rings

> <PUBCHEM_HEAVY_ATOM_COUNT>
20

> <PUBCHEM_ATOM_DEF_STEREO_COUNT>
0

> <PUBCHEM_ATOM_UDEF_STEREO_COUNT>
0

> <PUBCHEM_BOND_DEF_STEREO_COUNT>
1

> <PUBCHEM_BOND_UDEF_STEREO_COUNT>
0

> <PUBCHEM_ISOTOPIC_ATOM_COUNT>
0

> <PUBCHEM_COMPONENT_COUNT>
1

> <PUBCHEM_CACTVS_TAUTO_COUNT>
3

> <PUBCHEM_CONFORMER_ID>
0006D81900000001

> <PUBCHEM_MMFF94_ENERGY>
60.231

> <PUBCHEM_FEATURE_SELFOVERLAP>
30.447

> <PUBCHEM_SHAPE_FINGERPRINT>
10366900 7 18186514428534874893
104564 63 18339924792832442081
10906281 52 18129397028286092948
11646440 116 18130798871235594657
12592029 89 16950278473467191938
12788726 201 18270697410649816016
13140716 1 18266458895859843337
13533116 47 18340201896197096762
13760787 19 16660644076447957075
14115302 16 18186806919849492430
14341114 176 15647057049052281551
15099037 51 18335139812416525942
15848700 24 18202843262111810220
15848702 151 16988848262958300981
16752209 62 18335696105492573576
16945 1 18410855473013063775
1813 80 18272378572207267076
18186145 218 18338228362096015613
187816 3 18410857663704853992
19141452 34 17131829889222033293
19784866 9 18113613452605694563
200 152 16950282905968490344
20028762 73 18055641861278493167
20600515 1 18340218469921978116
20645477 70 16009301016701038466
21285901 2 17917162606291067244
23175994 123 18333735723499757565
23402539 116 17988639696664490244
23493267 7 17313098635762053785
23557571 272 17489592229515708168
23559900 14 15554438621982335170
266924 87 18194116322357846868
347723 3 18410856551049855057
34934 24 18129105515976021729
3545911 37 15719391732852524422
4072396 5 18261662693185545291
4214541 1 15791727494979709055
465052 167 17240208741576471315
474 4 17917140731779840409
59755656 215 18270402685366324510
633830 44 18342455975941661781
69090 78 17060620005479420895
7226269 152 18410853270196137312
7495541 125 17531535390133293585
77779 3 15719110262139125926
81228 2 18128838385973970688
8272917 22 16660357039657468298
9971528 1 17775283884826915592

> <PUBCHEM_SHAPE_MULTIPOLES>
399.85
10.42
1.74
1.37
0
0
0.06
0
1.28
0
-0.74
0
0
-0.06

> <PUBCHEM_SHAPE_SELFOVERLAP>
850.96

> <PUBCHEM_SHAPE_VOLUME>
224.1

> <PUBCHEM_COORDINATE_TYPE>
2
5
10

> <Energy>
28.3223

> <minimizedAffinity>
-9.04810

> <CNNscore>
0.9112581611

> <CNNaffinity>
8.1860094070

> <CNN_VS>
7.4595680237

> <CNNaffinity_variance>
1.1714632511

$$$$
448537


 22 23  0  0  0  0  0  0  0  0999 V2000
   -7.6510   -4.0488   12.6470 C   0  0  0  0  0  0  0  0  0  0  0  0
   -6.3220   -4.2651   12.8114 C   0  0  0  0  0  0  0  0  0  0  0  0
   -9.9839   -4.1195    7.5251 O   0  0  0  0  0  0  0  0  0  0  0  0
   -8.2532   -4.0587   11.2983 C   0  0  0  0  0  0  0  0  0  0  0  0
   -8.2267   -2.9038   10.5049 C   0  0  0  0  0  0  0  0  0  0  0  0
   -8.8617   -5.2196   10.8043 C   0  0  0  0  0  0  0  0  0  0  0  0
   -8.8054   -2.9086    9.2332 C   0  0  0  0  0  0  0  0  0  0  0  0
   -9.4392   -5.2238    9.5334 C   0  0  0  0  0  0  0  0  0  0  0  0
   -9.4064   -4.0703    8.7598 C   0  0  0  0  0  0  0  0  0  0  0  0
   -9.9805   -3.3605    6.9759 H   0  0  0  0  0  0  0  0  0  0  0  0
   -4.0297   -4.2825   17.9521 O   0  0  0  0  0  0  0  0  0  0  0  0
   -5.7194   -4.2580   14.1603 C   0  0  0  0  0  0  0  0  0  0  0  0
   -4.6355   -5.0939   14.4575 C   0  0  0  0  0  0  0  0  0  0  0  0
   -6.2358   -3.4195   15.1569 C   0  0  0  0  0  0  0  0  0  0  0  0
   -4.0785   -5.0904   15.7374 C   0  0  0  0  0  0  0  0  0  0  0  0
   -5.6783   -3.4154   16.4361 C   0  0  0  0  0  0  0  0  0  0  0  0
   -4.6032   -4.2531   16.7152 C   0  0  0  0  0  0  0  0  0  0  0  0
   -3.3063   -4.8538   18.1197 H   0  0  0  0  0  0  0  0  0  0  0  0
   -8.6548   -3.8239   13.7639 C   0  0  0  0  0  0  0  0  0  0  0  0
   -9.9174   -3.1107   13.2978 C   0  0  0  0  0  0  0  0  0  0  0  0
   -5.3321   -4.5681   11.7009 C   0  0  0  0  0  0  0  0  0  0  0  0
   -5.3174   -6.0376   11.3001 C   0  0  0  0  0  0  0  0  0  0  0  0
  3  9  1  0
  3 10  1  0
 11 17  1  0
 11 18  1  0
  1  2  2  0
  1 19  1  0
  1  4  1  0
  2 21  1  0
  2 12  1  0
 19 20  1  0
 21 22  1  0
  4  5  2  0
  4  6  1  0
 12 13  2  0
 12 14  1  0
  5  7  1  0
 13 15  1  0
  6  8  2  0
 14 16  2  0
  7  9  2  0
 15 17  2  0
  8  9  1  0
 16 17  1  0
M  END
> <PUBCHEM_COMPOUND_CID>
448537

> <PUBCHEM_CONFORMER_RMSD>
0.6

> <PUBCHEM_CONFORMER_DIVERSEORDER>
1
3
2

> <PUBCHEM_MMFF94_PARTIAL_CHARGES>
28
1 -0.53
11 -0.15
12 -0.15
13 -0.15
14 -0.15
15 -0.15
16 -0.15
17 -0.15
18 -0.15
19 0.08
2 -0.53
20 0.08
3 -0.17
31 0.15
32 0.15
33 0.15
34 0.15
35 0.15
36 0.15
37 0.15
38 0.15
39 0.45
4 -0.17
40 0.45
5 0.14
6 0.14
7 0.03
8 0.03

> <PUBCHEM_EFFECTIVE_ROTOR_COUNT>
4

> <PUBCHEM_PHARMACOPHORE_FEATURES>
6
1 1 donor
1 10 hydrophobe
1 2 donor
1 9 hydrophobe
6 7 11 13 15 17 19 rings
6 8 12 14 16 18 20 rings

> <PUBCHEM_HEAVY_ATOM_COUNT>
20

> <PUBCHEM_ATOM_DEF_STEREO_COUNT>
0

> <PUBCHEM_ATOM_UDEF_STEREO_COUNT>
0

> <PUBCHEM_BOND_DEF_STEREO_COUNT>
1

> <PUBCHEM_BOND_UDEF_STEREO_COUNT>
0

> <PUBCHEM_ISOTOPIC_ATOM_COUNT>
0

> <PUBCHEM_COMPONENT_COUNT>
1

> <PUBCHEM_CACTVS_TAUTO_COUNT>
3

> <PUBCHEM_CONFORMER_ID>
0006D81900000001

> <PUBCHEM_MMFF94_ENERGY>
60.231

> <PUBCHEM_FEATURE_SELFOVERLAP>
30.447

> <PUBCHEM_SHAPE_FINGERPRINT>
10366900 7 18186514428534874893
104564 63 18339924792832442081
10906281 52 18129397028286092948
11646440 116 18130798871235594657
12592029 89 16950278473467191938
12788726 201 18270697410649816016
13140716 1 18266458895859843337
13533116 47 18340201896197096762
13760787 19 16660644076447957075
14115302 16 18186806919849492430
14341114 176 15647057049052281551
15099037 51 18335139812416525942
15848700 24 18202843262111810220
15848702 151 16988848262958300981
16752209 62 18335696105492573576
16945 1 18410855473013063775
1813 80 18272378572207267076
18186145 218 18338228362096015613
187816 3 18410857663704853992
19141452 34 17131829889222033293
19784866 9 18113613452605694563
200 152 16950282905968490344
20028762 73 18055641861278493167
20600515 1 18340218469921978116
20645477 70 16009301016701038466
21285901 2 17917162606291067244
23175994 123 18333735723499757565
23402539 116 17988639696664490244
23493267 7 17313098635762053785
23557571 272 17489592229515708168
23559900 14 15554438621982335170
266924 87 18194116322357846868
347723 3 18410856551049855057
34934 24 18129105515976021729
3545911 37 15719391732852524422
4072396 5 18261662693185545291
4214541 1 15791727494979709055
465052 167 17240208741576471315
474 4 17917140731779840409
59755656 215 18270402685366324510
633830 44 18342455975941661781
69090 78 17060620005479420895
7226269 152 18410853270196137312
7495541 125 17531535390133293585
77779 3 15719110262139125926
81228 2 18128838385973970688
8272917 22 16660357039657468298
9971528 1 17775283884826915592

> <PUBCHEM_SHAPE_MULTIPOLES>
399.85
10.42
1.74
1.37
0
0
0.06
0
1.28
0
-0.74
0
0
-0.06

> <PUBCHEM_SHAPE_SELFOVERLAP>
850.96

> <PUBCHEM_SHAPE_VOLUME>
224.1

> <PUBCHEM_COORDINATE_TYPE>
2
5
10

> <Energy>
28.3223

> <minimizedAffinity>
-8.90245

> <CNNscore>
0.9094858170

> <CNNaffinity>
8.1786527634

> <CNN_VS>
7.4383687973

> <CNNaffinity_variance>
1.1550765038

$$$$
448537


 22 23  0  0  0  0  0  0  0  0999 V2000
   -6.2848   -4.2478   12.7817 C   0  0  0  0  0  0  0  0  0  0  0  0
   -7.6069   -3.9841   12.6320 C   0  0  0  0  0  0  0  0  0  0  0  0
   -3.9574   -4.1740   17.9060 O   0  0  0  0  0  0  0  0  0  0  0  0
   -5.6614   -4.2300   14.1206 C   0  0  0  0  0  0  0  0  0  0  0  0
   -4.5317   -5.0163   14.3839 C   0  0  0  0  0  0  0  0  0  0  0  0
   -6.1980   -3.4328   15.1397 C   0  0  0  0  0  0  0  0  0  0  0  0
   -3.9473   -5.0085   15.6530 C   0  0  0  0  0  0  0  0  0  0  0  0
   -5.6134   -3.4251   16.4073 C   0  0  0  0  0  0  0  0  0  0  0  0
   -4.4949   -4.2116   16.6530 C   0  0  0  0  0  0  0  0  0  0  0  0
   -3.2028   -4.6914   18.1078 H   0  0  0  0  0  0  0  0  0  0  0  0
   -9.9628   -4.0970    7.5213 O   0  0  0  0  0  0  0  0  0  0  0  0
   -8.2316   -4.0043   11.2933 C   0  0  0  0  0  0  0  0  0  0  0  0
   -8.8026   -5.1820   10.7946 C   0  0  0  0  0  0  0  0  0  0  0  0
   -8.2486   -2.8444   10.5075 C   0  0  0  0  0  0  0  0  0  0  0  0
   -9.3808   -5.1969    9.5242 C   0  0  0  0  0  0  0  0  0  0  0  0
   -8.8276   -2.8591    9.2379 C   0  0  0  0  0  0  0  0  0  0  0  0
   -9.3887   -4.0377    8.7568 C   0  0  0  0  0  0  0  0  0  0  0  0
  -10.3353   -4.9005    7.2158 H   0  0  0  0  0  0  0  0  0  0  0  0
   -5.3258   -4.6205   11.6650 C   0  0  0  0  0  0  0  0  0  0  0  0
   -5.3773   -6.0988   11.3016 C   0  0  0  0  0  0  0  0  0  0  0  0
   -8.5820   -3.6889   13.7576 C   0  0  0  0  0  0  0  0  0  0  0  0
   -9.9408   -3.2135   13.2598 C   0  0  0  0  0  0  0  0  0  0  0  0
  3  9  1  0
  3 10  1  0
 11 17  1  0
 11 18  1  0
  1  2  2  0
  1 19  1  0
  1  4  1  0
  2 21  1  0
  2 12  1  0
 19 20  1  0
 21 22  1  0
  4  5  2  0
  4  6  1  0
 12 13  2  0
 12 14  1  0
  5  7  1  0
 13 15  1  0
  6  8  2  0
 14 16  2  0
  7  9  2  0
 15 17  2  0
  8  9  1  0
 16 17  1  0
M  END
> <PUBCHEM_COMPOUND_CID>
448537

> <PUBCHEM_CONFORMER_RMSD>
0.6

> <PUBCHEM_CONFORMER_DIVERSEORDER>
1
3
2

> <PUBCHEM_MMFF94_PARTIAL_CHARGES>
28
1 -0.53
11 -0.15
12 -0.15
13 -0.15
14 -0.15
15 -0.15
16 -0.15
17 -0.15
18 -0.15
19 0.08
2 -0.53
20 0.08
3 -0.17
31 0.15
32 0.15
33 0.15
34 0.15
35 0.15
36 0.15
37 0.15
38 0.15
39 0.45
4 -0.17
40 0.45
5 0.14
6 0.14
7 0.03
8 0.03

> <PUBCHEM_EFFECTIVE_ROTOR_COUNT>
4

> <PUBCHEM_PHARMACOPHORE_FEATURES>
6
1 1 donor
1 10 hydrophobe
1 2 donor
1 9 hydrophobe
6 7 11 13 15 17 19 rings
6 8 12 14 16 18 20 rings

> <PUBCHEM_HEAVY_ATOM_COUNT>
20

> <PUBCHEM_ATOM_DEF_STEREO_COUNT>
0

> <PUBCHEM_ATOM_UDEF_STEREO_COUNT>
0

> <PUBCHEM_BOND_DEF_STEREO_COUNT>
1

> <PUBCHEM_BOND_UDEF_STEREO_COUNT>
0

> <PUBCHEM_ISOTOPIC_ATOM_COUNT>
0

> <PUBCHEM_COMPONENT_COUNT>
1

> <PUBCHEM_CACTVS_TAUTO_COUNT>
3

> <PUBCHEM_CONFORMER_ID>
0006D81900000001

> <PUBCHEM_MMFF94_ENERGY>
60.231

> <PUBCHEM_FEATURE_SELFOVERLAP>
30.447

> <PUBCHEM_SHAPE_FINGERPRINT>
10366900 7 18186514428534874893
104564 63 18339924792832442081
10906281 52 18129397028286092948
11646440 116 18130798871235594657
12592029 89 16950278473467191938
12788726 201 18270697410649816016
13140716 1 18266458895859843337
13533116 47 18340201896197096762
13760787 19 16660644076447957075
14115302 16 18186806919849492430
14341114 176 15647057049052281551
15099037 51 18335139812416525942
15848700 24 18202843262111810220
15848702 151 16988848262958300981
16752209 62 18335696105492573576
16945 1 18410855473013063775
1813 80 18272378572207267076
18186145 218 18338228362096015613
187816 3 18410857663704853992
19141452 34 17131829889222033293
19784866 9 18113613452605694563
200 152 16950282905968490344
20028762 73 18055641861278493167
20600515 1 18340218469921978116
20645477 70 16009301016701038466
21285901 2 17917162606291067244
23175994 123 18333735723499757565
23402539 116 17988639696664490244
23493267 7 17313098635762053785
23557571 272 17489592229515708168
23559900 14 15554438621982335170
266924 87 18194116322357846868
347723 3 18410856551049855057
34934 24 18129105515976021729
3545911 37 15719391732852524422
4072396 5 18261662693185545291
4214541 1 15791727494979709055
465052 167 17240208741576471315
474 4 17917140731779840409
59755656 215 18270402685366324510
633830 44 18342455975941661781
69090 78 17060620005479420895
7226269 152 18410853270196137312
7495541 125 17531535390133293585
77779 3 15719110262139125926
81228 2 18128838385973970688
8272917 22 16660357039657468298
9971528 1 17775283884826915592

> <PUBCHEM_SHAPE_MULTIPOLES>
399.85
10.42
1.74
1.37
0
0
0.06
0
1.28
0
-0.74
0
0
-0.06

> <PUBCHEM_SHAPE_SELFOVERLAP>
850.96

> <PUBCHEM_SHAPE_VOLUME>
224.1

> <PUBCHEM_COORDINATE_TYPE>
2
5
10

> <Energy>
28.3223

> <minimizedAffinity>
-8.97700

> <CNNscore>
0.9085666537

> <CNNaffinity>
8.1463794708

> <CNN_VS>
7.4015288353

> <CNNaffinity_variance>
1.1012107134

$$$$
448537


 22 23  0  0  0  0  0  0  0  0999 V2000
   -7.3260   -4.2933   13.4478 C   0  0  0  0  0  0  0  0  0  0  0  0
   -7.0308   -4.4464   12.1328 C   0  0  0  0  0  0  0  0  0  0  0  0
   -3.2246   -4.4773   17.2982 O   0  0  0  0  0  0  0  0  0  0  0  0
   -6.2592   -4.3399   14.4684 C   0  0  0  0  0  0  0  0  0  0  0  0
   -6.3589   -3.5622   15.6299 C   0  0  0  0  0  0  0  0  0  0  0  0
   -5.1364   -5.1561   14.2806 C   0  0  0  0  0  0  0  0  0  0  0  0
   -5.3455   -3.5974   16.5912 C   0  0  0  0  0  0  0  0  0  0  0  0
   -4.1246   -5.1911   15.2416 C   0  0  0  0  0  0  0  0  0  0  0  0
   -4.2372   -4.4128   16.3868 C   0  0  0  0  0  0  0  0  0  0  0  0
   -3.2668   -3.9662   18.0823 H   0  0  0  0  0  0  0  0  0  0  0  0
  -11.0808   -4.2999    8.2267 O   0  0  0  0  0  0  0  0  0  0  0  0
   -8.0970   -4.3973   11.1112 C   0  0  0  0  0  0  0  0  0  0  0  0
   -9.0116   -5.4510   10.9891 C   0  0  0  0  0  0  0  0  0  0  0  0
   -8.1945   -3.2974   10.2488 C   0  0  0  0  0  0  0  0  0  0  0  0
  -10.0092   -5.4032   10.0140 C   0  0  0  0  0  0  0  0  0  0  0  0
   -9.1925   -3.2492    9.2747 C   0  0  0  0  0  0  0  0  0  0  0  0
  -10.0919   -4.3051    9.1656 C   0  0  0  0  0  0  0  0  0  0  0  0
  -11.6766   -5.0208    8.1697 H   0  0  0  0  0  0  0  0  0  0  0  0
   -8.7072   -4.0236   14.0181 C   0  0  0  0  0  0  0  0  0  0  0  0
   -9.3147   -2.7185   13.5205 C   0  0  0  0  0  0  0  0  0  0  0  0
   -5.6394   -4.6373   11.5560 C   0  0  0  0  0  0  0  0  0  0  0  0
   -5.4655   -5.9755   10.8494 C   0  0  0  0  0  0  0  0  0  0  0  0
  3  9  1  0
  3 10  1  0
 11 17  1  0
 11 18  1  0
  1  2  2  0
  1 19  1  0
  1  4  1  0
  2 21  1  0
  2 12  1  0
 19 20  1  0
 21 22  1  0
  4  5  2  0
  4  6  1  0
 12 13  2  0
 12 14  1  0
  5  7  1  0
 13 15  1  0
  6  8  2  0
 14 16  2  0
  7  9  2  0
 15 17  2  0
  8  9  1  0
 16 17  1  0
M  END
> <PUBCHEM_COMPOUND_CID>
448537

> <PUBCHEM_CONFORMER_RMSD>
0.6

> <PUBCHEM_CONFORMER_DIVERSEORDER>
1
3
2

> <PUBCHEM_MMFF94_PARTIAL_CHARGES>
28
1 -0.53
11 -0.15
12 -0.15
13 -0.15
14 -0.15
15 -0.15
16 -0.15
17 -0.15
18 -0.15
19 0.08
2 -0.53
20 0.08
3 -0.17
31 0.15
32 0.15
33 0.15
34 0.15
35 0.15
36 0.15
37 0.15
38 0.15
39 0.45
4 -0.17
40 0.45
5 0.14
6 0.14
7 0.03
8 0.03

> <PUBCHEM_EFFECTIVE_ROTOR_COUNT>
4

> <PUBCHEM_PHARMACOPHORE_FEATURES>
6
1 1 donor
1 10 hydrophobe
1 2 donor
1 9 hydrophobe
6 7 11 13 15 17 19 rings
6 8 12 14 16 18 20 rings

> <PUBCHEM_HEAVY_ATOM_COUNT>
20

> <PUBCHEM_ATOM_DEF_STEREO_COUNT>
0

> <PUBCHEM_ATOM_UDEF_STEREO_COUNT>
0

> <PUBCHEM_BOND_DEF_STEREO_COUNT>
1

> <PUBCHEM_BOND_UDEF_STEREO_COUNT>
0

> <PUBCHEM_ISOTOPIC_ATOM_COUNT>
0

> <PUBCHEM_COMPONENT_COUNT>
1

> <PUBCHEM_CACTVS_TAUTO_COUNT>
3

> <PUBCHEM_CONFORMER_ID>
0006D81900000001

> <PUBCHEM_MMFF94_ENERGY>
60.231

> <PUBCHEM_FEATURE_SELFOVERLAP>
30.447

> <PUBCHEM_SHAPE_FINGERPRINT>
10366900 7 18186514428534874893
104564 63 18339924792832442081
10906281 52 18129397028286092948
11646440 116 18130798871235594657
12592029 89 16950278473467191938
12788726 201 18270697410649816016
13140716 1 18266458895859843337
13533116 47 18340201896197096762
13760787 19 16660644076447957075
14115302 16 18186806919849492430
14341114 176 15647057049052281551
15099037 51 18335139812416525942
15848700 24 18202843262111810220
15848702 151 16988848262958300981
16752209 62 18335696105492573576
16945 1 18410855473013063775
1813 80 18272378572207267076
18186145 218 18338228362096015613
187816 3 18410857663704853992
19141452 34 17131829889222033293
19784866 9 18113613452605694563
200 152 16950282905968490344
20028762 73 18055641861278493167
20600515 1 18340218469921978116
20645477 70 16009301016701038466
21285901 2 17917162606291067244
23175994 123 18333735723499757565
23402539 116 17988639696664490244
23493267 7 17313098635762053785
23557571 272 17489592229515708168
23559900 14 15554438621982335170
266924 87 18194116322357846868
347723 3 18410856551049855057
34934 24 18129105515976021729
3545911 37 15719391732852524422
4072396 5 18261662693185545291
4214541 1 15791727494979709055
465052 167 17240208741576471315
474 4 17917140731779840409
59755656 215 18270402685366324510
633830 44 18342455975941661781
69090 78 17060620005479420895
7226269 152 18410853270196137312
7495541 125 17531535390133293585
77779 3 15719110262139125926
81228 2 18128838385973970688
8272917 22 16660357039657468298
9971528 1 17775283884826915592

> <PUBCHEM_SHAPE_MULTIPOLES>
399.85
10.42
1.74
1.37
0
0
0.06
0
1.28
0
-0.74
0
0
-0.06

> <PUBCHEM_SHAPE_SELFOVERLAP>
850.96

> <PUBCHEM_SHAPE_VOLUME>
224.1

> <PUBCHEM_COORDINATE_TYPE>
2
5
10

> <Energy>
28.3223

> <minimizedAffinity>
-8.37228

> <CNNscore>
0.8713555932

> <CNNaffinity>
8.0841131210

> <CNN_VS>
7.0441370010

> <CNNaffinity_variance>
1.0355335474

$$$$
448537


 22 23  0  0  0  0  0  0  0  0999 V2000
   -6.6670   -4.6806   11.8340 C   0  0  0  0  0  0  0  0  0  0  0  0
   -6.9895   -3.9588   12.9363 C   0  0  0  0  0  0  0  0  0  0  0  0
   -9.6285   -4.1752    7.0743 O   0  0  0  0  0  0  0  0  0  0  0  0
   -7.4428   -4.5341   10.5857 C   0  0  0  0  0  0  0  0  0  0  0  0
   -8.2979   -3.4377   10.4105 C   0  0  0  0  0  0  0  0  0  0  0  0
   -7.3357   -5.4928    9.5701 C   0  0  0  0  0  0  0  0  0  0  0  0
   -9.0404   -3.3034    9.2346 C   0  0  0  0  0  0  0  0  0  0  0  0
   -8.0774   -5.3577    8.3953 C   0  0  0  0  0  0  0  0  0  0  0  0
   -8.9221   -4.2661    8.2375 C   0  0  0  0  0  0  0  0  0  0  0  0
  -10.2079   -3.4525    6.9334 H   0  0  0  0  0  0  0  0  0  0  0  0
   -4.0107   -4.5458   17.6759 O   0  0  0  0  0  0  0  0  0  0  0  0
   -6.2123   -4.1030   14.1845 C   0  0  0  0  0  0  0  0  0  0  0  0
   -4.8295   -4.3205   14.1380 C   0  0  0  0  0  0  0  0  0  0  0  0
   -6.8569   -4.0325   15.4264 C   0  0  0  0  0  0  0  0  0  0  0  0
   -4.1033   -4.4674   15.3210 C   0  0  0  0  0  0  0  0  0  0  0  0
   -6.1308   -4.1784   16.6091 C   0  0  0  0  0  0  0  0  0  0  0  0
   -4.7581   -4.3957   16.5452 C   0  0  0  0  0  0  0  0  0  0  0  0
   -3.0874   -4.6913   17.6114 H   0  0  0  0  0  0  0  0  0  0  0  0
   -5.5040   -5.6504   11.7216 C   0  0  0  0  0  0  0  0  0  0  0  0
   -5.9447   -7.1071   11.6583 C   0  0  0  0  0  0  0  0  0  0  0  0
   -8.1035   -2.9311   13.0246 C   0  0  0  0  0  0  0  0  0  0  0  0
   -9.4257   -3.5240   13.4940 C   0  0  0  0  0  0  0  0  0  0  0  0
  3  9  1  0
  3 10  1  0
 11 17  1  0
 11 18  1  0
  1  2  2  0
  1 19  1  0
  1  4  1  0
  2 21  1  0
  2 12  1  0
 19 20  1  0
 21 22  1  0
  4  5  2  0
  4  6  1  0
 12 13  2  0
 12 14  1  0
  5  7  1  0
 13 15  1  0
  6  8  2  0
 14 16  2  0
  7  9  2  0
 15 17  2  0
  8  9  1  0
 16 17  1  0
M  END
> <PUBCHEM_COMPOUND_CID>
448537

> <PUBCHEM_CONFORMER_RMSD>
0.6

> <PUBCHEM_CONFORMER_DIVERSEORDER>
1
3
2

> <PUBCHEM_MMFF94_PARTIAL_CHARGES>
28
1 -0.53
11 -0.15
12 -0.15
13 -0.15
14 -0.15
15 -0.15
16 -0.15
17 -0.15
18 -0.15
19 0.08
2 -0.53
20 0.08
3 -0.17
31 0.15
32 0.15
33 0.15
34 0.15
35 0.15
36 0.15
37 0.15
38 0.15
39 0.45
4 -0.17
40 0.45
5 0.14
6 0.14
7 0.03
8 0.03

> <PUBCHEM_EFFECTIVE_ROTOR_COUNT>
4

> <PUBCHEM_PHARMACOPHORE_FEATURES>
6
1 1 donor
1 10 hydrophobe
1 2 donor
1 9 hydrophobe
6 7 11 13 15 17 19 rings
6 8 12 14 16 18 20 rings

> <PUBCHEM_HEAVY_ATOM_COUNT>
20

> <PUBCHEM_ATOM_DEF_STEREO_COUNT>
0

> <PUBCHEM_ATOM_UDEF_STEREO_COUNT>
0

> <PUBCHEM_BOND_DEF_STEREO_COUNT>
1

> <PUBCHEM_BOND_UDEF_STEREO_COUNT>
0

> <PUBCHEM_ISOTOPIC_ATOM_COUNT>
0

> <PUBCHEM_COMPONENT_COUNT>
1

> <PUBCHEM_CACTVS_TAUTO_COUNT>
3

> <PUBCHEM_CONFORMER_ID>
0006D81900000001

> <PUBCHEM_MMFF94_ENERGY>
60.231

> <PUBCHEM_FEATURE_SELFOVERLAP>
30.447

> <PUBCHEM_SHAPE_FINGERPRINT>
10366900 7 18186514428534874893
104564 63 18339924792832442081
10906281 52 18129397028286092948
11646440 116 18130798871235594657
12592029 89 16950278473467191938
12788726 201 18270697410649816016
13140716 1 18266458895859843337
13533116 47 18340201896197096762
13760787 19 16660644076447957075
14115302 16 18186806919849492430
14341114 176 15647057049052281551
15099037 51 18335139812416525942
15848700 24 18202843262111810220
15848702 151 16988848262958300981
16752209 62 18335696105492573576
16945 1 18410855473013063775
1813 80 18272378572207267076
18186145 218 18338228362096015613
187816 3 18410857663704853992
19141452 34 17131829889222033293
19784866 9 18113613452605694563
200 152 16950282905968490344
20028762 73 18055641861278493167
20600515 1 18340218469921978116
20645477 70 16009301016701038466
21285901 2 17917162606291067244
23175994 123 18333735723499757565
23402539 116 17988639696664490244
23493267 7 17313098635762053785
23557571 272 17489592229515708168
23559900 14 15554438621982335170
266924 87 18194116322357846868
347723 3 18410856551049855057
34934 24 18129105515976021729
3545911 37 15719391732852524422
4072396 5 18261662693185545291
4214541 1 15791727494979709055
465052 167 17240208741576471315
474 4 17917140731779840409
59755656 215 18270402685366324510
633830 44 18342455975941661781
69090 78 17060620005479420895
7226269 152 18410853270196137312
7495541 125 17531535390133293585
77779 3 15719110262139125926
81228 2 18128838385973970688
8272917 22 16660357039657468298
9971528 1 17775283884826915592

> <PUBCHEM_SHAPE_MULTIPOLES>
399.85
10.42
1.74
1.37
0
0
0.06
0
1.28
0
-0.74
0
0
-0.06

> <PUBCHEM_SHAPE_SELFOVERLAP>
850.96

> <PUBCHEM_SHAPE_VOLUME>
224.1

> <PUBCHEM_COORDINATE_TYPE>
2
5
10

> <Energy>
28.3223

> <minimizedAffinity>
-8.26858

> <CNNscore>
0.8656709194

> <CNNaffinity>
7.7857494354

> <CNN_VS>
6.7398967743

> <CNNaffinity_variance>
0.6372018456

$$$$
448537


 22 23  0  0  0  0  0  0  0  0999 V2000
   -7.1660   -4.8317   12.5391 C   0  0  0  0  0  0  0  0  0  0  0  0
   -8.0462   -3.8441   12.2396 C   0  0  0  0  0  0  0  0  0  0  0  0
   -3.6820   -4.3011   16.9278 O   0  0  0  0  0  0  0  0  0  0  0  0
   -6.2575   -4.7038   13.6967 C   0  0  0  0  0  0  0  0  0  0  0  0
   -6.6984   -5.0481   14.9816 C   0  0  0  0  0  0  0  0  0  0  0  0
   -4.9508   -4.2310   13.5209 C   0  0  0  0  0  0  0  0  0  0  0  0
   -5.8435   -4.9176   16.0790 C   0  0  0  0  0  0  0  0  0  0  0  0
   -4.0970   -4.1013   14.6176 C   0  0  0  0  0  0  0  0  0  0  0  0
   -4.5496   -4.4450   15.8853 C   0  0  0  0  0  0  0  0  0  0  0  0
   -3.9529   -4.5232   17.7968 H   0  0  0  0  0  0  0  0  0  0  0  0
  -11.5241   -4.3758    7.8461 O   0  0  0  0  0  0  0  0  0  0  0  0
   -8.9570   -3.9725   11.0835 C   0  0  0  0  0  0  0  0  0  0  0  0
  -10.2502   -4.4832   11.2525 C   0  0  0  0  0  0  0  0  0  0  0  0
   -8.5286   -3.5921    9.8050 C   0  0  0  0  0  0  0  0  0  0  0  0
  -11.1015   -4.6126   10.1538 C   0  0  0  0  0  0  0  0  0  0  0  0
   -9.3798   -3.7205    8.7068 C   0  0  0  0  0  0  0  0  0  0  0  0
  -10.6607   -4.2314    8.8917 C   0  0  0  0  0  0  0  0  0  0  0  0
  -12.3826   -4.7217    7.9917 H   0  0  0  0  0  0  0  0  0  0  0  0
   -7.0299   -6.1494   11.7970 C   0  0  0  0  0  0  0  0  0  0  0  0
   -5.7396   -6.8894   12.1250 C   0  0  0  0  0  0  0  0  0  0  0  0
   -8.2365   -2.5610   13.0287 C   0  0  0  0  0  0  0  0  0  0  0  0
   -9.4817   -2.5798   13.9058 C   0  0  0  0  0  0  0  0  0  0  0  0
  3  9  1  0
  3 10  1  0
 11 17  1  0
 11 18  1  0
  1  2  2  0
  1 19  1  0
  1  4  1  0
  2 21  1  0
  2 12  1  0
 19 20  1  0
 21 22  1  0
  4  5  2  0
  4  6  1  0
 12 13  2  0
 12 14  1  0
  5  7  1  0
 13 15  1  0
  6  8  2  0
 14 16  2  0
  7  9  2  0
 15 17  2  0
  8  9  1  0
 16 17  1  0
M  END
> <PUBCHEM_COMPOUND_CID>
448537

> <PUBCHEM_CONFORMER_RMSD>
0.6

> <PUBCHEM_CONFORMER_DIVERSEORDER>
1
3
2

> <PUBCHEM_MMFF94_PARTIAL_CHARGES>
28
1 -0.53
11 -0.15
12 -0.15
13 -0.15
14 -0.15
15 -0.15
16 -0.15
17 -0.15
18 -0.15
19 0.08
2 -0.53
20 0.08
3 -0.17
31 0.15
32 0.15
33 0.15
34 0.15
35 0.15
36 0.15
37 0.15
38 0.15
39 0.45
4 -0.17
40 0.45
5 0.14
6 0.14
7 0.03
8 0.03

> <PUBCHEM_EFFECTIVE_ROTOR_COUNT>
4

> <PUBCHEM_PHARMACOPHORE_FEATURES>
6
1 1 donor
1 10 hydrophobe
1 2 donor
1 9 hydrophobe
6 7 11 13 15 17 19 rings
6 8 12 14 16 18 20 rings

> <PUBCHEM_HEAVY_ATOM_COUNT>
20

> <PUBCHEM_ATOM_DEF_STEREO_COUNT>
0

> <PUBCHEM_ATOM_UDEF_STEREO_COUNT>
0

> <PUBCHEM_BOND_DEF_STEREO_COUNT>
1

> <PUBCHEM_BOND_UDEF_STEREO_COUNT>
0

> <PUBCHEM_ISOTOPIC_ATOM_COUNT>
0

> <PUBCHEM_COMPONENT_COUNT>
1

> <PUBCHEM_CACTVS_TAUTO_COUNT>
3

> <PUBCHEM_CONFORMER_ID>
0006D81900000001

> <PUBCHEM_MMFF94_ENERGY>
60.231

> <PUBCHEM_FEATURE_SELFOVERLAP>
30.447

> <PUBCHEM_SHAPE_FINGERPRINT>
10366900 7 18186514428534874893
104564 63 18339924792832442081
10906281 52 18129397028286092948
11646440 116 18130798871235594657
12592029 89 16950278473467191938
12788726 201 18270697410649816016
13140716 1 18266458895859843337
13533116 47 18340201896197096762
13760787 19 16660644076447957075
14115302 16 18186806919849492430
14341114 176 15647057049052281551
15099037 51 18335139812416525942
15848700 24 18202843262111810220
15848702 151 16988848262958300981
16752209 62 18335696105492573576
16945 1 18410855473013063775
1813 80 18272378572207267076
18186145 218 18338228362096015613
187816 3 18410857663704853992
19141452 34 17131829889222033293
19784866 9 18113613452605694563
200 152 16950282905968490344
20028762 73 18055641861278493167
20600515 1 18340218469921978116
20645477 70 16009301016701038466
21285901 2 17917162606291067244
23175994 123 18333735723499757565
23402539 116 17988639696664490244
23493267 7 17313098635762053785
23557571 272 17489592229515708168
23559900 14 15554438621982335170
266924 87 18194116322357846868
347723 3 18410856551049855057
34934 24 18129105515976021729
3545911 37 15719391732852524422
4072396 5 18261662693185545291
4214541 1 15791727494979709055
465052 167 17240208741576471315
474 4 17917140731779840409
59755656 215 18270402685366324510
633830 44 18342455975941661781
69090 78 17060620005479420895
7226269 152 18410853270196137312
7495541 125 17531535390133293585
77779 3 15719110262139125926
81228 2 18128838385973970688
8272917 22 16660357039657468298
9971528 1 17775283884826915592

> <PUBCHEM_SHAPE_MULTIPOLES>
399.85
10.42
1.74
1.37
0
0
0.06
0
1.28
0
-0.74
0
0
-0.06

> <PUBCHEM_SHAPE_SELFOVERLAP>
850.96

> <PUBCHEM_SHAPE_VOLUME>
224.1

> <PUBCHEM_COORDINATE_TYPE>
2
5
10

> <Energy>
28.3223

> <minimizedAffinity>
-4.83745

> <CNNscore>
0.5376665592

> <CNNaffinity>
7.4929833412

> <CNN_VS>
4.0287265778

> <CNNaffinity_variance>
1.0755139589

$$$$
