5284645


 26 27  0  0  0  0  0  0  0  0999 V2000
  107.9506   11.2772   21.1169 O   0  0  0  0  0  0  0  0  0  0  0  0
  105.6357   14.7928   25.4085 O   0  0  0  0  0  0  0  0  0  0  0  0
  106.2026   16.8503   24.5416 O   0  0  0  0  0  0  0  0  0  0  0  0
  104.0106   18.2324   25.7217 O   0  0  0  0  0  0  0  0  0  0  0  0
   99.8890   16.7560   23.9871 O   0  0  0  0  0  0  0  0  0  0  0  0
  108.5306   13.1449   22.5185 C   0  0  0  0  0  0  0  0  0  0  0  0
  107.3855   12.3673   21.8471 C   0  0  0  0  0  0  0  0  0  0  0  0
  108.0685   14.1698   23.5579 C   0  0  0  0  0  0  0  0  0  0  0  0
  106.5664   13.2330   20.8776 C   0  0  0  0  0  0  0  0  0  0  0  0
  107.6115   13.5195   24.8679 C   0  0  0  0  0  0  0  0  0  0  0  0
  105.3071   12.5343   20.3433 C   0  0  0  0  0  0  0  0  0  0  0  0
  106.9891   14.5315   25.8355 C   0  0  0  0  0  0  0  0  0  0  0  0
  104.2143   12.2971   21.3923 C   0  0  0  0  0  0  0  0  0  0  0  0
  106.8901   13.9477   27.2419 C   0  0  0  0  0  0  0  0  0  0  0  0
  103.6685   13.5732   21.9734 C   0  0  0  0  0  0  0  0  0  0  0  0
  103.9523   16.1006   24.5289 C   0  0  0  0  0  0  0  0  0  0  0  0
  103.1963   15.1423   23.8248 C   0  0  0  0  0  0  0  0  0  0  0  0
  105.4035   15.9539   24.7658 C   0  0  0  0  0  0  0  0  0  0  0  0
  103.7650   13.9028   23.2715 C   0  0  0  0  0  0  0  0  0  0  0  0
  103.3369   17.2642   25.0181 C   0  0  0  0  0  0  0  0  0  0  0  0
  101.8164   15.3692   23.6545 C   0  0  0  0  0  0  0  0  0  0  0  0
  101.2229   16.5276   24.1509 C   0  0  0  0  0  0  0  0  0  0  0  0
  101.9748   17.4798   24.8288 C   0  0  0  0  0  0  0  0  0  0  0  0
  108.4713   10.7212   21.7173 H   0  0  0  0  0  0  0  0  0  0  0  0
  104.9296   18.1420   25.8806 H   0  0  0  0  0  0  0  0  0  0  0  0
   99.3588   16.1304   23.5340 H   0  0  0  0  0  0  0  0  0  0  0  0
  1  7  1  0
  1 24  1  0
  2 12  1  0
  2 18  1  0
  3 18  2  0
  4 20  1  0
  4 25  1  0
  5 22  1  0
  5 26  1  0
  6  7  1  0
  6  8  1  0
  7  9  1  0
  8 10  1  0
  9 11  1  0
 10 12  1  0
 11 13  1  0
 12 14  1  0
 13 15  1  0
 15 19  2  0
 16 17  2  0
 16 18  1  0
 16 20  1  0
 17 19  1  0
 17 21  1  0
 20 23  2  0
 21 22  2  0
 22 23  1  0
M  END
> <PUBCHEM_COMPOUND_CID>
5284645

> <PUBCHEM_CONFORMER_RMSD>
0.6

> <PUBCHEM_CONFORMER_DIVERSEORDER>
1

> <PUBCHEM_MMFF94_PARTIAL_CHARGES>
24
1 -0.68
12 0.28
13 0.14
15 -0.29
16 0.09
17 0.03
18 0.63
19 -0.18
2 -0.43
20 0.08
21 -0.15
22 0.08
23 -0.15
3 -0.57
4 -0.53
41 0.4
42 0.15
43 0.15
44 0.15
45 0.15
46 0.45
47 0.45
5 -0.53
7 0.28

> <PUBCHEM_EFFECTIVE_ROTOR_COUNT>
1.8

> <PUBCHEM_PHARMACOPHORE_FEATURES>
6
1 1 acceptor
1 1 donor
1 3 acceptor
1 4 donor
1 5 donor
6 16 17 20 21 22 23 rings

> <PUBCHEM_HEAVY_ATOM_COUNT>
23

> <PUBCHEM_ATOM_DEF_STEREO_COUNT>
2

> <PUBCHEM_ATOM_UDEF_STEREO_COUNT>
0

> <PUBCHEM_BOND_DEF_STEREO_COUNT>
1

> <PUBCHEM_BOND_UDEF_STEREO_COUNT>
0

> <PUBCHEM_ISOTOPIC_ATOM_COUNT>
0

> <PUBCHEM_COMPONENT_COUNT>
1

> <PUBCHEM_CACTVS_TAUTO_COUNT>
12

> <PUBCHEM_CONFORMER_ID>
0050A32500000001

> <PUBCHEM_MMFF94_ENERGY>
56.9454

> <PUBCHEM_FEATURE_SELFOVERLAP>
30.446

> <PUBCHEM_SHAPE_FINGERPRINT>
1100329 8 17836085568009856625
11112241 14 16986289841619931392
11578080 2 16734366241365874279
12166972 35 17967822613537111974
12403259 226 18337670931286267939
12506688 2 18412827975731104564
12596599 1 17914633677902020662
12788726 201 17627507133988941776
13140716 1 18267582403486064363
13402501 40 18336828697047978282
13533116 47 18056766653224983451
14251757 17 18262232209996353437
14787075 74 18336834185758012246
14790565 3 17545883724776523813
14866123 147 17767415573386001256
14931854 50 18336551491284682350
15196674 1 18334859415888043750
15322687 12 17104511174142344237
19591789 44 18337109089556020683
19930381 70 18413393137471364090
20028762 73 17044582808783771111
20691752 17 17022900138402631537
20715895 44 17609482839964013085
20832881 197 18343306989256920753
20905425 154 18409167675446349782
22182313 1 18041826412212926463
23227448 37 18189331260828617463
23352939 185 18342462530415398027
23557571 272 17910374109985112994
23559900 14 18335978778501818797
238 59 18196346307921625956
2748010 2 18117544331403189953
3323516 105 18411138077713944259
350125 39 18336268960321048513
3524813 1 18334011700965522918
3680242 22 18116995477305685354
463206 1 18269557311053435927
5265222 85 17471861776259798556
57527585 103 17390829632986241626
59755656 215 18188762977069237031
6443956 14 18340493347406701473
81228 2 17476913559209296171

> <PUBCHEM_SHAPE_MULTIPOLES>
443.98
8.21
4.09
1.18
1.54
0.84
-0.09
-3.84
1.51
-1.8
-1.33
-0.11
0.8
1.1

> <PUBCHEM_SHAPE_SELFOVERLAP>
916.908

> <PUBCHEM_SHAPE_VOLUME>
252.3

> <PUBCHEM_COORDINATE_TYPE>
2
5
10

> <Energy>
40.5071

> <minimizedAffinity>
-11.03296

> <CNNscore>
0.7447212338

> <CNNaffinity>
6.9886403084

> <CNN_VS>
5.2045888901

> <CNNaffinity_variance>
0.1509015560

$$$$
5284645


 26 27  0  0  0  0  0  0  0  0999 V2000
  109.7932   12.5869   23.0274 O   0  0  0  0  0  0  0  0  0  0  0  0
  104.2787   14.3085   21.3651 O   0  0  0  0  0  0  0  0  0  0  0  0
  103.0375   12.9131   22.7137 O   0  0  0  0  0  0  0  0  0  0  0  0
  100.8078   14.6729   22.9109 O   0  0  0  0  0  0  0  0  0  0  0  0
  101.9251   18.6455   25.1794 O   0  0  0  0  0  0  0  0  0  0  0  0
  107.6802   11.6723   22.3287 C   0  0  0  0  0  0  0  0  0  0  0  0
  108.3930   12.8672   22.9850 C   0  0  0  0  0  0  0  0  0  0  0  0
  106.2182   11.9387   21.9601 C   0  0  0  0  0  0  0  0  0  0  0  0
  107.9050   13.1386   24.4163 C   0  0  0  0  0  0  0  0  0  0  0  0
  106.0729   12.8301   20.7224 C   0  0  0  0  0  0  0  0  0  0  0  0
  108.4611   14.4372   25.0197 C   0  0  0  0  0  0  0  0  0  0  0  0
  104.6181   13.2349   20.4625 C   0  0  0  0  0  0  0  0  0  0  0  0
  107.9345   15.7213   24.3681 C   0  0  0  0  0  0  0  0  0  0  0  0
  104.4536   13.7924   19.0516 C   0  0  0  0  0  0  0  0  0  0  0  0
  106.4472   15.8915   24.5192 C   0  0  0  0  0  0  0  0  0  0  0  0
  103.1716   15.2385   23.1615 C   0  0  0  0  0  0  0  0  0  0  0  0
  104.1439   16.1321   23.6536 C   0  0  0  0  0  0  0  0  0  0  0  0
  103.5220   13.9997   22.4361 C   0  0  0  0  0  0  0  0  0  0  0  0
  105.5923   15.9333   23.4847 C   0  0  0  0  0  0  0  0  0  0  0  0
  101.8071   15.4943   23.3724 C   0  0  0  0  0  0  0  0  0  0  0  0
  103.7105   17.2902   24.3286 C   0  0  0  0  0  0  0  0  0  0  0  0
  102.3522   17.5290   24.5242 C   0  0  0  0  0  0  0  0  0  0  0  0
  101.3962   16.6364   24.0539 C   0  0  0  0  0  0  0  0  0  0  0  0
  110.1155   12.4133   22.1293 H   0  0  0  0  0  0  0  0  0  0  0  0
  101.0234   13.8892   22.4447 H   0  0  0  0  0  0  0  0  0  0  0  0
  102.5483   19.2638   25.5067 H   0  0  0  0  0  0  0  0  0  0  0  0
  1  7  1  0
  1 24  1  0
  2 12  1  0
  2 18  1  0
  3 18  2  0
  4 20  1  0
  4 25  1  0
  5 22  1  0
  5 26  1  0
  6  7  1  0
  6  8  1  0
  7  9  1  0
  8 10  1  0
  9 11  1  0
 10 12  1  0
 11 13  1  0
 12 14  1  0
 13 15  1  0
 15 19  2  0
 16 17  2  0
 16 18  1  0
 16 20  1  0
 17 19  1  0
 17 21  1  0
 20 23  2  0
 21 22  2  0
 22 23  1  0
M  END
> <PUBCHEM_COMPOUND_CID>
5284645

> <PUBCHEM_CONFORMER_RMSD>
0.6

> <PUBCHEM_CONFORMER_DIVERSEORDER>
1

> <PUBCHEM_MMFF94_PARTIAL_CHARGES>
24
1 -0.68
12 0.28
13 0.14
15 -0.29
16 0.09
17 0.03
18 0.63
19 -0.18
2 -0.43
20 0.08
21 -0.15
22 0.08
23 -0.15
3 -0.57
4 -0.53
41 0.4
42 0.15
43 0.15
44 0.15
45 0.15
46 0.45
47 0.45
5 -0.53
7 0.28

> <PUBCHEM_EFFECTIVE_ROTOR_COUNT>
1.8

> <PUBCHEM_PHARMACOPHORE_FEATURES>
6
1 1 acceptor
1 1 donor
1 3 acceptor
1 4 donor
1 5 donor
6 16 17 20 21 22 23 rings

> <PUBCHEM_HEAVY_ATOM_COUNT>
23

> <PUBCHEM_ATOM_DEF_STEREO_COUNT>
2

> <PUBCHEM_ATOM_UDEF_STEREO_COUNT>
0

> <PUBCHEM_BOND_DEF_STEREO_COUNT>
1

> <PUBCHEM_BOND_UDEF_STEREO_COUNT>
0

> <PUBCHEM_ISOTOPIC_ATOM_COUNT>
0

> <PUBCHEM_COMPONENT_COUNT>
1

> <PUBCHEM_CACTVS_TAUTO_COUNT>
12

> <PUBCHEM_CONFORMER_ID>
0050A32500000001

> <PUBCHEM_MMFF94_ENERGY>
56.9454

> <PUBCHEM_FEATURE_SELFOVERLAP>
30.446

> <PUBCHEM_SHAPE_FINGERPRINT>
1100329 8 17836085568009856625
11112241 14 16986289841619931392
11578080 2 16734366241365874279
12166972 35 17967822613537111974
12403259 226 18337670931286267939
12506688 2 18412827975731104564
12596599 1 17914633677902020662
12788726 201 17627507133988941776
13140716 1 18267582403486064363
13402501 40 18336828697047978282
13533116 47 18056766653224983451
14251757 17 18262232209996353437
14787075 74 18336834185758012246
14790565 3 17545883724776523813
14866123 147 17767415573386001256
14931854 50 18336551491284682350
15196674 1 18334859415888043750
15322687 12 17104511174142344237
19591789 44 18337109089556020683
19930381 70 18413393137471364090
20028762 73 17044582808783771111
20691752 17 17022900138402631537
20715895 44 17609482839964013085
20832881 197 18343306989256920753
20905425 154 18409167675446349782
22182313 1 18041826412212926463
23227448 37 18189331260828617463
23352939 185 18342462530415398027
23557571 272 17910374109985112994
23559900 14 18335978778501818797
238 59 18196346307921625956
2748010 2 18117544331403189953
3323516 105 18411138077713944259
350125 39 18336268960321048513
3524813 1 18334011700965522918
3680242 22 18116995477305685354
463206 1 18269557311053435927
5265222 85 17471861776259798556
57527585 103 17390829632986241626
59755656 215 18188762977069237031
6443956 14 18340493347406701473
81228 2 17476913559209296171

> <PUBCHEM_SHAPE_MULTIPOLES>
443.98
8.21
4.09
1.18
1.54
0.84
-0.09
-3.84
1.51
-1.8
-1.33
-0.11
0.8
1.1

> <PUBCHEM_SHAPE_SELFOVERLAP>
916.908

> <PUBCHEM_SHAPE_VOLUME>
252.3

> <PUBCHEM_COORDINATE_TYPE>
2
5
10

> <Energy>
40.5071

> <minimizedAffinity>
-9.99193

> <CNNscore>
0.5854369998

> <CNNaffinity>
6.9495377541

> <CNN_VS>
4.0685167313

> <CNNaffinity_variance>
0.3209243715

$$$$
5284645


 26 27  0  0  0  0  0  0  0  0999 V2000
  106.4492   11.0945   23.8886 O   0  0  0  0  0  0  0  0  0  0  0  0
  102.7671   15.8041   23.2562 O   0  0  0  0  0  0  0  0  0  0  0  0
  102.4418   16.3154   25.4786 O   0  0  0  0  0  0  0  0  0  0  0  0
  101.9969   19.0925   25.0346 O   0  0  0  0  0  0  0  0  0  0  0  0
  105.8503   21.2244   23.3666 O   0  0  0  0  0  0  0  0  0  0  0  0
  104.3612   11.9595   24.7143 C   0  0  0  0  0  0  0  0  0  0  0  0
  105.7201   12.3077   24.0830 C   0  0  0  0  0  0  0  0  0  0  0  0
  103.3596   13.1174   24.7268 C   0  0  0  0  0  0  0  0  0  0  0  0
  106.5606   13.2481   24.9604 C   0  0  0  0  0  0  0  0  0  0  0  0
  102.7570   13.3938   23.3454 C   0  0  0  0  0  0  0  0  0  0  0  0
  107.8330   13.7605   24.2690 C   0  0  0  0  0  0  0  0  0  0  0  0
  101.8924   14.6587   23.3285 C   0  0  0  0  0  0  0  0  0  0  0  0
  107.5826   14.7243   23.1031 C   0  0  0  0  0  0  0  0  0  0  0  0
  101.0216   14.7041   22.0763 C   0  0  0  0  0  0  0  0  0  0  0  0
  106.8960   15.9946   23.5258 C   0  0  0  0  0  0  0  0  0  0  0  0
  103.7724   17.7043   24.0907 C   0  0  0  0  0  0  0  0  0  0  0  0
  105.0442   17.6322   23.4880 C   0  0  0  0  0  0  0  0  0  0  0  0
  102.9631   16.5047   24.3902 C   0  0  0  0  0  0  0  0  0  0  0  0
  105.6842   16.3695   23.0856 C   0  0  0  0  0  0  0  0  0  0  0  0
  103.2337   18.9489   24.4549 C   0  0  0  0  0  0  0  0  0  0  0  0
  105.7372   18.8330   23.2377 C   0  0  0  0  0  0  0  0  0  0  0  0
  105.1844   20.0585   23.6022 C   0  0  0  0  0  0  0  0  0  0  0  0
  103.9379   20.1250   24.2134 C   0  0  0  0  0  0  0  0  0  0  0  0
  105.9298   10.4904   23.3355 H   0  0  0  0  0  0  0  0  0  0  0  0
  101.4763   18.3361   25.2212 H   0  0  0  0  0  0  0  0  0  0  0  0
  106.6923   21.2083   22.9559 H   0  0  0  0  0  0  0  0  0  0  0  0
  1  7  1  0
  1 24  1  0
  2 12  1  0
  2 18  1  0
  3 18  2  0
  4 20  1  0
  4 25  1  0
  5 22  1  0
  5 26  1  0
  6  7  1  0
  6  8  1  0
  7  9  1  0
  8 10  1  0
  9 11  1  0
 10 12  1  0
 11 13  1  0
 12 14  1  0
 13 15  1  0
 15 19  2  0
 16 17  2  0
 16 18  1  0
 16 20  1  0
 17 19  1  0
 17 21  1  0
 20 23  2  0
 21 22  2  0
 22 23  1  0
M  END
> <PUBCHEM_COMPOUND_CID>
5284645

> <PUBCHEM_CONFORMER_RMSD>
0.6

> <PUBCHEM_CONFORMER_DIVERSEORDER>
1

> <PUBCHEM_MMFF94_PARTIAL_CHARGES>
24
1 -0.68
12 0.28
13 0.14
15 -0.29
16 0.09
17 0.03
18 0.63
19 -0.18
2 -0.43
20 0.08
21 -0.15
22 0.08
23 -0.15
3 -0.57
4 -0.53
41 0.4
42 0.15
43 0.15
44 0.15
45 0.15
46 0.45
47 0.45
5 -0.53
7 0.28

> <PUBCHEM_EFFECTIVE_ROTOR_COUNT>
1.8

> <PUBCHEM_PHARMACOPHORE_FEATURES>
6
1 1 acceptor
1 1 donor
1 3 acceptor
1 4 donor
1 5 donor
6 16 17 20 21 22 23 rings

> <PUBCHEM_HEAVY_ATOM_COUNT>
23

> <PUBCHEM_ATOM_DEF_STEREO_COUNT>
2

> <PUBCHEM_ATOM_UDEF_STEREO_COUNT>
0

> <PUBCHEM_BOND_DEF_STEREO_COUNT>
1

> <PUBCHEM_BOND_UDEF_STEREO_COUNT>
0

> <PUBCHEM_ISOTOPIC_ATOM_COUNT>
0

> <PUBCHEM_COMPONENT_COUNT>
1

> <PUBCHEM_CACTVS_TAUTO_COUNT>
12

> <PUBCHEM_CONFORMER_ID>
0050A32500000001

> <PUBCHEM_MMFF94_ENERGY>
56.9454

> <PUBCHEM_FEATURE_SELFOVERLAP>
30.446

> <PUBCHEM_SHAPE_FINGERPRINT>
1100329 8 17836085568009856625
11112241 14 16986289841619931392
11578080 2 16734366241365874279
12166972 35 17967822613537111974
12403259 226 18337670931286267939
12506688 2 18412827975731104564
12596599 1 17914633677902020662
12788726 201 17627507133988941776
13140716 1 18267582403486064363
13402501 40 18336828697047978282
13533116 47 18056766653224983451
14251757 17 18262232209996353437
14787075 74 18336834185758012246
14790565 3 17545883724776523813
14866123 147 17767415573386001256
14931854 50 18336551491284682350
15196674 1 18334859415888043750
15322687 12 17104511174142344237
19591789 44 18337109089556020683
19930381 70 18413393137471364090
20028762 73 17044582808783771111
20691752 17 17022900138402631537
20715895 44 17609482839964013085
20832881 197 18343306989256920753
20905425 154 18409167675446349782
22182313 1 18041826412212926463
23227448 37 18189331260828617463
23352939 185 18342462530415398027
23557571 272 17910374109985112994
23559900 14 18335978778501818797
238 59 18196346307921625956
2748010 2 18117544331403189953
3323516 105 18411138077713944259
350125 39 18336268960321048513
3524813 1 18334011700965522918
3680242 22 18116995477305685354
463206 1 18269557311053435927
5265222 85 17471861776259798556
57527585 103 17390829632986241626
59755656 215 18188762977069237031
6443956 14 18340493347406701473
81228 2 17476913559209296171

> <PUBCHEM_SHAPE_MULTIPOLES>
443.98
8.21
4.09
1.18
1.54
0.84
-0.09
-3.84
1.51
-1.8
-1.33
-0.11
0.8
1.1

> <PUBCHEM_SHAPE_SELFOVERLAP>
916.908

> <PUBCHEM_SHAPE_VOLUME>
252.3

> <PUBCHEM_COORDINATE_TYPE>
2
5
10

> <Energy>
40.5071

> <minimizedAffinity>
13.11397

> <CNNscore>
0.2543073297

> <CNNaffinity>
5.5593886375

> <CNN_VS>
1.4137933254

> <CNNaffinity_variance>
0.4453586340

$$$$
5284645


 26 27  0  0  0  0  0  0  0  0999 V2000
  108.2415   11.1264   21.4103 O   0  0  0  0  0  0  0  0  0  0  0  0
  103.3088   14.3928   22.4761 O   0  0  0  0  0  0  0  0  0  0  0  0
  102.9407   13.7948   24.6700 O   0  0  0  0  0  0  0  0  0  0  0  0
  101.6766   16.2428   25.3887 O   0  0  0  0  0  0  0  0  0  0  0  0
  104.6540   19.8811   25.1159 O   0  0  0  0  0  0  0  0  0  0  0  0
  106.0278   10.9239   22.3313 C   0  0  0  0  0  0  0  0  0  0  0  0
  107.1953   11.8785   22.0275 C   0  0  0  0  0  0  0  0  0  0  0  0
  104.7302   11.6282   22.7366 C   0  0  0  0  0  0  0  0  0  0  0  0
  107.7565   12.5528   23.2889 C   0  0  0  0  0  0  0  0  0  0  0  0
  104.0153   12.2812   21.5491 C   0  0  0  0  0  0  0  0  0  0  0  0
  108.7903   13.6494   22.9917 C   0  0  0  0  0  0  0  0  0  0  0  0
  102.8156   13.1289   21.9847 C   0  0  0  0  0  0  0  0  0  0  0  0
  108.2175   14.9017   22.3177 C   0  0  0  0  0  0  0  0  0  0  0  0
  101.9184   13.4523   20.7936 C   0  0  0  0  0  0  0  0  0  0  0  0
  107.2045   15.6179   23.1690 C   0  0  0  0  0  0  0  0  0  0  0  0
  103.7417   15.9570   24.1143 C   0  0  0  0  0  0  0  0  0  0  0  0
  104.9515   16.5135   23.6531 C   0  0  0  0  0  0  0  0  0  0  0  0
  103.3365   14.5686   23.8116 C   0  0  0  0  0  0  0  0  0  0  0  0
  105.9186   15.7820   22.8191 C   0  0  0  0  0  0  0  0  0  0  0  0
  102.8751   16.7181   24.9153 C   0  0  0  0  0  0  0  0  0  0  0  0
  105.2474   17.8490   23.9904 C   0  0  0  0  0  0  0  0  0  0  0  0
  104.3730   18.5896   24.7824 C   0  0  0  0  0  0  0  0  0  0  0  0
  103.1894   18.0319   25.2512 C   0  0  0  0  0  0  0  0  0  0  0  0
  107.9011   10.6945   20.6114 H   0  0  0  0  0  0  0  0  0  0  0  0
  101.4111   15.3654   25.1948 H   0  0  0  0  0  0  0  0  0  0  0  0
  105.4451   20.2816   24.8132 H   0  0  0  0  0  0  0  0  0  0  0  0
  1  7  1  0
  1 24  1  0
  2 12  1  0
  2 18  1  0
  3 18  2  0
  4 20  1  0
  4 25  1  0
  5 22  1  0
  5 26  1  0
  6  7  1  0
  6  8  1  0
  7  9  1  0
  8 10  1  0
  9 11  1  0
 10 12  1  0
 11 13  1  0
 12 14  1  0
 13 15  1  0
 15 19  2  0
 16 17  2  0
 16 18  1  0
 16 20  1  0
 17 19  1  0
 17 21  1  0
 20 23  2  0
 21 22  2  0
 22 23  1  0
M  END
> <PUBCHEM_COMPOUND_CID>
5284645

> <PUBCHEM_CONFORMER_RMSD>
0.6

> <PUBCHEM_CONFORMER_DIVERSEORDER>
1

> <PUBCHEM_MMFF94_PARTIAL_CHARGES>
24
1 -0.68
12 0.28
13 0.14
15 -0.29
16 0.09
17 0.03
18 0.63
19 -0.18
2 -0.43
20 0.08
21 -0.15
22 0.08
23 -0.15
3 -0.57
4 -0.53
41 0.4
42 0.15
43 0.15
44 0.15
45 0.15
46 0.45
47 0.45
5 -0.53
7 0.28

> <PUBCHEM_EFFECTIVE_ROTOR_COUNT>
1.8

> <PUBCHEM_PHARMACOPHORE_FEATURES>
6
1 1 acceptor
1 1 donor
1 3 acceptor
1 4 donor
1 5 donor
6 16 17 20 21 22 23 rings

> <PUBCHEM_HEAVY_ATOM_COUNT>
23

> <PUBCHEM_ATOM_DEF_STEREO_COUNT>
2

> <PUBCHEM_ATOM_UDEF_STEREO_COUNT>
0

> <PUBCHEM_BOND_DEF_STEREO_COUNT>
1

> <PUBCHEM_BOND_UDEF_STEREO_COUNT>
0

> <PUBCHEM_ISOTOPIC_ATOM_COUNT>
0

> <PUBCHEM_COMPONENT_COUNT>
1

> <PUBCHEM_CACTVS_TAUTO_COUNT>
12

> <PUBCHEM_CONFORMER_ID>
0050A32500000001

> <PUBCHEM_MMFF94_ENERGY>
56.9454

> <PUBCHEM_FEATURE_SELFOVERLAP>
30.446

> <PUBCHEM_SHAPE_FINGERPRINT>
1100329 8 17836085568009856625
11112241 14 16986289841619931392
11578080 2 16734366241365874279
12166972 35 17967822613537111974
12403259 226 18337670931286267939
12506688 2 18412827975731104564
12596599 1 17914633677902020662
12788726 201 17627507133988941776
13140716 1 18267582403486064363
13402501 40 18336828697047978282
13533116 47 18056766653224983451
14251757 17 18262232209996353437
14787075 74 18336834185758012246
14790565 3 17545883724776523813
14866123 147 17767415573386001256
14931854 50 18336551491284682350
15196674 1 18334859415888043750
15322687 12 17104511174142344237
19591789 44 18337109089556020683
19930381 70 18413393137471364090
20028762 73 17044582808783771111
20691752 17 17022900138402631537
20715895 44 17609482839964013085
20832881 197 18343306989256920753
20905425 154 18409167675446349782
22182313 1 18041826412212926463
23227448 37 18189331260828617463
23352939 185 18342462530415398027
23557571 272 17910374109985112994
23559900 14 18335978778501818797
238 59 18196346307921625956
2748010 2 18117544331403189953
3323516 105 18411138077713944259
350125 39 18336268960321048513
3524813 1 18334011700965522918
3680242 22 18116995477305685354
463206 1 18269557311053435927
5265222 85 17471861776259798556
57527585 103 17390829632986241626
59755656 215 18188762977069237031
6443956 14 18340493347406701473
81228 2 17476913559209296171

> <PUBCHEM_SHAPE_MULTIPOLES>
443.98
8.21
4.09
1.18
1.54
0.84
-0.09
-3.84
1.51
-1.8
-1.33
-0.11
0.8
1.1

> <PUBCHEM_SHAPE_SELFOVERLAP>
916.908

> <PUBCHEM_SHAPE_VOLUME>
252.3

> <PUBCHEM_COORDINATE_TYPE>
2
5
10

> <Energy>
40.5071

> <minimizedAffinity>
-3.72553

> <CNNscore>
0.1851399094

> <CNNaffinity>
5.9197583199

> <CNN_VS>
1.0959835052

> <CNNaffinity_variance>
0.0068595395

$$$$
5284645


 26 27  0  0  0  0  0  0  0  0999 V2000
  103.3664   18.6058   25.3285 O   0  0  0  0  0  0  0  0  0  0  0  0
  107.0100   14.2035   23.4625 O   0  0  0  0  0  0  0  0  0  0  0  0
  106.6683   12.6967   25.1710 O   0  0  0  0  0  0  0  0  0  0  0  0
  107.1859   10.3924   23.5805 O   0  0  0  0  0  0  0  0  0  0  0  0
  103.9556    9.8561   20.1961 O   0  0  0  0  0  0  0  0  0  0  0  0
  105.1124   17.1576   26.1310 C   0  0  0  0  0  0  0  0  0  0  0  0
  103.9911   17.3425   25.0941 C   0  0  0  0  0  0  0  0  0  0  0  0
  106.0515   15.9845   25.8376 C   0  0  0  0  0  0  0  0  0  0  0  0
  102.9193   16.2446   25.1742 C   0  0  0  0  0  0  0  0  0  0  0  0
  107.0259   16.2784   24.6922 C   0  0  0  0  0  0  0  0  0  0  0  0
  101.8961   16.2995   24.0298 C   0  0  0  0  0  0  0  0  0  0  0  0
  107.8411   15.0453   24.2888 C   0  0  0  0  0  0  0  0  0  0  0  0
  102.4617   15.9448   22.6495 C   0  0  0  0  0  0  0  0  0  0  0  0
  109.0376   15.4430   23.4295 C   0  0  0  0  0  0  0  0  0  0  0  0
  102.9788   14.5340   22.5694 C   0  0  0  0  0  0  0  0  0  0  0  0
  105.7802   12.3068   23.0065 C   0  0  0  0  0  0  0  0  0  0  0  0
  104.7395   12.8348   22.2164 C   0  0  0  0  0  0  0  0  0  0  0  0
  106.4834   13.1028   24.0338 C   0  0  0  0  0  0  0  0  0  0  0  0
  104.2611   14.2226   22.3215 C   0  0  0  0  0  0  0  0  0  0  0  0
  106.1730   10.9675   22.8526 C   0  0  0  0  0  0  0  0  0  0  0  0
  104.1332   11.9979   21.2589 C   0  0  0  0  0  0  0  0  0  0  0  0
  104.5397   10.6731   21.1179 C   0  0  0  0  0  0  0  0  0  0  0  0
  105.5537   10.1499   21.9115 C   0  0  0  0  0  0  0  0  0  0  0  0
  104.0321   19.3095   25.2809 H   0  0  0  0  0  0  0  0  0  0  0  0
  107.6398   10.8938   24.2289 H   0  0  0  0  0  0  0  0  0  0  0  0
  103.2697   10.1832   19.6481 H   0  0  0  0  0  0  0  0  0  0  0  0
  1  7  1  0
  1 24  1  0
  2 12  1  0
  2 18  1  0
  3 18  2  0
  4 20  1  0
  4 25  1  0
  5 22  1  0
  5 26  1  0
  6  7  1  0
  6  8  1  0
  7  9  1  0
  8 10  1  0
  9 11  1  0
 10 12  1  0
 11 13  1  0
 12 14  1  0
 13 15  1  0
 15 19  2  0
 16 17  2  0
 16 18  1  0
 16 20  1  0
 17 19  1  0
 17 21  1  0
 20 23  2  0
 21 22  2  0
 22 23  1  0
M  END
> <PUBCHEM_COMPOUND_CID>
5284645

> <PUBCHEM_CONFORMER_RMSD>
0.6

> <PUBCHEM_CONFORMER_DIVERSEORDER>
1

> <PUBCHEM_MMFF94_PARTIAL_CHARGES>
24
1 -0.68
12 0.28
13 0.14
15 -0.29
16 0.09
17 0.03
18 0.63
19 -0.18
2 -0.43
20 0.08
21 -0.15
22 0.08
23 -0.15
3 -0.57
4 -0.53
41 0.4
42 0.15
43 0.15
44 0.15
45 0.15
46 0.45
47 0.45
5 -0.53
7 0.28

> <PUBCHEM_EFFECTIVE_ROTOR_COUNT>
1.8

> <PUBCHEM_PHARMACOPHORE_FEATURES>
6
1 1 acceptor
1 1 donor
1 3 acceptor
1 4 donor
1 5 donor
6 16 17 20 21 22 23 rings

> <PUBCHEM_HEAVY_ATOM_COUNT>
23

> <PUBCHEM_ATOM_DEF_STEREO_COUNT>
2

> <PUBCHEM_ATOM_UDEF_STEREO_COUNT>
0

> <PUBCHEM_BOND_DEF_STEREO_COUNT>
1

> <PUBCHEM_BOND_UDEF_STEREO_COUNT>
0

> <PUBCHEM_ISOTOPIC_ATOM_COUNT>
0

> <PUBCHEM_COMPONENT_COUNT>
1

> <PUBCHEM_CACTVS_TAUTO_COUNT>
12

> <PUBCHEM_CONFORMER_ID>
0050A32500000001

> <PUBCHEM_MMFF94_ENERGY>
56.9454

> <PUBCHEM_FEATURE_SELFOVERLAP>
30.446

> <PUBCHEM_SHAPE_FINGERPRINT>
1100329 8 17836085568009856625
11112241 14 16986289841619931392
11578080 2 16734366241365874279
12166972 35 17967822613537111974
12403259 226 18337670931286267939
12506688 2 18412827975731104564
12596599 1 17914633677902020662
12788726 201 17627507133988941776
13140716 1 18267582403486064363
13402501 40 18336828697047978282
13533116 47 18056766653224983451
14251757 17 18262232209996353437
14787075 74 18336834185758012246
14790565 3 17545883724776523813
14866123 147 17767415573386001256
14931854 50 18336551491284682350
15196674 1 18334859415888043750
15322687 12 17104511174142344237
19591789 44 18337109089556020683
19930381 70 18413393137471364090
20028762 73 17044582808783771111
20691752 17 17022900138402631537
20715895 44 17609482839964013085
20832881 197 18343306989256920753
20905425 154 18409167675446349782
22182313 1 18041826412212926463
23227448 37 18189331260828617463
23352939 185 18342462530415398027
23557571 272 17910374109985112994
23559900 14 18335978778501818797
238 59 18196346307921625956
2748010 2 18117544331403189953
3323516 105 18411138077713944259
350125 39 18336268960321048513
3524813 1 18334011700965522918
3680242 22 18116995477305685354
463206 1 18269557311053435927
5265222 85 17471861776259798556
57527585 103 17390829632986241626
59755656 215 18188762977069237031
6443956 14 18340493347406701473
81228 2 17476913559209296171

> <PUBCHEM_SHAPE_MULTIPOLES>
443.98
8.21
4.09
1.18
1.54
0.84
-0.09
-3.84
1.51
-1.8
-1.33
-0.11
0.8
1.1

> <PUBCHEM_SHAPE_SELFOVERLAP>
916.908

> <PUBCHEM_SHAPE_VOLUME>
252.3

> <PUBCHEM_COORDINATE_TYPE>
2
5
10

> <Energy>
40.5071

> <minimizedAffinity>
0.28800

> <CNNscore>
0.1718088835

> <CNNaffinity>
5.2042317390

> <CNN_VS>
0.8941332698

> <CNNaffinity_variance>
0.1727418303

$$$$
5284645


 26 27  0  0  0  0  0  0  0  0999 V2000
  102.5666   11.6862   20.7224 O   0  0  0  0  0  0  0  0  0  0  0  0
  107.2189   15.4621   21.2081 O   0  0  0  0  0  0  0  0  0  0  0  0
  106.9162   16.1371   23.3897 O   0  0  0  0  0  0  0  0  0  0  0  0
  109.6743   16.6478   23.8792 O   0  0  0  0  0  0  0  0  0  0  0  0
  112.2341   12.7001   23.6816 O   0  0  0  0  0  0  0  0  0  0  0  0
  103.0976   13.9134   21.4622 C   0  0  0  0  0  0  0  0  0  0  0  0
  103.6378   12.4949   21.2119 C   0  0  0  0  0  0  0  0  0  0  0  0
  104.1829   14.9616   21.7218 C   0  0  0  0  0  0  0  0  0  0  0  0
  104.2036   11.8407   22.4817 C   0  0  0  0  0  0  0  0  0  0  0  0
  104.9319   15.3663   20.4479 C   0  0  0  0  0  0  0  0  0  0  0  0
  104.9191   10.5069   22.2198 C   0  0  0  0  0  0  0  0  0  0  0  0
  106.1268   16.2803   20.7390 C   0  0  0  0  0  0  0  0  0  0  0  0
  106.2334   10.6294   21.4396 C   0  0  0  0  0  0  0  0  0  0  0  0
  106.6158   16.9576   19.4621 C   0  0  0  0  0  0  0  0  0  0  0  0
  107.2774   11.4328   22.1666 C   0  0  0  0  0  0  0  0  0  0  0  0
  108.6971   14.6861   22.7989 C   0  0  0  0  0  0  0  0  0  0  0  0
  108.8344   13.3372   22.4148 C   0  0  0  0  0  0  0  0  0  0  0  0
  107.4739   15.4706   22.5311 C   0  0  0  0  0  0  0  0  0  0  0  0
  107.7907   12.5832   21.7020 C   0  0  0  0  0  0  0  0  0  0  0  0
  109.7368   15.3334   23.4859 C   0  0  0  0  0  0  0  0  0  0  0  0
  110.0421   12.6749   22.7104 C   0  0  0  0  0  0  0  0  0  0  0  0
  111.0639   13.3352   23.3889 C   0  0  0  0  0  0  0  0  0  0  0  0
  110.9184   14.6601   23.7828 C   0  0  0  0  0  0  0  0  0  0  0  0
  102.1992   12.0877   19.9196 H   0  0  0  0  0  0  0  0  0  0  0  0
  108.9038   17.1524   23.7066 H   0  0  0  0  0  0  0  0  0  0  0  0
  112.3587   11.8069   23.4276 H   0  0  0  0  0  0  0  0  0  0  0  0
  1  7  1  0
  1 24  1  0
  2 12  1  0
  2 18  1  0
  3 18  2  0
  4 20  1  0
  4 25  1  0
  5 22  1  0
  5 26  1  0
  6  7  1  0
  6  8  1  0
  7  9  1  0
  8 10  1  0
  9 11  1  0
 10 12  1  0
 11 13  1  0
 12 14  1  0
 13 15  1  0
 15 19  2  0
 16 17  2  0
 16 18  1  0
 16 20  1  0
 17 19  1  0
 17 21  1  0
 20 23  2  0
 21 22  2  0
 22 23  1  0
M  END
> <PUBCHEM_COMPOUND_CID>
5284645

> <PUBCHEM_CONFORMER_RMSD>
0.6

> <PUBCHEM_CONFORMER_DIVERSEORDER>
1

> <PUBCHEM_MMFF94_PARTIAL_CHARGES>
24
1 -0.68
12 0.28
13 0.14
15 -0.29
16 0.09
17 0.03
18 0.63
19 -0.18
2 -0.43
20 0.08
21 -0.15
22 0.08
23 -0.15
3 -0.57
4 -0.53
41 0.4
42 0.15
43 0.15
44 0.15
45 0.15
46 0.45
47 0.45
5 -0.53
7 0.28

> <PUBCHEM_EFFECTIVE_ROTOR_COUNT>
1.8

> <PUBCHEM_PHARMACOPHORE_FEATURES>
6
1 1 acceptor
1 1 donor
1 3 acceptor
1 4 donor
1 5 donor
6 16 17 20 21 22 23 rings

> <PUBCHEM_HEAVY_ATOM_COUNT>
23

> <PUBCHEM_ATOM_DEF_STEREO_COUNT>
2

> <PUBCHEM_ATOM_UDEF_STEREO_COUNT>
0

> <PUBCHEM_BOND_DEF_STEREO_COUNT>
1

> <PUBCHEM_BOND_UDEF_STEREO_COUNT>
0

> <PUBCHEM_ISOTOPIC_ATOM_COUNT>
0

> <PUBCHEM_COMPONENT_COUNT>
1

> <PUBCHEM_CACTVS_TAUTO_COUNT>
12

> <PUBCHEM_CONFORMER_ID>
0050A32500000001

> <PUBCHEM_MMFF94_ENERGY>
56.9454

> <PUBCHEM_FEATURE_SELFOVERLAP>
30.446

> <PUBCHEM_SHAPE_FINGERPRINT>
1100329 8 17836085568009856625
11112241 14 16986289841619931392
11578080 2 16734366241365874279
12166972 35 17967822613537111974
12403259 226 18337670931286267939
12506688 2 18412827975731104564
12596599 1 17914633677902020662
12788726 201 17627507133988941776
13140716 1 18267582403486064363
13402501 40 18336828697047978282
13533116 47 18056766653224983451
14251757 17 18262232209996353437
14787075 74 18336834185758012246
14790565 3 17545883724776523813
14866123 147 17767415573386001256
14931854 50 18336551491284682350
15196674 1 18334859415888043750
15322687 12 17104511174142344237
19591789 44 18337109089556020683
19930381 70 18413393137471364090
20028762 73 17044582808783771111
20691752 17 17022900138402631537
20715895 44 17609482839964013085
20832881 197 18343306989256920753
20905425 154 18409167675446349782
22182313 1 18041826412212926463
23227448 37 18189331260828617463
23352939 185 18342462530415398027
23557571 272 17910374109985112994
23559900 14 18335978778501818797
238 59 18196346307921625956
2748010 2 18117544331403189953
3323516 105 18411138077713944259
350125 39 18336268960321048513
3524813 1 18334011700965522918
3680242 22 18116995477305685354
463206 1 18269557311053435927
5265222 85 17471861776259798556
57527585 103 17390829632986241626
59755656 215 18188762977069237031
6443956 14 18340493347406701473
81228 2 17476913559209296171

> <PUBCHEM_SHAPE_MULTIPOLES>
443.98
8.21
4.09
1.18
1.54
0.84
-0.09
-3.84
1.51
-1.8
-1.33
-0.11
0.8
1.1

> <PUBCHEM_SHAPE_SELFOVERLAP>
916.908

> <PUBCHEM_SHAPE_VOLUME>
252.3

> <PUBCHEM_COORDINATE_TYPE>
2
5
10

> <Energy>
40.5071

> <minimizedAffinity>
9.85042

> <CNNscore>
0.1195226088

> <CNNaffinity>
4.7217211723

> <CNN_VS>
0.5643524528

> <CNNaffinity_variance>
0.6558551788

$$$$
5284645


 26 27  0  0  0  0  0  0  0  0999 V2000
  102.6866   17.3480   26.7571 O   0  0  0  0  0  0  0  0  0  0  0  0
  106.7387   14.5472   23.3113 O   0  0  0  0  0  0  0  0  0  0  0  0
  106.2008   12.3645   23.8144 O   0  0  0  0  0  0  0  0  0  0  0  0
  107.0423   11.3141   21.3052 O   0  0  0  0  0  0  0  0  0  0  0  0
  104.3853   12.9268   17.7675 O   0  0  0  0  0  0  0  0  0  0  0  0
  104.3457   15.6084   26.8603 C   0  0  0  0  0  0  0  0  0  0  0  0
  103.3882   16.3989   25.9521 C   0  0  0  0  0  0  0  0  0  0  0  0
  105.3632   14.7501   26.1039 C   0  0  0  0  0  0  0  0  0  0  0  0
  102.3600   15.5012   25.2467 C   0  0  0  0  0  0  0  0  0  0  0  0
  106.4877   15.5803   25.4763 C   0  0  0  0  0  0  0  0  0  0  0  0
  101.5206   16.2386   24.1925 C   0  0  0  0  0  0  0  0  0  0  0  0
  107.4018   14.7402   24.5783 C   0  0  0  0  0  0  0  0  0  0  0  0
  102.3021   16.6840   22.9508 C   0  0  0  0  0  0  0  0  0  0  0  0
  108.6984   15.4853   24.2749 C   0  0  0  0  0  0  0  0  0  0  0  0
  102.8796   15.5322   22.1737 C   0  0  0  0  0  0  0  0  0  0  0  0
  105.6666   13.2948   21.6989 C   0  0  0  0  0  0  0  0  0  0  0  0
  104.7380   14.2277   21.1955 C   0  0  0  0  0  0  0  0  0  0  0  0
  106.1747   13.3446   23.0856 C   0  0  0  0  0  0  0  0  0  0  0  0
  104.1958   15.3444   21.9860 C   0  0  0  0  0  0  0  0  0  0  0  0
  106.1298   12.2499   20.8831 C   0  0  0  0  0  0  0  0  0  0  0  0
  104.3167   14.0999   19.8573 C   0  0  0  0  0  0  0  0  0  0  0  0
  104.7909   13.0592   19.0621 C   0  0  0  0  0  0  0  0  0  0  0  0
  105.6925   12.1297   19.5671 C   0  0  0  0  0  0  0  0  0  0  0  0
  103.3241   17.9224   27.2091 H   0  0  0  0  0  0  0  0  0  0  0  0
  107.3730   11.3442   22.1814 H   0  0  0  0  0  0  0  0  0  0  0  0
  103.7781   13.5396   17.4018 H   0  0  0  0  0  0  0  0  0  0  0  0
  1  7  1  0
  1 24  1  0
  2 12  1  0
  2 18  1  0
  3 18  2  0
  4 20  1  0
  4 25  1  0
  5 22  1  0
  5 26  1  0
  6  7  1  0
  6  8  1  0
  7  9  1  0
  8 10  1  0
  9 11  1  0
 10 12  1  0
 11 13  1  0
 12 14  1  0
 13 15  1  0
 15 19  2  0
 16 17  2  0
 16 18  1  0
 16 20  1  0
 17 19  1  0
 17 21  1  0
 20 23  2  0
 21 22  2  0
 22 23  1  0
M  END
> <PUBCHEM_COMPOUND_CID>
5284645

> <PUBCHEM_CONFORMER_RMSD>
0.6

> <PUBCHEM_CONFORMER_DIVERSEORDER>
1

> <PUBCHEM_MMFF94_PARTIAL_CHARGES>
24
1 -0.68
12 0.28
13 0.14
15 -0.29
16 0.09
17 0.03
18 0.63
19 -0.18
2 -0.43
20 0.08
21 -0.15
22 0.08
23 -0.15
3 -0.57
4 -0.53
41 0.4
42 0.15
43 0.15
44 0.15
45 0.15
46 0.45
47 0.45
5 -0.53
7 0.28

> <PUBCHEM_EFFECTIVE_ROTOR_COUNT>
1.8

> <PUBCHEM_PHARMACOPHORE_FEATURES>
6
1 1 acceptor
1 1 donor
1 3 acceptor
1 4 donor
1 5 donor
6 16 17 20 21 22 23 rings

> <PUBCHEM_HEAVY_ATOM_COUNT>
23

> <PUBCHEM_ATOM_DEF_STEREO_COUNT>
2

> <PUBCHEM_ATOM_UDEF_STEREO_COUNT>
0

> <PUBCHEM_BOND_DEF_STEREO_COUNT>
1

> <PUBCHEM_BOND_UDEF_STEREO_COUNT>
0

> <PUBCHEM_ISOTOPIC_ATOM_COUNT>
0

> <PUBCHEM_COMPONENT_COUNT>
1

> <PUBCHEM_CACTVS_TAUTO_COUNT>
12

> <PUBCHEM_CONFORMER_ID>
0050A32500000001

> <PUBCHEM_MMFF94_ENERGY>
56.9454

> <PUBCHEM_FEATURE_SELFOVERLAP>
30.446

> <PUBCHEM_SHAPE_FINGERPRINT>
1100329 8 17836085568009856625
11112241 14 16986289841619931392
11578080 2 16734366241365874279
12166972 35 17967822613537111974
12403259 226 18337670931286267939
12506688 2 18412827975731104564
12596599 1 17914633677902020662
12788726 201 17627507133988941776
13140716 1 18267582403486064363
13402501 40 18336828697047978282
13533116 47 18056766653224983451
14251757 17 18262232209996353437
14787075 74 18336834185758012246
14790565 3 17545883724776523813
14866123 147 17767415573386001256
14931854 50 18336551491284682350
15196674 1 18334859415888043750
15322687 12 17104511174142344237
19591789 44 18337109089556020683
19930381 70 18413393137471364090
20028762 73 17044582808783771111
20691752 17 17022900138402631537
20715895 44 17609482839964013085
20832881 197 18343306989256920753
20905425 154 18409167675446349782
22182313 1 18041826412212926463
23227448 37 18189331260828617463
23352939 185 18342462530415398027
23557571 272 17910374109985112994
23559900 14 18335978778501818797
238 59 18196346307921625956
2748010 2 18117544331403189953
3323516 105 18411138077713944259
350125 39 18336268960321048513
3524813 1 18334011700965522918
3680242 22 18116995477305685354
463206 1 18269557311053435927
5265222 85 17471861776259798556
57527585 103 17390829632986241626
59755656 215 18188762977069237031
6443956 14 18340493347406701473
81228 2 17476913559209296171

> <PUBCHEM_SHAPE_MULTIPOLES>
443.98
8.21
4.09
1.18
1.54
0.84
-0.09
-3.84
1.51
-1.8
-1.33
-0.11
0.8
1.1

> <PUBCHEM_SHAPE_SELFOVERLAP>
916.908

> <PUBCHEM_SHAPE_VOLUME>
252.3

> <PUBCHEM_COORDINATE_TYPE>
2
5
10

> <Energy>
40.5071

> <minimizedAffinity>
-1.79505

> <CNNscore>
0.1056122780

> <CNNaffinity>
4.7849521637

> <CNN_VS>
0.5053496957

> <CNNaffinity_variance>
0.4107892513

$$$$
5284645


 26 27  0  0  0  0  0  0  0  0999 V2000
  100.5054   17.2482   24.3140 O   0  0  0  0  0  0  0  0  0  0  0  0
  105.1956   13.8575   22.6885 O   0  0  0  0  0  0  0  0  0  0  0  0
  106.1004   15.2326   21.0771 O   0  0  0  0  0  0  0  0  0  0  0  0
  108.7751   14.3303   21.4503 O   0  0  0  0  0  0  0  0  0  0  0  0
  110.4061   15.4501   25.7236 O   0  0  0  0  0  0  0  0  0  0  0  0
  101.5951   16.3816   22.3516 C   0  0  0  0  0  0  0  0  0  0  0  0
  101.7658   16.7851   23.8263 C   0  0  0  0  0  0  0  0  0  0  0  0
  102.7819   15.6080   21.7710 C   0  0  0  0  0  0  0  0  0  0  0  0
  102.8053   17.8994   24.0220 C   0  0  0  0  0  0  0  0  0  0  0  0
  102.8406   14.1578   22.2623 C   0  0  0  0  0  0  0  0  0  0  0  0
  103.1310   18.1844   25.4959 C   0  0  0  0  0  0  0  0  0  0  0  0
  104.1213   13.4430   21.8188 C   0  0  0  0  0  0  0  0  0  0  0  0
  103.8874   17.0593   26.2121 C   0  0  0  0  0  0  0  0  0  0  0  0
  103.9876   11.9328   21.9918 C   0  0  0  0  0  0  0  0  0  0  0  0
  105.2418   16.7875   25.6160 C   0  0  0  0  0  0  0  0  0  0  0  0
  107.1642   14.9538   23.1786 C   0  0  0  0  0  0  0  0  0  0  0  0
  106.9305   15.3625   24.5068 C   0  0  0  0  0  0  0  0  0  0  0  0
  106.0733   14.7562   22.2017 C   0  0  0  0  0  0  0  0  0  0  0  0
  105.5892   15.6175   25.0562 C   0  0  0  0  0  0  0  0  0  0  0  0
  108.4765   14.7398   22.7268 C   0  0  0  0  0  0  0  0  0  0  0  0
  108.0365   15.5188   25.3654 C   0  0  0  0  0  0  0  0  0  0  0  0
  109.3306   15.2976   24.9001 C   0  0  0  0  0  0  0  0  0  0  0  0
  109.5593   14.9126   23.5843 C   0  0  0  0  0  0  0  0  0  0  0  0
   99.8384   16.5539   24.1967 H   0  0  0  0  0  0  0  0  0  0  0  0
  108.0872   14.1972   20.8281 H   0  0  0  0  0  0  0  0  0  0  0  0
  110.2804   15.7089   26.6153 H   0  0  0  0  0  0  0  0  0  0  0  0
  1  7  1  0
  1 24  1  0
  2 12  1  0
  2 18  1  0
  3 18  2  0
  4 20  1  0
  4 25  1  0
  5 22  1  0
  5 26  1  0
  6  7  1  0
  6  8  1  0
  7  9  1  0
  8 10  1  0
  9 11  1  0
 10 12  1  0
 11 13  1  0
 12 14  1  0
 13 15  1  0
 15 19  2  0
 16 17  2  0
 16 18  1  0
 16 20  1  0
 17 19  1  0
 17 21  1  0
 20 23  2  0
 21 22  2  0
 22 23  1  0
M  END
> <PUBCHEM_COMPOUND_CID>
5284645

> <PUBCHEM_CONFORMER_RMSD>
0.6

> <PUBCHEM_CONFORMER_DIVERSEORDER>
1

> <PUBCHEM_MMFF94_PARTIAL_CHARGES>
24
1 -0.68
12 0.28
13 0.14
15 -0.29
16 0.09
17 0.03
18 0.63
19 -0.18
2 -0.43
20 0.08
21 -0.15
22 0.08
23 -0.15
3 -0.57
4 -0.53
41 0.4
42 0.15
43 0.15
44 0.15
45 0.15
46 0.45
47 0.45
5 -0.53
7 0.28

> <PUBCHEM_EFFECTIVE_ROTOR_COUNT>
1.8

> <PUBCHEM_PHARMACOPHORE_FEATURES>
6
1 1 acceptor
1 1 donor
1 3 acceptor
1 4 donor
1 5 donor
6 16 17 20 21 22 23 rings

> <PUBCHEM_HEAVY_ATOM_COUNT>
23

> <PUBCHEM_ATOM_DEF_STEREO_COUNT>
2

> <PUBCHEM_ATOM_UDEF_STEREO_COUNT>
0

> <PUBCHEM_BOND_DEF_STEREO_COUNT>
1

> <PUBCHEM_BOND_UDEF_STEREO_COUNT>
0

> <PUBCHEM_ISOTOPIC_ATOM_COUNT>
0

> <PUBCHEM_COMPONENT_COUNT>
1

> <PUBCHEM_CACTVS_TAUTO_COUNT>
12

> <PUBCHEM_CONFORMER_ID>
0050A32500000001

> <PUBCHEM_MMFF94_ENERGY>
56.9454

> <PUBCHEM_FEATURE_SELFOVERLAP>
30.446

> <PUBCHEM_SHAPE_FINGERPRINT>
1100329 8 17836085568009856625
11112241 14 16986289841619931392
11578080 2 16734366241365874279
12166972 35 17967822613537111974
12403259 226 18337670931286267939
12506688 2 18412827975731104564
12596599 1 17914633677902020662
12788726 201 17627507133988941776
13140716 1 18267582403486064363
13402501 40 18336828697047978282
13533116 47 18056766653224983451
14251757 17 18262232209996353437
14787075 74 18336834185758012246
14790565 3 17545883724776523813
14866123 147 17767415573386001256
14931854 50 18336551491284682350
15196674 1 18334859415888043750
15322687 12 17104511174142344237
19591789 44 18337109089556020683
19930381 70 18413393137471364090
20028762 73 17044582808783771111
20691752 17 17022900138402631537
20715895 44 17609482839964013085
20832881 197 18343306989256920753
20905425 154 18409167675446349782
22182313 1 18041826412212926463
23227448 37 18189331260828617463
23352939 185 18342462530415398027
23557571 272 17910374109985112994
23559900 14 18335978778501818797
238 59 18196346307921625956
2748010 2 18117544331403189953
3323516 105 18411138077713944259
350125 39 18336268960321048513
3524813 1 18334011700965522918
3680242 22 18116995477305685354
463206 1 18269557311053435927
5265222 85 17471861776259798556
57527585 103 17390829632986241626
59755656 215 18188762977069237031
6443956 14 18340493347406701473
81228 2 17476913559209296171

> <PUBCHEM_SHAPE_MULTIPOLES>
443.98
8.21
4.09
1.18
1.54
0.84
-0.09
-3.84
1.51
-1.8
-1.33
-0.11
0.8
1.1

> <PUBCHEM_SHAPE_SELFOVERLAP>
916.908

> <PUBCHEM_SHAPE_VOLUME>
252.3

> <PUBCHEM_COORDINATE_TYPE>
2
5
10

> <Energy>
40.5071

> <minimizedAffinity>
-1.17818

> <CNNscore>
0.0998062193

> <CNNaffinity>
5.4945740700

> <CNN_VS>
0.5483926535

> <CNNaffinity_variance>
0.3952220678

$$$$
5284645


 26 27  0  0  0  0  0  0  0  0999 V2000
  103.8076   18.4389   24.1396 O   0  0  0  0  0  0  0  0  0  0  0  0
  105.8583   13.1644   22.1121 O   0  0  0  0  0  0  0  0  0  0  0  0
  108.1197   13.5962   22.1907 O   0  0  0  0  0  0  0  0  0  0  0  0
  108.8783   10.8847   22.6148 O   0  0  0  0  0  0  0  0  0  0  0  0
  107.3298    9.2754   26.7607 O   0  0  0  0  0  0  0  0  0  0  0  0
  105.3456   17.5244   22.5310 C   0  0  0  0  0  0  0  0  0  0  0  0
  104.6072   17.2886   23.8598 C   0  0  0  0  0  0  0  0  0  0  0  0
  106.0221   16.2759   21.9586 C   0  0  0  0  0  0  0  0  0  0  0  0
  105.5640   17.0593   25.0399 C   0  0  0  0  0  0  0  0  0  0  0  0
  105.0230   15.2917   21.3412 C   0  0  0  0  0  0  0  0  0  0  0  0
  104.8536   16.6336   26.3336 C   0  0  0  0  0  0  0  0  0  0  0  0
  105.6832   13.9718   20.9290 C   0  0  0  0  0  0  0  0  0  0  0  0
  104.2307   15.2333   26.2893 C   0  0  0  0  0  0  0  0  0  0  0  0
  104.7723   13.1769   19.9981 C   0  0  0  0  0  0  0  0  0  0  0  0
  105.2474   14.1421   26.0905 C   0  0  0  0  0  0  0  0  0  0  0  0
  107.1051   12.1247   23.7499 C   0  0  0  0  0  0  0  0  0  0  0  0
  106.2519   12.2442   24.8652 C   0  0  0  0  0  0  0  0  0  0  0  0
  107.0985   13.0932   22.6339 C   0  0  0  0  0  0  0  0  0  0  0  0
  105.2668   13.3259   25.0245 C   0  0  0  0  0  0  0  0  0  0  0  0
  108.0263   11.0675   23.6765 C   0  0  0  0  0  0  0  0  0  0  0  0
  106.3292   11.2670   25.8769 C   0  0  0  0  0  0  0  0  0  0  0  0
  107.2466   10.2229   25.7842 C   0  0  0  0  0  0  0  0  0  0  0  0
  108.0996   10.1181   24.6918 C   0  0  0  0  0  0  0  0  0  0  0  0
  103.1978   18.5960   23.4020 H   0  0  0  0  0  0  0  0  0  0  0  0
  108.8744   11.4919   21.9011 H   0  0  0  0  0  0  0  0  0  0  0  0
  106.7665    9.3221   27.5079 H   0  0  0  0  0  0  0  0  0  0  0  0
  1  7  1  0
  1 24  1  0
  2 12  1  0
  2 18  1  0
  3 18  2  0
  4 20  1  0
  4 25  1  0
  5 22  1  0
  5 26  1  0
  6  7  1  0
  6  8  1  0
  7  9  1  0
  8 10  1  0
  9 11  1  0
 10 12  1  0
 11 13  1  0
 12 14  1  0
 13 15  1  0
 15 19  2  0
 16 17  2  0
 16 18  1  0
 16 20  1  0
 17 19  1  0
 17 21  1  0
 20 23  2  0
 21 22  2  0
 22 23  1  0
M  END
> <PUBCHEM_COMPOUND_CID>
5284645

> <PUBCHEM_CONFORMER_RMSD>
0.6

> <PUBCHEM_CONFORMER_DIVERSEORDER>
1

> <PUBCHEM_MMFF94_PARTIAL_CHARGES>
24
1 -0.68
12 0.28
13 0.14
15 -0.29
16 0.09
17 0.03
18 0.63
19 -0.18
2 -0.43
20 0.08
21 -0.15
22 0.08
23 -0.15
3 -0.57
4 -0.53
41 0.4
42 0.15
43 0.15
44 0.15
45 0.15
46 0.45
47 0.45
5 -0.53
7 0.28

> <PUBCHEM_EFFECTIVE_ROTOR_COUNT>
1.8

> <PUBCHEM_PHARMACOPHORE_FEATURES>
6
1 1 acceptor
1 1 donor
1 3 acceptor
1 4 donor
1 5 donor
6 16 17 20 21 22 23 rings

> <PUBCHEM_HEAVY_ATOM_COUNT>
23

> <PUBCHEM_ATOM_DEF_STEREO_COUNT>
2

> <PUBCHEM_ATOM_UDEF_STEREO_COUNT>
0

> <PUBCHEM_BOND_DEF_STEREO_COUNT>
1

> <PUBCHEM_BOND_UDEF_STEREO_COUNT>
0

> <PUBCHEM_ISOTOPIC_ATOM_COUNT>
0

> <PUBCHEM_COMPONENT_COUNT>
1

> <PUBCHEM_CACTVS_TAUTO_COUNT>
12

> <PUBCHEM_CONFORMER_ID>
0050A32500000001

> <PUBCHEM_MMFF94_ENERGY>
56.9454

> <PUBCHEM_FEATURE_SELFOVERLAP>
30.446

> <PUBCHEM_SHAPE_FINGERPRINT>
1100329 8 17836085568009856625
11112241 14 16986289841619931392
11578080 2 16734366241365874279
12166972 35 17967822613537111974
12403259 226 18337670931286267939
12506688 2 18412827975731104564
12596599 1 17914633677902020662
12788726 201 17627507133988941776
13140716 1 18267582403486064363
13402501 40 18336828697047978282
13533116 47 18056766653224983451
14251757 17 18262232209996353437
14787075 74 18336834185758012246
14790565 3 17545883724776523813
14866123 147 17767415573386001256
14931854 50 18336551491284682350
15196674 1 18334859415888043750
15322687 12 17104511174142344237
19591789 44 18337109089556020683
19930381 70 18413393137471364090
20028762 73 17044582808783771111
20691752 17 17022900138402631537
20715895 44 17609482839964013085
20832881 197 18343306989256920753
20905425 154 18409167675446349782
22182313 1 18041826412212926463
23227448 37 18189331260828617463
23352939 185 18342462530415398027
23557571 272 17910374109985112994
23559900 14 18335978778501818797
238 59 18196346307921625956
2748010 2 18117544331403189953
3323516 105 18411138077713944259
350125 39 18336268960321048513
3524813 1 18334011700965522918
3680242 22 18116995477305685354
463206 1 18269557311053435927
5265222 85 17471861776259798556
57527585 103 17390829632986241626
59755656 215 18188762977069237031
6443956 14 18340493347406701473
81228 2 17476913559209296171

> <PUBCHEM_SHAPE_MULTIPOLES>
443.98
8.21
4.09
1.18
1.54
0.84
-0.09
-3.84
1.51
-1.8
-1.33
-0.11
0.8
1.1

> <PUBCHEM_SHAPE_SELFOVERLAP>
916.908

> <PUBCHEM_SHAPE_VOLUME>
252.3

> <PUBCHEM_COORDINATE_TYPE>
2
5
10

> <Energy>
40.5071

> <minimizedAffinity>
5.36493

> <CNNscore>
0.0931395888

> <CNNaffinity>
4.9759373665

> <CNN_VS>
0.4634567499

> <CNNaffinity_variance>
0.3669717014

$$$$
