5757


 22 25  0  0  0  0  0  0  0  0999 V2000
   -8.6890   -6.4144   23.1666 O   0  0  0  0  0  0  0  0  0  0  0  0
    1.4517   -2.8051   21.0846 O   0  0  0  0  0  0  0  0  0  0  0  0
   -6.5148   -5.2879   22.8776 C   0  0  0  0  0  0  0  0  0  0  0  0
   -6.0620   -3.8931   23.3541 C   0  0  0  0  0  0  0  0  0  0  0  0
   -4.5462   -3.7169   23.2657 C   0  0  0  0  0  0  0  0  0  0  0  0
   -4.1129   -3.8620   21.7752 C   0  0  0  0  0  0  0  0  0  0  0  0
   -8.0264   -5.1652   23.1499 C   0  0  0  0  0  0  0  0  0  0  0  0
   -6.1355   -5.4333   21.3989 C   0  0  0  0  0  0  0  0  0  0  0  0
   -6.7555   -3.7365   24.7045 C   0  0  0  0  0  0  0  0  0  0  0  0
   -4.6310   -5.1933   21.1668 C   0  0  0  0  0  0  0  0  0  0  0  0
   -8.1025   -4.4585   24.5174 C   0  0  0  0  0  0  0  0  0  0  0  0
   -4.0801   -2.3569   23.7887 C   0  0  0  0  0  0  0  0  0  0  0  0
   -5.9179   -6.4738   23.6779 C   0  0  0  0  0  0  0  0  0  0  0  0
   -2.6150   -3.6119   21.6075 C   0  0  0  0  0  0  0  0  0  0  0  0
   -2.5544   -2.3015   23.8064 C   0  0  0  0  0  0  0  0  0  0  0  0
   -1.9048   -2.8379   22.5517 C   0  0  0  0  0  0  0  0  0  0  0  0
   -1.9272   -4.0665   20.4679 C   0  0  0  0  0  0  0  0  0  0  0  0
   -0.5326   -2.5884   22.3634 C   0  0  0  0  0  0  0  0  0  0  0  0
   -0.5673   -3.8041   20.2862 C   0  0  0  0  0  0  0  0  0  0  0  0
    0.1221   -3.0710   21.2376 C   0  0  0  0  0  0  0  0  0  0  0  0
   -8.6204   -6.8285   22.2921 H   0  0  0  0  0  0  0  0  0  0  0  0
    1.9080   -2.3081   21.7348 H   0  0  0  0  0  0  0  0  0  0  0  0
  1  7  1  0
  1 21  1  0
  2 20  1  0
  2 22  1  0
  3  4  1  0
  3  7  1  0
  3  8  1  0
  3 13  1  0
  4  5  1  0
  4  9  1  0
  5  6  1  0
  5 12  1  0
  6 10  1  0
  6 14  1  0
  7 11  1  0
  8 10  1  0
  9 11  1  0
 12 15  1  0
 14 16  2  0
 14 17  1  0
 15 16  1  0
 16 18  1  0
 17 19  2  0
 18 20  2  0
 19 20  1  0
M  END
> <PUBCHEM_COMPOUND_CID>
5757

> <PUBCHEM_CONFORMER_RMSD>
0.6

> <PUBCHEM_CONFORMER_DIVERSEORDER>
1

> <PUBCHEM_MMFF94_PARTIAL_CHARGES>
16
1 -0.68
14 -0.14
15 0.14
16 -0.14
17 -0.15
18 -0.15
19 -0.15
2 -0.53
20 0.08
40 0.4
41 0.15
42 0.15
43 0.15
44 0.45
6 0.14
7 0.28

> <PUBCHEM_EFFECTIVE_ROTOR_COUNT>
1.4

> <PUBCHEM_PHARMACOPHORE_FEATURES>
7
1 1 acceptor
1 1 donor
1 2 donor
5 3 4 7 9 11 rings
6 14 16 17 18 19 20 rings
6 3 4 5 6 8 10 rings
6 5 6 12 14 15 16 rings

> <PUBCHEM_HEAVY_ATOM_COUNT>
20

> <PUBCHEM_ATOM_DEF_STEREO_COUNT>
5

> <PUBCHEM_ATOM_UDEF_STEREO_COUNT>
0

> <PUBCHEM_BOND_DEF_STEREO_COUNT>
0

> <PUBCHEM_BOND_UDEF_STEREO_COUNT>
0

> <PUBCHEM_ISOTOPIC_ATOM_COUNT>
0

> <PUBCHEM_COMPONENT_COUNT>
1

> <PUBCHEM_CACTVS_TAUTO_COUNT>
9

> <PUBCHEM_CONFORMER_ID>
0000167D00000001

> <PUBCHEM_MMFF94_ENERGY>
68.4596

> <PUBCHEM_FEATURE_SELFOVERLAP>
35.62

> <PUBCHEM_SHAPE_FINGERPRINT>
10 15 18262512710780645640
10411042 1 16969703283687688743
10616163 171 18338239395883154686
10967382 1 18410012100429229070
11132069 177 18409162216832884669
11578080 2 17201347718505248258
12011746 2 18410859841042374310
12107183 9 17690845558000159065
12236239 1 13470690338792453460
12251169 10 18335139816864396069
12403259 415 18410852127603240605
12403814 3 17530960289353343621
12500047 106 18271238421624861530
12592029 89 18334859377112304987
12788726 201 17703518696578858128
128620 24 11818992989152349105
13140716 1 18192429898953651512
13533116 47 17846218813073552003
13544592 145 18272379637759764926
13675066 3 18341893012844745609
14178342 30 18123731313450613666
14341114 176 18409738343777605753
14866123 147 17046555868986690930
15042514 8 18263932206156989787
15196674 1 18410012108982090935
15256400 18 18410857620686823693
15295992 7 17845930826899781123
15536298 74 18413671296627645270
1601671 61 18409168826940819996
16945 1 18266170819592368622
17349148 13 18412820287929204701
17804303 29 18410296916890392117
1813 80 16950285091842931756
18186145 218 17417805158171412875
19141452 34 18413108389914235807
192875 21 13830133918406568194
19591789 44 18192993725128068838
200 152 18131627885965453901
20028762 73 18272929458099065015
20261772 1 18410856577167961319
20510252 161 18341895147623301209
20645477 70 18200878374956666302
21033648 29 18271512131406579929
21267235 1 18337399244825179854
21279426 13 18124035632930519374
21421861 104 17895744090149736410
22854114 59 18412546505207311417
22892500 29 17274814788166584896
23184049 59 18410576175690384255
23402539 116 18342170081765240151
23557571 272 17773880972535682807
23558518 356 17682680979747269074
23559900 14 18413389822146813342
2748010 2 18337666399911122230
3004659 81 18260835844047909814
335352 9 18410013195572088855
34934 24 18411133675799850702
350125 39 18409735045496469133
351380 180 18409730664571278687
3545911 37 18411703192367818988
4214541 1 18409167684326479901
465052 167 17967541176940287083
495365 180 17346587600050392546
5104073 3 18409449150412323065
542803 24 17346883342628774985
59755656 215 18335983048405458773
69090 78 18341891905091661271
77779 3 18409450271409361990
7832392 63 18341046427736201710
9709674 26 18410862087368844367
9999458 23 17967819357476725574

> <PUBCHEM_SHAPE_MULTIPOLES>
399.85
9.72
2.11
0.84
3.73
0.39
0.22
-1.2
1.2
-0.24
-0.15
-0.38
-0.13
0.32

> <PUBCHEM_SHAPE_SELFOVERLAP>
871.414

> <PUBCHEM_SHAPE_VOLUME>
217.1

> <PUBCHEM_COORDINATE_TYPE>
2
5
10

> <Energy>
58.4396

> <minimizedAffinity>
-11.31300

> <CNNscore>
0.9710571766

> <CNNaffinity>
7.9792323112

> <CNN_VS>
7.7482910156

> <CNNaffinity_variance>
0.6893633008

$$$$
5757


 22 25  0  0  0  0  0  0  0  0999 V2000
   -8.7500   -5.4274   24.6597 O   0  0  0  0  0  0  0  0  0  0  0  0
    0.7508   -1.8595   20.5122 O   0  0  0  0  0  0  0  0  0  0  0  0
   -6.6750   -4.8728   23.4487 C   0  0  0  0  0  0  0  0  0  0  0  0
   -6.1296   -5.4444   22.1246 C   0  0  0  0  0  0  0  0  0  0  0  0
   -4.9926   -4.5964   21.5548 C   0  0  0  0  0  0  0  0  0  0  0  0
   -3.8155   -4.5880   22.5770 C   0  0  0  0  0  0  0  0  0  0  0  0
   -7.8089   -5.8833   23.7077 C   0  0  0  0  0  0  0  0  0  0  0  0
   -5.5416   -4.8965   24.4815 C   0  0  0  0  0  0  0  0  0  0  0  0
   -7.3871   -5.6675   21.2893 C   0  0  0  0  0  0  0  0  0  0  0  0
   -4.2961   -4.1379   23.9832 C   0  0  0  0  0  0  0  0  0  0  0  0
   -8.4501   -6.0872   22.3211 C   0  0  0  0  0  0  0  0  0  0  0  0
   -4.4814   -5.1228   20.2124 C   0  0  0  0  0  0  0  0  0  0  0  0
   -7.2468   -3.4353   23.3497 C   0  0  0  0  0  0  0  0  0  0  0  0
   -2.6114   -3.8245   22.0280 C   0  0  0  0  0  0  0  0  0  0  0  0
   -3.4521   -4.1557   19.6324 C   0  0  0  0  0  0  0  0  0  0  0  0
   -2.4329   -3.6674   20.6357 C   0  0  0  0  0  0  0  0  0  0  0  0
   -1.6077   -3.3399   22.8860 C   0  0  0  0  0  0  0  0  0  0  0  0
   -1.2999   -2.9913   20.1462 C   0  0  0  0  0  0  0  0  0  0  0  0
   -0.4819   -2.6793   22.3885 C   0  0  0  0  0  0  0  0  0  0  0  0
   -0.3380   -2.5050   21.0221 C   0  0  0  0  0  0  0  0  0  0  0  0
   -8.3119   -5.3108   25.5172 H   0  0  0  0  0  0  0  0  0  0  0  0
    0.8376   -1.7473   19.5860 H   0  0  0  0  0  0  0  0  0  0  0  0
  1  7  1  0
  1 21  1  0
  2 20  1  0
  2 22  1  0
  3  4  1  0
  3  7  1  0
  3  8  1  0
  3 13  1  0
  4  5  1  0
  4  9  1  0
  5  6  1  0
  5 12  1  0
  6 10  1  0
  6 14  1  0
  7 11  1  0
  8 10  1  0
  9 11  1  0
 12 15  1  0
 14 16  2  0
 14 17  1  0
 15 16  1  0
 16 18  1  0
 17 19  2  0
 18 20  2  0
 19 20  1  0
M  END
> <PUBCHEM_COMPOUND_CID>
5757

> <PUBCHEM_CONFORMER_RMSD>
0.6

> <PUBCHEM_CONFORMER_DIVERSEORDER>
1

> <PUBCHEM_MMFF94_PARTIAL_CHARGES>
16
1 -0.68
14 -0.14
15 0.14
16 -0.14
17 -0.15
18 -0.15
19 -0.15
2 -0.53
20 0.08
40 0.4
41 0.15
42 0.15
43 0.15
44 0.45
6 0.14
7 0.28

> <PUBCHEM_EFFECTIVE_ROTOR_COUNT>
1.4

> <PUBCHEM_PHARMACOPHORE_FEATURES>
7
1 1 acceptor
1 1 donor
1 2 donor
5 3 4 7 9 11 rings
6 14 16 17 18 19 20 rings
6 3 4 5 6 8 10 rings
6 5 6 12 14 15 16 rings

> <PUBCHEM_HEAVY_ATOM_COUNT>
20

> <PUBCHEM_ATOM_DEF_STEREO_COUNT>
5

> <PUBCHEM_ATOM_UDEF_STEREO_COUNT>
0

> <PUBCHEM_BOND_DEF_STEREO_COUNT>
0

> <PUBCHEM_BOND_UDEF_STEREO_COUNT>
0

> <PUBCHEM_ISOTOPIC_ATOM_COUNT>
0

> <PUBCHEM_COMPONENT_COUNT>
1

> <PUBCHEM_CACTVS_TAUTO_COUNT>
9

> <PUBCHEM_CONFORMER_ID>
0000167D00000001

> <PUBCHEM_MMFF94_ENERGY>
68.4596

> <PUBCHEM_FEATURE_SELFOVERLAP>
35.62

> <PUBCHEM_SHAPE_FINGERPRINT>
10 15 18262512710780645640
10411042 1 16969703283687688743
10616163 171 18338239395883154686
10967382 1 18410012100429229070
11132069 177 18409162216832884669
11578080 2 17201347718505248258
12011746 2 18410859841042374310
12107183 9 17690845558000159065
12236239 1 13470690338792453460
12251169 10 18335139816864396069
12403259 415 18410852127603240605
12403814 3 17530960289353343621
12500047 106 18271238421624861530
12592029 89 18334859377112304987
12788726 201 17703518696578858128
128620 24 11818992989152349105
13140716 1 18192429898953651512
13533116 47 17846218813073552003
13544592 145 18272379637759764926
13675066 3 18341893012844745609
14178342 30 18123731313450613666
14341114 176 18409738343777605753
14866123 147 17046555868986690930
15042514 8 18263932206156989787
15196674 1 18410012108982090935
15256400 18 18410857620686823693
15295992 7 17845930826899781123
15536298 74 18413671296627645270
1601671 61 18409168826940819996
16945 1 18266170819592368622
17349148 13 18412820287929204701
17804303 29 18410296916890392117
1813 80 16950285091842931756
18186145 218 17417805158171412875
19141452 34 18413108389914235807
192875 21 13830133918406568194
19591789 44 18192993725128068838
200 152 18131627885965453901
20028762 73 18272929458099065015
20261772 1 18410856577167961319
20510252 161 18341895147623301209
20645477 70 18200878374956666302
21033648 29 18271512131406579929
21267235 1 18337399244825179854
21279426 13 18124035632930519374
21421861 104 17895744090149736410
22854114 59 18412546505207311417
22892500 29 17274814788166584896
23184049 59 18410576175690384255
23402539 116 18342170081765240151
23557571 272 17773880972535682807
23558518 356 17682680979747269074
23559900 14 18413389822146813342
2748010 2 18337666399911122230
3004659 81 18260835844047909814
335352 9 18410013195572088855
34934 24 18411133675799850702
350125 39 18409735045496469133
351380 180 18409730664571278687
3545911 37 18411703192367818988
4214541 1 18409167684326479901
465052 167 17967541176940287083
495365 180 17346587600050392546
5104073 3 18409449150412323065
542803 24 17346883342628774985
59755656 215 18335983048405458773
69090 78 18341891905091661271
77779 3 18409450271409361990
7832392 63 18341046427736201710
9709674 26 18410862087368844367
9999458 23 17967819357476725574

> <PUBCHEM_SHAPE_MULTIPOLES>
399.85
9.72
2.11
0.84
3.73
0.39
0.22
-1.2
1.2
-0.24
-0.15
-0.38
-0.13
0.32

> <PUBCHEM_SHAPE_SELFOVERLAP>
871.414

> <PUBCHEM_SHAPE_VOLUME>
217.1

> <PUBCHEM_COORDINATE_TYPE>
2
5
10

> <Energy>
58.4396

> <minimizedAffinity>
-9.94980

> <CNNscore>
0.7532996535

> <CNNaffinity>
7.6579127312

> <CNN_VS>
5.7687029839

> <CNNaffinity_variance>
0.5957525373

$$$$
5757


 22 25  0  0  0  0  0  0  0  0999 V2000
    0.9016   -2.0330   21.0461 O   0  0  0  0  0  0  0  0  0  0  0  0
   -8.6606   -6.2444   24.3664 O   0  0  0  0  0  0  0  0  0  0  0  0
   -1.3595   -2.9365   21.4344 C   0  0  0  0  0  0  0  0  0  0  0  0
   -2.5190   -3.1393   20.4384 C   0  0  0  0  0  0  0  0  0  0  0  0
   -3.6210   -4.0314   21.0095 C   0  0  0  0  0  0  0  0  0  0  0  0
   -4.2127   -3.3441   22.2776 C   0  0  0  0  0  0  0  0  0  0  0  0
   -0.4245   -2.0821   20.5571 C   0  0  0  0  0  0  0  0  0  0  0  0
   -1.9137   -2.2215   22.6727 C   0  0  0  0  0  0  0  0  0  0  0  0
   -1.8128   -3.5545   19.1509 C   0  0  0  0  0  0  0  0  0  0  0  0
   -3.0961   -2.9886   23.2963 C   0  0  0  0  0  0  0  0  0  0  0  0
   -0.4991   -2.7518   19.1710 C   0  0  0  0  0  0  0  0  0  0  0  0
   -4.7504   -4.2853   20.0091 C   0  0  0  0  0  0  0  0  0  0  0  0
   -0.6442   -4.2398   21.8735 C   0  0  0  0  0  0  0  0  0  0  0  0
   -5.3798   -4.1477   22.8489 C   0  0  0  0  0  0  0  0  0  0  0  0
   -5.7407   -5.2932   20.5876 C   0  0  0  0  0  0  0  0  0  0  0  0
   -6.1165   -5.0295   22.0274 C   0  0  0  0  0  0  0  0  0  0  0  0
   -5.8060   -3.9632   24.1765 C   0  0  0  0  0  0  0  0  0  0  0  0
   -7.2104   -5.7358   22.5614 C   0  0  0  0  0  0  0  0  0  0  0  0
   -6.8997   -4.6619   24.6932 C   0  0  0  0  0  0  0  0  0  0  0  0
   -7.5915   -5.5473   23.8836 C   0  0  0  0  0  0  0  0  0  0  0  0
    0.9094   -1.6065   21.9172 H   0  0  0  0  0  0  0  0  0  0  0  0
   -9.1212   -6.8408   23.8095 H   0  0  0  0  0  0  0  0  0  0  0  0
  1  7  1  0
  1 21  1  0
  2 20  1  0
  2 22  1  0
  3  4  1  0
  3  7  1  0
  3  8  1  0
  3 13  1  0
  4  5  1  0
  4  9  1  0
  5  6  1  0
  5 12  1  0
  6 10  1  0
  6 14  1  0
  7 11  1  0
  8 10  1  0
  9 11  1  0
 12 15  1  0
 14 16  2  0
 14 17  1  0
 15 16  1  0
 16 18  1  0
 17 19  2  0
 18 20  2  0
 19 20  1  0
M  END
> <PUBCHEM_COMPOUND_CID>
5757

> <PUBCHEM_CONFORMER_RMSD>
0.6

> <PUBCHEM_CONFORMER_DIVERSEORDER>
1

> <PUBCHEM_MMFF94_PARTIAL_CHARGES>
16
1 -0.68
14 -0.14
15 0.14
16 -0.14
17 -0.15
18 -0.15
19 -0.15
2 -0.53
20 0.08
40 0.4
41 0.15
42 0.15
43 0.15
44 0.45
6 0.14
7 0.28

> <PUBCHEM_EFFECTIVE_ROTOR_COUNT>
1.4

> <PUBCHEM_PHARMACOPHORE_FEATURES>
7
1 1 acceptor
1 1 donor
1 2 donor
5 3 4 7 9 11 rings
6 14 16 17 18 19 20 rings
6 3 4 5 6 8 10 rings
6 5 6 12 14 15 16 rings

> <PUBCHEM_HEAVY_ATOM_COUNT>
20

> <PUBCHEM_ATOM_DEF_STEREO_COUNT>
5

> <PUBCHEM_ATOM_UDEF_STEREO_COUNT>
0

> <PUBCHEM_BOND_DEF_STEREO_COUNT>
0

> <PUBCHEM_BOND_UDEF_STEREO_COUNT>
0

> <PUBCHEM_ISOTOPIC_ATOM_COUNT>
0

> <PUBCHEM_COMPONENT_COUNT>
1

> <PUBCHEM_CACTVS_TAUTO_COUNT>
9

> <PUBCHEM_CONFORMER_ID>
0000167D00000001

> <PUBCHEM_MMFF94_ENERGY>
68.4596

> <PUBCHEM_FEATURE_SELFOVERLAP>
35.62

> <PUBCHEM_SHAPE_FINGERPRINT>
10 15 18262512710780645640
10411042 1 16969703283687688743
10616163 171 18338239395883154686
10967382 1 18410012100429229070
11132069 177 18409162216832884669
11578080 2 17201347718505248258
12011746 2 18410859841042374310
12107183 9 17690845558000159065
12236239 1 13470690338792453460
12251169 10 18335139816864396069
12403259 415 18410852127603240605
12403814 3 17530960289353343621
12500047 106 18271238421624861530
12592029 89 18334859377112304987
12788726 201 17703518696578858128
128620 24 11818992989152349105
13140716 1 18192429898953651512
13533116 47 17846218813073552003
13544592 145 18272379637759764926
13675066 3 18341893012844745609
14178342 30 18123731313450613666
14341114 176 18409738343777605753
14866123 147 17046555868986690930
15042514 8 18263932206156989787
15196674 1 18410012108982090935
15256400 18 18410857620686823693
15295992 7 17845930826899781123
15536298 74 18413671296627645270
1601671 61 18409168826940819996
16945 1 18266170819592368622
17349148 13 18412820287929204701
17804303 29 18410296916890392117
1813 80 16950285091842931756
18186145 218 17417805158171412875
19141452 34 18413108389914235807
192875 21 13830133918406568194
19591789 44 18192993725128068838
200 152 18131627885965453901
20028762 73 18272929458099065015
20261772 1 18410856577167961319
20510252 161 18341895147623301209
20645477 70 18200878374956666302
21033648 29 18271512131406579929
21267235 1 18337399244825179854
21279426 13 18124035632930519374
21421861 104 17895744090149736410
22854114 59 18412546505207311417
22892500 29 17274814788166584896
23184049 59 18410576175690384255
23402539 116 18342170081765240151
23557571 272 17773880972535682807
23558518 356 17682680979747269074
23559900 14 18413389822146813342
2748010 2 18337666399911122230
3004659 81 18260835844047909814
335352 9 18410013195572088855
34934 24 18411133675799850702
350125 39 18409735045496469133
351380 180 18409730664571278687
3545911 37 18411703192367818988
4214541 1 18409167684326479901
465052 167 17967541176940287083
495365 180 17346587600050392546
5104073 3 18409449150412323065
542803 24 17346883342628774985
59755656 215 18335983048405458773
69090 78 18341891905091661271
77779 3 18409450271409361990
7832392 63 18341046427736201710
9709674 26 18410862087368844367
9999458 23 17967819357476725574

> <PUBCHEM_SHAPE_MULTIPOLES>
399.85
9.72
2.11
0.84
3.73
0.39
0.22
-1.2
1.2
-0.24
-0.15
-0.38
-0.13
0.32

> <PUBCHEM_SHAPE_SELFOVERLAP>
871.414

> <PUBCHEM_SHAPE_VOLUME>
217.1

> <PUBCHEM_COORDINATE_TYPE>
2
5
10

> <Energy>
58.4396

> <minimizedAffinity>
-9.59260

> <CNNscore>
0.5374713540

> <CNNaffinity>
7.4382586479

> <CNN_VS>
3.9978508949

> <CNNaffinity_variance>
0.6131483912

$$$$
5757


 22 25  0  0  0  0  0  0  0  0999 V2000
    0.3174   -3.1752   20.5094 O   0  0  0  0  0  0  0  0  0  0  0  0
   -9.8095   -6.8119   22.6108 O   0  0  0  0  0  0  0  0  0  0  0  0
   -1.8967   -3.8780   21.3360 C   0  0  0  0  0  0  0  0  0  0  0  0
   -2.5010   -3.7531   22.7491 C   0  0  0  0  0  0  0  0  0  0  0  0
   -4.0092   -4.0014   22.7560 C   0  0  0  0  0  0  0  0  0  0  0  0
   -4.2779   -5.4557   22.2626 C   0  0  0  0  0  0  0  0  0  0  0  0
   -0.4341   -3.5158   21.6579 C   0  0  0  0  0  0  0  0  0  0  0  0
   -2.1131   -5.3163   20.8500 C   0  0  0  0  0  0  0  0  0  0  0  0
   -1.9609   -2.4164   23.2495 C   0  0  0  0  0  0  0  0  0  0  0  0
   -3.6006   -5.7172   20.8901 C   0  0  0  0  0  0  0  0  0  0  0  0
   -0.5504   -2.3319   22.6378 C   0  0  0  0  0  0  0  0  0  0  0  0
   -4.6286   -3.8248   24.1436 C   0  0  0  0  0  0  0  0  0  0  0  0
   -2.4783   -2.8918   20.2908 C   0  0  0  0  0  0  0  0  0  0  0  0
   -5.7661   -5.7955   22.3266 C   0  0  0  0  0  0  0  0  0  0  0  0
   -6.1481   -3.9446   24.0541 C   0  0  0  0  0  0  0  0  0  0  0  0
   -6.6251   -5.1025   23.2081 C   0  0  0  0  0  0  0  0  0  0  0  0
   -6.2988   -6.8623   21.5806 C   0  0  0  0  0  0  0  0  0  0  0  0
   -7.9864   -5.4521   23.2794 C   0  0  0  0  0  0  0  0  0  0  0  0
   -7.6497   -7.2073   21.6669 C   0  0  0  0  0  0  0  0  0  0  0  0
   -8.4855   -6.4966   22.5121 C   0  0  0  0  0  0  0  0  0  0  0  0
    0.3691   -3.9421   19.9177 H   0  0  0  0  0  0  0  0  0  0  0  0
  -10.3656   -6.3242   23.1859 H   0  0  0  0  0  0  0  0  0  0  0  0
  1  7  1  0
  1 21  1  0
  2 20  1  0
  2 22  1  0
  3  4  1  0
  3  7  1  0
  3  8  1  0
  3 13  1  0
  4  5  1  0
  4  9  1  0
  5  6  1  0
  5 12  1  0
  6 10  1  0
  6 14  1  0
  7 11  1  0
  8 10  1  0
  9 11  1  0
 12 15  1  0
 14 16  2  0
 14 17  1  0
 15 16  1  0
 16 18  1  0
 17 19  2  0
 18 20  2  0
 19 20  1  0
M  END
> <PUBCHEM_COMPOUND_CID>
5757

> <PUBCHEM_CONFORMER_RMSD>
0.6

> <PUBCHEM_CONFORMER_DIVERSEORDER>
1

> <PUBCHEM_MMFF94_PARTIAL_CHARGES>
16
1 -0.68
14 -0.14
15 0.14
16 -0.14
17 -0.15
18 -0.15
19 -0.15
2 -0.53
20 0.08
40 0.4
41 0.15
42 0.15
43 0.15
44 0.45
6 0.14
7 0.28

> <PUBCHEM_EFFECTIVE_ROTOR_COUNT>
1.4

> <PUBCHEM_PHARMACOPHORE_FEATURES>
7
1 1 acceptor
1 1 donor
1 2 donor
5 3 4 7 9 11 rings
6 14 16 17 18 19 20 rings
6 3 4 5 6 8 10 rings
6 5 6 12 14 15 16 rings

> <PUBCHEM_HEAVY_ATOM_COUNT>
20

> <PUBCHEM_ATOM_DEF_STEREO_COUNT>
5

> <PUBCHEM_ATOM_UDEF_STEREO_COUNT>
0

> <PUBCHEM_BOND_DEF_STEREO_COUNT>
0

> <PUBCHEM_BOND_UDEF_STEREO_COUNT>
0

> <PUBCHEM_ISOTOPIC_ATOM_COUNT>
0

> <PUBCHEM_COMPONENT_COUNT>
1

> <PUBCHEM_CACTVS_TAUTO_COUNT>
9

> <PUBCHEM_CONFORMER_ID>
0000167D00000001

> <PUBCHEM_MMFF94_ENERGY>
68.4596

> <PUBCHEM_FEATURE_SELFOVERLAP>
35.62

> <PUBCHEM_SHAPE_FINGERPRINT>
10 15 18262512710780645640
10411042 1 16969703283687688743
10616163 171 18338239395883154686
10967382 1 18410012100429229070
11132069 177 18409162216832884669
11578080 2 17201347718505248258
12011746 2 18410859841042374310
12107183 9 17690845558000159065
12236239 1 13470690338792453460
12251169 10 18335139816864396069
12403259 415 18410852127603240605
12403814 3 17530960289353343621
12500047 106 18271238421624861530
12592029 89 18334859377112304987
12788726 201 17703518696578858128
128620 24 11818992989152349105
13140716 1 18192429898953651512
13533116 47 17846218813073552003
13544592 145 18272379637759764926
13675066 3 18341893012844745609
14178342 30 18123731313450613666
14341114 176 18409738343777605753
14866123 147 17046555868986690930
15042514 8 18263932206156989787
15196674 1 18410012108982090935
15256400 18 18410857620686823693
15295992 7 17845930826899781123
15536298 74 18413671296627645270
1601671 61 18409168826940819996
16945 1 18266170819592368622
17349148 13 18412820287929204701
17804303 29 18410296916890392117
1813 80 16950285091842931756
18186145 218 17417805158171412875
19141452 34 18413108389914235807
192875 21 13830133918406568194
19591789 44 18192993725128068838
200 152 18131627885965453901
20028762 73 18272929458099065015
20261772 1 18410856577167961319
20510252 161 18341895147623301209
20645477 70 18200878374956666302
21033648 29 18271512131406579929
21267235 1 18337399244825179854
21279426 13 18124035632930519374
21421861 104 17895744090149736410
22854114 59 18412546505207311417
22892500 29 17274814788166584896
23184049 59 18410576175690384255
23402539 116 18342170081765240151
23557571 272 17773880972535682807
23558518 356 17682680979747269074
23559900 14 18413389822146813342
2748010 2 18337666399911122230
3004659 81 18260835844047909814
335352 9 18410013195572088855
34934 24 18411133675799850702
350125 39 18409735045496469133
351380 180 18409730664571278687
3545911 37 18411703192367818988
4214541 1 18409167684326479901
465052 167 17967541176940287083
495365 180 17346587600050392546
5104073 3 18409449150412323065
542803 24 17346883342628774985
59755656 215 18335983048405458773
69090 78 18341891905091661271
77779 3 18409450271409361990
7832392 63 18341046427736201710
9709674 26 18410862087368844367
9999458 23 17967819357476725574

> <PUBCHEM_SHAPE_MULTIPOLES>
399.85
9.72
2.11
0.84
3.73
0.39
0.22
-1.2
1.2
-0.24
-0.15
-0.38
-0.13
0.32

> <PUBCHEM_SHAPE_SELFOVERLAP>
871.414

> <PUBCHEM_SHAPE_VOLUME>
217.1

> <PUBCHEM_COORDINATE_TYPE>
2
5
10

> <Energy>
58.4396

> <minimizedAffinity>
-8.11145

> <CNNscore>
0.4192356467

> <CNNaffinity>
7.0606975555

> <CNN_VS>
2.9600961208

> <CNNaffinity_variance>
0.3991834223

$$$$
5757


 22 25  0  0  0  0  0  0  0  0999 V2000
   -0.0823   -4.1586   18.6399 O   0  0  0  0  0  0  0  0  0  0  0  0
   -8.8124   -4.6246   25.2553 O   0  0  0  0  0  0  0  0  0  0  0  0
   -1.8436   -4.0468   20.3618 C   0  0  0  0  0  0  0  0  0  0  0  0
   -1.8461   -3.3088   21.7157 C   0  0  0  0  0  0  0  0  0  0  0  0
   -3.2466   -3.2185   22.3212 C   0  0  0  0  0  0  0  0  0  0  0  0
   -3.7733   -4.6632   22.5785 C   0  0  0  0  0  0  0  0  0  0  0  0
   -0.3510   -3.9079   20.0055 C   0  0  0  0  0  0  0  0  0  0  0  0
   -2.3183   -5.4852   20.6016 C   0  0  0  0  0  0  0  0  0  0  0  0
   -1.0741   -2.0256   21.4222 C   0  0  0  0  0  0  0  0  0  0  0  0
   -3.6962   -5.5268   21.2905 C   0  0  0  0  0  0  0  0  0  0  0  0
   -0.0072   -2.4582   20.3997 C   0  0  0  0  0  0  0  0  0  0  0  0
   -3.2698   -2.4392   23.6375 C   0  0  0  0  0  0  0  0  0  0  0  0
   -2.7225   -3.3943   19.2641 C   0  0  0  0  0  0  0  0  0  0  0  0
   -5.1390   -4.6404   23.2633 C   0  0  0  0  0  0  0  0  0  0  0  0
   -4.7101   -2.2633   24.1126 C   0  0  0  0  0  0  0  0  0  0  0  0
   -5.5466   -3.5184   24.0183 C   0  0  0  0  0  0  0  0  0  0  0  0
   -5.9826   -5.7655   23.2357 C   0  0  0  0  0  0  0  0  0  0  0  0
   -6.7933   -3.5283   24.6712 C   0  0  0  0  0  0  0  0  0  0  0  0
   -7.2135   -5.7682   23.8961 C   0  0  0  0  0  0  0  0  0  0  0  0
   -7.6128   -4.6477   24.6053 C   0  0  0  0  0  0  0  0  0  0  0  0
   -0.3102   -5.0776   18.4289 H   0  0  0  0  0  0  0  0  0  0  0  0
   -9.0723   -3.8609   25.7321 H   0  0  0  0  0  0  0  0  0  0  0  0
  1  7  1  0
  1 21  1  0
  2 20  1  0
  2 22  1  0
  3  4  1  0
  3  7  1  0
  3  8  1  0
  3 13  1  0
  4  5  1  0
  4  9  1  0
  5  6  1  0
  5 12  1  0
  6 10  1  0
  6 14  1  0
  7 11  1  0
  8 10  1  0
  9 11  1  0
 12 15  1  0
 14 16  2  0
 14 17  1  0
 15 16  1  0
 16 18  1  0
 17 19  2  0
 18 20  2  0
 19 20  1  0
M  END
> <PUBCHEM_COMPOUND_CID>
5757

> <PUBCHEM_CONFORMER_RMSD>
0.6

> <PUBCHEM_CONFORMER_DIVERSEORDER>
1

> <PUBCHEM_MMFF94_PARTIAL_CHARGES>
16
1 -0.68
14 -0.14
15 0.14
16 -0.14
17 -0.15
18 -0.15
19 -0.15
2 -0.53
20 0.08
40 0.4
41 0.15
42 0.15
43 0.15
44 0.45
6 0.14
7 0.28

> <PUBCHEM_EFFECTIVE_ROTOR_COUNT>
1.4

> <PUBCHEM_PHARMACOPHORE_FEATURES>
7
1 1 acceptor
1 1 donor
1 2 donor
5 3 4 7 9 11 rings
6 14 16 17 18 19 20 rings
6 3 4 5 6 8 10 rings
6 5 6 12 14 15 16 rings

> <PUBCHEM_HEAVY_ATOM_COUNT>
20

> <PUBCHEM_ATOM_DEF_STEREO_COUNT>
5

> <PUBCHEM_ATOM_UDEF_STEREO_COUNT>
0

> <PUBCHEM_BOND_DEF_STEREO_COUNT>
0

> <PUBCHEM_BOND_UDEF_STEREO_COUNT>
0

> <PUBCHEM_ISOTOPIC_ATOM_COUNT>
0

> <PUBCHEM_COMPONENT_COUNT>
1

> <PUBCHEM_CACTVS_TAUTO_COUNT>
9

> <PUBCHEM_CONFORMER_ID>
0000167D00000001

> <PUBCHEM_MMFF94_ENERGY>
68.4596

> <PUBCHEM_FEATURE_SELFOVERLAP>
35.62

> <PUBCHEM_SHAPE_FINGERPRINT>
10 15 18262512710780645640
10411042 1 16969703283687688743
10616163 171 18338239395883154686
10967382 1 18410012100429229070
11132069 177 18409162216832884669
11578080 2 17201347718505248258
12011746 2 18410859841042374310
12107183 9 17690845558000159065
12236239 1 13470690338792453460
12251169 10 18335139816864396069
12403259 415 18410852127603240605
12403814 3 17530960289353343621
12500047 106 18271238421624861530
12592029 89 18334859377112304987
12788726 201 17703518696578858128
128620 24 11818992989152349105
13140716 1 18192429898953651512
13533116 47 17846218813073552003
13544592 145 18272379637759764926
13675066 3 18341893012844745609
14178342 30 18123731313450613666
14341114 176 18409738343777605753
14866123 147 17046555868986690930
15042514 8 18263932206156989787
15196674 1 18410012108982090935
15256400 18 18410857620686823693
15295992 7 17845930826899781123
15536298 74 18413671296627645270
1601671 61 18409168826940819996
16945 1 18266170819592368622
17349148 13 18412820287929204701
17804303 29 18410296916890392117
1813 80 16950285091842931756
18186145 218 17417805158171412875
19141452 34 18413108389914235807
192875 21 13830133918406568194
19591789 44 18192993725128068838
200 152 18131627885965453901
20028762 73 18272929458099065015
20261772 1 18410856577167961319
20510252 161 18341895147623301209
20645477 70 18200878374956666302
21033648 29 18271512131406579929
21267235 1 18337399244825179854
21279426 13 18124035632930519374
21421861 104 17895744090149736410
22854114 59 18412546505207311417
22892500 29 17274814788166584896
23184049 59 18410576175690384255
23402539 116 18342170081765240151
23557571 272 17773880972535682807
23558518 356 17682680979747269074
23559900 14 18413389822146813342
2748010 2 18337666399911122230
3004659 81 18260835844047909814
335352 9 18410013195572088855
34934 24 18411133675799850702
350125 39 18409735045496469133
351380 180 18409730664571278687
3545911 37 18411703192367818988
4214541 1 18409167684326479901
465052 167 17967541176940287083
495365 180 17346587600050392546
5104073 3 18409449150412323065
542803 24 17346883342628774985
59755656 215 18335983048405458773
69090 78 18341891905091661271
77779 3 18409450271409361990
7832392 63 18341046427736201710
9709674 26 18410862087368844367
9999458 23 17967819357476725574

> <PUBCHEM_SHAPE_MULTIPOLES>
399.85
9.72
2.11
0.84
3.73
0.39
0.22
-1.2
1.2
-0.24
-0.15
-0.38
-0.13
0.32

> <PUBCHEM_SHAPE_SELFOVERLAP>
871.414

> <PUBCHEM_SHAPE_VOLUME>
217.1

> <PUBCHEM_COORDINATE_TYPE>
2
5
10

> <Energy>
58.4396

> <minimizedAffinity>
-9.49777

> <CNNscore>
0.3635170162

> <CNNaffinity>
7.1308135986

> <CNN_VS>
2.5921721458

> <CNNaffinity_variance>
0.4292326868

$$$$
5757


 22 25  0  0  0  0  0  0  0  0999 V2000
   -9.5004    1.1889   18.2139 O   0  0  0  0  0  0  0  0  0  0  0  0
   -7.4279   -7.4454   24.6443 O   0  0  0  0  0  0  0  0  0  0  0  0
   -8.6867   -0.6089   19.6923 C   0  0  0  0  0  0  0  0  0  0  0  0
   -7.2998   -0.7934   20.3403 C   0  0  0  0  0  0  0  0  0  0  0  0
   -7.3150   -1.8489   21.4457 C   0  0  0  0  0  0  0  0  0  0  0  0
   -7.7225   -3.2186   20.8224 C   0  0  0  0  0  0  0  0  0  0  0  0
   -8.3518    0.5273   18.7070 C   0  0  0  0  0  0  0  0  0  0  0  0
   -9.0867   -1.9355   19.0352 C   0  0  0  0  0  0  0  0  0  0  0  0
   -6.8710    0.6327   20.6740 C   0  0  0  0  0  0  0  0  0  0  0  0
   -9.0585   -3.1040   20.0396 C   0  0  0  0  0  0  0  0  0  0  0  0
   -7.4515    1.4751   19.5233 C   0  0  0  0  0  0  0  0  0  0  0  0
   -5.9570   -2.0004   22.1338 C   0  0  0  0  0  0  0  0  0  0  0  0
   -9.8060   -0.1633   20.6680 C   0  0  0  0  0  0  0  0  0  0  0  0
   -7.6744   -4.3363   21.8631 C   0  0  0  0  0  0  0  0  0  0  0  0
   -6.0767   -2.9600   23.3153 C   0  0  0  0  0  0  0  0  0  0  0  0
   -6.8599   -4.2161   23.0108 C   0  0  0  0  0  0  0  0  0  0  0  0
   -8.3650   -5.5449   21.6613 C   0  0  0  0  0  0  0  0  0  0  0  0
   -6.8008   -5.2698   23.9417 C   0  0  0  0  0  0  0  0  0  0  0  0
   -8.2909   -6.5884   22.5870 C   0  0  0  0  0  0  0  0  0  0  0  0
   -7.5132   -6.4420   23.7235 C   0  0  0  0  0  0  0  0  0  0  0  0
  -10.0413    0.5632   17.7071 H   0  0  0  0  0  0  0  0  0  0  0  0
   -6.8986   -7.3352   25.4096 H   0  0  0  0  0  0  0  0  0  0  0  0
  1  7  1  0
  1 21  1  0
  2 20  1  0
  2 22  1  0
  3  4  1  0
  3  7  1  0
  3  8  1  0
  3 13  1  0
  4  5  1  0
  4  9  1  0
  5  6  1  0
  5 12  1  0
  6 10  1  0
  6 14  1  0
  7 11  1  0
  8 10  1  0
  9 11  1  0
 12 15  1  0
 14 16  2  0
 14 17  1  0
 15 16  1  0
 16 18  1  0
 17 19  2  0
 18 20  2  0
 19 20  1  0
M  END
> <PUBCHEM_COMPOUND_CID>
5757

> <PUBCHEM_CONFORMER_RMSD>
0.6

> <PUBCHEM_CONFORMER_DIVERSEORDER>
1

> <PUBCHEM_MMFF94_PARTIAL_CHARGES>
16
1 -0.68
14 -0.14
15 0.14
16 -0.14
17 -0.15
18 -0.15
19 -0.15
2 -0.53
20 0.08
40 0.4
41 0.15
42 0.15
43 0.15
44 0.45
6 0.14
7 0.28

> <PUBCHEM_EFFECTIVE_ROTOR_COUNT>
1.4

> <PUBCHEM_PHARMACOPHORE_FEATURES>
7
1 1 acceptor
1 1 donor
1 2 donor
5 3 4 7 9 11 rings
6 14 16 17 18 19 20 rings
6 3 4 5 6 8 10 rings
6 5 6 12 14 15 16 rings

> <PUBCHEM_HEAVY_ATOM_COUNT>
20

> <PUBCHEM_ATOM_DEF_STEREO_COUNT>
5

> <PUBCHEM_ATOM_UDEF_STEREO_COUNT>
0

> <PUBCHEM_BOND_DEF_STEREO_COUNT>
0

> <PUBCHEM_BOND_UDEF_STEREO_COUNT>
0

> <PUBCHEM_ISOTOPIC_ATOM_COUNT>
0

> <PUBCHEM_COMPONENT_COUNT>
1

> <PUBCHEM_CACTVS_TAUTO_COUNT>
9

> <PUBCHEM_CONFORMER_ID>
0000167D00000001

> <PUBCHEM_MMFF94_ENERGY>
68.4596

> <PUBCHEM_FEATURE_SELFOVERLAP>
35.62

> <PUBCHEM_SHAPE_FINGERPRINT>
10 15 18262512710780645640
10411042 1 16969703283687688743
10616163 171 18338239395883154686
10967382 1 18410012100429229070
11132069 177 18409162216832884669
11578080 2 17201347718505248258
12011746 2 18410859841042374310
12107183 9 17690845558000159065
12236239 1 13470690338792453460
12251169 10 18335139816864396069
12403259 415 18410852127603240605
12403814 3 17530960289353343621
12500047 106 18271238421624861530
12592029 89 18334859377112304987
12788726 201 17703518696578858128
128620 24 11818992989152349105
13140716 1 18192429898953651512
13533116 47 17846218813073552003
13544592 145 18272379637759764926
13675066 3 18341893012844745609
14178342 30 18123731313450613666
14341114 176 18409738343777605753
14866123 147 17046555868986690930
15042514 8 18263932206156989787
15196674 1 18410012108982090935
15256400 18 18410857620686823693
15295992 7 17845930826899781123
15536298 74 18413671296627645270
1601671 61 18409168826940819996
16945 1 18266170819592368622
17349148 13 18412820287929204701
17804303 29 18410296916890392117
1813 80 16950285091842931756
18186145 218 17417805158171412875
19141452 34 18413108389914235807
192875 21 13830133918406568194
19591789 44 18192993725128068838
200 152 18131627885965453901
20028762 73 18272929458099065015
20261772 1 18410856577167961319
20510252 161 18341895147623301209
20645477 70 18200878374956666302
21033648 29 18271512131406579929
21267235 1 18337399244825179854
21279426 13 18124035632930519374
21421861 104 17895744090149736410
22854114 59 18412546505207311417
22892500 29 17274814788166584896
23184049 59 18410576175690384255
23402539 116 18342170081765240151
23557571 272 17773880972535682807
23558518 356 17682680979747269074
23559900 14 18413389822146813342
2748010 2 18337666399911122230
3004659 81 18260835844047909814
335352 9 18410013195572088855
34934 24 18411133675799850702
350125 39 18409735045496469133
351380 180 18409730664571278687
3545911 37 18411703192367818988
4214541 1 18409167684326479901
465052 167 17967541176940287083
495365 180 17346587600050392546
5104073 3 18409449150412323065
542803 24 17346883342628774985
59755656 215 18335983048405458773
69090 78 18341891905091661271
77779 3 18409450271409361990
7832392 63 18341046427736201710
9709674 26 18410862087368844367
9999458 23 17967819357476725574

> <PUBCHEM_SHAPE_MULTIPOLES>
399.85
9.72
2.11
0.84
3.73
0.39
0.22
-1.2
1.2
-0.24
-0.15
-0.38
-0.13
0.32

> <PUBCHEM_SHAPE_SELFOVERLAP>
871.414

> <PUBCHEM_SHAPE_VOLUME>
217.1

> <PUBCHEM_COORDINATE_TYPE>
2
5
10

> <Energy>
58.4396

> <minimizedAffinity>
34.77893

> <CNNscore>
0.2604656518

> <CNNaffinity>
5.8245425224

> <CNN_VS>
1.5170933008

> <CNNaffinity_variance>
0.3612698615

$$$$
5757


 22 25  0  0  0  0  0  0  0  0999 V2000
   -9.6599    1.1299   19.5427 O   0  0  0  0  0  0  0  0  0  0  0  0
   -0.9465   -4.1446   23.5988 O   0  0  0  0  0  0  0  0  0  0  0  0
   -7.9081   -0.3692   20.4165 C   0  0  0  0  0  0  0  0  0  0  0  0
   -7.9274   -1.9006   20.5951 C   0  0  0  0  0  0  0  0  0  0  0  0
   -6.5315   -2.4698   20.8480 C   0  0  0  0  0  0  0  0  0  0  0  0
   -5.9733   -1.8551   22.1676 C   0  0  0  0  0  0  0  0  0  0  0  0
   -9.4021   -0.1343   20.1217 C   0  0  0  0  0  0  0  0  0  0  0  0
   -7.4020    0.2571   21.7216 C   0  0  0  0  0  0  0  0  0  0  0  0
   -8.7270   -2.3887   19.3905 C   0  0  0  0  0  0  0  0  0  0  0  0
   -6.0261   -0.3037   22.1307 C   0  0  0  0  0  0  0  0  0  0  0  0
   -9.7800   -1.2870   19.1710 C   0  0  0  0  0  0  0  0  0  0  0  0
   -6.5309   -3.9948   20.9709 C   0  0  0  0  0  0  0  0  0  0  0  0
   -7.0400    0.1367   19.2360 C   0  0  0  0  0  0  0  0  0  0  0  0
   -4.6111   -2.4495   22.5219 C   0  0  0  0  0  0  0  0  0  0  0  0
   -5.0967   -4.5074   21.0780 C   0  0  0  0  0  0  0  0  0  0  0  0
   -4.2318   -3.7199   22.0348 C   0  0  0  0  0  0  0  0  0  0  0  0
   -3.7422   -1.7915   23.4109 C   0  0  0  0  0  0  0  0  0  0  0  0
   -2.9876   -4.2674   22.3994 C   0  0  0  0  0  0  0  0  0  0  0  0
   -2.5140   -2.3491   23.7742 C   0  0  0  0  0  0  0  0  0  0  0  0
   -2.1428   -3.5811   23.2620 C   0  0  0  0  0  0  0  0  0  0  0  0
   -9.4106    1.8287   20.1677 H   0  0  0  0  0  0  0  0  0  0  0  0
   -0.7057   -4.9787   23.2461 H   0  0  0  0  0  0  0  0  0  0  0  0
  1  7  1  0
  1 21  1  0
  2 20  1  0
  2 22  1  0
  3  4  1  0
  3  7  1  0
  3  8  1  0
  3 13  1  0
  4  5  1  0
  4  9  1  0
  5  6  1  0
  5 12  1  0
  6 10  1  0
  6 14  1  0
  7 11  1  0
  8 10  1  0
  9 11  1  0
 12 15  1  0
 14 16  2  0
 14 17  1  0
 15 16  1  0
 16 18  1  0
 17 19  2  0
 18 20  2  0
 19 20  1  0
M  END
> <PUBCHEM_COMPOUND_CID>
5757

> <PUBCHEM_CONFORMER_RMSD>
0.6

> <PUBCHEM_CONFORMER_DIVERSEORDER>
1

> <PUBCHEM_MMFF94_PARTIAL_CHARGES>
16
1 -0.68
14 -0.14
15 0.14
16 -0.14
17 -0.15
18 -0.15
19 -0.15
2 -0.53
20 0.08
40 0.4
41 0.15
42 0.15
43 0.15
44 0.45
6 0.14
7 0.28

> <PUBCHEM_EFFECTIVE_ROTOR_COUNT>
1.4

> <PUBCHEM_PHARMACOPHORE_FEATURES>
7
1 1 acceptor
1 1 donor
1 2 donor
5 3 4 7 9 11 rings
6 14 16 17 18 19 20 rings
6 3 4 5 6 8 10 rings
6 5 6 12 14 15 16 rings

> <PUBCHEM_HEAVY_ATOM_COUNT>
20

> <PUBCHEM_ATOM_DEF_STEREO_COUNT>
5

> <PUBCHEM_ATOM_UDEF_STEREO_COUNT>
0

> <PUBCHEM_BOND_DEF_STEREO_COUNT>
0

> <PUBCHEM_BOND_UDEF_STEREO_COUNT>
0

> <PUBCHEM_ISOTOPIC_ATOM_COUNT>
0

> <PUBCHEM_COMPONENT_COUNT>
1

> <PUBCHEM_CACTVS_TAUTO_COUNT>
9

> <PUBCHEM_CONFORMER_ID>
0000167D00000001

> <PUBCHEM_MMFF94_ENERGY>
68.4596

> <PUBCHEM_FEATURE_SELFOVERLAP>
35.62

> <PUBCHEM_SHAPE_FINGERPRINT>
10 15 18262512710780645640
10411042 1 16969703283687688743
10616163 171 18338239395883154686
10967382 1 18410012100429229070
11132069 177 18409162216832884669
11578080 2 17201347718505248258
12011746 2 18410859841042374310
12107183 9 17690845558000159065
12236239 1 13470690338792453460
12251169 10 18335139816864396069
12403259 415 18410852127603240605
12403814 3 17530960289353343621
12500047 106 18271238421624861530
12592029 89 18334859377112304987
12788726 201 17703518696578858128
128620 24 11818992989152349105
13140716 1 18192429898953651512
13533116 47 17846218813073552003
13544592 145 18272379637759764926
13675066 3 18341893012844745609
14178342 30 18123731313450613666
14341114 176 18409738343777605753
14866123 147 17046555868986690930
15042514 8 18263932206156989787
15196674 1 18410012108982090935
15256400 18 18410857620686823693
15295992 7 17845930826899781123
15536298 74 18413671296627645270
1601671 61 18409168826940819996
16945 1 18266170819592368622
17349148 13 18412820287929204701
17804303 29 18410296916890392117
1813 80 16950285091842931756
18186145 218 17417805158171412875
19141452 34 18413108389914235807
192875 21 13830133918406568194
19591789 44 18192993725128068838
200 152 18131627885965453901
20028762 73 18272929458099065015
20261772 1 18410856577167961319
20510252 161 18341895147623301209
20645477 70 18200878374956666302
21033648 29 18271512131406579929
21267235 1 18337399244825179854
21279426 13 18124035632930519374
21421861 104 17895744090149736410
22854114 59 18412546505207311417
22892500 29 17274814788166584896
23184049 59 18410576175690384255
23402539 116 18342170081765240151
23557571 272 17773880972535682807
23558518 356 17682680979747269074
23559900 14 18413389822146813342
2748010 2 18337666399911122230
3004659 81 18260835844047909814
335352 9 18410013195572088855
34934 24 18411133675799850702
350125 39 18409735045496469133
351380 180 18409730664571278687
3545911 37 18411703192367818988
4214541 1 18409167684326479901
465052 167 17967541176940287083
495365 180 17346587600050392546
5104073 3 18409449150412323065
542803 24 17346883342628774985
59755656 215 18335983048405458773
69090 78 18341891905091661271
77779 3 18409450271409361990
7832392 63 18341046427736201710
9709674 26 18410862087368844367
9999458 23 17967819357476725574

> <PUBCHEM_SHAPE_MULTIPOLES>
399.85
9.72
2.11
0.84
3.73
0.39
0.22
-1.2
1.2
-0.24
-0.15
-0.38
-0.13
0.32

> <PUBCHEM_SHAPE_SELFOVERLAP>
871.414

> <PUBCHEM_SHAPE_VOLUME>
217.1

> <PUBCHEM_COORDINATE_TYPE>
2
5
10

> <Energy>
58.4396

> <minimizedAffinity>
24.54387

> <CNNscore>
0.1982330680

> <CNNaffinity>
5.1759681702

> <CNN_VS>
1.0260480642

> <CNNaffinity_variance>
0.8901798129

$$$$
5757


 22 25  0  0  0  0  0  0  0  0999 V2000
   -0.4088   -2.0155   19.0714 O   0  0  0  0  0  0  0  0  0  0  0  0
   -8.9919   -6.3966   24.2993 O   0  0  0  0  0  0  0  0  0  0  0  0
   -2.1737   -3.3334   20.1794 C   0  0  0  0  0  0  0  0  0  0  0  0
   -2.2793   -4.8587   20.3792 C   0  0  0  0  0  0  0  0  0  0  0  0
   -3.3508   -5.2338   21.4029 C   0  0  0  0  0  0  0  0  0  0  0  0
   -4.7338   -4.7364   20.8830 C   0  0  0  0  0  0  0  0  0  0  0  0
   -1.0033   -3.2942   19.1781 C   0  0  0  0  0  0  0  0  0  0  0  0
   -3.5128   -2.8307   19.6265 C   0  0  0  0  0  0  0  0  0  0  0  0
   -0.8342   -5.2866   20.6184 C   0  0  0  0  0  0  0  0  0  0  0  0
   -4.6925   -3.2233   20.5370 C   0  0  0  0  0  0  0  0  0  0  0  0
   -0.0128   -4.3425   19.7214 C   0  0  0  0  0  0  0  0  0  0  0  0
   -3.4259   -6.7416   21.6507 C   0  0  0  0  0  0  0  0  0  0  0  0
   -1.8155   -2.5335   21.4582 C   0  0  0  0  0  0  0  0  0  0  0  0
   -5.8621   -5.1560   21.8239 C   0  0  0  0  0  0  0  0  0  0  0  0
   -4.4094   -7.0345   22.7812 C   0  0  0  0  0  0  0  0  0  0  0  0
   -5.7080   -6.2681   22.6809 C   0  0  0  0  0  0  0  0  0  0  0  0
   -7.1090   -4.5057   21.7957 C   0  0  0  0  0  0  0  0  0  0  0  0
   -6.7702   -6.6618   23.5160 C   0  0  0  0  0  0  0  0  0  0  0  0
   -8.1599   -4.9116   22.6217 C   0  0  0  0  0  0  0  0  0  0  0  0
   -7.9818   -5.9838   23.4800 C   0  0  0  0  0  0  0  0  0  0  0  0
   -1.0597   -1.3839   18.7274 H   0  0  0  0  0  0  0  0  0  0  0  0
   -8.8600   -7.1233   24.8760 H   0  0  0  0  0  0  0  0  0  0  0  0
  1  7  1  0
  1 21  1  0
  2 20  1  0
  2 22  1  0
  3  4  1  0
  3  7  1  0
  3  8  1  0
  3 13  1  0
  4  5  1  0
  4  9  1  0
  5  6  1  0
  5 12  1  0
  6 10  1  0
  6 14  1  0
  7 11  1  0
  8 10  1  0
  9 11  1  0
 12 15  1  0
 14 16  2  0
 14 17  1  0
 15 16  1  0
 16 18  1  0
 17 19  2  0
 18 20  2  0
 19 20  1  0
M  END
> <PUBCHEM_COMPOUND_CID>
5757

> <PUBCHEM_CONFORMER_RMSD>
0.6

> <PUBCHEM_CONFORMER_DIVERSEORDER>
1

> <PUBCHEM_MMFF94_PARTIAL_CHARGES>
16
1 -0.68
14 -0.14
15 0.14
16 -0.14
17 -0.15
18 -0.15
19 -0.15
2 -0.53
20 0.08
40 0.4
41 0.15
42 0.15
43 0.15
44 0.45
6 0.14
7 0.28

> <PUBCHEM_EFFECTIVE_ROTOR_COUNT>
1.4

> <PUBCHEM_PHARMACOPHORE_FEATURES>
7
1 1 acceptor
1 1 donor
1 2 donor
5 3 4 7 9 11 rings
6 14 16 17 18 19 20 rings
6 3 4 5 6 8 10 rings
6 5 6 12 14 15 16 rings

> <PUBCHEM_HEAVY_ATOM_COUNT>
20

> <PUBCHEM_ATOM_DEF_STEREO_COUNT>
5

> <PUBCHEM_ATOM_UDEF_STEREO_COUNT>
0

> <PUBCHEM_BOND_DEF_STEREO_COUNT>
0

> <PUBCHEM_BOND_UDEF_STEREO_COUNT>
0

> <PUBCHEM_ISOTOPIC_ATOM_COUNT>
0

> <PUBCHEM_COMPONENT_COUNT>
1

> <PUBCHEM_CACTVS_TAUTO_COUNT>
9

> <PUBCHEM_CONFORMER_ID>
0000167D00000001

> <PUBCHEM_MMFF94_ENERGY>
68.4596

> <PUBCHEM_FEATURE_SELFOVERLAP>
35.62

> <PUBCHEM_SHAPE_FINGERPRINT>
10 15 18262512710780645640
10411042 1 16969703283687688743
10616163 171 18338239395883154686
10967382 1 18410012100429229070
11132069 177 18409162216832884669
11578080 2 17201347718505248258
12011746 2 18410859841042374310
12107183 9 17690845558000159065
12236239 1 13470690338792453460
12251169 10 18335139816864396069
12403259 415 18410852127603240605
12403814 3 17530960289353343621
12500047 106 18271238421624861530
12592029 89 18334859377112304987
12788726 201 17703518696578858128
128620 24 11818992989152349105
13140716 1 18192429898953651512
13533116 47 17846218813073552003
13544592 145 18272379637759764926
13675066 3 18341893012844745609
14178342 30 18123731313450613666
14341114 176 18409738343777605753
14866123 147 17046555868986690930
15042514 8 18263932206156989787
15196674 1 18410012108982090935
15256400 18 18410857620686823693
15295992 7 17845930826899781123
15536298 74 18413671296627645270
1601671 61 18409168826940819996
16945 1 18266170819592368622
17349148 13 18412820287929204701
17804303 29 18410296916890392117
1813 80 16950285091842931756
18186145 218 17417805158171412875
19141452 34 18413108389914235807
192875 21 13830133918406568194
19591789 44 18192993725128068838
200 152 18131627885965453901
20028762 73 18272929458099065015
20261772 1 18410856577167961319
20510252 161 18341895147623301209
20645477 70 18200878374956666302
21033648 29 18271512131406579929
21267235 1 18337399244825179854
21279426 13 18124035632930519374
21421861 104 17895744090149736410
22854114 59 18412546505207311417
22892500 29 17274814788166584896
23184049 59 18410576175690384255
23402539 116 18342170081765240151
23557571 272 17773880972535682807
23558518 356 17682680979747269074
23559900 14 18413389822146813342
2748010 2 18337666399911122230
3004659 81 18260835844047909814
335352 9 18410013195572088855
34934 24 18411133675799850702
350125 39 18409735045496469133
351380 180 18409730664571278687
3545911 37 18411703192367818988
4214541 1 18409167684326479901
465052 167 17967541176940287083
495365 180 17346587600050392546
5104073 3 18409449150412323065
542803 24 17346883342628774985
59755656 215 18335983048405458773
69090 78 18341891905091661271
77779 3 18409450271409361990
7832392 63 18341046427736201710
9709674 26 18410862087368844367
9999458 23 17967819357476725574

> <PUBCHEM_SHAPE_MULTIPOLES>
399.85
9.72
2.11
0.84
3.73
0.39
0.22
-1.2
1.2
-0.24
-0.15
-0.38
-0.13
0.32

> <PUBCHEM_SHAPE_SELFOVERLAP>
871.414

> <PUBCHEM_SHAPE_VOLUME>
217.1

> <PUBCHEM_COORDINATE_TYPE>
2
5
10

> <Energy>
58.4396

> <minimizedAffinity>
-7.90697

> <CNNscore>
0.1631034464

> <CNNaffinity>
6.3442797661

> <CNN_VS>
1.0347739458

> <CNNaffinity_variance>
0.0598552637

$$$$
5757


 22 25  0  0  0  0  0  0  0  0999 V2000
   -8.1869   -4.8894   17.2686 O   0  0  0  0  0  0  0  0  0  0  0  0
   -5.5331   -9.6182   26.7971 O   0  0  0  0  0  0  0  0  0  0  0  0
   -7.6284   -5.6079   19.5602 C   0  0  0  0  0  0  0  0  0  0  0  0
   -7.5637   -4.7798   20.8593 C   0  0  0  0  0  0  0  0  0  0  0  0
   -7.5113   -5.6638   22.1052 C   0  0  0  0  0  0  0  0  0  0  0  0
   -6.2199   -6.5352   22.0450 C   0  0  0  0  0  0  0  0  0  0  0  0
   -7.7364   -4.4597   18.5384 C   0  0  0  0  0  0  0  0  0  0  0  0
   -6.3446   -6.4409   19.4610 C   0  0  0  0  0  0  0  0  0  0  0  0
   -8.7049   -3.7792   20.6999 C   0  0  0  0  0  0  0  0  0  0  0  0
   -6.1346   -7.3210   20.7085 C   0  0  0  0  0  0  0  0  0  0  0  0
   -8.7226   -3.4715   19.1914 C   0  0  0  0  0  0  0  0  0  0  0  0
   -7.5036   -4.8529   23.4025 C   0  0  0  0  0  0  0  0  0  0  0  0
   -8.8571   -6.5463   19.4479 C   0  0  0  0  0  0  0  0  0  0  0  0
   -6.0650   -7.3828   23.3067 C   0  0  0  0  0  0  0  0  0  0  0  0
   -7.5957   -5.7916   24.6031 C   0  0  0  0  0  0  0  0  0  0  0  0
   -6.6850   -6.9944   24.5149 C   0  0  0  0  0  0  0  0  0  0  0  0
   -5.2317   -8.5158   23.3211 C   0  0  0  0  0  0  0  0  0  0  0  0
   -6.5034   -7.7683   25.6763 C   0  0  0  0  0  0  0  0  0  0  0  0
   -5.0503   -9.2708   24.4823 C   0  0  0  0  0  0  0  0  0  0  0  0
   -5.6913   -8.8948   25.6509 C   0  0  0  0  0  0  0  0  0  0  0  0
   -7.5431   -5.5080   16.8895 H   0  0  0  0  0  0  0  0  0  0  0  0
   -5.9718   -9.3544   27.5819 H   0  0  0  0  0  0  0  0  0  0  0  0
  1  7  1  0
  1 21  1  0
  2 20  1  0
  2 22  1  0
  3  4  1  0
  3  7  1  0
  3  8  1  0
  3 13  1  0
  4  5  1  0
  4  9  1  0
  5  6  1  0
  5 12  1  0
  6 10  1  0
  6 14  1  0
  7 11  1  0
  8 10  1  0
  9 11  1  0
 12 15  1  0
 14 16  2  0
 14 17  1  0
 15 16  1  0
 16 18  1  0
 17 19  2  0
 18 20  2  0
 19 20  1  0
M  END
> <PUBCHEM_COMPOUND_CID>
5757

> <PUBCHEM_CONFORMER_RMSD>
0.6

> <PUBCHEM_CONFORMER_DIVERSEORDER>
1

> <PUBCHEM_MMFF94_PARTIAL_CHARGES>
16
1 -0.68
14 -0.14
15 0.14
16 -0.14
17 -0.15
18 -0.15
19 -0.15
2 -0.53
20 0.08
40 0.4
41 0.15
42 0.15
43 0.15
44 0.45
6 0.14
7 0.28

> <PUBCHEM_EFFECTIVE_ROTOR_COUNT>
1.4

> <PUBCHEM_PHARMACOPHORE_FEATURES>
7
1 1 acceptor
1 1 donor
1 2 donor
5 3 4 7 9 11 rings
6 14 16 17 18 19 20 rings
6 3 4 5 6 8 10 rings
6 5 6 12 14 15 16 rings

> <PUBCHEM_HEAVY_ATOM_COUNT>
20

> <PUBCHEM_ATOM_DEF_STEREO_COUNT>
5

> <PUBCHEM_ATOM_UDEF_STEREO_COUNT>
0

> <PUBCHEM_BOND_DEF_STEREO_COUNT>
0

> <PUBCHEM_BOND_UDEF_STEREO_COUNT>
0

> <PUBCHEM_ISOTOPIC_ATOM_COUNT>
0

> <PUBCHEM_COMPONENT_COUNT>
1

> <PUBCHEM_CACTVS_TAUTO_COUNT>
9

> <PUBCHEM_CONFORMER_ID>
0000167D00000001

> <PUBCHEM_MMFF94_ENERGY>
68.4596

> <PUBCHEM_FEATURE_SELFOVERLAP>
35.62

> <PUBCHEM_SHAPE_FINGERPRINT>
10 15 18262512710780645640
10411042 1 16969703283687688743
10616163 171 18338239395883154686
10967382 1 18410012100429229070
11132069 177 18409162216832884669
11578080 2 17201347718505248258
12011746 2 18410859841042374310
12107183 9 17690845558000159065
12236239 1 13470690338792453460
12251169 10 18335139816864396069
12403259 415 18410852127603240605
12403814 3 17530960289353343621
12500047 106 18271238421624861530
12592029 89 18334859377112304987
12788726 201 17703518696578858128
128620 24 11818992989152349105
13140716 1 18192429898953651512
13533116 47 17846218813073552003
13544592 145 18272379637759764926
13675066 3 18341893012844745609
14178342 30 18123731313450613666
14341114 176 18409738343777605753
14866123 147 17046555868986690930
15042514 8 18263932206156989787
15196674 1 18410012108982090935
15256400 18 18410857620686823693
15295992 7 17845930826899781123
15536298 74 18413671296627645270
1601671 61 18409168826940819996
16945 1 18266170819592368622
17349148 13 18412820287929204701
17804303 29 18410296916890392117
1813 80 16950285091842931756
18186145 218 17417805158171412875
19141452 34 18413108389914235807
192875 21 13830133918406568194
19591789 44 18192993725128068838
200 152 18131627885965453901
20028762 73 18272929458099065015
20261772 1 18410856577167961319
20510252 161 18341895147623301209
20645477 70 18200878374956666302
21033648 29 18271512131406579929
21267235 1 18337399244825179854
21279426 13 18124035632930519374
21421861 104 17895744090149736410
22854114 59 18412546505207311417
22892500 29 17274814788166584896
23184049 59 18410576175690384255
23402539 116 18342170081765240151
23557571 272 17773880972535682807
23558518 356 17682680979747269074
23559900 14 18413389822146813342
2748010 2 18337666399911122230
3004659 81 18260835844047909814
335352 9 18410013195572088855
34934 24 18411133675799850702
350125 39 18409735045496469133
351380 180 18409730664571278687
3545911 37 18411703192367818988
4214541 1 18409167684326479901
465052 167 17967541176940287083
495365 180 17346587600050392546
5104073 3 18409449150412323065
542803 24 17346883342628774985
59755656 215 18335983048405458773
69090 78 18341891905091661271
77779 3 18409450271409361990
7832392 63 18341046427736201710
9709674 26 18410862087368844367
9999458 23 17967819357476725574

> <PUBCHEM_SHAPE_MULTIPOLES>
399.85
9.72
2.11
0.84
3.73
0.39
0.22
-1.2
1.2
-0.24
-0.15
-0.38
-0.13
0.32

> <PUBCHEM_SHAPE_SELFOVERLAP>
871.414

> <PUBCHEM_SHAPE_VOLUME>
217.1

> <PUBCHEM_COORDINATE_TYPE>
2
5
10

> <Energy>
58.4396

> <minimizedAffinity>
22.98875

> <CNNscore>
0.1460658759

> <CNNaffinity>
4.6075491905

> <CNN_VS>
0.6730057001

> <CNNaffinity_variance>
0.9254918098

$$$$
