8814


 16 16  0  0  0  0  0  0  0  0999 V2000
    9.3691   46.1429  130.5750 C   0  0  0  0  0  0  0  0  0  0  0  0
   10.4002   45.8143  129.4522 C   0  0  0  0  0  0  0  0  0  0  0  0
    8.4094   44.9303  130.5936 C   0  0  0  0  0  0  0  0  0  0  0  0
    6.8903   51.0552  129.0332 O   0  0  0  0  0  0  0  0  0  0  0  0
    8.6948   47.4673  130.1865 C   0  0  0  0  0  0  0  0  0  0  0  0
    7.6408   47.4761  129.2477 C   0  0  0  0  0  0  0  0  0  0  0  0
    9.0908   48.7026  130.7263 C   0  0  0  0  0  0  0  0  0  0  0  0
    7.0252   48.6664  128.8519 C   0  0  0  0  0  0  0  0  0  0  0  0
    8.4783   49.8939  130.3308 C   0  0  0  0  0  0  0  0  0  0  0  0
    7.4537   49.8672  129.3951 C   0  0  0  0  0  0  0  0  0  0  0  0
    6.1963   51.0721  128.4038 H   0  0  0  0  0  0  0  0  0  0  0  0
   10.1690   46.2407  131.9238 C   0  0  0  0  0  0  0  0  0  0  0  0
    9.5054   46.0714  133.3331 C   0  0  0  0  0  0  0  0  0  0  0  0
    8.2839   45.1377  133.1412 C   0  0  0  0  0  0  0  0  0  0  0  0
    8.9872   47.3948  133.9137 C   0  0  0  0  0  0  0  0  0  0  0  0
   10.4177   45.4001  134.3716 C   0  0  0  0  0  0  0  0  0  0  0  0
  4 10  1  0
  4 11  1  0
  1 12  1  0
  1  5  1  0
  1  2  1  0
  1  3  1  0
 13 12  1  0
 13 14  1  0
 13 15  1  0
 13 16  1  0
  5  6  2  0
  5  7  1  0
  6  8  1  0
  7  9  2  0
  8 10  2  0
  9 10  1  0
M  END
> <PUBCHEM_COMPOUND_CID>
8814

> <PUBCHEM_CONFORMER_RMSD>
0.6

> <PUBCHEM_CONFORMER_DIVERSEORDER>
1
5
4
3
2

> <PUBCHEM_MMFF94_PARTIAL_CHARGES>
13
1 -0.53
11 -0.15
12 -0.15
13 -0.15
14 -0.15
15 0.08
2 0.14
33 0.15
34 0.15
35 0.15
36 0.15
37 0.45
5 -0.14

> <PUBCHEM_EFFECTIVE_ROTOR_COUNT>
3

> <PUBCHEM_PHARMACOPHORE_FEATURES>
4
1 1 donor
3 2 6 7 hydrophobe
4 3 8 9 10 hydrophobe
6 5 11 12 13 14 15 rings

> <PUBCHEM_HEAVY_ATOM_COUNT>
15

> <PUBCHEM_ATOM_DEF_STEREO_COUNT>
0

> <PUBCHEM_ATOM_UDEF_STEREO_COUNT>
0

> <PUBCHEM_BOND_DEF_STEREO_COUNT>
0

> <PUBCHEM_BOND_UDEF_STEREO_COUNT>
0

> <PUBCHEM_ISOTOPIC_ATOM_COUNT>
0

> <PUBCHEM_COMPONENT_COUNT>
1

> <PUBCHEM_CACTVS_TAUTO_COUNT>
2

> <PUBCHEM_CONFORMER_ID>
0000226E00000001

> <PUBCHEM_MMFF94_ENERGY>
60.6732

> <PUBCHEM_FEATURE_SELFOVERLAP>
20.297

> <PUBCHEM_SHAPE_FINGERPRINT>
1 1 18122065299635933247
11471102 22 13984658170435925480
12138202 97 18272929444633088966
12251169 10 14923953348599690641
12423570 1 15084294979065354379
124424 183 18201999928641116818
12491281 212 18273493468196309381
12532896 13 18409735040726507851
13299463 15 16200422598337566991
13538477 17 17822291326855117498
13764800 53 18335714831507604569
13839132 238 18413110537123213324
14817 1 11689340854733718479
15375462 478 15647061443078261877
15775835 57 18339078194495494345
16945 1 17988065786023185643
18186145 218 18200036118541666588
18534176 82 18271243927656786518
19837323 101 18335708272823803859
20525323 117 18337111292773698462
20645476 183 17894351081266785547
21296965 12 18260545576729377063
21501502 16 18271800211963701222
21524375 3 18339638928324873163
21947302 44 18059017168310697110
22802520 49 18199766781279703998
23402539 116 18267296706830970519
23419403 2 17194099544908694927
23557571 272 18198918083120765556
23559900 14 18342742906418193234
25 1 17845383149850037993
2748010 2 18262817159083630983
276578 36 18189342281366350763
305870 269 18040992882718168402
430814 3 18041565736850213531
549884 4 17416683544816290937
6333449 129 18343582975122638285
6442390 28 18269297706777891659
7364860 26 17834677097914689979
81228 2 18191593162379223291

> <PUBCHEM_SHAPE_MULTIPOLES>
302.82
5.29
2.15
1.39
2.11
0.81
0.13
-3.45
0.34
-1.29
-0.24
-0.12
0.26
0.01

> <PUBCHEM_SHAPE_SELFOVERLAP>
615.427

> <PUBCHEM_SHAPE_VOLUME>
178.4

> <PUBCHEM_COORDINATE_TYPE>
2
5
10

> <Energy>
46.4329

> <minimizedAffinity>
-7.39462

> <CNNscore>
0.9505895376

> <CNNaffinity>
7.1614909172

> <CNN_VS>
6.8076381683

> <CNNaffinity_variance>
0.7593056560

$$$$
8814


 16 16  0  0  0  0  0  0  0  0999 V2000
    9.3555   46.0586  130.2781 C   0  0  0  0  0  0  0  0  0  0  0  0
   10.2457   45.6709  129.0579 C   0  0  0  0  0  0  0  0  0  0  0  0
    8.3475   44.8937  130.4144 C   0  0  0  0  0  0  0  0  0  0  0  0
    6.9071   51.0930  129.1328 O   0  0  0  0  0  0  0  0  0  0  0  0
    8.7066   47.4103  129.9444 C   0  0  0  0  0  0  0  0  0  0  0  0
    9.1041   48.5756  130.6345 C   0  0  0  0  0  0  0  0  0  0  0  0
    7.7056   47.5464  128.9678 C   0  0  0  0  0  0  0  0  0  0  0  0
    8.5141   49.8153  130.3748 C   0  0  0  0  0  0  0  0  0  0  0  0
    7.1131   48.7841  128.7077 C   0  0  0  0  0  0  0  0  0  0  0  0
    7.5189   49.9073  129.4148 C   0  0  0  0  0  0  0  0  0  0  0  0
    7.1576   51.8703  129.5921 H   0  0  0  0  0  0  0  0  0  0  0  0
   10.2972   46.1299  131.5339 C   0  0  0  0  0  0  0  0  0  0  0  0
    9.8137   45.8203  132.9918 C   0  0  0  0  0  0  0  0  0  0  0  0
   10.4503   46.8940  133.9098 C   0  0  0  0  0  0  0  0  0  0  0  0
   10.2782   44.4472  133.4976 C   0  0  0  0  0  0  0  0  0  0  0  0
    8.2917   45.9254  133.1760 C   0  0  0  0  0  0  0  0  0  0  0  0
  4 10  1  0
  4 11  1  0
  1 12  1  0
  1  5  1  0
  1  2  1  0
  1  3  1  0
 13 12  1  0
 13 14  1  0
 13 15  1  0
 13 16  1  0
  5  6  2  0
  5  7  1  0
  6  8  1  0
  7  9  2  0
  8 10  2  0
  9 10  1  0
M  END
> <PUBCHEM_COMPOUND_CID>
8814

> <PUBCHEM_CONFORMER_RMSD>
0.6

> <PUBCHEM_CONFORMER_DIVERSEORDER>
1
5
4
3
2

> <PUBCHEM_MMFF94_PARTIAL_CHARGES>
13
1 -0.53
11 -0.15
12 -0.15
13 -0.15
14 -0.15
15 0.08
2 0.14
33 0.15
34 0.15
35 0.15
36 0.15
37 0.45
5 -0.14

> <PUBCHEM_EFFECTIVE_ROTOR_COUNT>
3

> <PUBCHEM_PHARMACOPHORE_FEATURES>
4
1 1 donor
3 2 6 7 hydrophobe
4 3 8 9 10 hydrophobe
6 5 11 12 13 14 15 rings

> <PUBCHEM_HEAVY_ATOM_COUNT>
15

> <PUBCHEM_ATOM_DEF_STEREO_COUNT>
0

> <PUBCHEM_ATOM_UDEF_STEREO_COUNT>
0

> <PUBCHEM_BOND_DEF_STEREO_COUNT>
0

> <PUBCHEM_BOND_UDEF_STEREO_COUNT>
0

> <PUBCHEM_ISOTOPIC_ATOM_COUNT>
0

> <PUBCHEM_COMPONENT_COUNT>
1

> <PUBCHEM_CACTVS_TAUTO_COUNT>
2

> <PUBCHEM_CONFORMER_ID>
0000226E00000001

> <PUBCHEM_MMFF94_ENERGY>
60.6732

> <PUBCHEM_FEATURE_SELFOVERLAP>
20.297

> <PUBCHEM_SHAPE_FINGERPRINT>
1 1 18122065299635933247
11471102 22 13984658170435925480
12138202 97 18272929444633088966
12251169 10 14923953348599690641
12423570 1 15084294979065354379
124424 183 18201999928641116818
12491281 212 18273493468196309381
12532896 13 18409735040726507851
13299463 15 16200422598337566991
13538477 17 17822291326855117498
13764800 53 18335714831507604569
13839132 238 18413110537123213324
14817 1 11689340854733718479
15375462 478 15647061443078261877
15775835 57 18339078194495494345
16945 1 17988065786023185643
18186145 218 18200036118541666588
18534176 82 18271243927656786518
19837323 101 18335708272823803859
20525323 117 18337111292773698462
20645476 183 17894351081266785547
21296965 12 18260545576729377063
21501502 16 18271800211963701222
21524375 3 18339638928324873163
21947302 44 18059017168310697110
22802520 49 18199766781279703998
23402539 116 18267296706830970519
23419403 2 17194099544908694927
23557571 272 18198918083120765556
23559900 14 18342742906418193234
25 1 17845383149850037993
2748010 2 18262817159083630983
276578 36 18189342281366350763
305870 269 18040992882718168402
430814 3 18041565736850213531
549884 4 17416683544816290937
6333449 129 18343582975122638285
6442390 28 18269297706777891659
7364860 26 17834677097914689979
81228 2 18191593162379223291

> <PUBCHEM_SHAPE_MULTIPOLES>
302.82
5.29
2.15
1.39
2.11
0.81
0.13
-3.45
0.34
-1.29
-0.24
-0.12
0.26
0.01

> <PUBCHEM_SHAPE_SELFOVERLAP>
615.427

> <PUBCHEM_SHAPE_VOLUME>
178.4

> <PUBCHEM_COORDINATE_TYPE>
2
5
10

> <Energy>
46.4329

> <minimizedAffinity>
-7.45565

> <CNNscore>
0.9443655610

> <CNNaffinity>
7.2483768463

> <CNN_VS>
6.8451175690

> <CNNaffinity_variance>
0.9111910462

$$$$
8814


 16 16  0  0  0  0  0  0  0  0999 V2000
    9.1243   46.2435  131.4821 C   0  0  0  0  0  0  0  0  0  0  0  0
    8.2644   45.9368  132.7464 C   0  0  0  0  0  0  0  0  0  0  0  0
   10.5516   46.4835  132.0269 C   0  0  0  0  0  0  0  0  0  0  0  0
    6.8335   50.7837  128.8761 O   0  0  0  0  0  0  0  0  0  0  0  0
    8.4989   47.4729  130.8058 C   0  0  0  0  0  0  0  0  0  0  0  0
    7.5080   47.3075  129.8143 C   0  0  0  0  0  0  0  0  0  0  0  0
    8.8800   48.7866  131.1270 C   0  0  0  0  0  0  0  0  0  0  0  0
    6.9395   48.4034  129.1600 C   0  0  0  0  0  0  0  0  0  0  0  0
    8.3146   49.8835  130.4730 C   0  0  0  0  0  0  0  0  0  0  0  0
    7.3522   49.6838  129.4932 C   0  0  0  0  0  0  0  0  0  0  0  0
    6.1820   50.6837  128.2101 H   0  0  0  0  0  0  0  0  0  0  0  0
    9.0833   44.9629  130.5727 C   0  0  0  0  0  0  0  0  0  0  0  0
   10.1728   44.6365  129.4950 C   0  0  0  0  0  0  0  0  0  0  0  0
    9.5581   43.5765  128.5467 C   0  0  0  0  0  0  0  0  0  0  0  0
   11.4486   44.0313  130.0976 C   0  0  0  0  0  0  0  0  0  0  0  0
   10.5617   45.8399  128.6221 C   0  0  0  0  0  0  0  0  0  0  0  0
  4 10  1  0
  4 11  1  0
  1 12  1  0
  1  5  1  0
  1  2  1  0
  1  3  1  0
 13 12  1  0
 13 14  1  0
 13 15  1  0
 13 16  1  0
  5  6  2  0
  5  7  1  0
  6  8  1  0
  7  9  2  0
  8 10  2  0
  9 10  1  0
M  END
> <PUBCHEM_COMPOUND_CID>
8814

> <PUBCHEM_CONFORMER_RMSD>
0.6

> <PUBCHEM_CONFORMER_DIVERSEORDER>
1
5
4
3
2

> <PUBCHEM_MMFF94_PARTIAL_CHARGES>
13
1 -0.53
11 -0.15
12 -0.15
13 -0.15
14 -0.15
15 0.08
2 0.14
33 0.15
34 0.15
35 0.15
36 0.15
37 0.45
5 -0.14

> <PUBCHEM_EFFECTIVE_ROTOR_COUNT>
3

> <PUBCHEM_PHARMACOPHORE_FEATURES>
4
1 1 donor
3 2 6 7 hydrophobe
4 3 8 9 10 hydrophobe
6 5 11 12 13 14 15 rings

> <PUBCHEM_HEAVY_ATOM_COUNT>
15

> <PUBCHEM_ATOM_DEF_STEREO_COUNT>
0

> <PUBCHEM_ATOM_UDEF_STEREO_COUNT>
0

> <PUBCHEM_BOND_DEF_STEREO_COUNT>
0

> <PUBCHEM_BOND_UDEF_STEREO_COUNT>
0

> <PUBCHEM_ISOTOPIC_ATOM_COUNT>
0

> <PUBCHEM_COMPONENT_COUNT>
1

> <PUBCHEM_CACTVS_TAUTO_COUNT>
2

> <PUBCHEM_CONFORMER_ID>
0000226E00000001

> <PUBCHEM_MMFF94_ENERGY>
60.6732

> <PUBCHEM_FEATURE_SELFOVERLAP>
20.297

> <PUBCHEM_SHAPE_FINGERPRINT>
1 1 18122065299635933247
11471102 22 13984658170435925480
12138202 97 18272929444633088966
12251169 10 14923953348599690641
12423570 1 15084294979065354379
124424 183 18201999928641116818
12491281 212 18273493468196309381
12532896 13 18409735040726507851
13299463 15 16200422598337566991
13538477 17 17822291326855117498
13764800 53 18335714831507604569
13839132 238 18413110537123213324
14817 1 11689340854733718479
15375462 478 15647061443078261877
15775835 57 18339078194495494345
16945 1 17988065786023185643
18186145 218 18200036118541666588
18534176 82 18271243927656786518
19837323 101 18335708272823803859
20525323 117 18337111292773698462
20645476 183 17894351081266785547
21296965 12 18260545576729377063
21501502 16 18271800211963701222
21524375 3 18339638928324873163
21947302 44 18059017168310697110
22802520 49 18199766781279703998
23402539 116 18267296706830970519
23419403 2 17194099544908694927
23557571 272 18198918083120765556
23559900 14 18342742906418193234
25 1 17845383149850037993
2748010 2 18262817159083630983
276578 36 18189342281366350763
305870 269 18040992882718168402
430814 3 18041565736850213531
549884 4 17416683544816290937
6333449 129 18343582975122638285
6442390 28 18269297706777891659
7364860 26 17834677097914689979
81228 2 18191593162379223291

> <PUBCHEM_SHAPE_MULTIPOLES>
302.82
5.29
2.15
1.39
2.11
0.81
0.13
-3.45
0.34
-1.29
-0.24
-0.12
0.26
0.01

> <PUBCHEM_SHAPE_SELFOVERLAP>
615.427

> <PUBCHEM_SHAPE_VOLUME>
178.4

> <PUBCHEM_COORDINATE_TYPE>
2
5
10

> <Energy>
46.4329

> <minimizedAffinity>
-7.66377

> <CNNscore>
0.9334779978

> <CNNaffinity>
7.1838717461

> <CNN_VS>
6.7059860229

> <CNNaffinity_variance>
0.8004865050

$$$$
8814


 16 16  0  0  0  0  0  0  0  0999 V2000
    8.9247   46.1971  130.8653 C   0  0  0  0  0  0  0  0  0  0  0  0
    8.4340   45.0911  129.8816 C   0  0  0  0  0  0  0  0  0  0  0  0
    8.3272   45.7976  132.2347 C   0  0  0  0  0  0  0  0  0  0  0  0
    6.9251   51.1881  128.9305 O   0  0  0  0  0  0  0  0  0  0  0  0
    8.4046   47.5373  130.3239 C   0  0  0  0  0  0  0  0  0  0  0  0
    8.5307   48.7103  131.0988 C   0  0  0  0  0  0  0  0  0  0  0  0
    7.7860   47.6549  129.0678 C   0  0  0  0  0  0  0  0  0  0  0  0
    8.0430   49.9395  130.6477 C   0  0  0  0  0  0  0  0  0  0  0  0
    7.2961   48.8821  128.6155 C   0  0  0  0  0  0  0  0  0  0  0  0
    7.4250   50.0132  129.4094 C   0  0  0  0  0  0  0  0  0  0  0  0
    6.9958   51.9703  129.4415 H   0  0  0  0  0  0  0  0  0  0  0  0
   10.4938   46.1231  130.8995 C   0  0  0  0  0  0  0  0  0  0  0  0
   11.2909   44.7775  130.9939 C   0  0  0  0  0  0  0  0  0  0  0  0
   12.3237   44.9505  132.1358 C   0  0  0  0  0  0  0  0  0  0  0  0
   12.0710   44.4526  129.7122 C   0  0  0  0  0  0  0  0  0  0  0  0
   10.4208   43.5658  131.3629 C   0  0  0  0  0  0  0  0  0  0  0  0
  4 10  1  0
  4 11  1  0
  1 12  1  0
  1  5  1  0
  1  2  1  0
  1  3  1  0
 13 12  1  0
 13 14  1  0
 13 15  1  0
 13 16  1  0
  5  6  2  0
  5  7  1  0
  6  8  1  0
  7  9  2  0
  8 10  2  0
  9 10  1  0
M  END
> <PUBCHEM_COMPOUND_CID>
8814

> <PUBCHEM_CONFORMER_RMSD>
0.6

> <PUBCHEM_CONFORMER_DIVERSEORDER>
1
5
4
3
2

> <PUBCHEM_MMFF94_PARTIAL_CHARGES>
13
1 -0.53
11 -0.15
12 -0.15
13 -0.15
14 -0.15
15 0.08
2 0.14
33 0.15
34 0.15
35 0.15
36 0.15
37 0.45
5 -0.14

> <PUBCHEM_EFFECTIVE_ROTOR_COUNT>
3

> <PUBCHEM_PHARMACOPHORE_FEATURES>
4
1 1 donor
3 2 6 7 hydrophobe
4 3 8 9 10 hydrophobe
6 5 11 12 13 14 15 rings

> <PUBCHEM_HEAVY_ATOM_COUNT>
15

> <PUBCHEM_ATOM_DEF_STEREO_COUNT>
0

> <PUBCHEM_ATOM_UDEF_STEREO_COUNT>
0

> <PUBCHEM_BOND_DEF_STEREO_COUNT>
0

> <PUBCHEM_BOND_UDEF_STEREO_COUNT>
0

> <PUBCHEM_ISOTOPIC_ATOM_COUNT>
0

> <PUBCHEM_COMPONENT_COUNT>
1

> <PUBCHEM_CACTVS_TAUTO_COUNT>
2

> <PUBCHEM_CONFORMER_ID>
0000226E00000001

> <PUBCHEM_MMFF94_ENERGY>
60.6732

> <PUBCHEM_FEATURE_SELFOVERLAP>
20.297

> <PUBCHEM_SHAPE_FINGERPRINT>
1 1 18122065299635933247
11471102 22 13984658170435925480
12138202 97 18272929444633088966
12251169 10 14923953348599690641
12423570 1 15084294979065354379
124424 183 18201999928641116818
12491281 212 18273493468196309381
12532896 13 18409735040726507851
13299463 15 16200422598337566991
13538477 17 17822291326855117498
13764800 53 18335714831507604569
13839132 238 18413110537123213324
14817 1 11689340854733718479
15375462 478 15647061443078261877
15775835 57 18339078194495494345
16945 1 17988065786023185643
18186145 218 18200036118541666588
18534176 82 18271243927656786518
19837323 101 18335708272823803859
20525323 117 18337111292773698462
20645476 183 17894351081266785547
21296965 12 18260545576729377063
21501502 16 18271800211963701222
21524375 3 18339638928324873163
21947302 44 18059017168310697110
22802520 49 18199766781279703998
23402539 116 18267296706830970519
23419403 2 17194099544908694927
23557571 272 18198918083120765556
23559900 14 18342742906418193234
25 1 17845383149850037993
2748010 2 18262817159083630983
276578 36 18189342281366350763
305870 269 18040992882718168402
430814 3 18041565736850213531
549884 4 17416683544816290937
6333449 129 18343582975122638285
6442390 28 18269297706777891659
7364860 26 17834677097914689979
81228 2 18191593162379223291

> <PUBCHEM_SHAPE_MULTIPOLES>
302.82
5.29
2.15
1.39
2.11
0.81
0.13
-3.45
0.34
-1.29
-0.24
-0.12
0.26
0.01

> <PUBCHEM_SHAPE_SELFOVERLAP>
615.427

> <PUBCHEM_SHAPE_VOLUME>
178.4

> <PUBCHEM_COORDINATE_TYPE>
2
5
10

> <Energy>
46.4329

> <minimizedAffinity>
-7.90144

> <CNNscore>
0.9028245807

> <CNNaffinity>
7.1824455261

> <CNN_VS>
6.4844884872

> <CNNaffinity_variance>
1.0022993088

$$$$
8814


 16 16  0  0  0  0  0  0  0  0999 V2000
    8.8057   46.0468  130.9223 C   0  0  0  0  0  0  0  0  0  0  0  0
    8.1845   44.9487  130.0058 C   0  0  0  0  0  0  0  0  0  0  0  0
    8.2622   45.7322  132.3356 C   0  0  0  0  0  0  0  0  0  0  0  0
    7.0449   51.1051  128.9311 O   0  0  0  0  0  0  0  0  0  0  0  0
    8.3483   47.4032  130.3649 C   0  0  0  0  0  0  0  0  0  0  0  0
    8.6005   48.5876  131.0901 C   0  0  0  0  0  0  0  0  0  0  0  0
    7.6667   47.5258  129.1424 C   0  0  0  0  0  0  0  0  0  0  0  0
    8.1730   49.8339  130.6248 C   0  0  0  0  0  0  0  0  0  0  0  0
    7.2368   48.7701  128.6761 C   0  0  0  0  0  0  0  0  0  0  0  0
    7.4899   49.9131  129.4216 C   0  0  0  0  0  0  0  0  0  0  0  0
    7.1993   51.8957  129.4097 H   0  0  0  0  0  0  0  0  0  0  0  0
   10.3654   45.8637  130.8720 C   0  0  0  0  0  0  0  0  0  0  0  0
   11.0694   44.6686  130.1431 C   0  0  0  0  0  0  0  0  0  0  0  0
   11.0290   44.9853  128.6269 C   0  0  0  0  0  0  0  0  0  0  0  0
   10.3477   43.3301  130.3538 C   0  0  0  0  0  0  0  0  0  0  0  0
   12.5490   44.4967  130.5209 C   0  0  0  0  0  0  0  0  0  0  0  0
  4 10  1  0
  4 11  1  0
  1 12  1  0
  1  5  1  0
  1  2  1  0
  1  3  1  0
 13 12  1  0
 13 14  1  0
 13 15  1  0
 13 16  1  0
  5  6  2  0
  5  7  1  0
  6  8  1  0
  7  9  2  0
  8 10  2  0
  9 10  1  0
M  END
> <PUBCHEM_COMPOUND_CID>
8814

> <PUBCHEM_CONFORMER_RMSD>
0.6

> <PUBCHEM_CONFORMER_DIVERSEORDER>
1
5
4
3
2

> <PUBCHEM_MMFF94_PARTIAL_CHARGES>
13
1 -0.53
11 -0.15
12 -0.15
13 -0.15
14 -0.15
15 0.08
2 0.14
33 0.15
34 0.15
35 0.15
36 0.15
37 0.45
5 -0.14

> <PUBCHEM_EFFECTIVE_ROTOR_COUNT>
3

> <PUBCHEM_PHARMACOPHORE_FEATURES>
4
1 1 donor
3 2 6 7 hydrophobe
4 3 8 9 10 hydrophobe
6 5 11 12 13 14 15 rings

> <PUBCHEM_HEAVY_ATOM_COUNT>
15

> <PUBCHEM_ATOM_DEF_STEREO_COUNT>
0

> <PUBCHEM_ATOM_UDEF_STEREO_COUNT>
0

> <PUBCHEM_BOND_DEF_STEREO_COUNT>
0

> <PUBCHEM_BOND_UDEF_STEREO_COUNT>
0

> <PUBCHEM_ISOTOPIC_ATOM_COUNT>
0

> <PUBCHEM_COMPONENT_COUNT>
1

> <PUBCHEM_CACTVS_TAUTO_COUNT>
2

> <PUBCHEM_CONFORMER_ID>
0000226E00000001

> <PUBCHEM_MMFF94_ENERGY>
60.6732

> <PUBCHEM_FEATURE_SELFOVERLAP>
20.297

> <PUBCHEM_SHAPE_FINGERPRINT>
1 1 18122065299635933247
11471102 22 13984658170435925480
12138202 97 18272929444633088966
12251169 10 14923953348599690641
12423570 1 15084294979065354379
124424 183 18201999928641116818
12491281 212 18273493468196309381
12532896 13 18409735040726507851
13299463 15 16200422598337566991
13538477 17 17822291326855117498
13764800 53 18335714831507604569
13839132 238 18413110537123213324
14817 1 11689340854733718479
15375462 478 15647061443078261877
15775835 57 18339078194495494345
16945 1 17988065786023185643
18186145 218 18200036118541666588
18534176 82 18271243927656786518
19837323 101 18335708272823803859
20525323 117 18337111292773698462
20645476 183 17894351081266785547
21296965 12 18260545576729377063
21501502 16 18271800211963701222
21524375 3 18339638928324873163
21947302 44 18059017168310697110
22802520 49 18199766781279703998
23402539 116 18267296706830970519
23419403 2 17194099544908694927
23557571 272 18198918083120765556
23559900 14 18342742906418193234
25 1 17845383149850037993
2748010 2 18262817159083630983
276578 36 18189342281366350763
305870 269 18040992882718168402
430814 3 18041565736850213531
549884 4 17416683544816290937
6333449 129 18343582975122638285
6442390 28 18269297706777891659
7364860 26 17834677097914689979
81228 2 18191593162379223291

> <PUBCHEM_SHAPE_MULTIPOLES>
302.82
5.29
2.15
1.39
2.11
0.81
0.13
-3.45
0.34
-1.29
-0.24
-0.12
0.26
0.01

> <PUBCHEM_SHAPE_SELFOVERLAP>
615.427

> <PUBCHEM_SHAPE_VOLUME>
178.4

> <PUBCHEM_COORDINATE_TYPE>
2
5
10

> <Energy>
46.4329

> <minimizedAffinity>
-8.22239

> <CNNscore>
0.8736289740

> <CNNaffinity>
7.0771031380

> <CNN_VS>
6.1827621460

> <CNNaffinity_variance>
0.7439938188

$$$$
8814


 16 16  0  0  0  0  0  0  0  0999 V2000
    9.6661   46.1847  130.4890 C   0  0  0  0  0  0  0  0  0  0  0  0
   10.6824   46.5572  131.6115 C   0  0  0  0  0  0  0  0  0  0  0  0
   10.5349   45.5994  129.3513 C   0  0  0  0  0  0  0  0  0  0  0  0
    6.8828   50.9984  129.1725 O   0  0  0  0  0  0  0  0  0  0  0  0
    8.9280   47.4773  130.1095 C   0  0  0  0  0  0  0  0  0  0  0  0
    9.2157   48.6814  130.7876 C   0  0  0  0  0  0  0  0  0  0  0  0
    7.9500   47.5200  129.1017 C   0  0  0  0  0  0  0  0  0  0  0  0
    8.5425   49.8681  130.4861 C   0  0  0  0  0  0  0  0  0  0  0  0
    7.2744   48.7045  128.7998 C   0  0  0  0  0  0  0  0  0  0  0  0
    7.5729   49.8675  129.4958 C   0  0  0  0  0  0  0  0  0  0  0  0
    7.0601   51.8004  129.6233 H   0  0  0  0  0  0  0  0  0  0  0  0
    8.7075   45.0879  131.0780 C   0  0  0  0  0  0  0  0  0  0  0  0
    9.1670   43.6249  131.3996 C   0  0  0  0  0  0  0  0  0  0  0  0
    8.5273   42.7104  130.3247 C   0  0  0  0  0  0  0  0  0  0  0  0
    8.6824   43.1330  132.7708 C   0  0  0  0  0  0  0  0  0  0  0  0
   10.6871   43.4184  131.3098 C   0  0  0  0  0  0  0  0  0  0  0  0
  4 10  1  0
  4 11  1  0
  1 12  1  0
  1  5  1  0
  1  2  1  0
  1  3  1  0
 13 12  1  0
 13 14  1  0
 13 15  1  0
 13 16  1  0
  5  6  2  0
  5  7  1  0
  6  8  1  0
  7  9  2  0
  8 10  2  0
  9 10  1  0
M  END
> <PUBCHEM_COMPOUND_CID>
8814

> <PUBCHEM_CONFORMER_RMSD>
0.6

> <PUBCHEM_CONFORMER_DIVERSEORDER>
1
5
4
3
2

> <PUBCHEM_MMFF94_PARTIAL_CHARGES>
13
1 -0.53
11 -0.15
12 -0.15
13 -0.15
14 -0.15
15 0.08
2 0.14
33 0.15
34 0.15
35 0.15
36 0.15
37 0.45
5 -0.14

> <PUBCHEM_EFFECTIVE_ROTOR_COUNT>
3

> <PUBCHEM_PHARMACOPHORE_FEATURES>
4
1 1 donor
3 2 6 7 hydrophobe
4 3 8 9 10 hydrophobe
6 5 11 12 13 14 15 rings

> <PUBCHEM_HEAVY_ATOM_COUNT>
15

> <PUBCHEM_ATOM_DEF_STEREO_COUNT>
0

> <PUBCHEM_ATOM_UDEF_STEREO_COUNT>
0

> <PUBCHEM_BOND_DEF_STEREO_COUNT>
0

> <PUBCHEM_BOND_UDEF_STEREO_COUNT>
0

> <PUBCHEM_ISOTOPIC_ATOM_COUNT>
0

> <PUBCHEM_COMPONENT_COUNT>
1

> <PUBCHEM_CACTVS_TAUTO_COUNT>
2

> <PUBCHEM_CONFORMER_ID>
0000226E00000001

> <PUBCHEM_MMFF94_ENERGY>
60.6732

> <PUBCHEM_FEATURE_SELFOVERLAP>
20.297

> <PUBCHEM_SHAPE_FINGERPRINT>
1 1 18122065299635933247
11471102 22 13984658170435925480
12138202 97 18272929444633088966
12251169 10 14923953348599690641
12423570 1 15084294979065354379
124424 183 18201999928641116818
12491281 212 18273493468196309381
12532896 13 18409735040726507851
13299463 15 16200422598337566991
13538477 17 17822291326855117498
13764800 53 18335714831507604569
13839132 238 18413110537123213324
14817 1 11689340854733718479
15375462 478 15647061443078261877
15775835 57 18339078194495494345
16945 1 17988065786023185643
18186145 218 18200036118541666588
18534176 82 18271243927656786518
19837323 101 18335708272823803859
20525323 117 18337111292773698462
20645476 183 17894351081266785547
21296965 12 18260545576729377063
21501502 16 18271800211963701222
21524375 3 18339638928324873163
21947302 44 18059017168310697110
22802520 49 18199766781279703998
23402539 116 18267296706830970519
23419403 2 17194099544908694927
23557571 272 18198918083120765556
23559900 14 18342742906418193234
25 1 17845383149850037993
2748010 2 18262817159083630983
276578 36 18189342281366350763
305870 269 18040992882718168402
430814 3 18041565736850213531
549884 4 17416683544816290937
6333449 129 18343582975122638285
6442390 28 18269297706777891659
7364860 26 17834677097914689979
81228 2 18191593162379223291

> <PUBCHEM_SHAPE_MULTIPOLES>
302.82
5.29
2.15
1.39
2.11
0.81
0.13
-3.45
0.34
-1.29
-0.24
-0.12
0.26
0.01

> <PUBCHEM_SHAPE_SELFOVERLAP>
615.427

> <PUBCHEM_SHAPE_VOLUME>
178.4

> <PUBCHEM_COORDINATE_TYPE>
2
5
10

> <Energy>
46.4329

> <minimizedAffinity>
-7.49433

> <CNNscore>
0.8711881042

> <CNNaffinity>
7.1166400909

> <CNN_VS>
6.1999320984

> <CNNaffinity_variance>
0.8495818973

$$$$
8814


 16 16  0  0  0  0  0  0  0  0999 V2000
    9.0054   46.0854  131.0071 C   0  0  0  0  0  0  0  0  0  0  0  0
    8.0351   45.7033  132.1664 C   0  0  0  0  0  0  0  0  0  0  0  0
   10.3935   46.2010  131.6790 C   0  0  0  0  0  0  0  0  0  0  0  0
    7.0335   51.0058  128.8732 O   0  0  0  0  0  0  0  0  0  0  0  0
    8.4888   47.4031  130.4100 C   0  0  0  0  0  0  0  0  0  0  0  0
    8.8181   48.6331  131.0191 C   0  0  0  0  0  0  0  0  0  0  0  0
    7.6772   47.4454  129.2638 C   0  0  0  0  0  0  0  0  0  0  0  0
    8.3414   49.8471  130.5177 C   0  0  0  0  0  0  0  0  0  0  0  0
    7.1980   48.6574  128.7619 C   0  0  0  0  0  0  0  0  0  0  0  0
    7.5304   49.8475  129.3939 C   0  0  0  0  0  0  0  0  0  0  0  0
    7.2389   51.8265  129.2760 H   0  0  0  0  0  0  0  0  0  0  0  0
    8.9832   44.9005  129.9754 C   0  0  0  0  0  0  0  0  0  0  0  0
   10.2416   44.4429  129.1619 C   0  0  0  0  0  0  0  0  0  0  0  0
   10.7551   45.6887  128.3970 C   0  0  0  0  0  0  0  0  0  0  0  0
    9.9204   43.3622  128.1199 C   0  0  0  0  0  0  0  0  0  0  0  0
   11.4031   43.9521  130.0403 C   0  0  0  0  0  0  0  0  0  0  0  0
  4 10  1  0
  4 11  1  0
  1 12  1  0
  1  5  1  0
  1  2  1  0
  1  3  1  0
 13 12  1  0
 13 14  1  0
 13 15  1  0
 13 16  1  0
  5  6  2  0
  5  7  1  0
  6  8  1  0
  7  9  2  0
  8 10  2  0
  9 10  1  0
M  END
> <PUBCHEM_COMPOUND_CID>
8814

> <PUBCHEM_CONFORMER_RMSD>
0.6

> <PUBCHEM_CONFORMER_DIVERSEORDER>
1
5
4
3
2

> <PUBCHEM_MMFF94_PARTIAL_CHARGES>
13
1 -0.53
11 -0.15
12 -0.15
13 -0.15
14 -0.15
15 0.08
2 0.14
33 0.15
34 0.15
35 0.15
36 0.15
37 0.45
5 -0.14

> <PUBCHEM_EFFECTIVE_ROTOR_COUNT>
3

> <PUBCHEM_PHARMACOPHORE_FEATURES>
4
1 1 donor
3 2 6 7 hydrophobe
4 3 8 9 10 hydrophobe
6 5 11 12 13 14 15 rings

> <PUBCHEM_HEAVY_ATOM_COUNT>
15

> <PUBCHEM_ATOM_DEF_STEREO_COUNT>
0

> <PUBCHEM_ATOM_UDEF_STEREO_COUNT>
0

> <PUBCHEM_BOND_DEF_STEREO_COUNT>
0

> <PUBCHEM_BOND_UDEF_STEREO_COUNT>
0

> <PUBCHEM_ISOTOPIC_ATOM_COUNT>
0

> <PUBCHEM_COMPONENT_COUNT>
1

> <PUBCHEM_CACTVS_TAUTO_COUNT>
2

> <PUBCHEM_CONFORMER_ID>
0000226E00000001

> <PUBCHEM_MMFF94_ENERGY>
60.6732

> <PUBCHEM_FEATURE_SELFOVERLAP>
20.297

> <PUBCHEM_SHAPE_FINGERPRINT>
1 1 18122065299635933247
11471102 22 13984658170435925480
12138202 97 18272929444633088966
12251169 10 14923953348599690641
12423570 1 15084294979065354379
124424 183 18201999928641116818
12491281 212 18273493468196309381
12532896 13 18409735040726507851
13299463 15 16200422598337566991
13538477 17 17822291326855117498
13764800 53 18335714831507604569
13839132 238 18413110537123213324
14817 1 11689340854733718479
15375462 478 15647061443078261877
15775835 57 18339078194495494345
16945 1 17988065786023185643
18186145 218 18200036118541666588
18534176 82 18271243927656786518
19837323 101 18335708272823803859
20525323 117 18337111292773698462
20645476 183 17894351081266785547
21296965 12 18260545576729377063
21501502 16 18271800211963701222
21524375 3 18339638928324873163
21947302 44 18059017168310697110
22802520 49 18199766781279703998
23402539 116 18267296706830970519
23419403 2 17194099544908694927
23557571 272 18198918083120765556
23559900 14 18342742906418193234
25 1 17845383149850037993
2748010 2 18262817159083630983
276578 36 18189342281366350763
305870 269 18040992882718168402
430814 3 18041565736850213531
549884 4 17416683544816290937
6333449 129 18343582975122638285
6442390 28 18269297706777891659
7364860 26 17834677097914689979
81228 2 18191593162379223291

> <PUBCHEM_SHAPE_MULTIPOLES>
302.82
5.29
2.15
1.39
2.11
0.81
0.13
-3.45
0.34
-1.29
-0.24
-0.12
0.26
0.01

> <PUBCHEM_SHAPE_SELFOVERLAP>
615.427

> <PUBCHEM_SHAPE_VOLUME>
178.4

> <PUBCHEM_COORDINATE_TYPE>
2
5
10

> <Energy>
46.4329

> <minimizedAffinity>
-8.15207

> <CNNscore>
0.8688315153

> <CNNaffinity>
7.0012302399

> <CNN_VS>
6.0828895569

> <CNNaffinity_variance>
0.5881329179

$$$$
8814


 16 16  0  0  0  0  0  0  0  0999 V2000
    8.8025   46.0581  130.9483 C   0  0  0  0  0  0  0  0  0  0  0  0
    8.1299   44.9628  130.0653 C   0  0  0  0  0  0  0  0  0  0  0  0
    8.3339   45.7439  132.3882 C   0  0  0  0  0  0  0  0  0  0  0  0
    7.0694   51.0990  128.8898 O   0  0  0  0  0  0  0  0  0  0  0  0
    8.3204   47.4165  130.4170 C   0  0  0  0  0  0  0  0  0  0  0  0
    7.6399   47.4924  129.1828 C   0  0  0  0  0  0  0  0  0  0  0  0
    8.5365   48.6185  131.1118 C   0  0  0  0  0  0  0  0  0  0  0  0
    7.2133   48.7151  128.6580 C   0  0  0  0  0  0  0  0  0  0  0  0
    8.1127   49.8421  130.5885 C   0  0  0  0  0  0  0  0  0  0  0  0
    7.4581   49.8815  129.3653 C   0  0  0  0  0  0  0  0  0  0  0  0
    6.6252   51.1606  128.0670 H   0  0  0  0  0  0  0  0  0  0  0  0
   10.3567   45.8702  130.8150 C   0  0  0  0  0  0  0  0  0  0  0  0
   11.0169   44.6914  130.0216 C   0  0  0  0  0  0  0  0  0  0  0  0
   10.9031   45.0474  128.5179 C   0  0  0  0  0  0  0  0  0  0  0  0
   10.2991   43.3510  130.2335 C   0  0  0  0  0  0  0  0  0  0  0  0
   12.5125   44.5034  130.3206 C   0  0  0  0  0  0  0  0  0  0  0  0
  4 10  1  0
  4 11  1  0
  1 12  1  0
  1  5  1  0
  1  2  1  0
  1  3  1  0
 13 12  1  0
 13 14  1  0
 13 15  1  0
 13 16  1  0
  5  6  2  0
  5  7  1  0
  6  8  1  0
  7  9  2  0
  8 10  2  0
  9 10  1  0
M  END
> <PUBCHEM_COMPOUND_CID>
8814

> <PUBCHEM_CONFORMER_RMSD>
0.6

> <PUBCHEM_CONFORMER_DIVERSEORDER>
1
5
4
3
2

> <PUBCHEM_MMFF94_PARTIAL_CHARGES>
13
1 -0.53
11 -0.15
12 -0.15
13 -0.15
14 -0.15
15 0.08
2 0.14
33 0.15
34 0.15
35 0.15
36 0.15
37 0.45
5 -0.14

> <PUBCHEM_EFFECTIVE_ROTOR_COUNT>
3

> <PUBCHEM_PHARMACOPHORE_FEATURES>
4
1 1 donor
3 2 6 7 hydrophobe
4 3 8 9 10 hydrophobe
6 5 11 12 13 14 15 rings

> <PUBCHEM_HEAVY_ATOM_COUNT>
15

> <PUBCHEM_ATOM_DEF_STEREO_COUNT>
0

> <PUBCHEM_ATOM_UDEF_STEREO_COUNT>
0

> <PUBCHEM_BOND_DEF_STEREO_COUNT>
0

> <PUBCHEM_BOND_UDEF_STEREO_COUNT>
0

> <PUBCHEM_ISOTOPIC_ATOM_COUNT>
0

> <PUBCHEM_COMPONENT_COUNT>
1

> <PUBCHEM_CACTVS_TAUTO_COUNT>
2

> <PUBCHEM_CONFORMER_ID>
0000226E00000001

> <PUBCHEM_MMFF94_ENERGY>
60.6732

> <PUBCHEM_FEATURE_SELFOVERLAP>
20.297

> <PUBCHEM_SHAPE_FINGERPRINT>
1 1 18122065299635933247
11471102 22 13984658170435925480
12138202 97 18272929444633088966
12251169 10 14923953348599690641
12423570 1 15084294979065354379
124424 183 18201999928641116818
12491281 212 18273493468196309381
12532896 13 18409735040726507851
13299463 15 16200422598337566991
13538477 17 17822291326855117498
13764800 53 18335714831507604569
13839132 238 18413110537123213324
14817 1 11689340854733718479
15375462 478 15647061443078261877
15775835 57 18339078194495494345
16945 1 17988065786023185643
18186145 218 18200036118541666588
18534176 82 18271243927656786518
19837323 101 18335708272823803859
20525323 117 18337111292773698462
20645476 183 17894351081266785547
21296965 12 18260545576729377063
21501502 16 18271800211963701222
21524375 3 18339638928324873163
21947302 44 18059017168310697110
22802520 49 18199766781279703998
23402539 116 18267296706830970519
23419403 2 17194099544908694927
23557571 272 18198918083120765556
23559900 14 18342742906418193234
25 1 17845383149850037993
2748010 2 18262817159083630983
276578 36 18189342281366350763
305870 269 18040992882718168402
430814 3 18041565736850213531
549884 4 17416683544816290937
6333449 129 18343582975122638285
6442390 28 18269297706777891659
7364860 26 17834677097914689979
81228 2 18191593162379223291

> <PUBCHEM_SHAPE_MULTIPOLES>
302.82
5.29
2.15
1.39
2.11
0.81
0.13
-3.45
0.34
-1.29
-0.24
-0.12
0.26
0.01

> <PUBCHEM_SHAPE_SELFOVERLAP>
615.427

> <PUBCHEM_SHAPE_VOLUME>
178.4

> <PUBCHEM_COORDINATE_TYPE>
2
5
10

> <Energy>
46.4329

> <minimizedAffinity>
-8.22384

> <CNNscore>
0.8601242900

> <CNNaffinity>
7.0455727577

> <CNN_VS>
6.0600681305

> <CNNaffinity_variance>
0.7030170560

$$$$
8814


 16 16  0  0  0  0  0  0  0  0999 V2000
    8.8013   46.0393  130.9831 C   0  0  0  0  0  0  0  0  0  0  0  0
    8.1182   44.9434  130.1091 C   0  0  0  0  0  0  0  0  0  0  0  0
    8.3305   45.7408  132.4257 C   0  0  0  0  0  0  0  0  0  0  0  0
    7.1137   51.0797  128.8856 O   0  0  0  0  0  0  0  0  0  0  0  0
    8.3315   47.3978  130.4413 C   0  0  0  0  0  0  0  0  0  0  0  0
    7.6530   47.4705  129.2057 C   0  0  0  0  0  0  0  0  0  0  0  0
    8.5571   48.6030  131.1275 C   0  0  0  0  0  0  0  0  0  0  0  0
    7.2375   48.6930  128.6715 C   0  0  0  0  0  0  0  0  0  0  0  0
    8.1444   49.8263  130.5947 C   0  0  0  0  0  0  0  0  0  0  0  0
    7.4915   49.8623  129.3705 C   0  0  0  0  0  0  0  0  0  0  0  0
    6.6710   51.1390  128.0619 H   0  0  0  0  0  0  0  0  0  0  0  0
   10.3536   45.8360  130.8506 C   0  0  0  0  0  0  0  0  0  0  0  0
   11.0026   44.6447  130.0665 C   0  0  0  0  0  0  0  0  0  0  0  0
   12.4848   44.5727  130.5120 C   0  0  0  0  0  0  0  0  0  0  0  0
   10.9881   44.8508  128.5452 C   0  0  0  0  0  0  0  0  0  0  0  0
   10.3768   43.2780  130.3857 C   0  0  0  0  0  0  0  0  0  0  0  0
  4 10  1  0
  4 11  1  0
  1 12  1  0
  1  5  1  0
  1  2  1  0
  1  3  1  0
 13 12  1  0
 13 14  1  0
 13 15  1  0
 13 16  1  0
  5  6  2  0
  5  7  1  0
  6  8  1  0
  7  9  2  0
  8 10  2  0
  9 10  1  0
M  END
> <PUBCHEM_COMPOUND_CID>
8814

> <PUBCHEM_CONFORMER_RMSD>
0.6

> <PUBCHEM_CONFORMER_DIVERSEORDER>
1
5
4
3
2

> <PUBCHEM_MMFF94_PARTIAL_CHARGES>
13
1 -0.53
11 -0.15
12 -0.15
13 -0.15
14 -0.15
15 0.08
2 0.14
33 0.15
34 0.15
35 0.15
36 0.15
37 0.45
5 -0.14

> <PUBCHEM_EFFECTIVE_ROTOR_COUNT>
3

> <PUBCHEM_PHARMACOPHORE_FEATURES>
4
1 1 donor
3 2 6 7 hydrophobe
4 3 8 9 10 hydrophobe
6 5 11 12 13 14 15 rings

> <PUBCHEM_HEAVY_ATOM_COUNT>
15

> <PUBCHEM_ATOM_DEF_STEREO_COUNT>
0

> <PUBCHEM_ATOM_UDEF_STEREO_COUNT>
0

> <PUBCHEM_BOND_DEF_STEREO_COUNT>
0

> <PUBCHEM_BOND_UDEF_STEREO_COUNT>
0

> <PUBCHEM_ISOTOPIC_ATOM_COUNT>
0

> <PUBCHEM_COMPONENT_COUNT>
1

> <PUBCHEM_CACTVS_TAUTO_COUNT>
2

> <PUBCHEM_CONFORMER_ID>
0000226E00000001

> <PUBCHEM_MMFF94_ENERGY>
60.6732

> <PUBCHEM_FEATURE_SELFOVERLAP>
20.297

> <PUBCHEM_SHAPE_FINGERPRINT>
1 1 18122065299635933247
11471102 22 13984658170435925480
12138202 97 18272929444633088966
12251169 10 14923953348599690641
12423570 1 15084294979065354379
124424 183 18201999928641116818
12491281 212 18273493468196309381
12532896 13 18409735040726507851
13299463 15 16200422598337566991
13538477 17 17822291326855117498
13764800 53 18335714831507604569
13839132 238 18413110537123213324
14817 1 11689340854733718479
15375462 478 15647061443078261877
15775835 57 18339078194495494345
16945 1 17988065786023185643
18186145 218 18200036118541666588
18534176 82 18271243927656786518
19837323 101 18335708272823803859
20525323 117 18337111292773698462
20645476 183 17894351081266785547
21296965 12 18260545576729377063
21501502 16 18271800211963701222
21524375 3 18339638928324873163
21947302 44 18059017168310697110
22802520 49 18199766781279703998
23402539 116 18267296706830970519
23419403 2 17194099544908694927
23557571 272 18198918083120765556
23559900 14 18342742906418193234
25 1 17845383149850037993
2748010 2 18262817159083630983
276578 36 18189342281366350763
305870 269 18040992882718168402
430814 3 18041565736850213531
549884 4 17416683544816290937
6333449 129 18343582975122638285
6442390 28 18269297706777891659
7364860 26 17834677097914689979
81228 2 18191593162379223291

> <PUBCHEM_SHAPE_MULTIPOLES>
302.82
5.29
2.15
1.39
2.11
0.81
0.13
-3.45
0.34
-1.29
-0.24
-0.12
0.26
0.01

> <PUBCHEM_SHAPE_SELFOVERLAP>
615.427

> <PUBCHEM_SHAPE_VOLUME>
178.4

> <PUBCHEM_COORDINATE_TYPE>
2
5
10

> <Energy>
46.4329

> <minimizedAffinity>
-8.20539

> <CNNscore>
0.8596065044

> <CNNaffinity>
7.0446834564

> <CNN_VS>
6.0556559563

> <CNNaffinity_variance>
0.7177557945

$$$$
