8814


 16 16  0  0  0  0  0  0  0  0999 V2000
    5.6084    0.3817   -5.5138 C   0  0  0  0  0  0  0  0  0  0  0  0
    4.8403    1.6212   -6.0662 C   0  0  0  0  0  0  0  0  0  0  0  0
    5.2050    0.3022   -4.0230 C   0  0  0  0  0  0  0  0  0  0  0  0
   11.1833    1.2697   -6.3992 O   0  0  0  0  0  0  0  0  0  0  0  0
    7.1042    0.6463   -5.7429 C   0  0  0  0  0  0  0  0  0  0  0  0
    7.6522    0.5341   -7.0388 C   0  0  0  0  0  0  0  0  0  0  0  0
    7.9776    0.9946   -4.6989 C   0  0  0  0  0  0  0  0  0  0  0  0
    9.0136    0.7405   -7.2764 C   0  0  0  0  0  0  0  0  0  0  0  0
    9.3391    1.1997   -4.9336 C   0  0  0  0  0  0  0  0  0  0  0  0
    9.8468    1.0678   -6.2185 C   0  0  0  0  0  0  0  0  0  0  0  0
   11.5581    1.1884   -7.2541 H   0  0  0  0  0  0  0  0  0  0  0  0
    5.0860   -0.8746   -6.2998 C   0  0  0  0  0  0  0  0  0  0  0  0
    5.1653   -2.3356   -5.7394 C   0  0  0  0  0  0  0  0  0  0  0  0
    4.2547   -2.3824   -4.4866 C   0  0  0  0  0  0  0  0  0  0  0  0
    6.5808   -2.7305   -5.2953 C   0  0  0  0  0  0  0  0  0  0  0  0
    4.6371   -3.4022   -6.7114 C   0  0  0  0  0  0  0  0  0  0  0  0
  4 10  1  0
  4 11  1  0
  1 12  1  0
  1  5  1  0
  1  2  1  0
  1  3  1  0
 13 12  1  0
 13 14  1  0
 13 15  1  0
 13 16  1  0
  5  6  2  0
  5  7  1  0
  6  8  1  0
  7  9  2  0
  8 10  2  0
  9 10  1  0
M  END
> <PUBCHEM_COMPOUND_CID>
8814

> <PUBCHEM_CONFORMER_RMSD>
0.6

> <PUBCHEM_CONFORMER_DIVERSEORDER>
1
5
4
3
2

> <PUBCHEM_MMFF94_PARTIAL_CHARGES>
13
1 -0.53
11 -0.15
12 -0.15
13 -0.15
14 -0.15
15 0.08
2 0.14
33 0.15
34 0.15
35 0.15
36 0.15
37 0.45
5 -0.14

> <PUBCHEM_EFFECTIVE_ROTOR_COUNT>
3

> <PUBCHEM_PHARMACOPHORE_FEATURES>
4
1 1 donor
3 2 6 7 hydrophobe
4 3 8 9 10 hydrophobe
6 5 11 12 13 14 15 rings

> <PUBCHEM_HEAVY_ATOM_COUNT>
15

> <PUBCHEM_ATOM_DEF_STEREO_COUNT>
0

> <PUBCHEM_ATOM_UDEF_STEREO_COUNT>
0

> <PUBCHEM_BOND_DEF_STEREO_COUNT>
0

> <PUBCHEM_BOND_UDEF_STEREO_COUNT>
0

> <PUBCHEM_ISOTOPIC_ATOM_COUNT>
0

> <PUBCHEM_COMPONENT_COUNT>
1

> <PUBCHEM_CACTVS_TAUTO_COUNT>
2

> <PUBCHEM_CONFORMER_ID>
0000226E00000001

> <PUBCHEM_MMFF94_ENERGY>
60.6732

> <PUBCHEM_FEATURE_SELFOVERLAP>
20.297

> <PUBCHEM_SHAPE_FINGERPRINT>
1 1 18122065299635933247
11471102 22 13984658170435925480
12138202 97 18272929444633088966
12251169 10 14923953348599690641
12423570 1 15084294979065354379
124424 183 18201999928641116818
12491281 212 18273493468196309381
12532896 13 18409735040726507851
13299463 15 16200422598337566991
13538477 17 17822291326855117498
13764800 53 18335714831507604569
13839132 238 18413110537123213324
14817 1 11689340854733718479
15375462 478 15647061443078261877
15775835 57 18339078194495494345
16945 1 17988065786023185643
18186145 218 18200036118541666588
18534176 82 18271243927656786518
19837323 101 18335708272823803859
20525323 117 18337111292773698462
20645476 183 17894351081266785547
21296965 12 18260545576729377063
21501502 16 18271800211963701222
21524375 3 18339638928324873163
21947302 44 18059017168310697110
22802520 49 18199766781279703998
23402539 116 18267296706830970519
23419403 2 17194099544908694927
23557571 272 18198918083120765556
23559900 14 18342742906418193234
25 1 17845383149850037993
2748010 2 18262817159083630983
276578 36 18189342281366350763
305870 269 18040992882718168402
430814 3 18041565736850213531
549884 4 17416683544816290937
6333449 129 18343582975122638285
6442390 28 18269297706777891659
7364860 26 17834677097914689979
81228 2 18191593162379223291

> <PUBCHEM_SHAPE_MULTIPOLES>
302.82
5.29
2.15
1.39
2.11
0.81
0.13
-3.45
0.34
-1.29
-0.24
-0.12
0.26
0.01

> <PUBCHEM_SHAPE_SELFOVERLAP>
615.427

> <PUBCHEM_SHAPE_VOLUME>
178.4

> <PUBCHEM_COORDINATE_TYPE>
2
5
10

> <Energy>
46.4329

> <minimizedAffinity>
-7.65494

> <CNNscore>
0.9544424415

> <CNNaffinity>
7.2556762695

> <CNN_VS>
6.9251255989

> <CNNaffinity_variance>
0.8043386340

$$$$
8814


 16 16  0  0  0  0  0  0  0  0999 V2000
    5.8538   -0.9763   -5.7081 C   0  0  0  0  0  0  0  0  0  0  0  0
    6.3189   -2.4342   -5.4087 C   0  0  0  0  0  0  0  0  0  0  0  0
    4.6985   -1.1336   -6.7241 C   0  0  0  0  0  0  0  0  0  0  0  0
   10.3945    1.7568   -7.8445 O   0  0  0  0  0  0  0  0  0  0  0  0
    7.0738   -0.2242   -6.2610 C   0  0  0  0  0  0  0  0  0  0  0  0
    7.0045    0.4067   -7.5217 C   0  0  0  0  0  0  0  0  0  0  0  0
    8.2887   -0.1385   -5.5604 C   0  0  0  0  0  0  0  0  0  0  0  0
    8.1047    1.0747   -8.0656 C   0  0  0  0  0  0  0  0  0  0  0  0
    9.3904    0.5270   -6.1028 C   0  0  0  0  0  0  0  0  0  0  0  0
    9.2912    1.1249   -7.3513 C   0  0  0  0  0  0  0  0  0  0  0  0
   10.3611    2.1706   -8.6845 H   0  0  0  0  0  0  0  0  0  0  0  0
    5.3281   -0.3714   -4.3565 C   0  0  0  0  0  0  0  0  0  0  0  0
    5.0557    1.1570   -4.1450 C   0  0  0  0  0  0  0  0  0  0  0  0
    3.9448    1.2671   -3.0705 C   0  0  0  0  0  0  0  0  0  0  0  0
    4.5419    1.8545   -5.4124 C   0  0  0  0  0  0  0  0  0  0  0  0
    6.2683    1.9349   -3.6102 C   0  0  0  0  0  0  0  0  0  0  0  0
  4 10  1  0
  4 11  1  0
  1 12  1  0
  1  5  1  0
  1  2  1  0
  1  3  1  0
 13 12  1  0
 13 14  1  0
 13 15  1  0
 13 16  1  0
  5  6  2  0
  5  7  1  0
  6  8  1  0
  7  9  2  0
  8 10  2  0
  9 10  1  0
M  END
> <PUBCHEM_COMPOUND_CID>
8814

> <PUBCHEM_CONFORMER_RMSD>
0.6

> <PUBCHEM_CONFORMER_DIVERSEORDER>
1
5
4
3
2

> <PUBCHEM_MMFF94_PARTIAL_CHARGES>
13
1 -0.53
11 -0.15
12 -0.15
13 -0.15
14 -0.15
15 0.08
2 0.14
33 0.15
34 0.15
35 0.15
36 0.15
37 0.45
5 -0.14

> <PUBCHEM_EFFECTIVE_ROTOR_COUNT>
3

> <PUBCHEM_PHARMACOPHORE_FEATURES>
4
1 1 donor
3 2 6 7 hydrophobe
4 3 8 9 10 hydrophobe
6 5 11 12 13 14 15 rings

> <PUBCHEM_HEAVY_ATOM_COUNT>
15

> <PUBCHEM_ATOM_DEF_STEREO_COUNT>
0

> <PUBCHEM_ATOM_UDEF_STEREO_COUNT>
0

> <PUBCHEM_BOND_DEF_STEREO_COUNT>
0

> <PUBCHEM_BOND_UDEF_STEREO_COUNT>
0

> <PUBCHEM_ISOTOPIC_ATOM_COUNT>
0

> <PUBCHEM_COMPONENT_COUNT>
1

> <PUBCHEM_CACTVS_TAUTO_COUNT>
2

> <PUBCHEM_CONFORMER_ID>
0000226E00000001

> <PUBCHEM_MMFF94_ENERGY>
60.6732

> <PUBCHEM_FEATURE_SELFOVERLAP>
20.297

> <PUBCHEM_SHAPE_FINGERPRINT>
1 1 18122065299635933247
11471102 22 13984658170435925480
12138202 97 18272929444633088966
12251169 10 14923953348599690641
12423570 1 15084294979065354379
124424 183 18201999928641116818
12491281 212 18273493468196309381
12532896 13 18409735040726507851
13299463 15 16200422598337566991
13538477 17 17822291326855117498
13764800 53 18335714831507604569
13839132 238 18413110537123213324
14817 1 11689340854733718479
15375462 478 15647061443078261877
15775835 57 18339078194495494345
16945 1 17988065786023185643
18186145 218 18200036118541666588
18534176 82 18271243927656786518
19837323 101 18335708272823803859
20525323 117 18337111292773698462
20645476 183 17894351081266785547
21296965 12 18260545576729377063
21501502 16 18271800211963701222
21524375 3 18339638928324873163
21947302 44 18059017168310697110
22802520 49 18199766781279703998
23402539 116 18267296706830970519
23419403 2 17194099544908694927
23557571 272 18198918083120765556
23559900 14 18342742906418193234
25 1 17845383149850037993
2748010 2 18262817159083630983
276578 36 18189342281366350763
305870 269 18040992882718168402
430814 3 18041565736850213531
549884 4 17416683544816290937
6333449 129 18343582975122638285
6442390 28 18269297706777891659
7364860 26 17834677097914689979
81228 2 18191593162379223291

> <PUBCHEM_SHAPE_MULTIPOLES>
302.82
5.29
2.15
1.39
2.11
0.81
0.13
-3.45
0.34
-1.29
-0.24
-0.12
0.26
0.01

> <PUBCHEM_SHAPE_SELFOVERLAP>
615.427

> <PUBCHEM_SHAPE_VOLUME>
178.4

> <PUBCHEM_COORDINATE_TYPE>
2
5
10

> <Energy>
46.4329

> <minimizedAffinity>
-7.45764

> <CNNscore>
0.9498851895

> <CNNaffinity>
7.1026458740

> <CNN_VS>
6.7466979027

> <CNNaffinity_variance>
0.4740182161

$$$$
8814


 16 16  0  0  0  0  0  0  0  0999 V2000
    5.6139    0.1746   -5.7741 C   0  0  0  0  0  0  0  0  0  0  0  0
    5.2384   -0.6762   -7.0259 C   0  0  0  0  0  0  0  0  0  0  0  0
    4.6761    1.4026   -5.8384 C   0  0  0  0  0  0  0  0  0  0  0  0
   11.1763    1.3725   -6.2993 O   0  0  0  0  0  0  0  0  0  0  0  0
    7.1052    0.5201   -5.9015 C   0  0  0  0  0  0  0  0  0  0  0  0
    7.6872    0.6834   -7.1770 C   0  0  0  0  0  0  0  0  0  0  0  0
    7.9418    0.6770   -4.7836 C   0  0  0  0  0  0  0  0  0  0  0  0
    9.0464    0.9700   -7.3283 C   0  0  0  0  0  0  0  0  0  0  0  0
    9.3011    0.9617   -4.9324 C   0  0  0  0  0  0  0  0  0  0  0  0
    9.8432    1.1024   -6.2022 C   0  0  0  0  0  0  0  0  0  0  0  0
   11.5737    1.4735   -7.1419 H   0  0  0  0  0  0  0  0  0  0  0  0
    5.2988   -0.7010   -4.5080 C   0  0  0  0  0  0  0  0  0  0  0  0
    4.4287   -2.0032   -4.5560 C   0  0  0  0  0  0  0  0  0  0  0  0
    5.3703   -3.1523   -4.9962 C   0  0  0  0  0  0  0  0  0  0  0  0
    3.2882   -1.9237   -5.5806 C   0  0  0  0  0  0  0  0  0  0  0  0
    3.8422   -2.4076   -3.1944 C   0  0  0  0  0  0  0  0  0  0  0  0
  4 10  1  0
  4 11  1  0
  1 12  1  0
  1  5  1  0
  1  2  1  0
  1  3  1  0
 13 12  1  0
 13 14  1  0
 13 15  1  0
 13 16  1  0
  5  6  2  0
  5  7  1  0
  6  8  1  0
  7  9  2  0
  8 10  2  0
  9 10  1  0
M  END
> <PUBCHEM_COMPOUND_CID>
8814

> <PUBCHEM_CONFORMER_RMSD>
0.6

> <PUBCHEM_CONFORMER_DIVERSEORDER>
1
5
4
3
2

> <PUBCHEM_MMFF94_PARTIAL_CHARGES>
13
1 -0.53
11 -0.15
12 -0.15
13 -0.15
14 -0.15
15 0.08
2 0.14
33 0.15
34 0.15
35 0.15
36 0.15
37 0.45
5 -0.14

> <PUBCHEM_EFFECTIVE_ROTOR_COUNT>
3

> <PUBCHEM_PHARMACOPHORE_FEATURES>
4
1 1 donor
3 2 6 7 hydrophobe
4 3 8 9 10 hydrophobe
6 5 11 12 13 14 15 rings

> <PUBCHEM_HEAVY_ATOM_COUNT>
15

> <PUBCHEM_ATOM_DEF_STEREO_COUNT>
0

> <PUBCHEM_ATOM_UDEF_STEREO_COUNT>
0

> <PUBCHEM_BOND_DEF_STEREO_COUNT>
0

> <PUBCHEM_BOND_UDEF_STEREO_COUNT>
0

> <PUBCHEM_ISOTOPIC_ATOM_COUNT>
0

> <PUBCHEM_COMPONENT_COUNT>
1

> <PUBCHEM_CACTVS_TAUTO_COUNT>
2

> <PUBCHEM_CONFORMER_ID>
0000226E00000001

> <PUBCHEM_MMFF94_ENERGY>
60.6732

> <PUBCHEM_FEATURE_SELFOVERLAP>
20.297

> <PUBCHEM_SHAPE_FINGERPRINT>
1 1 18122065299635933247
11471102 22 13984658170435925480
12138202 97 18272929444633088966
12251169 10 14923953348599690641
12423570 1 15084294979065354379
124424 183 18201999928641116818
12491281 212 18273493468196309381
12532896 13 18409735040726507851
13299463 15 16200422598337566991
13538477 17 17822291326855117498
13764800 53 18335714831507604569
13839132 238 18413110537123213324
14817 1 11689340854733718479
15375462 478 15647061443078261877
15775835 57 18339078194495494345
16945 1 17988065786023185643
18186145 218 18200036118541666588
18534176 82 18271243927656786518
19837323 101 18335708272823803859
20525323 117 18337111292773698462
20645476 183 17894351081266785547
21296965 12 18260545576729377063
21501502 16 18271800211963701222
21524375 3 18339638928324873163
21947302 44 18059017168310697110
22802520 49 18199766781279703998
23402539 116 18267296706830970519
23419403 2 17194099544908694927
23557571 272 18198918083120765556
23559900 14 18342742906418193234
25 1 17845383149850037993
2748010 2 18262817159083630983
276578 36 18189342281366350763
305870 269 18040992882718168402
430814 3 18041565736850213531
549884 4 17416683544816290937
6333449 129 18343582975122638285
6442390 28 18269297706777891659
7364860 26 17834677097914689979
81228 2 18191593162379223291

> <PUBCHEM_SHAPE_MULTIPOLES>
302.82
5.29
2.15
1.39
2.11
0.81
0.13
-3.45
0.34
-1.29
-0.24
-0.12
0.26
0.01

> <PUBCHEM_SHAPE_SELFOVERLAP>
615.427

> <PUBCHEM_SHAPE_VOLUME>
178.4

> <PUBCHEM_COORDINATE_TYPE>
2
5
10

> <Energy>
46.4329

> <minimizedAffinity>
-7.88949

> <CNNscore>
0.9417213798

> <CNNaffinity>
6.9500880241

> <CNN_VS>
6.5450463295

> <CNNaffinity_variance>
0.5085067153

$$$$
8814


 16 16  0  0  0  0  0  0  0  0999 V2000
    5.5858    0.3312   -5.7299 C   0  0  0  0  0  0  0  0  0  0  0  0
    5.1548   -0.4119   -7.0313 C   0  0  0  0  0  0  0  0  0  0  0  0
    4.6967    1.5959   -5.6872 C   0  0  0  0  0  0  0  0  0  0  0  0
   11.1840    1.3421   -6.2688 O   0  0  0  0  0  0  0  0  0  0  0  0
    7.0873    0.6275   -5.8627 C   0  0  0  0  0  0  0  0  0  0  0  0
    7.6864    0.6874   -7.1393 C   0  0  0  0  0  0  0  0  0  0  0  0
    7.9164    0.8383   -4.7481 C   0  0  0  0  0  0  0  0  0  0  0  0
    9.0544    0.9268   -7.2934 C   0  0  0  0  0  0  0  0  0  0  0  0
    9.2844    1.0759   -4.8996 C   0  0  0  0  0  0  0  0  0  0  0  0
    9.8430    1.1148   -6.1695 C   0  0  0  0  0  0  0  0  0  0  0  0
   11.5925    1.3745   -7.1115 H   0  0  0  0  0  0  0  0  0  0  0  0
    5.2585   -0.6206   -4.5234 C   0  0  0  0  0  0  0  0  0  0  0  0
    4.5109   -1.9883   -4.6834 C   0  0  0  0  0  0  0  0  0  0  0  0
    3.9668   -2.3653   -3.2824 C   0  0  0  0  0  0  0  0  0  0  0  0
    5.4351   -3.1258   -5.1403 C   0  0  0  0  0  0  0  0  0  0  0  0
    3.2999   -1.9265   -5.6274 C   0  0  0  0  0  0  0  0  0  0  0  0
  4 10  1  0
  4 11  1  0
  1 12  1  0
  1  5  1  0
  1  2  1  0
  1  3  1  0
 13 12  1  0
 13 14  1  0
 13 15  1  0
 13 16  1  0
  5  6  2  0
  5  7  1  0
  6  8  1  0
  7  9  2  0
  8 10  2  0
  9 10  1  0
M  END
> <PUBCHEM_COMPOUND_CID>
8814

> <PUBCHEM_CONFORMER_RMSD>
0.6

> <PUBCHEM_CONFORMER_DIVERSEORDER>
1
5
4
3
2

> <PUBCHEM_MMFF94_PARTIAL_CHARGES>
13
1 -0.53
11 -0.15
12 -0.15
13 -0.15
14 -0.15
15 0.08
2 0.14
33 0.15
34 0.15
35 0.15
36 0.15
37 0.45
5 -0.14

> <PUBCHEM_EFFECTIVE_ROTOR_COUNT>
3

> <PUBCHEM_PHARMACOPHORE_FEATURES>
4
1 1 donor
3 2 6 7 hydrophobe
4 3 8 9 10 hydrophobe
6 5 11 12 13 14 15 rings

> <PUBCHEM_HEAVY_ATOM_COUNT>
15

> <PUBCHEM_ATOM_DEF_STEREO_COUNT>
0

> <PUBCHEM_ATOM_UDEF_STEREO_COUNT>
0

> <PUBCHEM_BOND_DEF_STEREO_COUNT>
0

> <PUBCHEM_BOND_UDEF_STEREO_COUNT>
0

> <PUBCHEM_ISOTOPIC_ATOM_COUNT>
0

> <PUBCHEM_COMPONENT_COUNT>
1

> <PUBCHEM_CACTVS_TAUTO_COUNT>
2

> <PUBCHEM_CONFORMER_ID>
0000226E00000001

> <PUBCHEM_MMFF94_ENERGY>
60.6732

> <PUBCHEM_FEATURE_SELFOVERLAP>
20.297

> <PUBCHEM_SHAPE_FINGERPRINT>
1 1 18122065299635933247
11471102 22 13984658170435925480
12138202 97 18272929444633088966
12251169 10 14923953348599690641
12423570 1 15084294979065354379
124424 183 18201999928641116818
12491281 212 18273493468196309381
12532896 13 18409735040726507851
13299463 15 16200422598337566991
13538477 17 17822291326855117498
13764800 53 18335714831507604569
13839132 238 18413110537123213324
14817 1 11689340854733718479
15375462 478 15647061443078261877
15775835 57 18339078194495494345
16945 1 17988065786023185643
18186145 218 18200036118541666588
18534176 82 18271243927656786518
19837323 101 18335708272823803859
20525323 117 18337111292773698462
20645476 183 17894351081266785547
21296965 12 18260545576729377063
21501502 16 18271800211963701222
21524375 3 18339638928324873163
21947302 44 18059017168310697110
22802520 49 18199766781279703998
23402539 116 18267296706830970519
23419403 2 17194099544908694927
23557571 272 18198918083120765556
23559900 14 18342742906418193234
25 1 17845383149850037993
2748010 2 18262817159083630983
276578 36 18189342281366350763
305870 269 18040992882718168402
430814 3 18041565736850213531
549884 4 17416683544816290937
6333449 129 18343582975122638285
6442390 28 18269297706777891659
7364860 26 17834677097914689979
81228 2 18191593162379223291

> <PUBCHEM_SHAPE_MULTIPOLES>
302.82
5.29
2.15
1.39
2.11
0.81
0.13
-3.45
0.34
-1.29
-0.24
-0.12
0.26
0.01

> <PUBCHEM_SHAPE_SELFOVERLAP>
615.427

> <PUBCHEM_SHAPE_VOLUME>
178.4

> <PUBCHEM_COORDINATE_TYPE>
2
5
10

> <Energy>
46.4329

> <minimizedAffinity>
-7.87571

> <CNNscore>
0.9402716160

> <CNNaffinity>
6.9990878105

> <CNN_VS>
6.5810437202

> <CNNaffinity_variance>
0.5514139533

$$$$
8814


 16 16  0  0  0  0  0  0  0  0999 V2000
    5.7150    0.1011   -5.5358 C   0  0  0  0  0  0  0  0  0  0  0  0
    4.9755    1.3785   -6.0389 C   0  0  0  0  0  0  0  0  0  0  0  0
    5.2910   -0.0405   -4.0553 C   0  0  0  0  0  0  0  0  0  0  0  0
   11.2892    1.1252   -6.2648 O   0  0  0  0  0  0  0  0  0  0  0  0
    7.2179    0.3493   -5.7341 C   0  0  0  0  0  0  0  0  0  0  0  0
    7.9715    0.9765   -4.7187 C   0  0  0  0  0  0  0  0  0  0  0  0
    7.8950   -0.0182   -6.9091 C   0  0  0  0  0  0  0  0  0  0  0  0
    9.3340    1.2422   -4.8788 C   0  0  0  0  0  0  0  0  0  0  0  0
    9.2563    0.2480   -7.0723 C   0  0  0  0  0  0  0  0  0  0  0  0
    9.9639    0.8786   -6.0585 C   0  0  0  0  0  0  0  0  0  0  0  0
   11.7958    1.5494   -5.6004 H   0  0  0  0  0  0  0  0  0  0  0  0
    5.1812   -1.1077   -6.3859 C   0  0  0  0  0  0  0  0  0  0  0  0
    4.5997   -2.4170   -5.7513 C   0  0  0  0  0  0  0  0  0  0  0  0
    4.5150   -3.4645   -6.8898 C   0  0  0  0  0  0  0  0  0  0  0  0
    3.1831   -2.2317   -5.1891 C   0  0  0  0  0  0  0  0  0  0  0  0
    5.4903   -3.0238   -4.6558 C   0  0  0  0  0  0  0  0  0  0  0  0
  4 10  1  0
  4 11  1  0
  1 12  1  0
  1  5  1  0
  1  2  1  0
  1  3  1  0
 13 12  1  0
 13 14  1  0
 13 15  1  0
 13 16  1  0
  5  6  2  0
  5  7  1  0
  6  8  1  0
  7  9  2  0
  8 10  2  0
  9 10  1  0
M  END
> <PUBCHEM_COMPOUND_CID>
8814

> <PUBCHEM_CONFORMER_RMSD>
0.6

> <PUBCHEM_CONFORMER_DIVERSEORDER>
1
5
4
3
2

> <PUBCHEM_MMFF94_PARTIAL_CHARGES>
13
1 -0.53
11 -0.15
12 -0.15
13 -0.15
14 -0.15
15 0.08
2 0.14
33 0.15
34 0.15
35 0.15
36 0.15
37 0.45
5 -0.14

> <PUBCHEM_EFFECTIVE_ROTOR_COUNT>
3

> <PUBCHEM_PHARMACOPHORE_FEATURES>
4
1 1 donor
3 2 6 7 hydrophobe
4 3 8 9 10 hydrophobe
6 5 11 12 13 14 15 rings

> <PUBCHEM_HEAVY_ATOM_COUNT>
15

> <PUBCHEM_ATOM_DEF_STEREO_COUNT>
0

> <PUBCHEM_ATOM_UDEF_STEREO_COUNT>
0

> <PUBCHEM_BOND_DEF_STEREO_COUNT>
0

> <PUBCHEM_BOND_UDEF_STEREO_COUNT>
0

> <PUBCHEM_ISOTOPIC_ATOM_COUNT>
0

> <PUBCHEM_COMPONENT_COUNT>
1

> <PUBCHEM_CACTVS_TAUTO_COUNT>
2

> <PUBCHEM_CONFORMER_ID>
0000226E00000001

> <PUBCHEM_MMFF94_ENERGY>
60.6732

> <PUBCHEM_FEATURE_SELFOVERLAP>
20.297

> <PUBCHEM_SHAPE_FINGERPRINT>
1 1 18122065299635933247
11471102 22 13984658170435925480
12138202 97 18272929444633088966
12251169 10 14923953348599690641
12423570 1 15084294979065354379
124424 183 18201999928641116818
12491281 212 18273493468196309381
12532896 13 18409735040726507851
13299463 15 16200422598337566991
13538477 17 17822291326855117498
13764800 53 18335714831507604569
13839132 238 18413110537123213324
14817 1 11689340854733718479
15375462 478 15647061443078261877
15775835 57 18339078194495494345
16945 1 17988065786023185643
18186145 218 18200036118541666588
18534176 82 18271243927656786518
19837323 101 18335708272823803859
20525323 117 18337111292773698462
20645476 183 17894351081266785547
21296965 12 18260545576729377063
21501502 16 18271800211963701222
21524375 3 18339638928324873163
21947302 44 18059017168310697110
22802520 49 18199766781279703998
23402539 116 18267296706830970519
23419403 2 17194099544908694927
23557571 272 18198918083120765556
23559900 14 18342742906418193234
25 1 17845383149850037993
2748010 2 18262817159083630983
276578 36 18189342281366350763
305870 269 18040992882718168402
430814 3 18041565736850213531
549884 4 17416683544816290937
6333449 129 18343582975122638285
6442390 28 18269297706777891659
7364860 26 17834677097914689979
81228 2 18191593162379223291

> <PUBCHEM_SHAPE_MULTIPOLES>
302.82
5.29
2.15
1.39
2.11
0.81
0.13
-3.45
0.34
-1.29
-0.24
-0.12
0.26
0.01

> <PUBCHEM_SHAPE_SELFOVERLAP>
615.427

> <PUBCHEM_SHAPE_VOLUME>
178.4

> <PUBCHEM_COORDINATE_TYPE>
2
5
10

> <Energy>
46.4329

> <minimizedAffinity>
-7.58570

> <CNNscore>
0.9391186237

> <CNNaffinity>
7.0542397499

> <CNN_VS>
6.6247677803

> <CNNaffinity_variance>
0.5827164650

$$$$
8814


 16 16  0  0  0  0  0  0  0  0999 V2000
    5.5738    0.3115   -5.7327 C   0  0  0  0  0  0  0  0  0  0  0  0
    5.1019   -0.4218   -7.0254 C   0  0  0  0  0  0  0  0  0  0  0  0
    4.7204    1.6001   -5.6786 C   0  0  0  0  0  0  0  0  0  0  0  0
   11.1670    1.3500   -6.2717 O   0  0  0  0  0  0  0  0  0  0  0  0
    7.0805    0.5663   -5.8900 C   0  0  0  0  0  0  0  0  0  0  0  0
    7.8908    0.7458   -4.7483 C   0  0  0  0  0  0  0  0  0  0  0  0
    7.7064    0.6402   -7.1458 C   0  0  0  0  0  0  0  0  0  0  0  0
    9.2591    1.0072   -4.8576 C   0  0  0  0  0  0  0  0  0  0  0  0
    9.0735    0.9032   -7.2576 C   0  0  0  0  0  0  0  0  0  0  0  0
    9.8380    1.0879   -6.1141 C   0  0  0  0  0  0  0  0  0  0  0  0
   11.7112    1.4798   -5.5201 H   0  0  0  0  0  0  0  0  0  0  0  0
    5.2399   -0.6289   -4.5190 C   0  0  0  0  0  0  0  0  0  0  0  0
    4.5115   -2.0077   -4.6726 C   0  0  0  0  0  0  0  0  0  0  0  0
    3.9839   -2.3919   -3.2674 C   0  0  0  0  0  0  0  0  0  0  0  0
    5.4490   -3.1316   -5.1361 C   0  0  0  0  0  0  0  0  0  0  0  0
    3.2925   -1.9644   -5.6073 C   0  0  0  0  0  0  0  0  0  0  0  0
  4 10  1  0
  4 11  1  0
  1 12  1  0
  1  5  1  0
  1  2  1  0
  1  3  1  0
 13 12  1  0
 13 14  1  0
 13 15  1  0
 13 16  1  0
  5  6  2  0
  5  7  1  0
  6  8  1  0
  7  9  2  0
  8 10  2  0
  9 10  1  0
M  END
> <PUBCHEM_COMPOUND_CID>
8814

> <PUBCHEM_CONFORMER_RMSD>
0.6

> <PUBCHEM_CONFORMER_DIVERSEORDER>
1
5
4
3
2

> <PUBCHEM_MMFF94_PARTIAL_CHARGES>
13
1 -0.53
11 -0.15
12 -0.15
13 -0.15
14 -0.15
15 0.08
2 0.14
33 0.15
34 0.15
35 0.15
36 0.15
37 0.45
5 -0.14

> <PUBCHEM_EFFECTIVE_ROTOR_COUNT>
3

> <PUBCHEM_PHARMACOPHORE_FEATURES>
4
1 1 donor
3 2 6 7 hydrophobe
4 3 8 9 10 hydrophobe
6 5 11 12 13 14 15 rings

> <PUBCHEM_HEAVY_ATOM_COUNT>
15

> <PUBCHEM_ATOM_DEF_STEREO_COUNT>
0

> <PUBCHEM_ATOM_UDEF_STEREO_COUNT>
0

> <PUBCHEM_BOND_DEF_STEREO_COUNT>
0

> <PUBCHEM_BOND_UDEF_STEREO_COUNT>
0

> <PUBCHEM_ISOTOPIC_ATOM_COUNT>
0

> <PUBCHEM_COMPONENT_COUNT>
1

> <PUBCHEM_CACTVS_TAUTO_COUNT>
2

> <PUBCHEM_CONFORMER_ID>
0000226E00000001

> <PUBCHEM_MMFF94_ENERGY>
60.6732

> <PUBCHEM_FEATURE_SELFOVERLAP>
20.297

> <PUBCHEM_SHAPE_FINGERPRINT>
1 1 18122065299635933247
11471102 22 13984658170435925480
12138202 97 18272929444633088966
12251169 10 14923953348599690641
12423570 1 15084294979065354379
124424 183 18201999928641116818
12491281 212 18273493468196309381
12532896 13 18409735040726507851
13299463 15 16200422598337566991
13538477 17 17822291326855117498
13764800 53 18335714831507604569
13839132 238 18413110537123213324
14817 1 11689340854733718479
15375462 478 15647061443078261877
15775835 57 18339078194495494345
16945 1 17988065786023185643
18186145 218 18200036118541666588
18534176 82 18271243927656786518
19837323 101 18335708272823803859
20525323 117 18337111292773698462
20645476 183 17894351081266785547
21296965 12 18260545576729377063
21501502 16 18271800211963701222
21524375 3 18339638928324873163
21947302 44 18059017168310697110
22802520 49 18199766781279703998
23402539 116 18267296706830970519
23419403 2 17194099544908694927
23557571 272 18198918083120765556
23559900 14 18342742906418193234
25 1 17845383149850037993
2748010 2 18262817159083630983
276578 36 18189342281366350763
305870 269 18040992882718168402
430814 3 18041565736850213531
549884 4 17416683544816290937
6333449 129 18343582975122638285
6442390 28 18269297706777891659
7364860 26 17834677097914689979
81228 2 18191593162379223291

> <PUBCHEM_SHAPE_MULTIPOLES>
302.82
5.29
2.15
1.39
2.11
0.81
0.13
-3.45
0.34
-1.29
-0.24
-0.12
0.26
0.01

> <PUBCHEM_SHAPE_SELFOVERLAP>
615.427

> <PUBCHEM_SHAPE_VOLUME>
178.4

> <PUBCHEM_COORDINATE_TYPE>
2
5
10

> <Energy>
46.4329

> <minimizedAffinity>
-7.83709

> <CNNscore>
0.9369286299

> <CNNaffinity>
6.9431362152

> <CNN_VS>
6.5052232742

> <CNNaffinity_variance>
0.4950242043

$$$$
8814


 16 16  0  0  0  0  0  0  0  0999 V2000
    5.6337    0.4692   -5.5597 C   0  0  0  0  0  0  0  0  0  0  0  0
    5.1601   -0.3508   -6.7987 C   0  0  0  0  0  0  0  0  0  0  0  0
    4.7537    1.7408   -5.5707 C   0  0  0  0  0  0  0  0  0  0  0  0
   11.2185    1.4028   -6.3278 O   0  0  0  0  0  0  0  0  0  0  0  0
    7.1323    0.7449   -5.7544 C   0  0  0  0  0  0  0  0  0  0  0  0
    7.6837    0.7726   -7.0535 C   0  0  0  0  0  0  0  0  0  0  0  0
    8.0051    0.9678   -4.6761 C   0  0  0  0  0  0  0  0  0  0  0  0
    9.0475    0.9927   -7.2635 C   0  0  0  0  0  0  0  0  0  0  0  0
    9.3690    1.1861   -4.8834 C   0  0  0  0  0  0  0  0  0  0  0  0
    9.8798    1.1934   -6.1738 C   0  0  0  0  0  0  0  0  0  0  0  0
   11.5954    1.4137   -7.1856 H   0  0  0  0  0  0  0  0  0  0  0  0
    5.3365   -0.4026   -4.2867 C   0  0  0  0  0  0  0  0  0  0  0  0
    3.8988   -0.8790   -3.8853 C   0  0  0  0  0  0  0  0  0  0  0  0
    3.4184    0.0609   -2.7511 C   0  0  0  0  0  0  0  0  0  0  0  0
    3.8745   -2.3128   -3.3371 C   0  0  0  0  0  0  0  0  0  0  0  0
    2.8689   -0.7667   -5.0203 C   0  0  0  0  0  0  0  0  0  0  0  0
  4 10  1  0
  4 11  1  0
  1 12  1  0
  1  5  1  0
  1  2  1  0
  1  3  1  0
 13 12  1  0
 13 14  1  0
 13 15  1  0
 13 16  1  0
  5  6  2  0
  5  7  1  0
  6  8  1  0
  7  9  2  0
  8 10  2  0
  9 10  1  0
M  END
> <PUBCHEM_COMPOUND_CID>
8814

> <PUBCHEM_CONFORMER_RMSD>
0.6

> <PUBCHEM_CONFORMER_DIVERSEORDER>
1
5
4
3
2

> <PUBCHEM_MMFF94_PARTIAL_CHARGES>
13
1 -0.53
11 -0.15
12 -0.15
13 -0.15
14 -0.15
15 0.08
2 0.14
33 0.15
34 0.15
35 0.15
36 0.15
37 0.45
5 -0.14

> <PUBCHEM_EFFECTIVE_ROTOR_COUNT>
3

> <PUBCHEM_PHARMACOPHORE_FEATURES>
4
1 1 donor
3 2 6 7 hydrophobe
4 3 8 9 10 hydrophobe
6 5 11 12 13 14 15 rings

> <PUBCHEM_HEAVY_ATOM_COUNT>
15

> <PUBCHEM_ATOM_DEF_STEREO_COUNT>
0

> <PUBCHEM_ATOM_UDEF_STEREO_COUNT>
0

> <PUBCHEM_BOND_DEF_STEREO_COUNT>
0

> <PUBCHEM_BOND_UDEF_STEREO_COUNT>
0

> <PUBCHEM_ISOTOPIC_ATOM_COUNT>
0

> <PUBCHEM_COMPONENT_COUNT>
1

> <PUBCHEM_CACTVS_TAUTO_COUNT>
2

> <PUBCHEM_CONFORMER_ID>
0000226E00000001

> <PUBCHEM_MMFF94_ENERGY>
60.6732

> <PUBCHEM_FEATURE_SELFOVERLAP>
20.297

> <PUBCHEM_SHAPE_FINGERPRINT>
1 1 18122065299635933247
11471102 22 13984658170435925480
12138202 97 18272929444633088966
12251169 10 14923953348599690641
12423570 1 15084294979065354379
124424 183 18201999928641116818
12491281 212 18273493468196309381
12532896 13 18409735040726507851
13299463 15 16200422598337566991
13538477 17 17822291326855117498
13764800 53 18335714831507604569
13839132 238 18413110537123213324
14817 1 11689340854733718479
15375462 478 15647061443078261877
15775835 57 18339078194495494345
16945 1 17988065786023185643
18186145 218 18200036118541666588
18534176 82 18271243927656786518
19837323 101 18335708272823803859
20525323 117 18337111292773698462
20645476 183 17894351081266785547
21296965 12 18260545576729377063
21501502 16 18271800211963701222
21524375 3 18339638928324873163
21947302 44 18059017168310697110
22802520 49 18199766781279703998
23402539 116 18267296706830970519
23419403 2 17194099544908694927
23557571 272 18198918083120765556
23559900 14 18342742906418193234
25 1 17845383149850037993
2748010 2 18262817159083630983
276578 36 18189342281366350763
305870 269 18040992882718168402
430814 3 18041565736850213531
549884 4 17416683544816290937
6333449 129 18343582975122638285
6442390 28 18269297706777891659
7364860 26 17834677097914689979
81228 2 18191593162379223291

> <PUBCHEM_SHAPE_MULTIPOLES>
302.82
5.29
2.15
1.39
2.11
0.81
0.13
-3.45
0.34
-1.29
-0.24
-0.12
0.26
0.01

> <PUBCHEM_SHAPE_SELFOVERLAP>
615.427

> <PUBCHEM_SHAPE_VOLUME>
178.4

> <PUBCHEM_COORDINATE_TYPE>
2
5
10

> <Energy>
46.4329

> <minimizedAffinity>
-7.62734

> <CNNscore>
0.9192846417

> <CNNaffinity>
6.9134240150

> <CNN_VS>
6.3554043770

> <CNNaffinity_variance>
0.4164393842

$$$$
8814


 16 16  0  0  0  0  0  0  0  0999 V2000
    5.8767   -1.1852   -5.8108 C   0  0  0  0  0  0  0  0  0  0  0  0
    6.4414   -2.5691   -5.3663 C   0  0  0  0  0  0  0  0  0  0  0  0
    4.8222   -1.5203   -6.8913 C   0  0  0  0  0  0  0  0  0  0  0  0
   10.3094    1.8017   -7.8310 O   0  0  0  0  0  0  0  0  0  0  0  0
    7.0665   -0.3654   -6.3322 C   0  0  0  0  0  0  0  0  0  0  0  0
    6.9853    0.2824   -7.5837 C   0  0  0  0  0  0  0  0  0  0  0  0
    8.2651   -0.2321   -5.6112 C   0  0  0  0  0  0  0  0  0  0  0  0
    8.0595    1.0123   -8.0993 C   0  0  0  0  0  0  0  0  0  0  0  0
    9.3408    0.4953   -6.1253 C   0  0  0  0  0  0  0  0  0  0  0  0
    9.2312    1.1085   -7.3656 C   0  0  0  0  0  0  0  0  0  0  0  0
   10.2684    2.2273   -8.6648 H   0  0  0  0  0  0  0  0  0  0  0  0
    5.1969   -0.5366   -4.5515 C   0  0  0  0  0  0  0  0  0  0  0  0
    3.9655   -1.1677   -3.8163 C   0  0  0  0  0  0  0  0  0  0  0  0
    2.7385   -0.9537   -4.7380 C   0  0  0  0  0  0  0  0  0  0  0  0
    3.6576   -0.4895   -2.4739 C   0  0  0  0  0  0  0  0  0  0  0  0
    4.0893   -2.6823   -3.5875 C   0  0  0  0  0  0  0  0  0  0  0  0
  4 10  1  0
  4 11  1  0
  1 12  1  0
  1  5  1  0
  1  2  1  0
  1  3  1  0
 13 12  1  0
 13 14  1  0
 13 15  1  0
 13 16  1  0
  5  6  2  0
  5  7  1  0
  6  8  1  0
  7  9  2  0
  8 10  2  0
  9 10  1  0
M  END
> <PUBCHEM_COMPOUND_CID>
8814

> <PUBCHEM_CONFORMER_RMSD>
0.6

> <PUBCHEM_CONFORMER_DIVERSEORDER>
1
5
4
3
2

> <PUBCHEM_MMFF94_PARTIAL_CHARGES>
13
1 -0.53
11 -0.15
12 -0.15
13 -0.15
14 -0.15
15 0.08
2 0.14
33 0.15
34 0.15
35 0.15
36 0.15
37 0.45
5 -0.14

> <PUBCHEM_EFFECTIVE_ROTOR_COUNT>
3

> <PUBCHEM_PHARMACOPHORE_FEATURES>
4
1 1 donor
3 2 6 7 hydrophobe
4 3 8 9 10 hydrophobe
6 5 11 12 13 14 15 rings

> <PUBCHEM_HEAVY_ATOM_COUNT>
15

> <PUBCHEM_ATOM_DEF_STEREO_COUNT>
0

> <PUBCHEM_ATOM_UDEF_STEREO_COUNT>
0

> <PUBCHEM_BOND_DEF_STEREO_COUNT>
0

> <PUBCHEM_BOND_UDEF_STEREO_COUNT>
0

> <PUBCHEM_ISOTOPIC_ATOM_COUNT>
0

> <PUBCHEM_COMPONENT_COUNT>
1

> <PUBCHEM_CACTVS_TAUTO_COUNT>
2

> <PUBCHEM_CONFORMER_ID>
0000226E00000001

> <PUBCHEM_MMFF94_ENERGY>
60.6732

> <PUBCHEM_FEATURE_SELFOVERLAP>
20.297

> <PUBCHEM_SHAPE_FINGERPRINT>
1 1 18122065299635933247
11471102 22 13984658170435925480
12138202 97 18272929444633088966
12251169 10 14923953348599690641
12423570 1 15084294979065354379
124424 183 18201999928641116818
12491281 212 18273493468196309381
12532896 13 18409735040726507851
13299463 15 16200422598337566991
13538477 17 17822291326855117498
13764800 53 18335714831507604569
13839132 238 18413110537123213324
14817 1 11689340854733718479
15375462 478 15647061443078261877
15775835 57 18339078194495494345
16945 1 17988065786023185643
18186145 218 18200036118541666588
18534176 82 18271243927656786518
19837323 101 18335708272823803859
20525323 117 18337111292773698462
20645476 183 17894351081266785547
21296965 12 18260545576729377063
21501502 16 18271800211963701222
21524375 3 18339638928324873163
21947302 44 18059017168310697110
22802520 49 18199766781279703998
23402539 116 18267296706830970519
23419403 2 17194099544908694927
23557571 272 18198918083120765556
23559900 14 18342742906418193234
25 1 17845383149850037993
2748010 2 18262817159083630983
276578 36 18189342281366350763
305870 269 18040992882718168402
430814 3 18041565736850213531
549884 4 17416683544816290937
6333449 129 18343582975122638285
6442390 28 18269297706777891659
7364860 26 17834677097914689979
81228 2 18191593162379223291

> <PUBCHEM_SHAPE_MULTIPOLES>
302.82
5.29
2.15
1.39
2.11
0.81
0.13
-3.45
0.34
-1.29
-0.24
-0.12
0.26
0.01

> <PUBCHEM_SHAPE_SELFOVERLAP>
615.427

> <PUBCHEM_SHAPE_VOLUME>
178.4

> <PUBCHEM_COORDINATE_TYPE>
2
5
10

> <Energy>
46.4329

> <minimizedAffinity>
-7.42176

> <CNNscore>
0.9187876582

> <CNNaffinity>
6.9067244530

> <CNN_VS>
6.3458132744

> <CNNaffinity_variance>
0.4924621582

$$$$
8814


 16 16  0  0  0  0  0  0  0  0999 V2000
    5.8464    1.2596   -4.2269 C   0  0  0  0  0  0  0  0  0  0  0  0
    4.6553    2.1521   -4.6920 C   0  0  0  0  0  0  0  0  0  0  0  0
    6.6370    2.1454   -3.2359 C   0  0  0  0  0  0  0  0  0  0  0  0
    8.8544   -0.1015   -8.8908 O   0  0  0  0  0  0  0  0  0  0  0  0
    6.6349    0.8765   -5.4883 C   0  0  0  0  0  0  0  0  0  0  0  0
    7.9059    0.2736   -5.3724 C   0  0  0  0  0  0  0  0  0  0  0  0
    6.1455    1.1103   -6.7845 C   0  0  0  0  0  0  0  0  0  0  0  0
    8.6609   -0.0613   -6.4994 C   0  0  0  0  0  0  0  0  0  0  0  0
    6.8991    0.7782   -7.9125 C   0  0  0  0  0  0  0  0  0  0  0  0
    8.1511    0.1988   -7.7616 C   0  0  0  0  0  0  0  0  0  0  0  0
    9.7028   -0.4934   -8.8239 H   0  0  0  0  0  0  0  0  0  0  0  0
    5.2321    0.0139   -3.4924 C   0  0  0  0  0  0  0  0  0  0  0  0
    4.4186   -1.1052   -4.2279 C   0  0  0  0  0  0  0  0  0  0  0  0
    3.6583   -1.8958   -3.1335 C   0  0  0  0  0  0  0  0  0  0  0  0
    5.3141   -2.1013   -4.9781 C   0  0  0  0  0  0  0  0  0  0  0  0
    3.3591   -0.5640   -5.2006 C   0  0  0  0  0  0  0  0  0  0  0  0
  4 10  1  0
  4 11  1  0
  1 12  1  0
  1  5  1  0
  1  2  1  0
  1  3  1  0
 13 12  1  0
 13 14  1  0
 13 15  1  0
 13 16  1  0
  5  6  2  0
  5  7  1  0
  6  8  1  0
  7  9  2  0
  8 10  2  0
  9 10  1  0
M  END
> <PUBCHEM_COMPOUND_CID>
8814

> <PUBCHEM_CONFORMER_RMSD>
0.6

> <PUBCHEM_CONFORMER_DIVERSEORDER>
1
5
4
3
2

> <PUBCHEM_MMFF94_PARTIAL_CHARGES>
13
1 -0.53
11 -0.15
12 -0.15
13 -0.15
14 -0.15
15 0.08
2 0.14
33 0.15
34 0.15
35 0.15
36 0.15
37 0.45
5 -0.14

> <PUBCHEM_EFFECTIVE_ROTOR_COUNT>
3

> <PUBCHEM_PHARMACOPHORE_FEATURES>
4
1 1 donor
3 2 6 7 hydrophobe
4 3 8 9 10 hydrophobe
6 5 11 12 13 14 15 rings

> <PUBCHEM_HEAVY_ATOM_COUNT>
15

> <PUBCHEM_ATOM_DEF_STEREO_COUNT>
0

> <PUBCHEM_ATOM_UDEF_STEREO_COUNT>
0

> <PUBCHEM_BOND_DEF_STEREO_COUNT>
0

> <PUBCHEM_BOND_UDEF_STEREO_COUNT>
0

> <PUBCHEM_ISOTOPIC_ATOM_COUNT>
0

> <PUBCHEM_COMPONENT_COUNT>
1

> <PUBCHEM_CACTVS_TAUTO_COUNT>
2

> <PUBCHEM_CONFORMER_ID>
0000226E00000001

> <PUBCHEM_MMFF94_ENERGY>
60.6732

> <PUBCHEM_FEATURE_SELFOVERLAP>
20.297

> <PUBCHEM_SHAPE_FINGERPRINT>
1 1 18122065299635933247
11471102 22 13984658170435925480
12138202 97 18272929444633088966
12251169 10 14923953348599690641
12423570 1 15084294979065354379
124424 183 18201999928641116818
12491281 212 18273493468196309381
12532896 13 18409735040726507851
13299463 15 16200422598337566991
13538477 17 17822291326855117498
13764800 53 18335714831507604569
13839132 238 18413110537123213324
14817 1 11689340854733718479
15375462 478 15647061443078261877
15775835 57 18339078194495494345
16945 1 17988065786023185643
18186145 218 18200036118541666588
18534176 82 18271243927656786518
19837323 101 18335708272823803859
20525323 117 18337111292773698462
20645476 183 17894351081266785547
21296965 12 18260545576729377063
21501502 16 18271800211963701222
21524375 3 18339638928324873163
21947302 44 18059017168310697110
22802520 49 18199766781279703998
23402539 116 18267296706830970519
23419403 2 17194099544908694927
23557571 272 18198918083120765556
23559900 14 18342742906418193234
25 1 17845383149850037993
2748010 2 18262817159083630983
276578 36 18189342281366350763
305870 269 18040992882718168402
430814 3 18041565736850213531
549884 4 17416683544816290937
6333449 129 18343582975122638285
6442390 28 18269297706777891659
7364860 26 17834677097914689979
81228 2 18191593162379223291

> <PUBCHEM_SHAPE_MULTIPOLES>
302.82
5.29
2.15
1.39
2.11
0.81
0.13
-3.45
0.34
-1.29
-0.24
-0.12
0.26
0.01

> <PUBCHEM_SHAPE_SELFOVERLAP>
615.427

> <PUBCHEM_SHAPE_VOLUME>
178.4

> <PUBCHEM_COORDINATE_TYPE>
2
5
10

> <Energy>
46.4329

> <minimizedAffinity>
-7.45144

> <CNNscore>
0.7868493199

> <CNNaffinity>
6.8946471214

> <CNN_VS>
5.4250483513

> <CNNaffinity_variance>
0.5111700892

$$$$
