2999413


 26 27  0  0  0  0  0  0  0  0999 V2000
   -8.4187   -3.4485   25.2486 O   0  0  0  0  0  0  0  0  0  0  0  0
   -4.6532   -4.5316   20.8067 O   0  0  0  0  0  0  0  0  0  0  0  0
   -5.2215   -2.4484   19.9867 O   0  0  0  0  0  0  0  0  0  0  0  0
   -2.4647   -4.4757   18.8380 O   0  0  0  0  0  0  0  0  0  0  0  0
    1.0557   -2.1918   21.1323 O   0  0  0  0  0  0  0  0  0  0  0  0
   -7.2588   -4.2296   24.9633 C   0  0  0  0  0  0  0  0  0  0  0  0
   -6.0149   -3.4226   25.3624 C   0  0  0  0  0  0  0  0  0  0  0  0
   -7.2999   -4.6671   23.4911 C   0  0  0  0  0  0  0  0  0  0  0  0
   -5.9130   -2.0453   24.6897 C   0  0  0  0  0  0  0  0  0  0  0  0
   -6.1473   -5.5969   23.1039 C   0  0  0  0  0  0  0  0  0  0  0  0
   -4.5459   -1.3874   24.9151 C   0  0  0  0  0  0  0  0  0  0  0  0
   -6.2469   -6.1078   21.6605 C   0  0  0  0  0  0  0  0  0  0  0  0
   -3.4448   -1.9380   23.9987 C   0  0  0  0  0  0  0  0  0  0  0  0
   -5.9905   -5.0218   20.6059 C   0  0  0  0  0  0  0  0  0  0  0  0
   -3.5215   -1.3674   22.5745 C   0  0  0  0  0  0  0  0  0  0  0  0
   -2.5647   -2.0642   21.6317 C   0  0  0  0  0  0  0  0  0  0  0  0
   -6.0956   -5.6088   19.2003 C   0  0  0  0  0  0  0  0  0  0  0  0
   -2.9858   -2.9729   20.6377 C   0  0  0  0  0  0  0  0  0  0  0  0
   -4.4157   -3.2564   20.4143 C   0  0  0  0  0  0  0  0  0  0  0  0
   -1.1859   -1.8221   21.7670 C   0  0  0  0  0  0  0  0  0  0  0  0
   -2.0445   -3.6107   19.8128 C   0  0  0  0  0  0  0  0  0  0  0  0
   -0.2665   -2.4694   20.9444 C   0  0  0  0  0  0  0  0  0  0  0  0
   -0.6815   -3.3657   19.9668 C   0  0  0  0  0  0  0  0  0  0  0  0
   -8.3996   -3.1685   26.1770 H   0  0  0  0  0  0  0  0  0  0  0  0
   -3.3790   -4.6473   18.7264 H   0  0  0  0  0  0  0  0  0  0  0  0
    1.3172   -1.5847   21.7964 H   0  0  0  0  0  0  0  0  0  0  0  0
  1  6  1  0
  1 24  1  0
  2 14  1  0
  2 19  1  0
  3 19  2  0
  4 21  1  0
  4 25  1  0
  5 22  1  0
  5 26  1  0
  6  7  1  0
  6  8  1  0
  7  9  1  0
  8 10  1  0
  9 11  1  0
 10 12  1  0
 11 13  1  0
 12 14  1  0
 13 15  1  0
 14 17  1  0
 15 16  1  0
 16 18  2  0
 16 20  1  0
 18 19  1  0
 18 21  1  0
 20 22  2  0
 21 23  2  0
 22 23  1  0
M  END
> <PUBCHEM_COMPOUND_CID>
2999413

> <PUBCHEM_CONFORMER_RMSD>
0.6

> <PUBCHEM_CONFORMER_DIVERSEORDER>
1
6
14
27
9
16
11
26
8
2
22
5
20
28
18
17
29
3
24
19
21
13
15
7
23
4
25
12
10

> <PUBCHEM_MMFF94_PARTIAL_CHARGES>
20
1 -0.68
14 0.28
15 0.14
16 -0.14
18 0.09
19 0.63
2 -0.43
20 -0.15
21 0.08
22 0.08
23 -0.15
3 -0.57
4 -0.53
45 0.4
46 0.15
47 0.15
48 0.45
49 0.45
5 -0.53
6 0.28

> <PUBCHEM_EFFECTIVE_ROTOR_COUNT>
2.2

> <PUBCHEM_PHARMACOPHORE_FEATURES>
6
1 1 acceptor
1 1 donor
1 3 acceptor
1 4 donor
1 5 donor
6 16 18 20 21 22 23 rings

> <PUBCHEM_HEAVY_ATOM_COUNT>
23

> <PUBCHEM_ATOM_DEF_STEREO_COUNT>
2

> <PUBCHEM_ATOM_UDEF_STEREO_COUNT>
0

> <PUBCHEM_BOND_DEF_STEREO_COUNT>
0

> <PUBCHEM_BOND_UDEF_STEREO_COUNT>
0

> <PUBCHEM_ISOTOPIC_ATOM_COUNT>
0

> <PUBCHEM_COMPONENT_COUNT>
1

> <PUBCHEM_CACTVS_TAUTO_COUNT>
25

> <PUBCHEM_CONFORMER_ID>
002DC47500000001

> <PUBCHEM_MMFF94_ENERGY>
51.6521

> <PUBCHEM_FEATURE_SELFOVERLAP>
30.446

> <PUBCHEM_SHAPE_FINGERPRINT>
104564 63 18340206271993051459
10498660 4 18187631549186102207
10577160 183 17606693423048979742
10616163 171 18266175029013727061
10759866 29 17750229218859711762
108634 29 18411143511243732574
1100329 8 17185877190433830119
11578080 2 17058915861662947194
116883 192 18412832382636582198
12011746 2 18335696144590423807
12054548 360 18337387261554875763
12156800 1 11695045847065978403
12553582 1 18337941355723699521
12788726 201 18339079272527017530
12954195 1 18196384628153038830
13402501 40 18410292523613913767
13533116 47 17911794988931237615
13941206 138 17823424798885047762
14178342 30 17618481208803059632
14251740 79 18268155262187636390
14251745 187 18265888240930317283
14251751 93 18337386020182837502
14251757 17 18340208496912958262
14251757 5 18336274478600052878
14289585 56 17025448677686211638
14363568 33 17831602116089395611
14790565 3 18338242566191680045
14931854 50 18192983829844991199
15081414 286 18267592488269592273
15210252 30 18041841838786063412
17093844 170 18338788043621724272
17357779 13 18338788026679147463
19591789 44 18410009931708134251
20775438 99 17121094438368206175
21141583 151 18411697703262438637
21634736 98 18410570674064001468
221357 26 18411697699342485711
221490 88 18411139126039522364
22393880 68 18190738627232927852
22907989 373 17973200346140242700
23379529 103 18202007594804787190
23419403 2 17703496796872386008
23559900 14 18341611543049219120
23566358 2 18411982468764321124
238 59 17976219553578124023
2871803 45 18335692832737868381
3014063 31 18410290320121227783
6287921 2 17544481216121896507

> <PUBCHEM_SHAPE_MULTIPOLES>
443.98
8.13
4.23
1.13
0.08
1.63
0.2
-3.4
-2.74
-1.52
0.36
0
0.19
0.73

> <PUBCHEM_SHAPE_SELFOVERLAP>
910.639

> <PUBCHEM_SHAPE_VOLUME>
254.2

> <PUBCHEM_COORDINATE_TYPE>
2
5
10

> <Energy>
43.3336

> <minimizedAffinity>
-4.17474

> <CNNscore>
0.4214316308

> <CNNaffinity>
6.1531467438

> <CNN_VS>
2.5931305885

> <CNNaffinity_variance>
0.0074973423

$$$$
2999413


 26 27  0  0  0  0  0  0  0  0999 V2000
   -8.4346   -4.7924   25.0245 O   0  0  0  0  0  0  0  0  0  0  0  0
   -3.5637   -2.1341   22.9533 O   0  0  0  0  0  0  0  0  0  0  0  0
   -2.4295   -4.0709   23.4988 O   0  0  0  0  0  0  0  0  0  0  0  0
   -1.1293   -1.3743   21.4819 O   0  0  0  0  0  0  0  0  0  0  0  0
   -1.7339   -3.3903   17.1874 O   0  0  0  0  0  0  0  0  0  0  0  0
   -8.0534   -3.7679   24.1070 C   0  0  0  0  0  0  0  0  0  0  0  0
   -7.8846   -4.3950   22.7156 C   0  0  0  0  0  0  0  0  0  0  0  0
   -6.8070   -3.0505   24.6476 C   0  0  0  0  0  0  0  0  0  0  0  0
   -6.8844   -5.5599   22.6650 C   0  0  0  0  0  0  0  0  0  0  0  0
   -6.3706   -1.8634   23.7855 C   0  0  0  0  0  0  0  0  0  0  0  0
   -6.5587   -5.9850   21.2277 C   0  0  0  0  0  0  0  0  0  0  0  0
   -5.1853   -1.0923   24.3811 C   0  0  0  0  0  0  0  0  0  0  0  0
   -5.5487   -5.0622   20.5321 C   0  0  0  0  0  0  0  0  0  0  0  0
   -3.8621   -1.8696   24.3353 C   0  0  0  0  0  0  0  0  0  0  0  0
   -4.1022   -5.3296   20.9743 C   0  0  0  0  0  0  0  0  0  0  0  0
   -3.1435   -4.2877   20.4402 C   0  0  0  0  0  0  0  0  0  0  0  0
   -2.7326   -1.0343   24.9334 C   0  0  0  0  0  0  0  0  0  0  0  0
   -2.5630   -3.2872   21.2482 C   0  0  0  0  0  0  0  0  0  0  0  0
   -2.8131   -3.2337   22.7006 C   0  0  0  0  0  0  0  0  0  0  0  0
   -2.8358   -4.2926   19.0678 C   0  0  0  0  0  0  0  0  0  0  0  0
   -1.7033   -2.3291   20.6857 C   0  0  0  0  0  0  0  0  0  0  0  0
   -1.9865   -3.3300   18.5264 C   0  0  0  0  0  0  0  0  0  0  0  0
   -1.4164   -2.3435   19.3222 C   0  0  0  0  0  0  0  0  0  0  0  0
   -9.2215   -5.2500   24.6896 H   0  0  0  0  0  0  0  0  0  0  0  0
   -1.3158   -1.3560   22.4000 H   0  0  0  0  0  0  0  0  0  0  0  0
   -2.1271   -4.0624   16.6663 H   0  0  0  0  0  0  0  0  0  0  0  0
  1  6  1  0
  1 24  1  0
  2 14  1  0
  2 19  1  0
  3 19  2  0
  4 21  1  0
  4 25  1  0
  5 22  1  0
  5 26  1  0
  6  7  1  0
  6  8  1  0
  7  9  1  0
  8 10  1  0
  9 11  1  0
 10 12  1  0
 11 13  1  0
 12 14  1  0
 13 15  1  0
 14 17  1  0
 15 16  1  0
 16 18  2  0
 16 20  1  0
 18 19  1  0
 18 21  1  0
 20 22  2  0
 21 23  2  0
 22 23  1  0
M  END
> <PUBCHEM_COMPOUND_CID>
2999413

> <PUBCHEM_CONFORMER_RMSD>
0.6

> <PUBCHEM_CONFORMER_DIVERSEORDER>
1
6
14
27
9
16
11
26
8
2
22
5
20
28
18
17
29
3
24
19
21
13
15
7
23
4
25
12
10

> <PUBCHEM_MMFF94_PARTIAL_CHARGES>
20
1 -0.68
14 0.28
15 0.14
16 -0.14
18 0.09
19 0.63
2 -0.43
20 -0.15
21 0.08
22 0.08
23 -0.15
3 -0.57
4 -0.53
45 0.4
46 0.15
47 0.15
48 0.45
49 0.45
5 -0.53
6 0.28

> <PUBCHEM_EFFECTIVE_ROTOR_COUNT>
2.2

> <PUBCHEM_PHARMACOPHORE_FEATURES>
6
1 1 acceptor
1 1 donor
1 3 acceptor
1 4 donor
1 5 donor
6 16 18 20 21 22 23 rings

> <PUBCHEM_HEAVY_ATOM_COUNT>
23

> <PUBCHEM_ATOM_DEF_STEREO_COUNT>
2

> <PUBCHEM_ATOM_UDEF_STEREO_COUNT>
0

> <PUBCHEM_BOND_DEF_STEREO_COUNT>
0

> <PUBCHEM_BOND_UDEF_STEREO_COUNT>
0

> <PUBCHEM_ISOTOPIC_ATOM_COUNT>
0

> <PUBCHEM_COMPONENT_COUNT>
1

> <PUBCHEM_CACTVS_TAUTO_COUNT>
25

> <PUBCHEM_CONFORMER_ID>
002DC47500000001

> <PUBCHEM_MMFF94_ENERGY>
51.6521

> <PUBCHEM_FEATURE_SELFOVERLAP>
30.446

> <PUBCHEM_SHAPE_FINGERPRINT>
104564 63 18340206271993051459
10498660 4 18187631549186102207
10577160 183 17606693423048979742
10616163 171 18266175029013727061
10759866 29 17750229218859711762
108634 29 18411143511243732574
1100329 8 17185877190433830119
11578080 2 17058915861662947194
116883 192 18412832382636582198
12011746 2 18335696144590423807
12054548 360 18337387261554875763
12156800 1 11695045847065978403
12553582 1 18337941355723699521
12788726 201 18339079272527017530
12954195 1 18196384628153038830
13402501 40 18410292523613913767
13533116 47 17911794988931237615
13941206 138 17823424798885047762
14178342 30 17618481208803059632
14251740 79 18268155262187636390
14251745 187 18265888240930317283
14251751 93 18337386020182837502
14251757 17 18340208496912958262
14251757 5 18336274478600052878
14289585 56 17025448677686211638
14363568 33 17831602116089395611
14790565 3 18338242566191680045
14931854 50 18192983829844991199
15081414 286 18267592488269592273
15210252 30 18041841838786063412
17093844 170 18338788043621724272
17357779 13 18338788026679147463
19591789 44 18410009931708134251
20775438 99 17121094438368206175
21141583 151 18411697703262438637
21634736 98 18410570674064001468
221357 26 18411697699342485711
221490 88 18411139126039522364
22393880 68 18190738627232927852
22907989 373 17973200346140242700
23379529 103 18202007594804787190
23419403 2 17703496796872386008
23559900 14 18341611543049219120
23566358 2 18411982468764321124
238 59 17976219553578124023
2871803 45 18335692832737868381
3014063 31 18410290320121227783
6287921 2 17544481216121896507

> <PUBCHEM_SHAPE_MULTIPOLES>
443.98
8.13
4.23
1.13
0.08
1.63
0.2
-3.4
-2.74
-1.52
0.36
0
0.19
0.73

> <PUBCHEM_SHAPE_SELFOVERLAP>
910.639

> <PUBCHEM_SHAPE_VOLUME>
254.2

> <PUBCHEM_COORDINATE_TYPE>
2
5
10

> <Energy>
43.3336

> <minimizedAffinity>
-1.38525

> <CNNscore>
0.4064868391

> <CNNaffinity>
6.2531466484

> <CNN_VS>
2.5418217182

> <CNNaffinity_variance>
0.0924305320

$$$$
2999413


 26 27  0  0  0  0  0  0  0  0999 V2000
   -7.7002   -2.3844   27.0498 O   0  0  0  0  0  0  0  0  0  0  0  0
   -6.7779   -4.3658   21.5448 O   0  0  0  0  0  0  0  0  0  0  0  0
   -7.1385   -2.1959   20.8403 O   0  0  0  0  0  0  0  0  0  0  0  0
   -5.7956   -4.8646   18.8145 O   0  0  0  0  0  0  0  0  0  0  0  0
   -1.1822   -3.6232   19.0332 O   0  0  0  0  0  0  0  0  0  0  0  0
   -7.0271   -3.4405   26.3656 C   0  0  0  0  0  0  0  0  0  0  0  0
   -5.5857   -2.9964   26.0771 C   0  0  0  0  0  0  0  0  0  0  0  0
   -7.8429   -3.8321   25.1239 C   0  0  0  0  0  0  0  0  0  0  0  0
   -5.4756   -1.6863   25.2825 C   0  0  0  0  0  0  0  0  0  0  0  0
   -7.2586   -5.0284   24.3687 C   0  0  0  0  0  0  0  0  0  0  0  0
   -4.0444   -1.4163   24.8014 C   0  0  0  0  0  0  0  0  0  0  0  0
   -8.1289   -5.4757   23.1869 C   0  0  0  0  0  0  0  0  0  0  0  0
   -3.6555   -2.2263   23.5572 C   0  0  0  0  0  0  0  0  0  0  0  0
   -8.1319   -4.4824   22.0162 C   0  0  0  0  0  0  0  0  0  0  0  0
   -4.2371   -1.6371   22.2632 C   0  0  0  0  0  0  0  0  0  0  0  0
   -4.0190   -2.5496   21.0759 C   0  0  0  0  0  0  0  0  0  0  0  0
   -9.0079   -5.0021   20.8788 C   0  0  0  0  0  0  0  0  0  0  0  0
   -5.0539   -3.3013   20.4803 C   0  0  0  0  0  0  0  0  0  0  0  0
   -6.4477   -3.1938   20.9501 C   0  0  0  0  0  0  0  0  0  0  0  0
   -2.7193   -2.6824   20.5552 C   0  0  0  0  0  0  0  0  0  0  0  0
   -4.7808   -4.1544   19.3982 C   0  0  0  0  0  0  0  0  0  0  0  0
   -2.4660   -3.5388   19.4859 C   0  0  0  0  0  0  0  0  0  0  0  0
   -3.4853   -4.2806   18.9008 C   0  0  0  0  0  0  0  0  0  0  0  0
   -7.1906   -2.1317   27.8355 H   0  0  0  0  0  0  0  0  0  0  0  0
   -6.6702   -4.7869   19.1415 H   0  0  0  0  0  0  0  0  0  0  0  0
   -0.5077   -3.1157   19.4399 H   0  0  0  0  0  0  0  0  0  0  0  0
  1  6  1  0
  1 24  1  0
  2 14  1  0
  2 19  1  0
  3 19  2  0
  4 21  1  0
  4 25  1  0
  5 22  1  0
  5 26  1  0
  6  7  1  0
  6  8  1  0
  7  9  1  0
  8 10  1  0
  9 11  1  0
 10 12  1  0
 11 13  1  0
 12 14  1  0
 13 15  1  0
 14 17  1  0
 15 16  1  0
 16 18  2  0
 16 20  1  0
 18 19  1  0
 18 21  1  0
 20 22  2  0
 21 23  2  0
 22 23  1  0
M  END
> <PUBCHEM_COMPOUND_CID>
2999413

> <PUBCHEM_CONFORMER_RMSD>
0.6

> <PUBCHEM_CONFORMER_DIVERSEORDER>
1
6
14
27
9
16
11
26
8
2
22
5
20
28
18
17
29
3
24
19
21
13
15
7
23
4
25
12
10

> <PUBCHEM_MMFF94_PARTIAL_CHARGES>
20
1 -0.68
14 0.28
15 0.14
16 -0.14
18 0.09
19 0.63
2 -0.43
20 -0.15
21 0.08
22 0.08
23 -0.15
3 -0.57
4 -0.53
45 0.4
46 0.15
47 0.15
48 0.45
49 0.45
5 -0.53
6 0.28

> <PUBCHEM_EFFECTIVE_ROTOR_COUNT>
2.2

> <PUBCHEM_PHARMACOPHORE_FEATURES>
6
1 1 acceptor
1 1 donor
1 3 acceptor
1 4 donor
1 5 donor
6 16 18 20 21 22 23 rings

> <PUBCHEM_HEAVY_ATOM_COUNT>
23

> <PUBCHEM_ATOM_DEF_STEREO_COUNT>
2

> <PUBCHEM_ATOM_UDEF_STEREO_COUNT>
0

> <PUBCHEM_BOND_DEF_STEREO_COUNT>
0

> <PUBCHEM_BOND_UDEF_STEREO_COUNT>
0

> <PUBCHEM_ISOTOPIC_ATOM_COUNT>
0

> <PUBCHEM_COMPONENT_COUNT>
1

> <PUBCHEM_CACTVS_TAUTO_COUNT>
25

> <PUBCHEM_CONFORMER_ID>
002DC47500000001

> <PUBCHEM_MMFF94_ENERGY>
51.6521

> <PUBCHEM_FEATURE_SELFOVERLAP>
30.446

> <PUBCHEM_SHAPE_FINGERPRINT>
104564 63 18340206271993051459
10498660 4 18187631549186102207
10577160 183 17606693423048979742
10616163 171 18266175029013727061
10759866 29 17750229218859711762
108634 29 18411143511243732574
1100329 8 17185877190433830119
11578080 2 17058915861662947194
116883 192 18412832382636582198
12011746 2 18335696144590423807
12054548 360 18337387261554875763
12156800 1 11695045847065978403
12553582 1 18337941355723699521
12788726 201 18339079272527017530
12954195 1 18196384628153038830
13402501 40 18410292523613913767
13533116 47 17911794988931237615
13941206 138 17823424798885047762
14178342 30 17618481208803059632
14251740 79 18268155262187636390
14251745 187 18265888240930317283
14251751 93 18337386020182837502
14251757 17 18340208496912958262
14251757 5 18336274478600052878
14289585 56 17025448677686211638
14363568 33 17831602116089395611
14790565 3 18338242566191680045
14931854 50 18192983829844991199
15081414 286 18267592488269592273
15210252 30 18041841838786063412
17093844 170 18338788043621724272
17357779 13 18338788026679147463
19591789 44 18410009931708134251
20775438 99 17121094438368206175
21141583 151 18411697703262438637
21634736 98 18410570674064001468
221357 26 18411697699342485711
221490 88 18411139126039522364
22393880 68 18190738627232927852
22907989 373 17973200346140242700
23379529 103 18202007594804787190
23419403 2 17703496796872386008
23559900 14 18341611543049219120
23566358 2 18411982468764321124
238 59 17976219553578124023
2871803 45 18335692832737868381
3014063 31 18410290320121227783
6287921 2 17544481216121896507

> <PUBCHEM_SHAPE_MULTIPOLES>
443.98
8.13
4.23
1.13
0.08
1.63
0.2
-3.4
-2.74
-1.52
0.36
0
0.19
0.73

> <PUBCHEM_SHAPE_SELFOVERLAP>
910.639

> <PUBCHEM_SHAPE_VOLUME>
254.2

> <PUBCHEM_COORDINATE_TYPE>
2
5
10

> <Energy>
43.3336

> <minimizedAffinity>
7.90584

> <CNNscore>
0.4011611342

> <CNNaffinity>
6.2543640137

> <CNN_VS>
2.5090076923

> <CNNaffinity_variance>
0.1661859006

$$$$
2999413


 26 27  0  0  0  0  0  0  0  0999 V2000
   -9.0770   -5.7321   20.9256 O   0  0  0  0  0  0  0  0  0  0  0  0
   -4.7254   -2.2890   22.9969 O   0  0  0  0  0  0  0  0  0  0  0  0
   -4.1134   -4.0788   24.3225 O   0  0  0  0  0  0  0  0  0  0  0  0
   -2.1462   -1.1020   23.7763 O   0  0  0  0  0  0  0  0  0  0  0  0
    0.9309   -2.9010   20.5876 O   0  0  0  0  0  0  0  0  0  0  0  0
   -8.2912   -4.6072   20.5334 C   0  0  0  0  0  0  0  0  0  0  0  0
   -7.0590   -5.1132   19.7695 C   0  0  0  0  0  0  0  0  0  0  0  0
   -7.9776   -3.7585   21.7752 C   0  0  0  0  0  0  0  0  0  0  0  0
   -6.2016   -6.1206   20.5503 C   0  0  0  0  0  0  0  0  0  0  0  0
   -7.2198   -2.4688   21.4510 C   0  0  0  0  0  0  0  0  0  0  0  0
   -4.8612   -6.4021   19.8598 C   0  0  0  0  0  0  0  0  0  0  0  0
   -6.9947   -1.5793   22.6807 C   0  0  0  0  0  0  0  0  0  0  0  0
   -3.8139   -5.3038   20.0889 C   0  0  0  0  0  0  0  0  0  0  0  0
   -5.9841   -2.1588   23.6808 C   0  0  0  0  0  0  0  0  0  0  0  0
   -3.1569   -5.3938   21.4745 C   0  0  0  0  0  0  0  0  0  0  0  0
   -2.2800   -4.1954   21.7657 C   0  0  0  0  0  0  0  0  0  0  0  0
   -5.8064   -1.2138   24.8668 C   0  0  0  0  0  0  0  0  0  0  0  0
   -2.6411   -3.1778   22.6740 C   0  0  0  0  0  0  0  0  0  0  0  0
   -3.8906   -3.2539   23.4536 C   0  0  0  0  0  0  0  0  0  0  0  0
   -1.0590   -4.0685   21.0793 C   0  0  0  0  0  0  0  0  0  0  0  0
   -1.7960   -2.0743   22.8780 C   0  0  0  0  0  0  0  0  0  0  0  0
   -0.2370   -2.9634   21.2894 C   0  0  0  0  0  0  0  0  0  0  0  0
   -0.5940   -1.9602   22.1826 C   0  0  0  0  0  0  0  0  0  0  0  0
   -9.2790   -6.2729   20.1461 H   0  0  0  0  0  0  0  0  0  0  0  0
   -2.9524   -1.1693   24.2490 H   0  0  0  0  0  0  0  0  0  0  0  0
    1.1552   -3.5865   19.9895 H   0  0  0  0  0  0  0  0  0  0  0  0
  1  6  1  0
  1 24  1  0
  2 14  1  0
  2 19  1  0
  3 19  2  0
  4 21  1  0
  4 25  1  0
  5 22  1  0
  5 26  1  0
  6  7  1  0
  6  8  1  0
  7  9  1  0
  8 10  1  0
  9 11  1  0
 10 12  1  0
 11 13  1  0
 12 14  1  0
 13 15  1  0
 14 17  1  0
 15 16  1  0
 16 18  2  0
 16 20  1  0
 18 19  1  0
 18 21  1  0
 20 22  2  0
 21 23  2  0
 22 23  1  0
M  END
> <PUBCHEM_COMPOUND_CID>
2999413

> <PUBCHEM_CONFORMER_RMSD>
0.6

> <PUBCHEM_CONFORMER_DIVERSEORDER>
1
6
14
27
9
16
11
26
8
2
22
5
20
28
18
17
29
3
24
19
21
13
15
7
23
4
25
12
10

> <PUBCHEM_MMFF94_PARTIAL_CHARGES>
20
1 -0.68
14 0.28
15 0.14
16 -0.14
18 0.09
19 0.63
2 -0.43
20 -0.15
21 0.08
22 0.08
23 -0.15
3 -0.57
4 -0.53
45 0.4
46 0.15
47 0.15
48 0.45
49 0.45
5 -0.53
6 0.28

> <PUBCHEM_EFFECTIVE_ROTOR_COUNT>
2.2

> <PUBCHEM_PHARMACOPHORE_FEATURES>
6
1 1 acceptor
1 1 donor
1 3 acceptor
1 4 donor
1 5 donor
6 16 18 20 21 22 23 rings

> <PUBCHEM_HEAVY_ATOM_COUNT>
23

> <PUBCHEM_ATOM_DEF_STEREO_COUNT>
2

> <PUBCHEM_ATOM_UDEF_STEREO_COUNT>
0

> <PUBCHEM_BOND_DEF_STEREO_COUNT>
0

> <PUBCHEM_BOND_UDEF_STEREO_COUNT>
0

> <PUBCHEM_ISOTOPIC_ATOM_COUNT>
0

> <PUBCHEM_COMPONENT_COUNT>
1

> <PUBCHEM_CACTVS_TAUTO_COUNT>
25

> <PUBCHEM_CONFORMER_ID>
002DC47500000001

> <PUBCHEM_MMFF94_ENERGY>
51.6521

> <PUBCHEM_FEATURE_SELFOVERLAP>
30.446

> <PUBCHEM_SHAPE_FINGERPRINT>
104564 63 18340206271993051459
10498660 4 18187631549186102207
10577160 183 17606693423048979742
10616163 171 18266175029013727061
10759866 29 17750229218859711762
108634 29 18411143511243732574
1100329 8 17185877190433830119
11578080 2 17058915861662947194
116883 192 18412832382636582198
12011746 2 18335696144590423807
12054548 360 18337387261554875763
12156800 1 11695045847065978403
12553582 1 18337941355723699521
12788726 201 18339079272527017530
12954195 1 18196384628153038830
13402501 40 18410292523613913767
13533116 47 17911794988931237615
13941206 138 17823424798885047762
14178342 30 17618481208803059632
14251740 79 18268155262187636390
14251745 187 18265888240930317283
14251751 93 18337386020182837502
14251757 17 18340208496912958262
14251757 5 18336274478600052878
14289585 56 17025448677686211638
14363568 33 17831602116089395611
14790565 3 18338242566191680045
14931854 50 18192983829844991199
15081414 286 18267592488269592273
15210252 30 18041841838786063412
17093844 170 18338788043621724272
17357779 13 18338788026679147463
19591789 44 18410009931708134251
20775438 99 17121094438368206175
21141583 151 18411697703262438637
21634736 98 18410570674064001468
221357 26 18411697699342485711
221490 88 18411139126039522364
22393880 68 18190738627232927852
22907989 373 17973200346140242700
23379529 103 18202007594804787190
23419403 2 17703496796872386008
23559900 14 18341611543049219120
23566358 2 18411982468764321124
238 59 17976219553578124023
2871803 45 18335692832737868381
3014063 31 18410290320121227783
6287921 2 17544481216121896507

> <PUBCHEM_SHAPE_MULTIPOLES>
443.98
8.13
4.23
1.13
0.08
1.63
0.2
-3.4
-2.74
-1.52
0.36
0
0.19
0.73

> <PUBCHEM_SHAPE_SELFOVERLAP>
910.639

> <PUBCHEM_SHAPE_VOLUME>
254.2

> <PUBCHEM_COORDINATE_TYPE>
2
5
10

> <Energy>
43.3336

> <minimizedAffinity>
-3.63851

> <CNNscore>
0.2535476089

> <CNNaffinity>
5.9868659973

> <CNN_VS>
1.5179555416

> <CNNaffinity_variance>
0.0250113625

$$$$
2999413


 26 27  0  0  0  0  0  0  0  0999 V2000
   -1.1041   -2.9235   19.2965 O   0  0  0  0  0  0  0  0  0  0  0  0
   -4.7234   -2.5974   23.9737 O   0  0  0  0  0  0  0  0  0  0  0  0
   -5.9761   -1.1005   22.7388 O   0  0  0  0  0  0  0  0  0  0  0  0
   -7.0107   -2.6577   25.8266 O   0  0  0  0  0  0  0  0  0  0  0  0
   -9.8774   -6.0046   23.9682 O   0  0  0  0  0  0  0  0  0  0  0  0
   -1.5051   -3.6986   20.4258 C   0  0  0  0  0  0  0  0  0  0  0  0
   -2.6829   -4.5930   20.0124 C   0  0  0  0  0  0  0  0  0  0  0  0
   -1.7932   -2.7548   21.6035 C   0  0  0  0  0  0  0  0  0  0  0  0
   -3.8828   -3.8290   19.4325 C   0  0  0  0  0  0  0  0  0  0  0  0
   -2.1369   -3.4925   22.8998 C   0  0  0  0  0  0  0  0  0  0  0  0
   -5.1191   -4.7227   19.2723 C   0  0  0  0  0  0  0  0  0  0  0  0
   -2.3283   -2.5494   24.0948 C   0  0  0  0  0  0  0  0  0  0  0  0
   -5.8779   -4.9564   20.5858 C   0  0  0  0  0  0  0  0  0  0  0  0
   -3.6022   -1.6969   24.0061 C   0  0  0  0  0  0  0  0  0  0  0  0
   -6.7540   -3.7588   20.9828 C   0  0  0  0  0  0  0  0  0  0  0  0
   -7.3353   -3.9164   22.3711 C   0  0  0  0  0  0  0  0  0  0  0  0
   -3.7271   -0.7965   25.2328 C   0  0  0  0  0  0  0  0  0  0  0  0
   -6.8826   -3.1785   23.4853 C   0  0  0  0  0  0  0  0  0  0  0  0
   -5.8380   -2.1465   23.3484 C   0  0  0  0  0  0  0  0  0  0  0  0
   -8.3551   -4.8635   22.5734 C   0  0  0  0  0  0  0  0  0  0  0  0
   -7.4432   -3.3930   24.7554 C   0  0  0  0  0  0  0  0  0  0  0  0
   -8.8943   -5.0676   23.8418 C   0  0  0  0  0  0  0  0  0  0  0  0
   -8.4468   -4.3419   24.9394 C   0  0  0  0  0  0  0  0  0  0  0  0
   -0.9204   -3.5131   18.5485 H   0  0  0  0  0  0  0  0  0  0  0  0
   -6.3363   -2.0171   25.7134 H   0  0  0  0  0  0  0  0  0  0  0  0
  -10.1665   -6.4844   23.2171 H   0  0  0  0  0  0  0  0  0  0  0  0
  1  6  1  0
  1 24  1  0
  2 14  1  0
  2 19  1  0
  3 19  2  0
  4 21  1  0
  4 25  1  0
  5 22  1  0
  5 26  1  0
  6  7  1  0
  6  8  1  0
  7  9  1  0
  8 10  1  0
  9 11  1  0
 10 12  1  0
 11 13  1  0
 12 14  1  0
 13 15  1  0
 14 17  1  0
 15 16  1  0
 16 18  2  0
 16 20  1  0
 18 19  1  0
 18 21  1  0
 20 22  2  0
 21 23  2  0
 22 23  1  0
M  END
> <PUBCHEM_COMPOUND_CID>
2999413

> <PUBCHEM_CONFORMER_RMSD>
0.6

> <PUBCHEM_CONFORMER_DIVERSEORDER>
1
6
14
27
9
16
11
26
8
2
22
5
20
28
18
17
29
3
24
19
21
13
15
7
23
4
25
12
10

> <PUBCHEM_MMFF94_PARTIAL_CHARGES>
20
1 -0.68
14 0.28
15 0.14
16 -0.14
18 0.09
19 0.63
2 -0.43
20 -0.15
21 0.08
22 0.08
23 -0.15
3 -0.57
4 -0.53
45 0.4
46 0.15
47 0.15
48 0.45
49 0.45
5 -0.53
6 0.28

> <PUBCHEM_EFFECTIVE_ROTOR_COUNT>
2.2

> <PUBCHEM_PHARMACOPHORE_FEATURES>
6
1 1 acceptor
1 1 donor
1 3 acceptor
1 4 donor
1 5 donor
6 16 18 20 21 22 23 rings

> <PUBCHEM_HEAVY_ATOM_COUNT>
23

> <PUBCHEM_ATOM_DEF_STEREO_COUNT>
2

> <PUBCHEM_ATOM_UDEF_STEREO_COUNT>
0

> <PUBCHEM_BOND_DEF_STEREO_COUNT>
0

> <PUBCHEM_BOND_UDEF_STEREO_COUNT>
0

> <PUBCHEM_ISOTOPIC_ATOM_COUNT>
0

> <PUBCHEM_COMPONENT_COUNT>
1

> <PUBCHEM_CACTVS_TAUTO_COUNT>
25

> <PUBCHEM_CONFORMER_ID>
002DC47500000001

> <PUBCHEM_MMFF94_ENERGY>
51.6521

> <PUBCHEM_FEATURE_SELFOVERLAP>
30.446

> <PUBCHEM_SHAPE_FINGERPRINT>
104564 63 18340206271993051459
10498660 4 18187631549186102207
10577160 183 17606693423048979742
10616163 171 18266175029013727061
10759866 29 17750229218859711762
108634 29 18411143511243732574
1100329 8 17185877190433830119
11578080 2 17058915861662947194
116883 192 18412832382636582198
12011746 2 18335696144590423807
12054548 360 18337387261554875763
12156800 1 11695045847065978403
12553582 1 18337941355723699521
12788726 201 18339079272527017530
12954195 1 18196384628153038830
13402501 40 18410292523613913767
13533116 47 17911794988931237615
13941206 138 17823424798885047762
14178342 30 17618481208803059632
14251740 79 18268155262187636390
14251745 187 18265888240930317283
14251751 93 18337386020182837502
14251757 17 18340208496912958262
14251757 5 18336274478600052878
14289585 56 17025448677686211638
14363568 33 17831602116089395611
14790565 3 18338242566191680045
14931854 50 18192983829844991199
15081414 286 18267592488269592273
15210252 30 18041841838786063412
17093844 170 18338788043621724272
17357779 13 18338788026679147463
19591789 44 18410009931708134251
20775438 99 17121094438368206175
21141583 151 18411697703262438637
21634736 98 18410570674064001468
221357 26 18411697699342485711
221490 88 18411139126039522364
22393880 68 18190738627232927852
22907989 373 17973200346140242700
23379529 103 18202007594804787190
23419403 2 17703496796872386008
23559900 14 18341611543049219120
23566358 2 18411982468764321124
238 59 17976219553578124023
2871803 45 18335692832737868381
3014063 31 18410290320121227783
6287921 2 17544481216121896507

> <PUBCHEM_SHAPE_MULTIPOLES>
443.98
8.13
4.23
1.13
0.08
1.63
0.2
-3.4
-2.74
-1.52
0.36
0
0.19
0.73

> <PUBCHEM_SHAPE_SELFOVERLAP>
910.639

> <PUBCHEM_SHAPE_VOLUME>
254.2

> <PUBCHEM_COORDINATE_TYPE>
2
5
10

> <Energy>
43.3336

> <minimizedAffinity>
-3.32444

> <CNNscore>
0.1972572058

> <CNNaffinity>
6.3585534096

> <CNN_VS>
1.2542704344

> <CNNaffinity_variance>
0.1208504215

$$$$
2999413


 26 27  0  0  0  0  0  0  0  0999 V2000
   -5.0650   -4.7797   18.4210 O   0  0  0  0  0  0  0  0  0  0  0  0
   -4.9286   -2.2074   23.7546 O   0  0  0  0  0  0  0  0  0  0  0  0
   -3.7785   -4.0731   24.4836 O   0  0  0  0  0  0  0  0  0  0  0  0
   -4.1538   -0.9883   26.3200 O   0  0  0  0  0  0  0  0  0  0  0  0
    0.1673    0.8581   25.4299 O   0  0  0  0  0  0  0  0  0  0  0  0
   -5.1176   -3.4814   19.0112 C   0  0  0  0  0  0  0  0  0  0  0  0
   -3.6905   -2.9194   19.0857 C   0  0  0  0  0  0  0  0  0  0  0  0
   -5.8463   -3.5744   20.3607 C   0  0  0  0  0  0  0  0  0  0  0  0
   -2.6983   -3.8139   19.8441 C   0  0  0  0  0  0  0  0  0  0  0  0
   -6.0463   -2.2150   21.0351 C   0  0  0  0  0  0  0  0  0  0  0  0
   -1.3643   -3.1058   20.1123 C   0  0  0  0  0  0  0  0  0  0  0  0
   -6.8588   -2.3027   22.3337 C   0  0  0  0  0  0  0  0  0  0  0  0
   -1.4183   -2.1295   21.2952 C   0  0  0  0  0  0  0  0  0  0  0  0
   -6.1063   -2.9875   23.4835 C   0  0  0  0  0  0  0  0  0  0  0  0
   -1.3507   -2.8433   22.6538 C   0  0  0  0  0  0  0  0  0  0  0  0
   -1.6074   -1.8962   23.8058 C   0  0  0  0  0  0  0  0  0  0  0  0
   -6.9735   -3.0256   24.7397 C   0  0  0  0  0  0  0  0  0  0  0  0
   -2.8058   -1.8945   24.5507 C   0  0  0  0  0  0  0  0  0  0  0  0
   -3.8751   -2.8747   24.2850 C   0  0  0  0  0  0  0  0  0  0  0  0
   -0.6206   -0.9499   24.1358 C   0  0  0  0  0  0  0  0  0  0  0  0
   -2.9954   -0.9688   25.5902 C   0  0  0  0  0  0  0  0  0  0  0  0
   -0.8292   -0.0349   25.1655 C   0  0  0  0  0  0  0  0  0  0  0  0
   -2.0105   -0.0323   25.8976 C   0  0  0  0  0  0  0  0  0  0  0  0
   -4.6060   -4.7288   17.5680 H   0  0  0  0  0  0  0  0  0  0  0  0
   -4.8223   -1.6140   26.1212 H   0  0  0  0  0  0  0  0  0  0  0  0
    0.9570    0.8416   24.9259 H   0  0  0  0  0  0  0  0  0  0  0  0
  1  6  1  0
  1 24  1  0
  2 14  1  0
  2 19  1  0
  3 19  2  0
  4 21  1  0
  4 25  1  0
  5 22  1  0
  5 26  1  0
  6  7  1  0
  6  8  1  0
  7  9  1  0
  8 10  1  0
  9 11  1  0
 10 12  1  0
 11 13  1  0
 12 14  1  0
 13 15  1  0
 14 17  1  0
 15 16  1  0
 16 18  2  0
 16 20  1  0
 18 19  1  0
 18 21  1  0
 20 22  2  0
 21 23  2  0
 22 23  1  0
M  END
> <PUBCHEM_COMPOUND_CID>
2999413

> <PUBCHEM_CONFORMER_RMSD>
0.6

> <PUBCHEM_CONFORMER_DIVERSEORDER>
1
6
14
27
9
16
11
26
8
2
22
5
20
28
18
17
29
3
24
19
21
13
15
7
23
4
25
12
10

> <PUBCHEM_MMFF94_PARTIAL_CHARGES>
20
1 -0.68
14 0.28
15 0.14
16 -0.14
18 0.09
19 0.63
2 -0.43
20 -0.15
21 0.08
22 0.08
23 -0.15
3 -0.57
4 -0.53
45 0.4
46 0.15
47 0.15
48 0.45
49 0.45
5 -0.53
6 0.28

> <PUBCHEM_EFFECTIVE_ROTOR_COUNT>
2.2

> <PUBCHEM_PHARMACOPHORE_FEATURES>
6
1 1 acceptor
1 1 donor
1 3 acceptor
1 4 donor
1 5 donor
6 16 18 20 21 22 23 rings

> <PUBCHEM_HEAVY_ATOM_COUNT>
23

> <PUBCHEM_ATOM_DEF_STEREO_COUNT>
2

> <PUBCHEM_ATOM_UDEF_STEREO_COUNT>
0

> <PUBCHEM_BOND_DEF_STEREO_COUNT>
0

> <PUBCHEM_BOND_UDEF_STEREO_COUNT>
0

> <PUBCHEM_ISOTOPIC_ATOM_COUNT>
0

> <PUBCHEM_COMPONENT_COUNT>
1

> <PUBCHEM_CACTVS_TAUTO_COUNT>
25

> <PUBCHEM_CONFORMER_ID>
002DC47500000001

> <PUBCHEM_MMFF94_ENERGY>
51.6521

> <PUBCHEM_FEATURE_SELFOVERLAP>
30.446

> <PUBCHEM_SHAPE_FINGERPRINT>
104564 63 18340206271993051459
10498660 4 18187631549186102207
10577160 183 17606693423048979742
10616163 171 18266175029013727061
10759866 29 17750229218859711762
108634 29 18411143511243732574
1100329 8 17185877190433830119
11578080 2 17058915861662947194
116883 192 18412832382636582198
12011746 2 18335696144590423807
12054548 360 18337387261554875763
12156800 1 11695045847065978403
12553582 1 18337941355723699521
12788726 201 18339079272527017530
12954195 1 18196384628153038830
13402501 40 18410292523613913767
13533116 47 17911794988931237615
13941206 138 17823424798885047762
14178342 30 17618481208803059632
14251740 79 18268155262187636390
14251745 187 18265888240930317283
14251751 93 18337386020182837502
14251757 17 18340208496912958262
14251757 5 18336274478600052878
14289585 56 17025448677686211638
14363568 33 17831602116089395611
14790565 3 18338242566191680045
14931854 50 18192983829844991199
15081414 286 18267592488269592273
15210252 30 18041841838786063412
17093844 170 18338788043621724272
17357779 13 18338788026679147463
19591789 44 18410009931708134251
20775438 99 17121094438368206175
21141583 151 18411697703262438637
21634736 98 18410570674064001468
221357 26 18411697699342485711
221490 88 18411139126039522364
22393880 68 18190738627232927852
22907989 373 17973200346140242700
23379529 103 18202007594804787190
23419403 2 17703496796872386008
23559900 14 18341611543049219120
23566358 2 18411982468764321124
238 59 17976219553578124023
2871803 45 18335692832737868381
3014063 31 18410290320121227783
6287921 2 17544481216121896507

> <PUBCHEM_SHAPE_MULTIPOLES>
443.98
8.13
4.23
1.13
0.08
1.63
0.2
-3.4
-2.74
-1.52
0.36
0
0.19
0.73

> <PUBCHEM_SHAPE_SELFOVERLAP>
910.639

> <PUBCHEM_SHAPE_VOLUME>
254.2

> <PUBCHEM_COORDINATE_TYPE>
2
5
10

> <Energy>
43.3336

> <minimizedAffinity>
23.07949

> <CNNscore>
0.1423780173

> <CNNaffinity>
4.9151740074

> <CNN_VS>
0.6998127103

> <CNNaffinity_variance>
0.9885869026

$$$$
2999413


 26 27  0  0  0  0  0  0  0  0999 V2000
   -7.3405   -1.4453   25.7532 O   0  0  0  0  0  0  0  0  0  0  0  0
   -3.0473   -3.7026   22.3539 O   0  0  0  0  0  0  0  0  0  0  0  0
   -4.6604   -5.0951   21.4630 O   0  0  0  0  0  0  0  0  0  0  0  0
   -1.3401   -4.6091   20.1330 O   0  0  0  0  0  0  0  0  0  0  0  0
   -2.4719   -1.6403   16.5583 O   0  0  0  0  0  0  0  0  0  0  0  0
   -6.0780   -1.0787   25.1978 C   0  0  0  0  0  0  0  0  0  0  0  0
   -6.3185   -0.3979   23.8427 C   0  0  0  0  0  0  0  0  0  0  0  0
   -5.1748   -2.3205   25.1454 C   0  0  0  0  0  0  0  0  0  0  0  0
   -7.1185   -1.2464   22.8427 C   0  0  0  0  0  0  0  0  0  0  0  0
   -3.7566   -2.0170   24.6561 C   0  0  0  0  0  0  0  0  0  0  0  0
   -7.1162   -0.6409   21.4334 C   0  0  0  0  0  0  0  0  0  0  0  0
   -2.8322   -3.2408   24.6978 C   0  0  0  0  0  0  0  0  0  0  0  0
   -5.8210   -0.9101   20.6553 C   0  0  0  0  0  0  0  0  0  0  0  0
   -3.1803   -4.3090   23.6514 C   0  0  0  0  0  0  0  0  0  0  0  0
   -5.7625   -2.3333   20.0800 C   0  0  0  0  0  0  0  0  0  0  0  0
   -4.4049   -2.6527   19.4929 C   0  0  0  0  0  0  0  0  0  0  0  0
   -2.2118   -5.4854   23.7484 C   0  0  0  0  0  0  0  0  0  0  0  0
   -3.4802   -3.5189   20.1140 C   0  0  0  0  0  0  0  0  0  0  0  0
   -3.8124   -4.2254   21.3651 C   0  0  0  0  0  0  0  0  0  0  0  0
   -4.0284   -2.0366   18.2860 C   0  0  0  0  0  0  0  0  0  0  0  0
   -2.2227   -3.7513   19.5328 C   0  0  0  0  0  0  0  0  0  0  0  0
   -2.7740   -2.2736   17.7280 C   0  0  0  0  0  0  0  0  0  0  0  0
   -1.8628   -3.1254   18.3410 C   0  0  0  0  0  0  0  0  0  0  0  0
   -7.9164   -0.6657   25.7895 H   0  0  0  0  0  0  0  0  0  0  0  0
   -1.5724   -5.0349   20.9346 H   0  0  0  0  0  0  0  0  0  0  0  0
   -3.0986   -1.0694   16.1593 H   0  0  0  0  0  0  0  0  0  0  0  0
  1  6  1  0
  1 24  1  0
  2 14  1  0
  2 19  1  0
  3 19  2  0
  4 21  1  0
  4 25  1  0
  5 22  1  0
  5 26  1  0
  6  7  1  0
  6  8  1  0
  7  9  1  0
  8 10  1  0
  9 11  1  0
 10 12  1  0
 11 13  1  0
 12 14  1  0
 13 15  1  0
 14 17  1  0
 15 16  1  0
 16 18  2  0
 16 20  1  0
 18 19  1  0
 18 21  1  0
 20 22  2  0
 21 23  2  0
 22 23  1  0
M  END
> <PUBCHEM_COMPOUND_CID>
2999413

> <PUBCHEM_CONFORMER_RMSD>
0.6

> <PUBCHEM_CONFORMER_DIVERSEORDER>
1
6
14
27
9
16
11
26
8
2
22
5
20
28
18
17
29
3
24
19
21
13
15
7
23
4
25
12
10

> <PUBCHEM_MMFF94_PARTIAL_CHARGES>
20
1 -0.68
14 0.28
15 0.14
16 -0.14
18 0.09
19 0.63
2 -0.43
20 -0.15
21 0.08
22 0.08
23 -0.15
3 -0.57
4 -0.53
45 0.4
46 0.15
47 0.15
48 0.45
49 0.45
5 -0.53
6 0.28

> <PUBCHEM_EFFECTIVE_ROTOR_COUNT>
2.2

> <PUBCHEM_PHARMACOPHORE_FEATURES>
6
1 1 acceptor
1 1 donor
1 3 acceptor
1 4 donor
1 5 donor
6 16 18 20 21 22 23 rings

> <PUBCHEM_HEAVY_ATOM_COUNT>
23

> <PUBCHEM_ATOM_DEF_STEREO_COUNT>
2

> <PUBCHEM_ATOM_UDEF_STEREO_COUNT>
0

> <PUBCHEM_BOND_DEF_STEREO_COUNT>
0

> <PUBCHEM_BOND_UDEF_STEREO_COUNT>
0

> <PUBCHEM_ISOTOPIC_ATOM_COUNT>
0

> <PUBCHEM_COMPONENT_COUNT>
1

> <PUBCHEM_CACTVS_TAUTO_COUNT>
25

> <PUBCHEM_CONFORMER_ID>
002DC47500000001

> <PUBCHEM_MMFF94_ENERGY>
51.6521

> <PUBCHEM_FEATURE_SELFOVERLAP>
30.446

> <PUBCHEM_SHAPE_FINGERPRINT>
104564 63 18340206271993051459
10498660 4 18187631549186102207
10577160 183 17606693423048979742
10616163 171 18266175029013727061
10759866 29 17750229218859711762
108634 29 18411143511243732574
1100329 8 17185877190433830119
11578080 2 17058915861662947194
116883 192 18412832382636582198
12011746 2 18335696144590423807
12054548 360 18337387261554875763
12156800 1 11695045847065978403
12553582 1 18337941355723699521
12788726 201 18339079272527017530
12954195 1 18196384628153038830
13402501 40 18410292523613913767
13533116 47 17911794988931237615
13941206 138 17823424798885047762
14178342 30 17618481208803059632
14251740 79 18268155262187636390
14251745 187 18265888240930317283
14251751 93 18337386020182837502
14251757 17 18340208496912958262
14251757 5 18336274478600052878
14289585 56 17025448677686211638
14363568 33 17831602116089395611
14790565 3 18338242566191680045
14931854 50 18192983829844991199
15081414 286 18267592488269592273
15210252 30 18041841838786063412
17093844 170 18338788043621724272
17357779 13 18338788026679147463
19591789 44 18410009931708134251
20775438 99 17121094438368206175
21141583 151 18411697703262438637
21634736 98 18410570674064001468
221357 26 18411697699342485711
221490 88 18411139126039522364
22393880 68 18190738627232927852
22907989 373 17973200346140242700
23379529 103 18202007594804787190
23419403 2 17703496796872386008
23559900 14 18341611543049219120
23566358 2 18411982468764321124
238 59 17976219553578124023
2871803 45 18335692832737868381
3014063 31 18410290320121227783
6287921 2 17544481216121896507

> <PUBCHEM_SHAPE_MULTIPOLES>
443.98
8.13
4.23
1.13
0.08
1.63
0.2
-3.4
-2.74
-1.52
0.36
0
0.19
0.73

> <PUBCHEM_SHAPE_SELFOVERLAP>
910.639

> <PUBCHEM_SHAPE_VOLUME>
254.2

> <PUBCHEM_COORDINATE_TYPE>
2
5
10

> <Energy>
43.3336

> <minimizedAffinity>
13.14440

> <CNNscore>
0.1282237321

> <CNNaffinity>
4.9994902611

> <CNN_VS>
0.6410533190

> <CNNaffinity_variance>
0.1048630700

$$$$
2999413


 26 27  0  0  0  0  0  0  0  0999 V2000
    0.4633   -1.5245   20.7203 O   0  0  0  0  0  0  0  0  0  0  0  0
   -4.7082   -2.7273   23.3453 O   0  0  0  0  0  0  0  0  0  0  0  0
   -5.5952   -0.9917   22.1059 O   0  0  0  0  0  0  0  0  0  0  0  0
   -7.4988   -3.4218   23.9769 O   0  0  0  0  0  0  0  0  0  0  0  0
   -8.8221   -6.2050   20.3197 O   0  0  0  0  0  0  0  0  0  0  0  0
   -0.2203   -2.6106   21.3446 C   0  0  0  0  0  0  0  0  0  0  0  0
   -0.9793   -3.3964   20.2654 C   0  0  0  0  0  0  0  0  0  0  0  0
   -1.0970   -2.0630   22.4813 C   0  0  0  0  0  0  0  0  0  0  0  0
   -1.9591   -2.5494   19.4392 C   0  0  0  0  0  0  0  0  0  0  0  0
   -1.8007   -3.1595   23.2846 C   0  0  0  0  0  0  0  0  0  0  0  0
   -2.8710   -3.4105   18.5563 C   0  0  0  0  0  0  0  0  0  0  0  0
   -2.5965   -2.6133   24.4772 C   0  0  0  0  0  0  0  0  0  0  0  0
   -4.0379   -4.0481   19.3225 C   0  0  0  0  0  0  0  0  0  0  0  0
   -3.8511   -1.8276   24.0698 C   0  0  0  0  0  0  0  0  0  0  0  0
   -5.1796   -3.0564   19.5920 C   0  0  0  0  0  0  0  0  0  0  0  0
   -6.2277   -3.6354   20.5174 C   0  0  0  0  0  0  0  0  0  0  0  0
   -4.5925   -1.3285   25.3077 C   0  0  0  0  0  0  0  0  0  0  0  0
   -6.3760   -3.2341   21.8620 C   0  0  0  0  0  0  0  0  0  0  0  0
   -5.5426   -2.1628   22.4388 C   0  0  0  0  0  0  0  0  0  0  0  0
   -7.0781   -4.6435   20.0290 C   0  0  0  0  0  0  0  0  0  0  0  0
   -7.3495   -3.8322   22.6791 C   0  0  0  0  0  0  0  0  0  0  0  0
   -8.0333   -5.2302   20.8563 C   0  0  0  0  0  0  0  0  0  0  0  0
   -8.1778   -4.8360   22.1812 C   0  0  0  0  0  0  0  0  0  0  0  0
    1.0192   -1.8629   20.0011 H   0  0  0  0  0  0  0  0  0  0  0  0
   -6.9468   -2.7475   24.3214 H   0  0  0  0  0  0  0  0  0  0  0  0
   -8.7105   -6.4580   19.4245 H   0  0  0  0  0  0  0  0  0  0  0  0
  1  6  1  0
  1 24  1  0
  2 14  1  0
  2 19  1  0
  3 19  2  0
  4 21  1  0
  4 25  1  0
  5 22  1  0
  5 26  1  0
  6  7  1  0
  6  8  1  0
  7  9  1  0
  8 10  1  0
  9 11  1  0
 10 12  1  0
 11 13  1  0
 12 14  1  0
 13 15  1  0
 14 17  1  0
 15 16  1  0
 16 18  2  0
 16 20  1  0
 18 19  1  0
 18 21  1  0
 20 22  2  0
 21 23  2  0
 22 23  1  0
M  END
> <PUBCHEM_COMPOUND_CID>
2999413

> <PUBCHEM_CONFORMER_RMSD>
0.6

> <PUBCHEM_CONFORMER_DIVERSEORDER>
1
6
14
27
9
16
11
26
8
2
22
5
20
28
18
17
29
3
24
19
21
13
15
7
23
4
25
12
10

> <PUBCHEM_MMFF94_PARTIAL_CHARGES>
20
1 -0.68
14 0.28
15 0.14
16 -0.14
18 0.09
19 0.63
2 -0.43
20 -0.15
21 0.08
22 0.08
23 -0.15
3 -0.57
4 -0.53
45 0.4
46 0.15
47 0.15
48 0.45
49 0.45
5 -0.53
6 0.28

> <PUBCHEM_EFFECTIVE_ROTOR_COUNT>
2.2

> <PUBCHEM_PHARMACOPHORE_FEATURES>
6
1 1 acceptor
1 1 donor
1 3 acceptor
1 4 donor
1 5 donor
6 16 18 20 21 22 23 rings

> <PUBCHEM_HEAVY_ATOM_COUNT>
23

> <PUBCHEM_ATOM_DEF_STEREO_COUNT>
2

> <PUBCHEM_ATOM_UDEF_STEREO_COUNT>
0

> <PUBCHEM_BOND_DEF_STEREO_COUNT>
0

> <PUBCHEM_BOND_UDEF_STEREO_COUNT>
0

> <PUBCHEM_ISOTOPIC_ATOM_COUNT>
0

> <PUBCHEM_COMPONENT_COUNT>
1

> <PUBCHEM_CACTVS_TAUTO_COUNT>
25

> <PUBCHEM_CONFORMER_ID>
002DC47500000001

> <PUBCHEM_MMFF94_ENERGY>
51.6521

> <PUBCHEM_FEATURE_SELFOVERLAP>
30.446

> <PUBCHEM_SHAPE_FINGERPRINT>
104564 63 18340206271993051459
10498660 4 18187631549186102207
10577160 183 17606693423048979742
10616163 171 18266175029013727061
10759866 29 17750229218859711762
108634 29 18411143511243732574
1100329 8 17185877190433830119
11578080 2 17058915861662947194
116883 192 18412832382636582198
12011746 2 18335696144590423807
12054548 360 18337387261554875763
12156800 1 11695045847065978403
12553582 1 18337941355723699521
12788726 201 18339079272527017530
12954195 1 18196384628153038830
13402501 40 18410292523613913767
13533116 47 17911794988931237615
13941206 138 17823424798885047762
14178342 30 17618481208803059632
14251740 79 18268155262187636390
14251745 187 18265888240930317283
14251751 93 18337386020182837502
14251757 17 18340208496912958262
14251757 5 18336274478600052878
14289585 56 17025448677686211638
14363568 33 17831602116089395611
14790565 3 18338242566191680045
14931854 50 18192983829844991199
15081414 286 18267592488269592273
15210252 30 18041841838786063412
17093844 170 18338788043621724272
17357779 13 18338788026679147463
19591789 44 18410009931708134251
20775438 99 17121094438368206175
21141583 151 18411697703262438637
21634736 98 18410570674064001468
221357 26 18411697699342485711
221490 88 18411139126039522364
22393880 68 18190738627232927852
22907989 373 17973200346140242700
23379529 103 18202007594804787190
23419403 2 17703496796872386008
23559900 14 18341611543049219120
23566358 2 18411982468764321124
238 59 17976219553578124023
2871803 45 18335692832737868381
3014063 31 18410290320121227783
6287921 2 17544481216121896507

> <PUBCHEM_SHAPE_MULTIPOLES>
443.98
8.13
4.23
1.13
0.08
1.63
0.2
-3.4
-2.74
-1.52
0.36
0
0.19
0.73

> <PUBCHEM_SHAPE_SELFOVERLAP>
910.639

> <PUBCHEM_SHAPE_VOLUME>
254.2

> <PUBCHEM_COORDINATE_TYPE>
2
5
10

> <Energy>
43.3336

> <minimizedAffinity>
-4.84115

> <CNNscore>
0.1267154962

> <CNNaffinity>
5.3015060425

> <CNN_VS>
0.6717829704

> <CNNaffinity_variance>
0.2223890871

$$$$
2999413


 26 27  0  0  0  0  0  0  0  0999 V2000
    0.0873   -2.5839   20.4232 O   0  0  0  0  0  0  0  0  0  0  0  0
   -5.3792   -4.7758   21.0519 O   0  0  0  0  0  0  0  0  0  0  0  0
   -4.4708   -6.2623   22.5685 O   0  0  0  0  0  0  0  0  0  0  0  0
   -7.9959   -5.6854   22.0488 O   0  0  0  0  0  0  0  0  0  0  0  0
   -8.7896   -2.8868   25.8450 O   0  0  0  0  0  0  0  0  0  0  0  0
   -1.2751   -2.1846   20.2772 C   0  0  0  0  0  0  0  0  0  0  0  0
   -1.7463   -1.5599   21.5985 C   0  0  0  0  0  0  0  0  0  0  0  0
   -2.1014   -3.3895   19.8016 C   0  0  0  0  0  0  0  0  0  0  0  0
   -1.5831   -2.4735   22.8226 C   0  0  0  0  0  0  0  0  0  0  0  0
   -3.5652   -3.0446   19.5167 C   0  0  0  0  0  0  0  0  0  0  0  0
   -2.2921   -1.9160   24.0633 C   0  0  0  0  0  0  0  0  0  0  0  0
   -4.3615   -4.2274   18.9503 C   0  0  0  0  0  0  0  0  0  0  0  0
   -3.8076   -2.1578   24.0607 C   0  0  0  0  0  0  0  0  0  0  0  0
   -4.6147   -5.3434   19.9738 C   0  0  0  0  0  0  0  0  0  0  0  0
   -4.1770   -3.5958   24.4549 C   0  0  0  0  0  0  0  0  0  0  0  0
   -5.6499   -3.8788   24.2539 C   0  0  0  0  0  0  0  0  0  0  0  0
   -5.4199   -6.4752   19.3398 C   0  0  0  0  0  0  0  0  0  0  0  0
   -6.1447   -4.6851   23.2070 C   0  0  0  0  0  0  0  0  0  0  0  0
   -5.2343   -5.3624   22.2649 C   0  0  0  0  0  0  0  0  0  0  0  0
   -6.5775   -3.2885   25.1309 C   0  0  0  0  0  0  0  0  0  0  0  0
   -7.5269   -4.8851   23.0560 C   0  0  0  0  0  0  0  0  0  0  0  0
   -7.9453   -3.4924   24.9613 C   0  0  0  0  0  0  0  0  0  0  0  0
   -8.4323   -4.2851   23.9289 C   0  0  0  0  0  0  0  0  0  0  0  0
    0.6154   -1.8278   20.7234 H   0  0  0  0  0  0  0  0  0  0  0  0
   -7.3954   -6.0933   21.4565 H   0  0  0  0  0  0  0  0  0  0  0  0
   -8.4434   -2.3558   26.5350 H   0  0  0  0  0  0  0  0  0  0  0  0
  1  6  1  0
  1 24  1  0
  2 14  1  0
  2 19  1  0
  3 19  2  0
  4 21  1  0
  4 25  1  0
  5 22  1  0
  5 26  1  0
  6  7  1  0
  6  8  1  0
  7  9  1  0
  8 10  1  0
  9 11  1  0
 10 12  1  0
 11 13  1  0
 12 14  1  0
 13 15  1  0
 14 17  1  0
 15 16  1  0
 16 18  2  0
 16 20  1  0
 18 19  1  0
 18 21  1  0
 20 22  2  0
 21 23  2  0
 22 23  1  0
M  END
> <PUBCHEM_COMPOUND_CID>
2999413

> <PUBCHEM_CONFORMER_RMSD>
0.6

> <PUBCHEM_CONFORMER_DIVERSEORDER>
1
6
14
27
9
16
11
26
8
2
22
5
20
28
18
17
29
3
24
19
21
13
15
7
23
4
25
12
10

> <PUBCHEM_MMFF94_PARTIAL_CHARGES>
20
1 -0.68
14 0.28
15 0.14
16 -0.14
18 0.09
19 0.63
2 -0.43
20 -0.15
21 0.08
22 0.08
23 -0.15
3 -0.57
4 -0.53
45 0.4
46 0.15
47 0.15
48 0.45
49 0.45
5 -0.53
6 0.28

> <PUBCHEM_EFFECTIVE_ROTOR_COUNT>
2.2

> <PUBCHEM_PHARMACOPHORE_FEATURES>
6
1 1 acceptor
1 1 donor
1 3 acceptor
1 4 donor
1 5 donor
6 16 18 20 21 22 23 rings

> <PUBCHEM_HEAVY_ATOM_COUNT>
23

> <PUBCHEM_ATOM_DEF_STEREO_COUNT>
2

> <PUBCHEM_ATOM_UDEF_STEREO_COUNT>
0

> <PUBCHEM_BOND_DEF_STEREO_COUNT>
0

> <PUBCHEM_BOND_UDEF_STEREO_COUNT>
0

> <PUBCHEM_ISOTOPIC_ATOM_COUNT>
0

> <PUBCHEM_COMPONENT_COUNT>
1

> <PUBCHEM_CACTVS_TAUTO_COUNT>
25

> <PUBCHEM_CONFORMER_ID>
002DC47500000001

> <PUBCHEM_MMFF94_ENERGY>
51.6521

> <PUBCHEM_FEATURE_SELFOVERLAP>
30.446

> <PUBCHEM_SHAPE_FINGERPRINT>
104564 63 18340206271993051459
10498660 4 18187631549186102207
10577160 183 17606693423048979742
10616163 171 18266175029013727061
10759866 29 17750229218859711762
108634 29 18411143511243732574
1100329 8 17185877190433830119
11578080 2 17058915861662947194
116883 192 18412832382636582198
12011746 2 18335696144590423807
12054548 360 18337387261554875763
12156800 1 11695045847065978403
12553582 1 18337941355723699521
12788726 201 18339079272527017530
12954195 1 18196384628153038830
13402501 40 18410292523613913767
13533116 47 17911794988931237615
13941206 138 17823424798885047762
14178342 30 17618481208803059632
14251740 79 18268155262187636390
14251745 187 18265888240930317283
14251751 93 18337386020182837502
14251757 17 18340208496912958262
14251757 5 18336274478600052878
14289585 56 17025448677686211638
14363568 33 17831602116089395611
14790565 3 18338242566191680045
14931854 50 18192983829844991199
15081414 286 18267592488269592273
15210252 30 18041841838786063412
17093844 170 18338788043621724272
17357779 13 18338788026679147463
19591789 44 18410009931708134251
20775438 99 17121094438368206175
21141583 151 18411697703262438637
21634736 98 18410570674064001468
221357 26 18411697699342485711
221490 88 18411139126039522364
22393880 68 18190738627232927852
22907989 373 17973200346140242700
23379529 103 18202007594804787190
23419403 2 17703496796872386008
23559900 14 18341611543049219120
23566358 2 18411982468764321124
238 59 17976219553578124023
2871803 45 18335692832737868381
3014063 31 18410290320121227783
6287921 2 17544481216121896507

> <PUBCHEM_SHAPE_MULTIPOLES>
443.98
8.13
4.23
1.13
0.08
1.63
0.2
-3.4
-2.74
-1.52
0.36
0
0.19
0.73

> <PUBCHEM_SHAPE_SELFOVERLAP>
910.639

> <PUBCHEM_SHAPE_VOLUME>
254.2

> <PUBCHEM_COORDINATE_TYPE>
2
5
10

> <Energy>
43.3336

> <minimizedAffinity>
-1.80553

> <CNNscore>
0.1240693182

> <CNNaffinity>
5.6015601158

> <CNN_VS>
0.6949817538

> <CNNaffinity_variance>
0.0314917378

$$$$
