8571


 22 23  0  0  0  0  0  0  0  0999 V2000
   -5.1540   -1.9907   21.4575 O   0  0  0  0  0  0  0  0  0  0  0  0
   -4.4514   -2.9603   21.1847 C   0  0  0  0  0  0  0  0  0  0  0  0
   -3.3414   -5.4207   22.1793 O   0  0  0  0  0  0  0  0  0  0  0  0
   -6.7812   -7.9881   20.1434 O   0  0  0  0  0  0  0  0  0  0  0  0
   -5.0783   -4.2771   20.9088 C   0  0  0  0  0  0  0  0  0  0  0  0
   -4.4834   -5.4411   21.4220 C   0  0  0  0  0  0  0  0  0  0  0  0
   -6.2431   -4.3876   20.1372 C   0  0  0  0  0  0  0  0  0  0  0  0
   -5.0457   -6.6941   21.1857 C   0  0  0  0  0  0  0  0  0  0  0  0
   -6.7979   -5.6451   19.8861 C   0  0  0  0  0  0  0  0  0  0  0  0
   -6.1997   -6.7847   20.4141 C   0  0  0  0  0  0  0  0  0  0  0  0
   -2.9202   -4.6056   22.3700 H   0  0  0  0  0  0  0  0  0  0  0  0
   -6.4057   -8.7768   20.4825 H   0  0  0  0  0  0  0  0  0  0  0  0
   -3.1852   -2.8549   18.6883 O   0  0  0  0  0  0  0  0  0  0  0  0
    1.0950   -2.2686   20.7726 O   0  0  0  0  0  0  0  0  0  0  0  0
   -2.9938   -2.7856   21.0683 C   0  0  0  0  0  0  0  0  0  0  0  0
   -2.4048   -2.7238   19.8021 C   0  0  0  0  0  0  0  0  0  0  0  0
   -2.2178   -2.6593   22.2234 C   0  0  0  0  0  0  0  0  0  0  0  0
   -1.0285   -2.5408   19.6789 C   0  0  0  0  0  0  0  0  0  0  0  0
   -0.8379   -2.4970   22.1013 C   0  0  0  0  0  0  0  0  0  0  0  0
   -0.2572   -2.4353   20.8354 C   0  0  0  0  0  0  0  0  0  0  0  0
   -4.1100   -2.9778   18.7761 H   0  0  0  0  0  0  0  0  0  0  0  0
    1.5231   -2.2223   19.9405 H   0  0  0  0  0  0  0  0  0  0  0  0
  3  6  1  0
  3 11  1  0
 13 16  1  0
 13 21  1  0
  1  2  2  0
  4 10  1  0
  4 12  1  0
 14 20  1  0
 14 22  1  0
  5  2  1  0
  5  6  2  0
  5  7  1  0
 15  2  1  0
 15 16  2  0
 15 17  1  0
  6  8  1  0
 16 18  1  0
  7  9  2  0
 17 19  2  0
  8 10  2  0
 18 20  2  0
  9 10  1  0
 19 20  1  0
M  END
> <PUBCHEM_COMPOUND_CID>
8571

> <PUBCHEM_CONFORMER_RMSD>
0.6

> <PUBCHEM_CONFORMER_DIVERSEORDER>
3
14
8
5
6
10
13
11
12
7
2
4
9
1

> <PUBCHEM_MMFF94_PARTIAL_CHARGES>
28
1 -0.53
10 0.08
11 -0.15
12 -0.15
13 -0.15
14 -0.15
15 -0.15
16 -0.15
17 0.08
18 0.08
19 0.15
2 -0.53
20 0.15
21 0.15
22 0.15
23 0.15
24 0.15
25 0.45
26 0.45
27 0.45
28 0.45
3 -0.57
4 -0.53
5 -0.53
6 0.09
7 0.09
8 0.4
9 0.08

> <PUBCHEM_EFFECTIVE_ROTOR_COUNT>
2

> <PUBCHEM_PHARMACOPHORE_FEATURES>
7
1 1 donor
1 2 donor
1 3 acceptor
1 4 donor
1 5 donor
6 6 9 11 13 15 17 rings
6 7 10 12 14 16 18 rings

> <PUBCHEM_HEAVY_ATOM_COUNT>
18

> <PUBCHEM_ATOM_DEF_STEREO_COUNT>
0

> <PUBCHEM_ATOM_UDEF_STEREO_COUNT>
0

> <PUBCHEM_BOND_DEF_STEREO_COUNT>
0

> <PUBCHEM_BOND_UDEF_STEREO_COUNT>
0

> <PUBCHEM_ISOTOPIC_ATOM_COUNT>
0

> <PUBCHEM_COMPONENT_COUNT>
1

> <PUBCHEM_CACTVS_TAUTO_COUNT>
72

> <PUBCHEM_CONFORMER_ID>
0000217B00000003

> <PUBCHEM_MMFF94_ENERGY>
59.7646

> <PUBCHEM_FEATURE_SELFOVERLAP>
35.523

> <PUBCHEM_SHAPE_FINGERPRINT>
11471102 20 18409169892103070408
11543360 7 16558473084182650672
11578080 2 11531614863815746903
12236239 1 18131065996288699443
12730499 353 18260275135465842107
13764800 53 16298659508524951853
14115302 16 17274813641062312855
14993402 34 17846215540487606185
15309172 13 17603583049510828995
15342168 16 17968104165179409005
15775835 57 18412826888988243309
16752209 62 16702019734536568467
16945 1 18338804403115108058
1813 80 17908702826610089778
18186145 218 18334579027342918966
19784866 34 18334295413878624880
19862831 5 17703791439638752137
19868273 293 17846494850753190559
20612939 158 18410015399459763708
20645476 183 18131345336920073351
20645477 70 18339644438557177238
20871999 31 17703499013054573895
21486144 27 18040157318289672158
22079108 93 18187935001610251691
22854114 59 17458065950124340569
231179 274 17822006519258234448
23402539 116 18409442626948148612
23402655 69 18343585139818180612
23559900 14 18270131244514800908
23598291 2 17916313731579383754
25 1 18335137605093349618
2748010 2 18049736405846724776
2838139 119 17898835865392311757
3082319 5 17846778520178562597
350125 39 17829344823007393920
4028521 119 18341894112446576825
474 4 18335984259027423912
5374978 207 12973890299285696421
633830 44 18335985259854816367
74978 22 17775280611934871745
76465 3 11743574149888780620
77492 1 18131067091542367739
81228 2 16880770831219455195
8272917 22 18265617572439684195
9981440 41 17624393673978878472

> <PUBCHEM_SHAPE_MULTIPOLES>
341.08
8.1
1.9
1.16
0.73
0.35
-0.07
-4.23
-1.78
-1.35
0.05
0.84
0.24
-0.62

> <PUBCHEM_SHAPE_SELFOVERLAP>
750.848

> <PUBCHEM_SHAPE_VOLUME>
184

> <PUBCHEM_COORDINATE_TYPE>
2
5
10

> <Energy>
46.2868

> <minimizedAffinity>
-7.83703

> <CNNscore>
0.8029336333

> <CNNaffinity>
5.5629234314

> <CNN_VS>
4.4666581154

> <CNNaffinity_variance>
0.3437085152

$$$$
8571


 22 23  0  0  0  0  0  0  0  0999 V2000
   -5.1927   -2.0671   21.1385 O   0  0  0  0  0  0  0  0  0  0  0  0
   -4.4404   -3.0119   20.9159 C   0  0  0  0  0  0  0  0  0  0  0  0
   -2.9531   -2.8314   18.4602 O   0  0  0  0  0  0  0  0  0  0  0  0
    1.1437   -2.2414   20.7918 O   0  0  0  0  0  0  0  0  0  0  0  0
   -2.9711   -2.8023   20.8970 C   0  0  0  0  0  0  0  0  0  0  0  0
   -2.3048   -2.7261   19.6630 C   0  0  0  0  0  0  0  0  0  0  0  0
   -2.2307   -2.6914   22.0818 C   0  0  0  0  0  0  0  0  0  0  0  0
   -0.9268   -2.5272   19.6068 C   0  0  0  0  0  0  0  0  0  0  0  0
   -0.8467   -2.5086   22.0261 C   0  0  0  0  0  0  0  0  0  0  0  0
   -0.2078   -2.4236   20.7932 C   0  0  0  0  0  0  0  0  0  0  0  0
   -3.8802   -2.9658   18.4379 H   0  0  0  0  0  0  0  0  0  0  0  0
    1.6073   -2.1797   19.9799 H   0  0  0  0  0  0  0  0  0  0  0  0
   -3.3552   -5.2406   22.2204 O   0  0  0  0  0  0  0  0  0  0  0  0
   -6.6352   -8.1238   20.2361 O   0  0  0  0  0  0  0  0  0  0  0  0
   -5.0072   -4.3593   20.7371 C   0  0  0  0  0  0  0  0  0  0  0  0
   -4.4433   -5.4415   21.4188 C   0  0  0  0  0  0  0  0  0  0  0  0
   -6.1170   -4.5383   19.9073 C   0  0  0  0  0  0  0  0  0  0  0  0
   -4.9820   -6.7186   21.2715 C   0  0  0  0  0  0  0  0  0  0  0  0
   -6.6438   -5.8194   19.7432 C   0  0  0  0  0  0  0  0  0  0  0  0
   -6.0770   -6.8941   20.4268 C   0  0  0  0  0  0  0  0  0  0  0  0
   -2.9965   -4.3803   22.3163 H   0  0  0  0  0  0  0  0  0  0  0  0
   -6.2832   -8.8715   20.6776 H   0  0  0  0  0  0  0  0  0  0  0  0
  3  6  1  0
  3 11  1  0
 13 16  1  0
 13 21  1  0
  1  2  2  0
  4 10  1  0
  4 12  1  0
 14 20  1  0
 14 22  1  0
  5  2  1  0
  5  6  2  0
  5  7  1  0
 15  2  1  0
 15 16  2  0
 15 17  1  0
  6  8  1  0
 16 18  1  0
  7  9  2  0
 17 19  2  0
  8 10  2  0
 18 20  2  0
  9 10  1  0
 19 20  1  0
M  END
> <PUBCHEM_COMPOUND_CID>
8571

> <PUBCHEM_CONFORMER_RMSD>
0.6

> <PUBCHEM_CONFORMER_DIVERSEORDER>
3
14
8
5
6
10
13
11
12
7
2
4
9
1

> <PUBCHEM_MMFF94_PARTIAL_CHARGES>
28
1 -0.53
10 0.08
11 -0.15
12 -0.15
13 -0.15
14 -0.15
15 -0.15
16 -0.15
17 0.08
18 0.08
19 0.15
2 -0.53
20 0.15
21 0.15
22 0.15
23 0.15
24 0.15
25 0.45
26 0.45
27 0.45
28 0.45
3 -0.57
4 -0.53
5 -0.53
6 0.09
7 0.09
8 0.4
9 0.08

> <PUBCHEM_EFFECTIVE_ROTOR_COUNT>
2

> <PUBCHEM_PHARMACOPHORE_FEATURES>
7
1 1 donor
1 2 donor
1 3 acceptor
1 4 donor
1 5 donor
6 6 9 11 13 15 17 rings
6 7 10 12 14 16 18 rings

> <PUBCHEM_HEAVY_ATOM_COUNT>
18

> <PUBCHEM_ATOM_DEF_STEREO_COUNT>
0

> <PUBCHEM_ATOM_UDEF_STEREO_COUNT>
0

> <PUBCHEM_BOND_DEF_STEREO_COUNT>
0

> <PUBCHEM_BOND_UDEF_STEREO_COUNT>
0

> <PUBCHEM_ISOTOPIC_ATOM_COUNT>
0

> <PUBCHEM_COMPONENT_COUNT>
1

> <PUBCHEM_CACTVS_TAUTO_COUNT>
72

> <PUBCHEM_CONFORMER_ID>
0000217B00000003

> <PUBCHEM_MMFF94_ENERGY>
59.7646

> <PUBCHEM_FEATURE_SELFOVERLAP>
35.523

> <PUBCHEM_SHAPE_FINGERPRINT>
11471102 20 18409169892103070408
11543360 7 16558473084182650672
11578080 2 11531614863815746903
12236239 1 18131065996288699443
12730499 353 18260275135465842107
13764800 53 16298659508524951853
14115302 16 17274813641062312855
14993402 34 17846215540487606185
15309172 13 17603583049510828995
15342168 16 17968104165179409005
15775835 57 18412826888988243309
16752209 62 16702019734536568467
16945 1 18338804403115108058
1813 80 17908702826610089778
18186145 218 18334579027342918966
19784866 34 18334295413878624880
19862831 5 17703791439638752137
19868273 293 17846494850753190559
20612939 158 18410015399459763708
20645476 183 18131345336920073351
20645477 70 18339644438557177238
20871999 31 17703499013054573895
21486144 27 18040157318289672158
22079108 93 18187935001610251691
22854114 59 17458065950124340569
231179 274 17822006519258234448
23402539 116 18409442626948148612
23402655 69 18343585139818180612
23559900 14 18270131244514800908
23598291 2 17916313731579383754
25 1 18335137605093349618
2748010 2 18049736405846724776
2838139 119 17898835865392311757
3082319 5 17846778520178562597
350125 39 17829344823007393920
4028521 119 18341894112446576825
474 4 18335984259027423912
5374978 207 12973890299285696421
633830 44 18335985259854816367
74978 22 17775280611934871745
76465 3 11743574149888780620
77492 1 18131067091542367739
81228 2 16880770831219455195
8272917 22 18265617572439684195
9981440 41 17624393673978878472

> <PUBCHEM_SHAPE_MULTIPOLES>
341.08
8.1
1.9
1.16
0.73
0.35
-0.07
-4.23
-1.78
-1.35
0.05
0.84
0.24
-0.62

> <PUBCHEM_SHAPE_SELFOVERLAP>
750.848

> <PUBCHEM_SHAPE_VOLUME>
184

> <PUBCHEM_COORDINATE_TYPE>
2
5
10

> <Energy>
46.2868

> <minimizedAffinity>
-7.81002

> <CNNscore>
0.7885017395

> <CNNaffinity>
5.5080051422

> <CNN_VS>
4.3430714607

> <CNNaffinity_variance>
0.4429640770

$$$$
8571


 22 23  0  0  0  0  0  0  0  0999 V2000
   -3.5132   -3.4462   23.5693 O   0  0  0  0  0  0  0  0  0  0  0  0
   -3.7615   -3.5442   22.3706 C   0  0  0  0  0  0  0  0  0  0  0  0
   -4.0767   -6.3054   21.6277 O   0  0  0  0  0  0  0  0  0  0  0  0
   -8.6843   -5.6879   20.6496 O   0  0  0  0  0  0  0  0  0  0  0  0
   -5.0648   -4.0976   21.9253 C   0  0  0  0  0  0  0  0  0  0  0  0
   -5.1498   -5.4547   21.5739 C   0  0  0  0  0  0  0  0  0  0  0  0
   -6.2101   -3.2949   21.8351 C   0  0  0  0  0  0  0  0  0  0  0  0
   -6.3574   -6.0093   21.1544 C   0  0  0  0  0  0  0  0  0  0  0  0
   -7.4172   -3.8467   21.3985 C   0  0  0  0  0  0  0  0  0  0  0  0
   -7.4827   -5.1962   21.0669 C   0  0  0  0  0  0  0  0  0  0  0  0
   -3.2396   -5.9866   21.9031 H   0  0  0  0  0  0  0  0  0  0  0  0
   -8.7656   -6.5921   20.4179 H   0  0  0  0  0  0  0  0  0  0  0  0
   -1.2273   -2.6442   23.1543 O   0  0  0  0  0  0  0  0  0  0  0  0
   -0.0540   -1.6775   18.6050 O   0  0  0  0  0  0  0  0  0  0  0  0
   -2.7843   -3.0459   21.3879 C   0  0  0  0  0  0  0  0  0  0  0  0
   -1.5255   -2.6199   21.8212 C   0  0  0  0  0  0  0  0  0  0  0  0
   -3.1164   -3.0267   20.0309 C   0  0  0  0  0  0  0  0  0  0  0  0
   -0.5858   -2.1630   20.8986 C   0  0  0  0  0  0  0  0  0  0  0  0
   -2.1841   -2.5500   19.1093 C   0  0  0  0  0  0  0  0  0  0  0  0
   -0.9302   -2.1275   19.5482 C   0  0  0  0  0  0  0  0  0  0  0  0
   -1.8622   -2.9522   23.7708 H   0  0  0  0  0  0  0  0  0  0  0  0
    0.7988   -1.3847   18.8596 H   0  0  0  0  0  0  0  0  0  0  0  0
  3  6  1  0
  3 11  1  0
 13 16  1  0
 13 21  1  0
  1  2  2  0
  4 10  1  0
  4 12  1  0
 14 20  1  0
 14 22  1  0
  5  2  1  0
  5  6  2  0
  5  7  1  0
 15  2  1  0
 15 16  2  0
 15 17  1  0
  6  8  1  0
 16 18  1  0
  7  9  2  0
 17 19  2  0
  8 10  2  0
 18 20  2  0
  9 10  1  0
 19 20  1  0
M  END
> <PUBCHEM_COMPOUND_CID>
8571

> <PUBCHEM_CONFORMER_RMSD>
0.6

> <PUBCHEM_CONFORMER_DIVERSEORDER>
3
14
8
5
6
10
13
11
12
7
2
4
9
1

> <PUBCHEM_MMFF94_PARTIAL_CHARGES>
28
1 -0.53
10 0.08
11 -0.15
12 -0.15
13 -0.15
14 -0.15
15 -0.15
16 -0.15
17 0.08
18 0.08
19 0.15
2 -0.53
20 0.15
21 0.15
22 0.15
23 0.15
24 0.15
25 0.45
26 0.45
27 0.45
28 0.45
3 -0.57
4 -0.53
5 -0.53
6 0.09
7 0.09
8 0.4
9 0.08

> <PUBCHEM_EFFECTIVE_ROTOR_COUNT>
2

> <PUBCHEM_PHARMACOPHORE_FEATURES>
7
1 1 donor
1 2 donor
1 3 acceptor
1 4 donor
1 5 donor
6 6 9 11 13 15 17 rings
6 7 10 12 14 16 18 rings

> <PUBCHEM_HEAVY_ATOM_COUNT>
18

> <PUBCHEM_ATOM_DEF_STEREO_COUNT>
0

> <PUBCHEM_ATOM_UDEF_STEREO_COUNT>
0

> <PUBCHEM_BOND_DEF_STEREO_COUNT>
0

> <PUBCHEM_BOND_UDEF_STEREO_COUNT>
0

> <PUBCHEM_ISOTOPIC_ATOM_COUNT>
0

> <PUBCHEM_COMPONENT_COUNT>
1

> <PUBCHEM_CACTVS_TAUTO_COUNT>
72

> <PUBCHEM_CONFORMER_ID>
0000217B00000003

> <PUBCHEM_MMFF94_ENERGY>
59.7646

> <PUBCHEM_FEATURE_SELFOVERLAP>
35.523

> <PUBCHEM_SHAPE_FINGERPRINT>
11471102 20 18409169892103070408
11543360 7 16558473084182650672
11578080 2 11531614863815746903
12236239 1 18131065996288699443
12730499 353 18260275135465842107
13764800 53 16298659508524951853
14115302 16 17274813641062312855
14993402 34 17846215540487606185
15309172 13 17603583049510828995
15342168 16 17968104165179409005
15775835 57 18412826888988243309
16752209 62 16702019734536568467
16945 1 18338804403115108058
1813 80 17908702826610089778
18186145 218 18334579027342918966
19784866 34 18334295413878624880
19862831 5 17703791439638752137
19868273 293 17846494850753190559
20612939 158 18410015399459763708
20645476 183 18131345336920073351
20645477 70 18339644438557177238
20871999 31 17703499013054573895
21486144 27 18040157318289672158
22079108 93 18187935001610251691
22854114 59 17458065950124340569
231179 274 17822006519258234448
23402539 116 18409442626948148612
23402655 69 18343585139818180612
23559900 14 18270131244514800908
23598291 2 17916313731579383754
25 1 18335137605093349618
2748010 2 18049736405846724776
2838139 119 17898835865392311757
3082319 5 17846778520178562597
350125 39 17829344823007393920
4028521 119 18341894112446576825
474 4 18335984259027423912
5374978 207 12973890299285696421
633830 44 18335985259854816367
74978 22 17775280611934871745
76465 3 11743574149888780620
77492 1 18131067091542367739
81228 2 16880770831219455195
8272917 22 18265617572439684195
9981440 41 17624393673978878472

> <PUBCHEM_SHAPE_MULTIPOLES>
341.08
8.1
1.9
1.16
0.73
0.35
-0.07
-4.23
-1.78
-1.35
0.05
0.84
0.24
-0.62

> <PUBCHEM_SHAPE_SELFOVERLAP>
750.848

> <PUBCHEM_SHAPE_VOLUME>
184

> <PUBCHEM_COORDINATE_TYPE>
2
5
10

> <Energy>
46.2868

> <minimizedAffinity>
-7.52528

> <CNNscore>
0.7869133353

> <CNNaffinity>
5.9289460182

> <CNN_VS>
4.6655669212

> <CNNaffinity_variance>
0.2735490501

$$$$
8571


 22 23  0  0  0  0  0  0  0  0999 V2000
   -3.5959   -3.4778   23.5141 O   0  0  0  0  0  0  0  0  0  0  0  0
   -3.8168   -3.5935   22.3116 C   0  0  0  0  0  0  0  0  0  0  0  0
   -6.3567   -2.3604   22.8621 O   0  0  0  0  0  0  0  0  0  0  0  0
   -8.7083   -5.8026   20.5842 O   0  0  0  0  0  0  0  0  0  0  0  0
   -5.0971   -4.1821   21.8454 C   0  0  0  0  0  0  0  0  0  0  0  0
   -6.3031   -3.5305   22.1508 C   0  0  0  0  0  0  0  0  0  0  0  0
   -5.1321   -5.3798   21.1184 C   0  0  0  0  0  0  0  0  0  0  0  0
   -7.5238   -4.0523   21.7270 C   0  0  0  0  0  0  0  0  0  0  0  0
   -6.3569   -5.9121   20.7077 C   0  0  0  0  0  0  0  0  0  0  0  0
   -7.5393   -5.2444   21.0101 C   0  0  0  0  0  0  0  0  0  0  0  0
   -5.5662   -1.9640   23.1722 H   0  0  0  0  0  0  0  0  0  0  0  0
   -9.5240   -5.3806   20.7698 H   0  0  0  0  0  0  0  0  0  0  0  0
   -1.2585   -2.7857   23.1174 O   0  0  0  0  0  0  0  0  0  0  0  0
   -0.0789   -1.6743   18.6028 O   0  0  0  0  0  0  0  0  0  0  0  0
   -2.8314   -3.0818   21.3442 C   0  0  0  0  0  0  0  0  0  0  0  0
   -1.5610   -2.7032   21.7875 C   0  0  0  0  0  0  0  0  0  0  0  0
   -3.1680   -3.0026   19.9904 C   0  0  0  0  0  0  0  0  0  0  0  0
   -0.6139   -2.2342   20.8787 C   0  0  0  0  0  0  0  0  0  0  0  0
   -2.2278   -2.5138   19.0834 C   0  0  0  0  0  0  0  0  0  0  0  0
   -0.9623   -2.1388   19.5322 C   0  0  0  0  0  0  0  0  0  0  0  0
   -1.8984   -3.1016   23.7246 H   0  0  0  0  0  0  0  0  0  0  0  0
    0.7817   -1.4122   18.8645 H   0  0  0  0  0  0  0  0  0  0  0  0
  3  6  1  0
  3 11  1  0
 13 16  1  0
 13 21  1  0
  1  2  2  0
  4 10  1  0
  4 12  1  0
 14 20  1  0
 14 22  1  0
  5  2  1  0
  5  6  2  0
  5  7  1  0
 15  2  1  0
 15 16  2  0
 15 17  1  0
  6  8  1  0
 16 18  1  0
  7  9  2  0
 17 19  2  0
  8 10  2  0
 18 20  2  0
  9 10  1  0
 19 20  1  0
M  END
> <PUBCHEM_COMPOUND_CID>
8571

> <PUBCHEM_CONFORMER_RMSD>
0.6

> <PUBCHEM_CONFORMER_DIVERSEORDER>
3
14
8
5
6
10
13
11
12
7
2
4
9
1

> <PUBCHEM_MMFF94_PARTIAL_CHARGES>
28
1 -0.53
10 0.08
11 -0.15
12 -0.15
13 -0.15
14 -0.15
15 -0.15
16 -0.15
17 0.08
18 0.08
19 0.15
2 -0.53
20 0.15
21 0.15
22 0.15
23 0.15
24 0.15
25 0.45
26 0.45
27 0.45
28 0.45
3 -0.57
4 -0.53
5 -0.53
6 0.09
7 0.09
8 0.4
9 0.08

> <PUBCHEM_EFFECTIVE_ROTOR_COUNT>
2

> <PUBCHEM_PHARMACOPHORE_FEATURES>
7
1 1 donor
1 2 donor
1 3 acceptor
1 4 donor
1 5 donor
6 6 9 11 13 15 17 rings
6 7 10 12 14 16 18 rings

> <PUBCHEM_HEAVY_ATOM_COUNT>
18

> <PUBCHEM_ATOM_DEF_STEREO_COUNT>
0

> <PUBCHEM_ATOM_UDEF_STEREO_COUNT>
0

> <PUBCHEM_BOND_DEF_STEREO_COUNT>
0

> <PUBCHEM_BOND_UDEF_STEREO_COUNT>
0

> <PUBCHEM_ISOTOPIC_ATOM_COUNT>
0

> <PUBCHEM_COMPONENT_COUNT>
1

> <PUBCHEM_CACTVS_TAUTO_COUNT>
72

> <PUBCHEM_CONFORMER_ID>
0000217B00000003

> <PUBCHEM_MMFF94_ENERGY>
59.7646

> <PUBCHEM_FEATURE_SELFOVERLAP>
35.523

> <PUBCHEM_SHAPE_FINGERPRINT>
11471102 20 18409169892103070408
11543360 7 16558473084182650672
11578080 2 11531614863815746903
12236239 1 18131065996288699443
12730499 353 18260275135465842107
13764800 53 16298659508524951853
14115302 16 17274813641062312855
14993402 34 17846215540487606185
15309172 13 17603583049510828995
15342168 16 17968104165179409005
15775835 57 18412826888988243309
16752209 62 16702019734536568467
16945 1 18338804403115108058
1813 80 17908702826610089778
18186145 218 18334579027342918966
19784866 34 18334295413878624880
19862831 5 17703791439638752137
19868273 293 17846494850753190559
20612939 158 18410015399459763708
20645476 183 18131345336920073351
20645477 70 18339644438557177238
20871999 31 17703499013054573895
21486144 27 18040157318289672158
22079108 93 18187935001610251691
22854114 59 17458065950124340569
231179 274 17822006519258234448
23402539 116 18409442626948148612
23402655 69 18343585139818180612
23559900 14 18270131244514800908
23598291 2 17916313731579383754
25 1 18335137605093349618
2748010 2 18049736405846724776
2838139 119 17898835865392311757
3082319 5 17846778520178562597
350125 39 17829344823007393920
4028521 119 18341894112446576825
474 4 18335984259027423912
5374978 207 12973890299285696421
633830 44 18335985259854816367
74978 22 17775280611934871745
76465 3 11743574149888780620
77492 1 18131067091542367739
81228 2 16880770831219455195
8272917 22 18265617572439684195
9981440 41 17624393673978878472

> <PUBCHEM_SHAPE_MULTIPOLES>
341.08
8.1
1.9
1.16
0.73
0.35
-0.07
-4.23
-1.78
-1.35
0.05
0.84
0.24
-0.62

> <PUBCHEM_SHAPE_SELFOVERLAP>
750.848

> <PUBCHEM_SHAPE_VOLUME>
184

> <PUBCHEM_COORDINATE_TYPE>
2
5
10

> <Energy>
46.2868

> <minimizedAffinity>
-7.73128

> <CNNscore>
0.7646685839

> <CNNaffinity>
6.2312226295

> <CNN_VS>
4.7648200989

> <CNNaffinity_variance>
0.6296327710

$$$$
8571


 22 23  0  0  0  0  0  0  0  0999 V2000
   -3.4550   -3.5408   23.3682 O   0  0  0  0  0  0  0  0  0  0  0  0
   -3.7630   -3.5302   22.1794 C   0  0  0  0  0  0  0  0  0  0  0  0
   -1.2182   -2.4100   22.9172 O   0  0  0  0  0  0  0  0  0  0  0  0
   -0.1110   -1.5165   18.3847 O   0  0  0  0  0  0  0  0  0  0  0  0
   -2.8077   -3.0093   21.1698 C   0  0  0  0  0  0  0  0  0  0  0  0
   -1.5825   -2.4725   21.5976 C   0  0  0  0  0  0  0  0  0  0  0  0
   -3.1047   -3.0289   19.8002 C   0  0  0  0  0  0  0  0  0  0  0  0
   -0.6601   -1.9771   20.6779 C   0  0  0  0  0  0  0  0  0  0  0  0
   -2.1873   -2.5171   18.8792 C   0  0  0  0  0  0  0  0  0  0  0  0
   -0.9740   -2.0009   19.3229 C   0  0  0  0  0  0  0  0  0  0  0  0
   -1.7997   -2.7289   23.5793 H   0  0  0  0  0  0  0  0  0  0  0  0
    0.7153   -1.1613   18.6471 H   0  0  0  0  0  0  0  0  0  0  0  0
   -4.0627   -6.2711   21.6851 O   0  0  0  0  0  0  0  0  0  0  0  0
   -8.7019   -5.6735   20.6227 O   0  0  0  0  0  0  0  0  0  0  0  0
   -5.0557   -4.0999   21.7634 C   0  0  0  0  0  0  0  0  0  0  0  0
   -5.1644   -5.4757   21.5413 C   0  0  0  0  0  0  0  0  0  0  0  0
   -6.1656   -3.2636   21.6186 C   0  0  0  0  0  0  0  0  0  0  0  0
   -6.3869   -6.0291   21.1647 C   0  0  0  0  0  0  0  0  0  0  0  0
   -7.3843   -3.8138   21.2215 C   0  0  0  0  0  0  0  0  0  0  0  0
   -7.4858   -5.1868   21.0025 C   0  0  0  0  0  0  0  0  0  0  0  0
   -3.2429   -5.8945   21.9384 H   0  0  0  0  0  0  0  0  0  0  0  0
   -8.8111   -6.5908   20.4658 H   0  0  0  0  0  0  0  0  0  0  0  0
  3  6  1  0
  3 11  1  0
 13 16  1  0
 13 21  1  0
  1  2  2  0
  4 10  1  0
  4 12  1  0
 14 20  1  0
 14 22  1  0
  5  2  1  0
  5  6  2  0
  5  7  1  0
 15  2  1  0
 15 16  2  0
 15 17  1  0
  6  8  1  0
 16 18  1  0
  7  9  2  0
 17 19  2  0
  8 10  2  0
 18 20  2  0
  9 10  1  0
 19 20  1  0
M  END
> <PUBCHEM_COMPOUND_CID>
8571

> <PUBCHEM_CONFORMER_RMSD>
0.6

> <PUBCHEM_CONFORMER_DIVERSEORDER>
3
14
8
5
6
10
13
11
12
7
2
4
9
1

> <PUBCHEM_MMFF94_PARTIAL_CHARGES>
28
1 -0.53
10 0.08
11 -0.15
12 -0.15
13 -0.15
14 -0.15
15 -0.15
16 -0.15
17 0.08
18 0.08
19 0.15
2 -0.53
20 0.15
21 0.15
22 0.15
23 0.15
24 0.15
25 0.45
26 0.45
27 0.45
28 0.45
3 -0.57
4 -0.53
5 -0.53
6 0.09
7 0.09
8 0.4
9 0.08

> <PUBCHEM_EFFECTIVE_ROTOR_COUNT>
2

> <PUBCHEM_PHARMACOPHORE_FEATURES>
7
1 1 donor
1 2 donor
1 3 acceptor
1 4 donor
1 5 donor
6 6 9 11 13 15 17 rings
6 7 10 12 14 16 18 rings

> <PUBCHEM_HEAVY_ATOM_COUNT>
18

> <PUBCHEM_ATOM_DEF_STEREO_COUNT>
0

> <PUBCHEM_ATOM_UDEF_STEREO_COUNT>
0

> <PUBCHEM_BOND_DEF_STEREO_COUNT>
0

> <PUBCHEM_BOND_UDEF_STEREO_COUNT>
0

> <PUBCHEM_ISOTOPIC_ATOM_COUNT>
0

> <PUBCHEM_COMPONENT_COUNT>
1

> <PUBCHEM_CACTVS_TAUTO_COUNT>
72

> <PUBCHEM_CONFORMER_ID>
0000217B00000003

> <PUBCHEM_MMFF94_ENERGY>
59.7646

> <PUBCHEM_FEATURE_SELFOVERLAP>
35.523

> <PUBCHEM_SHAPE_FINGERPRINT>
11471102 20 18409169892103070408
11543360 7 16558473084182650672
11578080 2 11531614863815746903
12236239 1 18131065996288699443
12730499 353 18260275135465842107
13764800 53 16298659508524951853
14115302 16 17274813641062312855
14993402 34 17846215540487606185
15309172 13 17603583049510828995
15342168 16 17968104165179409005
15775835 57 18412826888988243309
16752209 62 16702019734536568467
16945 1 18338804403115108058
1813 80 17908702826610089778
18186145 218 18334579027342918966
19784866 34 18334295413878624880
19862831 5 17703791439638752137
19868273 293 17846494850753190559
20612939 158 18410015399459763708
20645476 183 18131345336920073351
20645477 70 18339644438557177238
20871999 31 17703499013054573895
21486144 27 18040157318289672158
22079108 93 18187935001610251691
22854114 59 17458065950124340569
231179 274 17822006519258234448
23402539 116 18409442626948148612
23402655 69 18343585139818180612
23559900 14 18270131244514800908
23598291 2 17916313731579383754
25 1 18335137605093349618
2748010 2 18049736405846724776
2838139 119 17898835865392311757
3082319 5 17846778520178562597
350125 39 17829344823007393920
4028521 119 18341894112446576825
474 4 18335984259027423912
5374978 207 12973890299285696421
633830 44 18335985259854816367
74978 22 17775280611934871745
76465 3 11743574149888780620
77492 1 18131067091542367739
81228 2 16880770831219455195
8272917 22 18265617572439684195
9981440 41 17624393673978878472

> <PUBCHEM_SHAPE_MULTIPOLES>
341.08
8.1
1.9
1.16
0.73
0.35
-0.07
-4.23
-1.78
-1.35
0.05
0.84
0.24
-0.62

> <PUBCHEM_SHAPE_SELFOVERLAP>
750.848

> <PUBCHEM_SHAPE_VOLUME>
184

> <PUBCHEM_COORDINATE_TYPE>
2
5
10

> <Energy>
46.2868

> <minimizedAffinity>
-7.49172

> <CNNscore>
0.7543843389

> <CNNaffinity>
5.8615326881

> <CNN_VS>
4.4218482971

> <CNNaffinity_variance>
0.2531412244

$$$$
8571


 22 23  0  0  0  0  0  0  0  0999 V2000
   -3.5089   -3.4666   23.4684 O   0  0  0  0  0  0  0  0  0  0  0  0
   -3.7855   -3.4904   22.2721 C   0  0  0  0  0  0  0  0  0  0  0  0
   -4.3241   -3.5372   19.4467 O   0  0  0  0  0  0  0  0  0  0  0  0
   -0.1054   -1.5973   18.4427 O   0  0  0  0  0  0  0  0  0  0  0  0
   -2.8106   -2.9828   21.2746 C   0  0  0  0  0  0  0  0  0  0  0  0
   -3.1348   -3.0373   19.9092 C   0  0  0  0  0  0  0  0  0  0  0  0
   -1.5685   -2.4619   21.6621 C   0  0  0  0  0  0  0  0  0  0  0  0
   -2.2454   -2.5673   18.9449 C   0  0  0  0  0  0  0  0  0  0  0  0
   -0.6697   -2.0059   20.6946 C   0  0  0  0  0  0  0  0  0  0  0  0
   -1.0154   -2.0576   19.3480 C   0  0  0  0  0  0  0  0  0  0  0  0
   -4.9602   -3.8670   20.0507 H   0  0  0  0  0  0  0  0  0  0  0  0
   -0.3042   -1.6168   17.5272 H   0  0  0  0  0  0  0  0  0  0  0  0
   -6.1734   -2.0263   22.3023 O   0  0  0  0  0  0  0  0  0  0  0  0
   -8.6145   -5.7825   20.5877 O   0  0  0  0  0  0  0  0  0  0  0  0
   -5.0595   -4.0877   21.8376 C   0  0  0  0  0  0  0  0  0  0  0  0
   -6.2252   -3.3163   21.8551 C   0  0  0  0  0  0  0  0  0  0  0  0
   -5.0859   -5.4109   21.3896 C   0  0  0  0  0  0  0  0  0  0  0  0
   -7.4336   -3.8650   21.4293 C   0  0  0  0  0  0  0  0  0  0  0  0
   -6.2987   -5.9671   20.9830 C   0  0  0  0  0  0  0  0  0  0  0  0
   -7.4572   -5.1919   21.0023 C   0  0  0  0  0  0  0  0  0  0  0  0
   -5.3587   -1.6617   22.5876 H   0  0  0  0  0  0  0  0  0  0  0  0
   -9.4146   -5.2950   20.5858 H   0  0  0  0  0  0  0  0  0  0  0  0
  3  6  1  0
  3 11  1  0
 13 16  1  0
 13 21  1  0
  1  2  2  0
  4 10  1  0
  4 12  1  0
 14 20  1  0
 14 22  1  0
  5  2  1  0
  5  6  2  0
  5  7  1  0
 15  2  1  0
 15 16  2  0
 15 17  1  0
  6  8  1  0
 16 18  1  0
  7  9  2  0
 17 19  2  0
  8 10  2  0
 18 20  2  0
  9 10  1  0
 19 20  1  0
M  END
> <PUBCHEM_COMPOUND_CID>
8571

> <PUBCHEM_CONFORMER_RMSD>
0.6

> <PUBCHEM_CONFORMER_DIVERSEORDER>
3
14
8
5
6
10
13
11
12
7
2
4
9
1

> <PUBCHEM_MMFF94_PARTIAL_CHARGES>
28
1 -0.53
10 0.08
11 -0.15
12 -0.15
13 -0.15
14 -0.15
15 -0.15
16 -0.15
17 0.08
18 0.08
19 0.15
2 -0.53
20 0.15
21 0.15
22 0.15
23 0.15
24 0.15
25 0.45
26 0.45
27 0.45
28 0.45
3 -0.57
4 -0.53
5 -0.53
6 0.09
7 0.09
8 0.4
9 0.08

> <PUBCHEM_EFFECTIVE_ROTOR_COUNT>
2

> <PUBCHEM_PHARMACOPHORE_FEATURES>
7
1 1 donor
1 2 donor
1 3 acceptor
1 4 donor
1 5 donor
6 6 9 11 13 15 17 rings
6 7 10 12 14 16 18 rings

> <PUBCHEM_HEAVY_ATOM_COUNT>
18

> <PUBCHEM_ATOM_DEF_STEREO_COUNT>
0

> <PUBCHEM_ATOM_UDEF_STEREO_COUNT>
0

> <PUBCHEM_BOND_DEF_STEREO_COUNT>
0

> <PUBCHEM_BOND_UDEF_STEREO_COUNT>
0

> <PUBCHEM_ISOTOPIC_ATOM_COUNT>
0

> <PUBCHEM_COMPONENT_COUNT>
1

> <PUBCHEM_CACTVS_TAUTO_COUNT>
72

> <PUBCHEM_CONFORMER_ID>
0000217B00000003

> <PUBCHEM_MMFF94_ENERGY>
59.7646

> <PUBCHEM_FEATURE_SELFOVERLAP>
35.523

> <PUBCHEM_SHAPE_FINGERPRINT>
11471102 20 18409169892103070408
11543360 7 16558473084182650672
11578080 2 11531614863815746903
12236239 1 18131065996288699443
12730499 353 18260275135465842107
13764800 53 16298659508524951853
14115302 16 17274813641062312855
14993402 34 17846215540487606185
15309172 13 17603583049510828995
15342168 16 17968104165179409005
15775835 57 18412826888988243309
16752209 62 16702019734536568467
16945 1 18338804403115108058
1813 80 17908702826610089778
18186145 218 18334579027342918966
19784866 34 18334295413878624880
19862831 5 17703791439638752137
19868273 293 17846494850753190559
20612939 158 18410015399459763708
20645476 183 18131345336920073351
20645477 70 18339644438557177238
20871999 31 17703499013054573895
21486144 27 18040157318289672158
22079108 93 18187935001610251691
22854114 59 17458065950124340569
231179 274 17822006519258234448
23402539 116 18409442626948148612
23402655 69 18343585139818180612
23559900 14 18270131244514800908
23598291 2 17916313731579383754
25 1 18335137605093349618
2748010 2 18049736405846724776
2838139 119 17898835865392311757
3082319 5 17846778520178562597
350125 39 17829344823007393920
4028521 119 18341894112446576825
474 4 18335984259027423912
5374978 207 12973890299285696421
633830 44 18335985259854816367
74978 22 17775280611934871745
76465 3 11743574149888780620
77492 1 18131067091542367739
81228 2 16880770831219455195
8272917 22 18265617572439684195
9981440 41 17624393673978878472

> <PUBCHEM_SHAPE_MULTIPOLES>
341.08
8.1
1.9
1.16
0.73
0.35
-0.07
-4.23
-1.78
-1.35
0.05
0.84
0.24
-0.62

> <PUBCHEM_SHAPE_SELFOVERLAP>
750.848

> <PUBCHEM_SHAPE_VOLUME>
184

> <PUBCHEM_COORDINATE_TYPE>
2
5
10

> <Energy>
46.2868

> <minimizedAffinity>
-7.66206

> <CNNscore>
0.7437569499

> <CNNaffinity>
5.5822029114

> <CNN_VS>
4.1518020630

> <CNNaffinity_variance>
0.5561474562

$$$$
8571


 22 23  0  0  0  0  0  0  0  0999 V2000
   -3.4839   -3.5452   23.3818 O   0  0  0  0  0  0  0  0  0  0  0  0
   -3.7514   -3.6266   22.1860 C   0  0  0  0  0  0  0  0  0  0  0  0
   -6.1882   -2.0979   22.1943 O   0  0  0  0  0  0  0  0  0  0  0  0
   -8.7035   -5.7885   20.5753 O   0  0  0  0  0  0  0  0  0  0  0  0
   -5.0477   -4.2059   21.7532 C   0  0  0  0  0  0  0  0  0  0  0  0
   -6.2013   -3.4055   21.7843 C   0  0  0  0  0  0  0  0  0  0  0  0
   -5.1502   -5.5369   21.3262 C   0  0  0  0  0  0  0  0  0  0  0  0
   -7.4346   -3.9148   21.3826 C   0  0  0  0  0  0  0  0  0  0  0  0
   -6.3896   -6.0528   20.9392 C   0  0  0  0  0  0  0  0  0  0  0  0
   -7.5179   -5.2394   20.9658 C   0  0  0  0  0  0  0  0  0  0  0  0
   -5.3862   -1.7030   22.4753 H   0  0  0  0  0  0  0  0  0  0  0  0
   -9.4841   -5.2703   20.5805 H   0  0  0  0  0  0  0  0  0  0  0  0
   -4.2711   -3.7652   19.4370 O   0  0  0  0  0  0  0  0  0  0  0  0
   -0.1465   -1.5273   18.4434 O   0  0  0  0  0  0  0  0  0  0  0  0
   -2.8060   -3.0834   21.1962 C   0  0  0  0  0  0  0  0  0  0  0  0
   -3.1119   -3.1609   19.8344 C   0  0  0  0  0  0  0  0  0  0  0  0
   -1.6250   -2.4750   21.6290 C   0  0  0  0  0  0  0  0  0  0  0  0
   -2.2335   -2.6343   18.8890 C   0  0  0  0  0  0  0  0  0  0  0  0
   -0.7356   -1.9665   20.6824 C   0  0  0  0  0  0  0  0  0  0  0  0
   -1.0474   -2.0463   19.3260 C   0  0  0  0  0  0  0  0  0  0  0  0
   -4.8586   -4.1178   20.0762 H   0  0  0  0  0  0  0  0  0  0  0  0
   -0.3193   -1.5614   17.5231 H   0  0  0  0  0  0  0  0  0  0  0  0
  3  6  1  0
  3 11  1  0
 13 16  1  0
 13 21  1  0
  1  2  2  0
  4 10  1  0
  4 12  1  0
 14 20  1  0
 14 22  1  0
  5  2  1  0
  5  6  2  0
  5  7  1  0
 15  2  1  0
 15 16  2  0
 15 17  1  0
  6  8  1  0
 16 18  1  0
  7  9  2  0
 17 19  2  0
  8 10  2  0
 18 20  2  0
  9 10  1  0
 19 20  1  0
M  END
> <PUBCHEM_COMPOUND_CID>
8571

> <PUBCHEM_CONFORMER_RMSD>
0.6

> <PUBCHEM_CONFORMER_DIVERSEORDER>
3
14
8
5
6
10
13
11
12
7
2
4
9
1

> <PUBCHEM_MMFF94_PARTIAL_CHARGES>
28
1 -0.53
10 0.08
11 -0.15
12 -0.15
13 -0.15
14 -0.15
15 -0.15
16 -0.15
17 0.08
18 0.08
19 0.15
2 -0.53
20 0.15
21 0.15
22 0.15
23 0.15
24 0.15
25 0.45
26 0.45
27 0.45
28 0.45
3 -0.57
4 -0.53
5 -0.53
6 0.09
7 0.09
8 0.4
9 0.08

> <PUBCHEM_EFFECTIVE_ROTOR_COUNT>
2

> <PUBCHEM_PHARMACOPHORE_FEATURES>
7
1 1 donor
1 2 donor
1 3 acceptor
1 4 donor
1 5 donor
6 6 9 11 13 15 17 rings
6 7 10 12 14 16 18 rings

> <PUBCHEM_HEAVY_ATOM_COUNT>
18

> <PUBCHEM_ATOM_DEF_STEREO_COUNT>
0

> <PUBCHEM_ATOM_UDEF_STEREO_COUNT>
0

> <PUBCHEM_BOND_DEF_STEREO_COUNT>
0

> <PUBCHEM_BOND_UDEF_STEREO_COUNT>
0

> <PUBCHEM_ISOTOPIC_ATOM_COUNT>
0

> <PUBCHEM_COMPONENT_COUNT>
1

> <PUBCHEM_CACTVS_TAUTO_COUNT>
72

> <PUBCHEM_CONFORMER_ID>
0000217B00000003

> <PUBCHEM_MMFF94_ENERGY>
59.7646

> <PUBCHEM_FEATURE_SELFOVERLAP>
35.523

> <PUBCHEM_SHAPE_FINGERPRINT>
11471102 20 18409169892103070408
11543360 7 16558473084182650672
11578080 2 11531614863815746903
12236239 1 18131065996288699443
12730499 353 18260275135465842107
13764800 53 16298659508524951853
14115302 16 17274813641062312855
14993402 34 17846215540487606185
15309172 13 17603583049510828995
15342168 16 17968104165179409005
15775835 57 18412826888988243309
16752209 62 16702019734536568467
16945 1 18338804403115108058
1813 80 17908702826610089778
18186145 218 18334579027342918966
19784866 34 18334295413878624880
19862831 5 17703791439638752137
19868273 293 17846494850753190559
20612939 158 18410015399459763708
20645476 183 18131345336920073351
20645477 70 18339644438557177238
20871999 31 17703499013054573895
21486144 27 18040157318289672158
22079108 93 18187935001610251691
22854114 59 17458065950124340569
231179 274 17822006519258234448
23402539 116 18409442626948148612
23402655 69 18343585139818180612
23559900 14 18270131244514800908
23598291 2 17916313731579383754
25 1 18335137605093349618
2748010 2 18049736405846724776
2838139 119 17898835865392311757
3082319 5 17846778520178562597
350125 39 17829344823007393920
4028521 119 18341894112446576825
474 4 18335984259027423912
5374978 207 12973890299285696421
633830 44 18335985259854816367
74978 22 17775280611934871745
76465 3 11743574149888780620
77492 1 18131067091542367739
81228 2 16880770831219455195
8272917 22 18265617572439684195
9981440 41 17624393673978878472

> <PUBCHEM_SHAPE_MULTIPOLES>
341.08
8.1
1.9
1.16
0.73
0.35
-0.07
-4.23
-1.78
-1.35
0.05
0.84
0.24
-0.62

> <PUBCHEM_SHAPE_SELFOVERLAP>
750.848

> <PUBCHEM_SHAPE_VOLUME>
184

> <PUBCHEM_COORDINATE_TYPE>
2
5
10

> <Energy>
46.2868

> <minimizedAffinity>
-7.74015

> <CNNscore>
0.7404506803

> <CNNaffinity>
5.5728759766

> <CNN_VS>
4.1264395714

> <CNNaffinity_variance>
0.5143417716

$$$$
8571


 22 23  0  0  0  0  0  0  0  0999 V2000
   -5.4276   -2.8056   20.5553 O   0  0  0  0  0  0  0  0  0  0  0  0
   -4.5184   -3.6159   20.7136 C   0  0  0  0  0  0  0  0  0  0  0  0
   -3.0115   -2.8383   18.3899 O   0  0  0  0  0  0  0  0  0  0  0  0
    0.8281   -1.8495   21.0068 O   0  0  0  0  0  0  0  0  0  0  0  0
   -3.1133   -3.1463   20.8052 C   0  0  0  0  0  0  0  0  0  0  0  0
   -2.4331   -2.7842   19.6311 C   0  0  0  0  0  0  0  0  0  0  0  0
   -2.4449   -3.0678   22.0346 C   0  0  0  0  0  0  0  0  0  0  0  0
   -1.1144   -2.3362   19.6793 C   0  0  0  0  0  0  0  0  0  0  0  0
   -1.1175   -2.6345   22.0815 C   0  0  0  0  0  0  0  0  0  0  0  0
   -0.4657   -2.2689   20.9081 C   0  0  0  0  0  0  0  0  0  0  0  0
   -3.8965   -3.1320   18.2979 H   0  0  0  0  0  0  0  0  0  0  0  0
    1.2983   -1.5954   20.2373 H   0  0  0  0  0  0  0  0  0  0  0  0
   -6.5814   -4.8247   19.2544 O   0  0  0  0  0  0  0  0  0  0  0  0
   -5.7162   -9.0543   21.3448 O   0  0  0  0  0  0  0  0  0  0  0  0
   -4.8436   -5.0426   20.8788 C   0  0  0  0  0  0  0  0  0  0  0  0
   -5.8718   -5.6087   20.1197 C   0  0  0  0  0  0  0  0  0  0  0  0
   -4.1059   -5.8210   21.7744 C   0  0  0  0  0  0  0  0  0  0  0  0
   -6.1771   -6.9620   20.2542 C   0  0  0  0  0  0  0  0  0  0  0  0
   -4.4245   -7.1706   21.9248 C   0  0  0  0  0  0  0  0  0  0  0  0
   -5.4506   -7.7289   21.1639 C   0  0  0  0  0  0  0  0  0  0  0  0
   -6.3726   -3.9154   19.1674 H   0  0  0  0  0  0  0  0  0  0  0  0
   -6.3982   -9.4668   20.8523 H   0  0  0  0  0  0  0  0  0  0  0  0
  3  6  1  0
  3 11  1  0
 13 16  1  0
 13 21  1  0
  1  2  2  0
  4 10  1  0
  4 12  1  0
 14 20  1  0
 14 22  1  0
  5  2  1  0
  5  6  2  0
  5  7  1  0
 15  2  1  0
 15 16  2  0
 15 17  1  0
  6  8  1  0
 16 18  1  0
  7  9  2  0
 17 19  2  0
  8 10  2  0
 18 20  2  0
  9 10  1  0
 19 20  1  0
M  END
> <PUBCHEM_COMPOUND_CID>
8571

> <PUBCHEM_CONFORMER_RMSD>
0.6

> <PUBCHEM_CONFORMER_DIVERSEORDER>
3
14
8
5
6
10
13
11
12
7
2
4
9
1

> <PUBCHEM_MMFF94_PARTIAL_CHARGES>
28
1 -0.53
10 0.08
11 -0.15
12 -0.15
13 -0.15
14 -0.15
15 -0.15
16 -0.15
17 0.08
18 0.08
19 0.15
2 -0.53
20 0.15
21 0.15
22 0.15
23 0.15
24 0.15
25 0.45
26 0.45
27 0.45
28 0.45
3 -0.57
4 -0.53
5 -0.53
6 0.09
7 0.09
8 0.4
9 0.08

> <PUBCHEM_EFFECTIVE_ROTOR_COUNT>
2

> <PUBCHEM_PHARMACOPHORE_FEATURES>
7
1 1 donor
1 2 donor
1 3 acceptor
1 4 donor
1 5 donor
6 6 9 11 13 15 17 rings
6 7 10 12 14 16 18 rings

> <PUBCHEM_HEAVY_ATOM_COUNT>
18

> <PUBCHEM_ATOM_DEF_STEREO_COUNT>
0

> <PUBCHEM_ATOM_UDEF_STEREO_COUNT>
0

> <PUBCHEM_BOND_DEF_STEREO_COUNT>
0

> <PUBCHEM_BOND_UDEF_STEREO_COUNT>
0

> <PUBCHEM_ISOTOPIC_ATOM_COUNT>
0

> <PUBCHEM_COMPONENT_COUNT>
1

> <PUBCHEM_CACTVS_TAUTO_COUNT>
72

> <PUBCHEM_CONFORMER_ID>
0000217B00000003

> <PUBCHEM_MMFF94_ENERGY>
59.7646

> <PUBCHEM_FEATURE_SELFOVERLAP>
35.523

> <PUBCHEM_SHAPE_FINGERPRINT>
11471102 20 18409169892103070408
11543360 7 16558473084182650672
11578080 2 11531614863815746903
12236239 1 18131065996288699443
12730499 353 18260275135465842107
13764800 53 16298659508524951853
14115302 16 17274813641062312855
14993402 34 17846215540487606185
15309172 13 17603583049510828995
15342168 16 17968104165179409005
15775835 57 18412826888988243309
16752209 62 16702019734536568467
16945 1 18338804403115108058
1813 80 17908702826610089778
18186145 218 18334579027342918966
19784866 34 18334295413878624880
19862831 5 17703791439638752137
19868273 293 17846494850753190559
20612939 158 18410015399459763708
20645476 183 18131345336920073351
20645477 70 18339644438557177238
20871999 31 17703499013054573895
21486144 27 18040157318289672158
22079108 93 18187935001610251691
22854114 59 17458065950124340569
231179 274 17822006519258234448
23402539 116 18409442626948148612
23402655 69 18343585139818180612
23559900 14 18270131244514800908
23598291 2 17916313731579383754
25 1 18335137605093349618
2748010 2 18049736405846724776
2838139 119 17898835865392311757
3082319 5 17846778520178562597
350125 39 17829344823007393920
4028521 119 18341894112446576825
474 4 18335984259027423912
5374978 207 12973890299285696421
633830 44 18335985259854816367
74978 22 17775280611934871745
76465 3 11743574149888780620
77492 1 18131067091542367739
81228 2 16880770831219455195
8272917 22 18265617572439684195
9981440 41 17624393673978878472

> <PUBCHEM_SHAPE_MULTIPOLES>
341.08
8.1
1.9
1.16
0.73
0.35
-0.07
-4.23
-1.78
-1.35
0.05
0.84
0.24
-0.62

> <PUBCHEM_SHAPE_SELFOVERLAP>
750.848

> <PUBCHEM_SHAPE_VOLUME>
184

> <PUBCHEM_COORDINATE_TYPE>
2
5
10

> <Energy>
46.2868

> <minimizedAffinity>
-8.03002

> <CNNscore>
0.7362332344

> <CNNaffinity>
5.1147341728

> <CNN_VS>
3.7656373978

> <CNNaffinity_variance>
0.1199031770

$$$$
8571


 22 23  0  0  0  0  0  0  0  0999 V2000
   -5.1616   -3.4279   19.7810 O   0  0  0  0  0  0  0  0  0  0  0  0
   -4.5757   -3.2486   20.8453 C   0  0  0  0  0  0  0  0  0  0  0  0
   -3.1217   -2.6578   18.4345 O   0  0  0  0  0  0  0  0  0  0  0  0
    0.9629   -2.1930   20.8153 O   0  0  0  0  0  0  0  0  0  0  0  0
   -3.1186   -2.9660   20.8520 C   0  0  0  0  0  0  0  0  0  0  0  0
   -2.4683   -2.6875   19.6388 C   0  0  0  0  0  0  0  0  0  0  0  0
   -2.3735   -2.9831   22.0389 C   0  0  0  0  0  0  0  0  0  0  0  0
   -1.1021   -2.4147   19.6072 C   0  0  0  0  0  0  0  0  0  0  0  0
   -1.0006   -2.7261   22.0056 C   0  0  0  0  0  0  0  0  0  0  0  0
   -0.3781   -2.4403   20.7948 C   0  0  0  0  0  0  0  0  0  0  0  0
   -4.0414   -2.8335   18.3961 H   0  0  0  0  0  0  0  0  0  0  0  0
    1.4154   -1.9970   20.0186 H   0  0  0  0  0  0  0  0  0  0  0  0
   -5.2972   -5.6378   22.1172 O   0  0  0  0  0  0  0  0  0  0  0  0
   -7.4787   -3.2204   25.6393 O   0  0  0  0  0  0  0  0  0  0  0  0
   -5.3443   -3.2496   22.1015 C   0  0  0  0  0  0  0  0  0  0  0  0
   -5.6706   -4.4649   22.7102 C   0  0  0  0  0  0  0  0  0  0  0  0
   -5.7184   -2.0361   22.6844 C   0  0  0  0  0  0  0  0  0  0  0  0
   -6.3822   -4.4782   23.9086 C   0  0  0  0  0  0  0  0  0  0  0  0
   -6.4485   -2.0492   23.8729 C   0  0  0  0  0  0  0  0  0  0  0  0
   -6.7698   -3.2648   24.4750 C   0  0  0  0  0  0  0  0  0  0  0  0
   -4.8189   -5.6239   21.3115 H   0  0  0  0  0  0  0  0  0  0  0  0
   -7.7142   -4.0158   26.0749 H   0  0  0  0  0  0  0  0  0  0  0  0
  3  6  1  0
  3 11  1  0
 13 16  1  0
 13 21  1  0
  1  2  2  0
  4 10  1  0
  4 12  1  0
 14 20  1  0
 14 22  1  0
  5  2  1  0
  5  6  2  0
  5  7  1  0
 15  2  1  0
 15 16  2  0
 15 17  1  0
  6  8  1  0
 16 18  1  0
  7  9  2  0
 17 19  2  0
  8 10  2  0
 18 20  2  0
  9 10  1  0
 19 20  1  0
M  END
> <PUBCHEM_COMPOUND_CID>
8571

> <PUBCHEM_CONFORMER_RMSD>
0.6

> <PUBCHEM_CONFORMER_DIVERSEORDER>
3
14
8
5
6
10
13
11
12
7
2
4
9
1

> <PUBCHEM_MMFF94_PARTIAL_CHARGES>
28
1 -0.53
10 0.08
11 -0.15
12 -0.15
13 -0.15
14 -0.15
15 -0.15
16 -0.15
17 0.08
18 0.08
19 0.15
2 -0.53
20 0.15
21 0.15
22 0.15
23 0.15
24 0.15
25 0.45
26 0.45
27 0.45
28 0.45
3 -0.57
4 -0.53
5 -0.53
6 0.09
7 0.09
8 0.4
9 0.08

> <PUBCHEM_EFFECTIVE_ROTOR_COUNT>
2

> <PUBCHEM_PHARMACOPHORE_FEATURES>
7
1 1 donor
1 2 donor
1 3 acceptor
1 4 donor
1 5 donor
6 6 9 11 13 15 17 rings
6 7 10 12 14 16 18 rings

> <PUBCHEM_HEAVY_ATOM_COUNT>
18

> <PUBCHEM_ATOM_DEF_STEREO_COUNT>
0

> <PUBCHEM_ATOM_UDEF_STEREO_COUNT>
0

> <PUBCHEM_BOND_DEF_STEREO_COUNT>
0

> <PUBCHEM_BOND_UDEF_STEREO_COUNT>
0

> <PUBCHEM_ISOTOPIC_ATOM_COUNT>
0

> <PUBCHEM_COMPONENT_COUNT>
1

> <PUBCHEM_CACTVS_TAUTO_COUNT>
72

> <PUBCHEM_CONFORMER_ID>
0000217B00000003

> <PUBCHEM_MMFF94_ENERGY>
59.7646

> <PUBCHEM_FEATURE_SELFOVERLAP>
35.523

> <PUBCHEM_SHAPE_FINGERPRINT>
11471102 20 18409169892103070408
11543360 7 16558473084182650672
11578080 2 11531614863815746903
12236239 1 18131065996288699443
12730499 353 18260275135465842107
13764800 53 16298659508524951853
14115302 16 17274813641062312855
14993402 34 17846215540487606185
15309172 13 17603583049510828995
15342168 16 17968104165179409005
15775835 57 18412826888988243309
16752209 62 16702019734536568467
16945 1 18338804403115108058
1813 80 17908702826610089778
18186145 218 18334579027342918966
19784866 34 18334295413878624880
19862831 5 17703791439638752137
19868273 293 17846494850753190559
20612939 158 18410015399459763708
20645476 183 18131345336920073351
20645477 70 18339644438557177238
20871999 31 17703499013054573895
21486144 27 18040157318289672158
22079108 93 18187935001610251691
22854114 59 17458065950124340569
231179 274 17822006519258234448
23402539 116 18409442626948148612
23402655 69 18343585139818180612
23559900 14 18270131244514800908
23598291 2 17916313731579383754
25 1 18335137605093349618
2748010 2 18049736405846724776
2838139 119 17898835865392311757
3082319 5 17846778520178562597
350125 39 17829344823007393920
4028521 119 18341894112446576825
474 4 18335984259027423912
5374978 207 12973890299285696421
633830 44 18335985259854816367
74978 22 17775280611934871745
76465 3 11743574149888780620
77492 1 18131067091542367739
81228 2 16880770831219455195
8272917 22 18265617572439684195
9981440 41 17624393673978878472

> <PUBCHEM_SHAPE_MULTIPOLES>
341.08
8.1
1.9
1.16
0.73
0.35
-0.07
-4.23
-1.78
-1.35
0.05
0.84
0.24
-0.62

> <PUBCHEM_SHAPE_SELFOVERLAP>
750.848

> <PUBCHEM_SHAPE_VOLUME>
184

> <PUBCHEM_COORDINATE_TYPE>
2
5
10

> <Energy>
46.2868

> <minimizedAffinity>
-8.16508

> <CNNscore>
0.7242994308

> <CNNaffinity>
5.7943606377

> <CNN_VS>
4.1968522072

> <CNNaffinity_variance>
0.2097019404

$$$$
