2999413


 26 27  0  0  0  0  0  0  0  0999 V2000
   -4.0383   -4.0802   17.2046 O   0  0  0  0  0  0  0  0  0  0  0  0
   -0.2786   -3.9850   21.7803 O   0  0  0  0  0  0  0  0  0  0  0  0
    0.0257   -1.7423   21.3188 O   0  0  0  0  0  0  0  0  0  0  0  0
    1.1397   -3.4413   24.3025 O   0  0  0  0  0  0  0  0  0  0  0  0
   -2.3283   -1.9736   27.2507 O   0  0  0  0  0  0  0  0  0  0  0  0
   -3.7760   -4.7809   18.4198 C   0  0  0  0  0  0  0  0  0  0  0  0
   -4.6138   -4.1482   19.5404 C   0  0  0  0  0  0  0  0  0  0  0  0
   -2.2608   -4.7919   18.6740 C   0  0  0  0  0  0  0  0  0  0  0  0
   -4.3814   -2.6414   19.7288 C   0  0  0  0  0  0  0  0  0  0  0  0
   -1.8599   -5.6070   19.9060 C   0  0  0  0  0  0  0  0  0  0  0  0
   -5.0381   -2.1070   21.0078 C   0  0  0  0  0  0  0  0  0  0  0  0
   -0.3403   -5.6950   20.0993 C   0  0  0  0  0  0  0  0  0  0  0  0
   -4.2341   -2.4098   22.2795 C   0  0  0  0  0  0  0  0  0  0  0  0
    0.3028   -4.3661   20.5210 C   0  0  0  0  0  0  0  0  0  0  0  0
   -3.0364   -1.4650   22.4600 C   0  0  0  0  0  0  0  0  0  0  0  0
   -2.1393   -1.8972   23.5994 C   0  0  0  0  0  0  0  0  0  0  0  0
    1.8089   -4.5375   20.7039 C   0  0  0  0  0  0  0  0  0  0  0  0
   -0.8710   -2.4836   23.4030 C   0  0  0  0  0  0  0  0  0  0  0  0
   -0.3077   -2.6575   22.0512 C   0  0  0  0  0  0  0  0  0  0  0  0
   -2.5982   -1.7373   24.9192 C   0  0  0  0  0  0  0  0  0  0  0  0
   -0.0983   -2.8915   24.5029 C   0  0  0  0  0  0  0  0  0  0  0  0
   -1.8209   -2.1544   25.9976 C   0  0  0  0  0  0  0  0  0  0  0  0
   -0.5726   -2.7336   25.8036 C   0  0  0  0  0  0  0  0  0  0  0  0
   -4.9937   -4.0693   17.0374 H   0  0  0  0  0  0  0  0  0  0  0  0
    1.4677   -3.5519   23.4318 H   0  0  0  0  0  0  0  0  0  0  0  0
   -3.1718   -1.5813   27.3624 H   0  0  0  0  0  0  0  0  0  0  0  0
  1  6  1  0
  1 24  1  0
  2 14  1  0
  2 19  1  0
  3 19  2  0
  4 21  1  0
  4 25  1  0
  5 22  1  0
  5 26  1  0
  6  7  1  0
  6  8  1  0
  7  9  1  0
  8 10  1  0
  9 11  1  0
 10 12  1  0
 11 13  1  0
 12 14  1  0
 13 15  1  0
 14 17  1  0
 15 16  1  0
 16 18  2  0
 16 20  1  0
 18 19  1  0
 18 21  1  0
 20 22  2  0
 21 23  2  0
 22 23  1  0
M  END
> <PUBCHEM_COMPOUND_CID>
2999413

> <PUBCHEM_CONFORMER_RMSD>
0.6

> <PUBCHEM_CONFORMER_DIVERSEORDER>
1
6
14
27
9
16
11
26
8
2
22
5
20
28
18
17
29
3
24
19
21
13
15
7
23
4
25
12
10

> <PUBCHEM_MMFF94_PARTIAL_CHARGES>
20
1 -0.68
14 0.28
15 0.14
16 -0.14
18 0.09
19 0.63
2 -0.43
20 -0.15
21 0.08
22 0.08
23 -0.15
3 -0.57
4 -0.53
45 0.4
46 0.15
47 0.15
48 0.45
49 0.45
5 -0.53
6 0.28

> <PUBCHEM_EFFECTIVE_ROTOR_COUNT>
2.2

> <PUBCHEM_PHARMACOPHORE_FEATURES>
6
1 1 acceptor
1 1 donor
1 3 acceptor
1 4 donor
1 5 donor
6 16 18 20 21 22 23 rings

> <PUBCHEM_HEAVY_ATOM_COUNT>
23

> <PUBCHEM_ATOM_DEF_STEREO_COUNT>
2

> <PUBCHEM_ATOM_UDEF_STEREO_COUNT>
0

> <PUBCHEM_BOND_DEF_STEREO_COUNT>
0

> <PUBCHEM_BOND_UDEF_STEREO_COUNT>
0

> <PUBCHEM_ISOTOPIC_ATOM_COUNT>
0

> <PUBCHEM_COMPONENT_COUNT>
1

> <PUBCHEM_CACTVS_TAUTO_COUNT>
25

> <PUBCHEM_CONFORMER_ID>
002DC47500000001

> <PUBCHEM_MMFF94_ENERGY>
51.6521

> <PUBCHEM_FEATURE_SELFOVERLAP>
30.446

> <PUBCHEM_SHAPE_FINGERPRINT>
104564 63 18340206271993051459
10498660 4 18187631549186102207
10577160 183 17606693423048979742
10616163 171 18266175029013727061
10759866 29 17750229218859711762
108634 29 18411143511243732574
1100329 8 17185877190433830119
11578080 2 17058915861662947194
116883 192 18412832382636582198
12011746 2 18335696144590423807
12054548 360 18337387261554875763
12156800 1 11695045847065978403
12553582 1 18337941355723699521
12788726 201 18339079272527017530
12954195 1 18196384628153038830
13402501 40 18410292523613913767
13533116 47 17911794988931237615
13941206 138 17823424798885047762
14178342 30 17618481208803059632
14251740 79 18268155262187636390
14251745 187 18265888240930317283
14251751 93 18337386020182837502
14251757 17 18340208496912958262
14251757 5 18336274478600052878
14289585 56 17025448677686211638
14363568 33 17831602116089395611
14790565 3 18338242566191680045
14931854 50 18192983829844991199
15081414 286 18267592488269592273
15210252 30 18041841838786063412
17093844 170 18338788043621724272
17357779 13 18338788026679147463
19591789 44 18410009931708134251
20775438 99 17121094438368206175
21141583 151 18411697703262438637
21634736 98 18410570674064001468
221357 26 18411697699342485711
221490 88 18411139126039522364
22393880 68 18190738627232927852
22907989 373 17973200346140242700
23379529 103 18202007594804787190
23419403 2 17703496796872386008
23559900 14 18341611543049219120
23566358 2 18411982468764321124
238 59 17976219553578124023
2871803 45 18335692832737868381
3014063 31 18410290320121227783
6287921 2 17544481216121896507

> <PUBCHEM_SHAPE_MULTIPOLES>
443.98
8.13
4.23
1.13
0.08
1.63
0.2
-3.4
-2.74
-1.52
0.36
0
0.19
0.73

> <PUBCHEM_SHAPE_SELFOVERLAP>
910.639

> <PUBCHEM_SHAPE_VOLUME>
254.2

> <PUBCHEM_COORDINATE_TYPE>
2
5
10

> <Energy>
43.3336

> <minimizedAffinity>
-3.39969

> <CNNscore>
0.6440821290

> <CNNaffinity>
6.4889831543

> <CNN_VS>
4.1794381142

> <CNNaffinity_variance>
0.4691609442

$$$$
2999413


 26 27  0  0  0  0  0  0  0  0999 V2000
   -3.4324   -4.7263   17.4185 O   0  0  0  0  0  0  0  0  0  0  0  0
   -3.2297   -2.0152   22.6807 O   0  0  0  0  0  0  0  0  0  0  0  0
   -3.4993   -4.1059   23.6249 O   0  0  0  0  0  0  0  0  0  0  0  0
   -2.5726   -1.1038   25.4021 O   0  0  0  0  0  0  0  0  0  0  0  0
    2.1180   -1.9596   25.7746 O   0  0  0  0  0  0  0  0  0  0  0  0
   -2.9132   -3.5403   18.0190 C   0  0  0  0  0  0  0  0  0  0  0  0
   -1.4802   -3.8197   18.4948 C   0  0  0  0  0  0  0  0  0  0  0  0
   -3.8789   -3.0719   19.1183 C   0  0  0  0  0  0  0  0  0  0  0  0
   -1.3556   -5.0085   19.4597 C   0  0  0  0  0  0  0  0  0  0  0  0
   -3.4654   -1.7464   19.7624 C   0  0  0  0  0  0  0  0  0  0  0  0
    0.0346   -5.0931   20.1023 C   0  0  0  0  0  0  0  0  0  0  0  0
   -4.4832   -1.2351   20.7903 C   0  0  0  0  0  0  0  0  0  0  0  0
    0.2326   -4.1067   21.2613 C   0  0  0  0  0  0  0  0  0  0  0  0
   -4.5329   -2.0745   22.0749 C   0  0  0  0  0  0  0  0  0  0  0  0
   -0.4337   -4.5816   22.5613 C   0  0  0  0  0  0  0  0  0  0  0  0
   -0.4068   -3.5155   23.6350 C   0  0  0  0  0  0  0  0  0  0  0  0
   -5.5572   -1.4974   23.0491 C   0  0  0  0  0  0  0  0  0  0  0  0
   -1.5502   -2.7889   24.0295 C   0  0  0  0  0  0  0  0  0  0  0  0
   -2.8766   -3.0730   23.4508 C   0  0  0  0  0  0  0  0  0  0  0  0
    0.8192   -3.2084   24.2521 C   0  0  0  0  0  0  0  0  0  0  0  0
   -1.4535   -1.7897   25.0121 C   0  0  0  0  0  0  0  0  0  0  0  0
    0.8972   -2.2091   25.2198 C   0  0  0  0  0  0  0  0  0  0  0  0
   -0.2289   -1.4923   25.6067 C   0  0  0  0  0  0  0  0  0  0  0  0
   -2.8275   -5.0280   16.7229 H   0  0  0  0  0  0  0  0  0  0  0  0
   -3.4008   -1.2962   25.0084 H   0  0  0  0  0  0  0  0  0  0  0  0
    2.8663   -2.4528   25.5014 H   0  0  0  0  0  0  0  0  0  0  0  0
  1  6  1  0
  1 24  1  0
  2 14  1  0
  2 19  1  0
  3 19  2  0
  4 21  1  0
  4 25  1  0
  5 22  1  0
  5 26  1  0
  6  7  1  0
  6  8  1  0
  7  9  1  0
  8 10  1  0
  9 11  1  0
 10 12  1  0
 11 13  1  0
 12 14  1  0
 13 15  1  0
 14 17  1  0
 15 16  1  0
 16 18  2  0
 16 20  1  0
 18 19  1  0
 18 21  1  0
 20 22  2  0
 21 23  2  0
 22 23  1  0
M  END
> <PUBCHEM_COMPOUND_CID>
2999413

> <PUBCHEM_CONFORMER_RMSD>
0.6

> <PUBCHEM_CONFORMER_DIVERSEORDER>
1
6
14
27
9
16
11
26
8
2
22
5
20
28
18
17
29
3
24
19
21
13
15
7
23
4
25
12
10

> <PUBCHEM_MMFF94_PARTIAL_CHARGES>
20
1 -0.68
14 0.28
15 0.14
16 -0.14
18 0.09
19 0.63
2 -0.43
20 -0.15
21 0.08
22 0.08
23 -0.15
3 -0.57
4 -0.53
45 0.4
46 0.15
47 0.15
48 0.45
49 0.45
5 -0.53
6 0.28

> <PUBCHEM_EFFECTIVE_ROTOR_COUNT>
2.2

> <PUBCHEM_PHARMACOPHORE_FEATURES>
6
1 1 acceptor
1 1 donor
1 3 acceptor
1 4 donor
1 5 donor
6 16 18 20 21 22 23 rings

> <PUBCHEM_HEAVY_ATOM_COUNT>
23

> <PUBCHEM_ATOM_DEF_STEREO_COUNT>
2

> <PUBCHEM_ATOM_UDEF_STEREO_COUNT>
0

> <PUBCHEM_BOND_DEF_STEREO_COUNT>
0

> <PUBCHEM_BOND_UDEF_STEREO_COUNT>
0

> <PUBCHEM_ISOTOPIC_ATOM_COUNT>
0

> <PUBCHEM_COMPONENT_COUNT>
1

> <PUBCHEM_CACTVS_TAUTO_COUNT>
25

> <PUBCHEM_CONFORMER_ID>
002DC47500000001

> <PUBCHEM_MMFF94_ENERGY>
51.6521

> <PUBCHEM_FEATURE_SELFOVERLAP>
30.446

> <PUBCHEM_SHAPE_FINGERPRINT>
104564 63 18340206271993051459
10498660 4 18187631549186102207
10577160 183 17606693423048979742
10616163 171 18266175029013727061
10759866 29 17750229218859711762
108634 29 18411143511243732574
1100329 8 17185877190433830119
11578080 2 17058915861662947194
116883 192 18412832382636582198
12011746 2 18335696144590423807
12054548 360 18337387261554875763
12156800 1 11695045847065978403
12553582 1 18337941355723699521
12788726 201 18339079272527017530
12954195 1 18196384628153038830
13402501 40 18410292523613913767
13533116 47 17911794988931237615
13941206 138 17823424798885047762
14178342 30 17618481208803059632
14251740 79 18268155262187636390
14251745 187 18265888240930317283
14251751 93 18337386020182837502
14251757 17 18340208496912958262
14251757 5 18336274478600052878
14289585 56 17025448677686211638
14363568 33 17831602116089395611
14790565 3 18338242566191680045
14931854 50 18192983829844991199
15081414 286 18267592488269592273
15210252 30 18041841838786063412
17093844 170 18338788043621724272
17357779 13 18338788026679147463
19591789 44 18410009931708134251
20775438 99 17121094438368206175
21141583 151 18411697703262438637
21634736 98 18410570674064001468
221357 26 18411697699342485711
221490 88 18411139126039522364
22393880 68 18190738627232927852
22907989 373 17973200346140242700
23379529 103 18202007594804787190
23419403 2 17703496796872386008
23559900 14 18341611543049219120
23566358 2 18411982468764321124
238 59 17976219553578124023
2871803 45 18335692832737868381
3014063 31 18410290320121227783
6287921 2 17544481216121896507

> <PUBCHEM_SHAPE_MULTIPOLES>
443.98
8.13
4.23
1.13
0.08
1.63
0.2
-3.4
-2.74
-1.52
0.36
0
0.19
0.73

> <PUBCHEM_SHAPE_SELFOVERLAP>
910.639

> <PUBCHEM_SHAPE_VOLUME>
254.2

> <PUBCHEM_COORDINATE_TYPE>
2
5
10

> <Energy>
43.3336

> <minimizedAffinity>
-6.38601

> <CNNscore>
0.4583067000

> <CNNaffinity>
6.4488430023

> <CNN_VS>
2.9555480480

> <CNNaffinity_variance>
0.2807049453

$$$$
2999413


 26 27  0  0  0  0  0  0  0  0999 V2000
   -6.6499   -4.0788   19.6698 O   0  0  0  0  0  0  0  0  0  0  0  0
   -0.9965   -4.2833   21.4243 O   0  0  0  0  0  0  0  0  0  0  0  0
   -0.7153   -2.2725   20.3231 O   0  0  0  0  0  0  0  0  0  0  0  0
    1.6489   -3.7630   22.6075 O   0  0  0  0  0  0  0  0  0  0  0  0
    0.6591   -1.0871   26.4458 O   0  0  0  0  0  0  0  0  0  0  0  0
   -5.8445   -4.6469   20.7020 C   0  0  0  0  0  0  0  0  0  0  0  0
   -5.8184   -3.6770   21.8921 C   0  0  0  0  0  0  0  0  0  0  0  0
   -4.4647   -4.9974   20.1242 C   0  0  0  0  0  0  0  0  0  0  0  0
   -5.3269   -2.2637   21.5444 C   0  0  0  0  0  0  0  0  0  0  0  0
   -3.5516   -5.7072   21.1268 C   0  0  0  0  0  0  0  0  0  0  0  0
   -5.0767   -1.4108   22.7945 C   0  0  0  0  0  0  0  0  0  0  0  0
   -2.2124   -6.1411   20.5167 C   0  0  0  0  0  0  0  0  0  0  0  0
   -3.7451   -1.7237   23.4906 C   0  0  0  0  0  0  0  0  0  0  0  0
   -1.2774   -4.9677   20.1907 C   0  0  0  0  0  0  0  0  0  0  0  0
   -2.5420   -1.0895   22.7764 C   0  0  0  0  0  0  0  0  0  0  0  0
   -1.2254   -1.5679   23.3489 C   0  0  0  0  0  0  0  0  0  0  0  0
    0.0342   -5.4797   19.6001 C   0  0  0  0  0  0  0  0  0  0  0  0
   -0.3750   -2.4716   22.6772 C   0  0  0  0  0  0  0  0  0  0  0  0
   -0.6958   -2.9657   21.3252 C   0  0  0  0  0  0  0  0  0  0  0  0
   -0.8392   -1.1175   24.6241 C   0  0  0  0  0  0  0  0  0  0  0  0
    0.8208   -2.9014   23.2759 C   0  0  0  0  0  0  0  0  0  0  0  0
    0.3472   -1.5602   25.2051 C   0  0  0  0  0  0  0  0  0  0  0  0
    1.1835   -2.4518   24.5440 C   0  0  0  0  0  0  0  0  0  0  0  0
   -7.5233   -3.8548   20.0274 H   0  0  0  0  0  0  0  0  0  0  0  0
    1.4141   -4.0713   21.7544 H   0  0  0  0  0  0  0  0  0  0  0  0
    0.0832   -0.4865   26.8765 H   0  0  0  0  0  0  0  0  0  0  0  0
  1  6  1  0
  1 24  1  0
  2 14  1  0
  2 19  1  0
  3 19  2  0
  4 21  1  0
  4 25  1  0
  5 22  1  0
  5 26  1  0
  6  7  1  0
  6  8  1  0
  7  9  1  0
  8 10  1  0
  9 11  1  0
 10 12  1  0
 11 13  1  0
 12 14  1  0
 13 15  1  0
 14 17  1  0
 15 16  1  0
 16 18  2  0
 16 20  1  0
 18 19  1  0
 18 21  1  0
 20 22  2  0
 21 23  2  0
 22 23  1  0
M  END
> <PUBCHEM_COMPOUND_CID>
2999413

> <PUBCHEM_CONFORMER_RMSD>
0.6

> <PUBCHEM_CONFORMER_DIVERSEORDER>
1
6
14
27
9
16
11
26
8
2
22
5
20
28
18
17
29
3
24
19
21
13
15
7
23
4
25
12
10

> <PUBCHEM_MMFF94_PARTIAL_CHARGES>
20
1 -0.68
14 0.28
15 0.14
16 -0.14
18 0.09
19 0.63
2 -0.43
20 -0.15
21 0.08
22 0.08
23 -0.15
3 -0.57
4 -0.53
45 0.4
46 0.15
47 0.15
48 0.45
49 0.45
5 -0.53
6 0.28

> <PUBCHEM_EFFECTIVE_ROTOR_COUNT>
2.2

> <PUBCHEM_PHARMACOPHORE_FEATURES>
6
1 1 acceptor
1 1 donor
1 3 acceptor
1 4 donor
1 5 donor
6 16 18 20 21 22 23 rings

> <PUBCHEM_HEAVY_ATOM_COUNT>
23

> <PUBCHEM_ATOM_DEF_STEREO_COUNT>
2

> <PUBCHEM_ATOM_UDEF_STEREO_COUNT>
0

> <PUBCHEM_BOND_DEF_STEREO_COUNT>
0

> <PUBCHEM_BOND_UDEF_STEREO_COUNT>
0

> <PUBCHEM_ISOTOPIC_ATOM_COUNT>
0

> <PUBCHEM_COMPONENT_COUNT>
1

> <PUBCHEM_CACTVS_TAUTO_COUNT>
25

> <PUBCHEM_CONFORMER_ID>
002DC47500000001

> <PUBCHEM_MMFF94_ENERGY>
51.6521

> <PUBCHEM_FEATURE_SELFOVERLAP>
30.446

> <PUBCHEM_SHAPE_FINGERPRINT>
104564 63 18340206271993051459
10498660 4 18187631549186102207
10577160 183 17606693423048979742
10616163 171 18266175029013727061
10759866 29 17750229218859711762
108634 29 18411143511243732574
1100329 8 17185877190433830119
11578080 2 17058915861662947194
116883 192 18412832382636582198
12011746 2 18335696144590423807
12054548 360 18337387261554875763
12156800 1 11695045847065978403
12553582 1 18337941355723699521
12788726 201 18339079272527017530
12954195 1 18196384628153038830
13402501 40 18410292523613913767
13533116 47 17911794988931237615
13941206 138 17823424798885047762
14178342 30 17618481208803059632
14251740 79 18268155262187636390
14251745 187 18265888240930317283
14251751 93 18337386020182837502
14251757 17 18340208496912958262
14251757 5 18336274478600052878
14289585 56 17025448677686211638
14363568 33 17831602116089395611
14790565 3 18338242566191680045
14931854 50 18192983829844991199
15081414 286 18267592488269592273
15210252 30 18041841838786063412
17093844 170 18338788043621724272
17357779 13 18338788026679147463
19591789 44 18410009931708134251
20775438 99 17121094438368206175
21141583 151 18411697703262438637
21634736 98 18410570674064001468
221357 26 18411697699342485711
221490 88 18411139126039522364
22393880 68 18190738627232927852
22907989 373 17973200346140242700
23379529 103 18202007594804787190
23419403 2 17703496796872386008
23559900 14 18341611543049219120
23566358 2 18411982468764321124
238 59 17976219553578124023
2871803 45 18335692832737868381
3014063 31 18410290320121227783
6287921 2 17544481216121896507

> <PUBCHEM_SHAPE_MULTIPOLES>
443.98
8.13
4.23
1.13
0.08
1.63
0.2
-3.4
-2.74
-1.52
0.36
0
0.19
0.73

> <PUBCHEM_SHAPE_SELFOVERLAP>
910.639

> <PUBCHEM_SHAPE_VOLUME>
254.2

> <PUBCHEM_COORDINATE_TYPE>
2
5
10

> <Energy>
43.3336

> <minimizedAffinity>
-3.15150

> <CNNscore>
0.4334570467

> <CNNaffinity>
6.0376930237

> <CNN_VS>
2.6170806885

> <CNNaffinity_variance>
0.0853621438

$$$$
2999413


 26 27  0  0  0  0  0  0  0  0999 V2000
   -4.1736   -7.5327   20.9160 O   0  0  0  0  0  0  0  0  0  0  0  0
   -0.3260   -3.0359   21.1549 O   0  0  0  0  0  0  0  0  0  0  0  0
   -2.1458   -1.6670   21.5412 O   0  0  0  0  0  0  0  0  0  0  0  0
    1.3150   -0.7174   21.9295 O   0  0  0  0  0  0  0  0  0  0  0  0
    1.5814   -1.0670   26.6918 O   0  0  0  0  0  0  0  0  0  0  0  0
   -2.7978   -7.2839   21.2026 C   0  0  0  0  0  0  0  0  0  0  0  0
   -2.6487   -7.0386   22.7111 C   0  0  0  0  0  0  0  0  0  0  0  0
   -2.3001   -6.1371   20.3095 C   0  0  0  0  0  0  0  0  0  0  0  0
   -3.5246   -5.9001   23.2554 C   0  0  0  0  0  0  0  0  0  0  0  0
   -0.8040   -5.8540   20.4661 C   0  0  0  0  0  0  0  0  0  0  0  0
   -3.1606   -5.5245   24.6973 C   0  0  0  0  0  0  0  0  0  0  0  0
   -0.2931   -4.7746   19.5028 C   0  0  0  0  0  0  0  0  0  0  0  0
   -1.9114   -4.6390   24.8009 C   0  0  0  0  0  0  0  0  0  0  0  0
   -0.7995   -3.3642   19.8369 C   0  0  0  0  0  0  0  0  0  0  0  0
   -2.1984   -3.1700   24.4555 C   0  0  0  0  0  0  0  0  0  0  0  0
   -0.9296   -2.3503   24.3636 C   0  0  0  0  0  0  0  0  0  0  0  0
   -0.2401   -2.3482   18.8439 C   0  0  0  0  0  0  0  0  0  0  0  0
   -0.3894   -1.8995   23.1406 C   0  0  0  0  0  0  0  0  0  0  0  0
   -1.0748   -2.1533   21.8597 C   0  0  0  0  0  0  0  0  0  0  0  0
   -0.2346   -2.0454   25.5477 C   0  0  0  0  0  0  0  0  0  0  0  0
    0.8094   -1.1674   23.1198 C   0  0  0  0  0  0  0  0  0  0  0  0
    0.9567   -1.3242   25.5069 C   0  0  0  0  0  0  0  0  0  0  0  0
    1.4896   -0.8820   24.3020 C   0  0  0  0  0  0  0  0  0  0  0  0
   -4.4950   -8.2561   21.4765 H   0  0  0  0  0  0  0  0  0  0  0  0
    0.8653   -0.9041   21.1290 H   0  0  0  0  0  0  0  0  0  0  0  0
    1.2076   -1.3730   27.4946 H   0  0  0  0  0  0  0  0  0  0  0  0
  1  6  1  0
  1 24  1  0
  2 14  1  0
  2 19  1  0
  3 19  2  0
  4 21  1  0
  4 25  1  0
  5 22  1  0
  5 26  1  0
  6  7  1  0
  6  8  1  0
  7  9  1  0
  8 10  1  0
  9 11  1  0
 10 12  1  0
 11 13  1  0
 12 14  1  0
 13 15  1  0
 14 17  1  0
 15 16  1  0
 16 18  2  0
 16 20  1  0
 18 19  1  0
 18 21  1  0
 20 22  2  0
 21 23  2  0
 22 23  1  0
M  END
> <PUBCHEM_COMPOUND_CID>
2999413

> <PUBCHEM_CONFORMER_RMSD>
0.6

> <PUBCHEM_CONFORMER_DIVERSEORDER>
1
6
14
27
9
16
11
26
8
2
22
5
20
28
18
17
29
3
24
19
21
13
15
7
23
4
25
12
10

> <PUBCHEM_MMFF94_PARTIAL_CHARGES>
20
1 -0.68
14 0.28
15 0.14
16 -0.14
18 0.09
19 0.63
2 -0.43
20 -0.15
21 0.08
22 0.08
23 -0.15
3 -0.57
4 -0.53
45 0.4
46 0.15
47 0.15
48 0.45
49 0.45
5 -0.53
6 0.28

> <PUBCHEM_EFFECTIVE_ROTOR_COUNT>
2.2

> <PUBCHEM_PHARMACOPHORE_FEATURES>
6
1 1 acceptor
1 1 donor
1 3 acceptor
1 4 donor
1 5 donor
6 16 18 20 21 22 23 rings

> <PUBCHEM_HEAVY_ATOM_COUNT>
23

> <PUBCHEM_ATOM_DEF_STEREO_COUNT>
2

> <PUBCHEM_ATOM_UDEF_STEREO_COUNT>
0

> <PUBCHEM_BOND_DEF_STEREO_COUNT>
0

> <PUBCHEM_BOND_UDEF_STEREO_COUNT>
0

> <PUBCHEM_ISOTOPIC_ATOM_COUNT>
0

> <PUBCHEM_COMPONENT_COUNT>
1

> <PUBCHEM_CACTVS_TAUTO_COUNT>
25

> <PUBCHEM_CONFORMER_ID>
002DC47500000001

> <PUBCHEM_MMFF94_ENERGY>
51.6521

> <PUBCHEM_FEATURE_SELFOVERLAP>
30.446

> <PUBCHEM_SHAPE_FINGERPRINT>
104564 63 18340206271993051459
10498660 4 18187631549186102207
10577160 183 17606693423048979742
10616163 171 18266175029013727061
10759866 29 17750229218859711762
108634 29 18411143511243732574
1100329 8 17185877190433830119
11578080 2 17058915861662947194
116883 192 18412832382636582198
12011746 2 18335696144590423807
12054548 360 18337387261554875763
12156800 1 11695045847065978403
12553582 1 18337941355723699521
12788726 201 18339079272527017530
12954195 1 18196384628153038830
13402501 40 18410292523613913767
13533116 47 17911794988931237615
13941206 138 17823424798885047762
14178342 30 17618481208803059632
14251740 79 18268155262187636390
14251745 187 18265888240930317283
14251751 93 18337386020182837502
14251757 17 18340208496912958262
14251757 5 18336274478600052878
14289585 56 17025448677686211638
14363568 33 17831602116089395611
14790565 3 18338242566191680045
14931854 50 18192983829844991199
15081414 286 18267592488269592273
15210252 30 18041841838786063412
17093844 170 18338788043621724272
17357779 13 18338788026679147463
19591789 44 18410009931708134251
20775438 99 17121094438368206175
21141583 151 18411697703262438637
21634736 98 18410570674064001468
221357 26 18411697699342485711
221490 88 18411139126039522364
22393880 68 18190738627232927852
22907989 373 17973200346140242700
23379529 103 18202007594804787190
23419403 2 17703496796872386008
23559900 14 18341611543049219120
23566358 2 18411982468764321124
238 59 17976219553578124023
2871803 45 18335692832737868381
3014063 31 18410290320121227783
6287921 2 17544481216121896507

> <PUBCHEM_SHAPE_MULTIPOLES>
443.98
8.13
4.23
1.13
0.08
1.63
0.2
-3.4
-2.74
-1.52
0.36
0
0.19
0.73

> <PUBCHEM_SHAPE_SELFOVERLAP>
910.639

> <PUBCHEM_SHAPE_VOLUME>
254.2

> <PUBCHEM_COORDINATE_TYPE>
2
5
10

> <Energy>
43.3336

> <minimizedAffinity>
30.83893

> <CNNscore>
0.3373430371

> <CNNaffinity>
6.2056298256

> <CNN_VS>
2.0934259892

> <CNNaffinity_variance>
0.6396517158

$$$$
2999413


 26 27  0  0  0  0  0  0  0  0999 V2000
   -6.6348   -4.7851   17.6690 O   0  0  0  0  0  0  0  0  0  0  0  0
   -1.5684   -3.1803   20.2839 O   0  0  0  0  0  0  0  0  0  0  0  0
   -2.4809   -1.0663   20.4662 O   0  0  0  0  0  0  0  0  0  0  0  0
    0.5150   -2.2092   22.1237 O   0  0  0  0  0  0  0  0  0  0  0  0
   -1.3605   -2.9780   26.4554 O   0  0  0  0  0  0  0  0  0  0  0  0
   -5.5591   -5.3558   18.4131 C   0  0  0  0  0  0  0  0  0  0  0  0
   -5.9312   -5.3388   19.9028 C   0  0  0  0  0  0  0  0  0  0  0  0
   -4.2599   -4.6139   18.0635 C   0  0  0  0  0  0  0  0  0  0  0  0
   -6.2833   -3.9472   20.4500 C   0  0  0  0  0  0  0  0  0  0  0  0
   -3.0216   -5.2132   18.7346 C   0  0  0  0  0  0  0  0  0  0  0  0
   -6.3987   -3.9356   21.9794 C   0  0  0  0  0  0  0  0  0  0  0  0
   -1.7164   -4.5296   18.3063 C   0  0  0  0  0  0  0  0  0  0  0  0
   -5.0410   -3.8942   22.6938 C   0  0  0  0  0  0  0  0  0  0  0  0
   -1.5654   -3.1009   18.8477 C   0  0  0  0  0  0  0  0  0  0  0  0
   -4.4177   -2.4902   22.6970 C   0  0  0  0  0  0  0  0  0  0  0  0
   -2.9980   -2.5007   23.2207 C   0  0  0  0  0  0  0  0  0  0  0  0
   -0.2411   -2.4947   18.3893 C   0  0  0  0  0  0  0  0  0  0  0  0
   -1.8684   -2.3381   22.3908 C   0  0  0  0  0  0  0  0  0  0  0  0
   -2.0094   -2.0827   20.9452 C   0  0  0  0  0  0  0  0  0  0  0  0
   -2.7859   -2.7121   24.5948 C   0  0  0  0  0  0  0  0  0  0  0  0
   -0.5740   -2.3879   22.9342 C   0  0  0  0  0  0  0  0  0  0  0  0
   -1.4945   -2.7655   25.1148 C   0  0  0  0  0  0  0  0  0  0  0  0
   -0.3821   -2.6073   24.2969 C   0  0  0  0  0  0  0  0  0  0  0  0
   -7.4590   -5.2489   17.8847 H   0  0  0  0  0  0  0  0  0  0  0  0
    0.3968   -2.0612   21.2061 H   0  0  0  0  0  0  0  0  0  0  0  0
   -2.1218   -3.0825   26.9916 H   0  0  0  0  0  0  0  0  0  0  0  0
  1  6  1  0
  1 24  1  0
  2 14  1  0
  2 19  1  0
  3 19  2  0
  4 21  1  0
  4 25  1  0
  5 22  1  0
  5 26  1  0
  6  7  1  0
  6  8  1  0
  7  9  1  0
  8 10  1  0
  9 11  1  0
 10 12  1  0
 11 13  1  0
 12 14  1  0
 13 15  1  0
 14 17  1  0
 15 16  1  0
 16 18  2  0
 16 20  1  0
 18 19  1  0
 18 21  1  0
 20 22  2  0
 21 23  2  0
 22 23  1  0
M  END
> <PUBCHEM_COMPOUND_CID>
2999413

> <PUBCHEM_CONFORMER_RMSD>
0.6

> <PUBCHEM_CONFORMER_DIVERSEORDER>
1
6
14
27
9
16
11
26
8
2
22
5
20
28
18
17
29
3
24
19
21
13
15
7
23
4
25
12
10

> <PUBCHEM_MMFF94_PARTIAL_CHARGES>
20
1 -0.68
14 0.28
15 0.14
16 -0.14
18 0.09
19 0.63
2 -0.43
20 -0.15
21 0.08
22 0.08
23 -0.15
3 -0.57
4 -0.53
45 0.4
46 0.15
47 0.15
48 0.45
49 0.45
5 -0.53
6 0.28

> <PUBCHEM_EFFECTIVE_ROTOR_COUNT>
2.2

> <PUBCHEM_PHARMACOPHORE_FEATURES>
6
1 1 acceptor
1 1 donor
1 3 acceptor
1 4 donor
1 5 donor
6 16 18 20 21 22 23 rings

> <PUBCHEM_HEAVY_ATOM_COUNT>
23

> <PUBCHEM_ATOM_DEF_STEREO_COUNT>
2

> <PUBCHEM_ATOM_UDEF_STEREO_COUNT>
0

> <PUBCHEM_BOND_DEF_STEREO_COUNT>
0

> <PUBCHEM_BOND_UDEF_STEREO_COUNT>
0

> <PUBCHEM_ISOTOPIC_ATOM_COUNT>
0

> <PUBCHEM_COMPONENT_COUNT>
1

> <PUBCHEM_CACTVS_TAUTO_COUNT>
25

> <PUBCHEM_CONFORMER_ID>
002DC47500000001

> <PUBCHEM_MMFF94_ENERGY>
51.6521

> <PUBCHEM_FEATURE_SELFOVERLAP>
30.446

> <PUBCHEM_SHAPE_FINGERPRINT>
104564 63 18340206271993051459
10498660 4 18187631549186102207
10577160 183 17606693423048979742
10616163 171 18266175029013727061
10759866 29 17750229218859711762
108634 29 18411143511243732574
1100329 8 17185877190433830119
11578080 2 17058915861662947194
116883 192 18412832382636582198
12011746 2 18335696144590423807
12054548 360 18337387261554875763
12156800 1 11695045847065978403
12553582 1 18337941355723699521
12788726 201 18339079272527017530
12954195 1 18196384628153038830
13402501 40 18410292523613913767
13533116 47 17911794988931237615
13941206 138 17823424798885047762
14178342 30 17618481208803059632
14251740 79 18268155262187636390
14251745 187 18265888240930317283
14251751 93 18337386020182837502
14251757 17 18340208496912958262
14251757 5 18336274478600052878
14289585 56 17025448677686211638
14363568 33 17831602116089395611
14790565 3 18338242566191680045
14931854 50 18192983829844991199
15081414 286 18267592488269592273
15210252 30 18041841838786063412
17093844 170 18338788043621724272
17357779 13 18338788026679147463
19591789 44 18410009931708134251
20775438 99 17121094438368206175
21141583 151 18411697703262438637
21634736 98 18410570674064001468
221357 26 18411697699342485711
221490 88 18411139126039522364
22393880 68 18190738627232927852
22907989 373 17973200346140242700
23379529 103 18202007594804787190
23419403 2 17703496796872386008
23559900 14 18341611543049219120
23566358 2 18411982468764321124
238 59 17976219553578124023
2871803 45 18335692832737868381
3014063 31 18410290320121227783
6287921 2 17544481216121896507

> <PUBCHEM_SHAPE_MULTIPOLES>
443.98
8.13
4.23
1.13
0.08
1.63
0.2
-3.4
-2.74
-1.52
0.36
0
0.19
0.73

> <PUBCHEM_SHAPE_SELFOVERLAP>
910.639

> <PUBCHEM_SHAPE_VOLUME>
254.2

> <PUBCHEM_COORDINATE_TYPE>
2
5
10

> <Energy>
43.3336

> <minimizedAffinity>
-2.00622

> <CNNscore>
0.3353557587

> <CNNaffinity>
5.9748406410

> <CNN_VS>
2.0036971569

> <CNNaffinity_variance>
0.2604474127

$$$$
2999413


 26 27  0  0  0  0  0  0  0  0999 V2000
   -2.7884    0.7491   25.0446 O   0  0  0  0  0  0  0  0  0  0  0  0
   -1.4973   -3.4198   21.0402 O   0  0  0  0  0  0  0  0  0  0  0  0
   -2.5131   -4.9249   22.4678 O   0  0  0  0  0  0  0  0  0  0  0  0
   -1.5639   -5.5874   19.0488 O   0  0  0  0  0  0  0  0  0  0  0  0
   -5.8866   -5.1481   17.0502 O   0  0  0  0  0  0  0  0  0  0  0  0
   -2.5359    0.6160   23.6463 C   0  0  0  0  0  0  0  0  0  0  0  0
   -3.8750    0.4055   22.9249 C   0  0  0  0  0  0  0  0  0  0  0  0
   -1.5026   -0.5000   23.4285 C   0  0  0  0  0  0  0  0  0  0  0  0
   -4.6883   -0.7918   23.4397 C   0  0  0  0  0  0  0  0  0  0  0  0
   -1.0839   -0.6597   21.9649 C   0  0  0  0  0  0  0  0  0  0  0  0
   -5.8832   -1.1158   22.5343 C   0  0  0  0  0  0  0  0  0  0  0  0
    0.0182   -1.7085   21.7666 C   0  0  0  0  0  0  0  0  0  0  0  0
   -5.4977   -1.8963   21.2703 C   0  0  0  0  0  0  0  0  0  0  0  0
   -0.4575   -3.1500   21.9967 C   0  0  0  0  0  0  0  0  0  0  0  0
   -5.2603   -3.3886   21.5471 C   0  0  0  0  0  0  0  0  0  0  0  0
   -4.6873   -4.1049   20.3436 C   0  0  0  0  0  0  0  0  0  0  0  0
    0.6893   -4.1321   21.7698 C   0  0  0  0  0  0  0  0  0  0  0  0
   -3.3437   -4.5286   20.2655 C   0  0  0  0  0  0  0  0  0  0  0  0
   -2.4162   -4.3494   21.3980 C   0  0  0  0  0  0  0  0  0  0  0  0
   -5.5205   -4.3356   19.2343 C   0  0  0  0  0  0  0  0  0  0  0  0
   -2.8642   -5.1622   19.1070 C   0  0  0  0  0  0  0  0  0  0  0  0
   -5.0255   -4.9593   18.0910 C   0  0  0  0  0  0  0  0  0  0  0  0
   -3.7015   -5.3748   18.0137 C   0  0  0  0  0  0  0  0  0  0  0  0
   -3.4403    1.4524   25.1899 H   0  0  0  0  0  0  0  0  0  0  0  0
   -0.9927   -5.4492   19.7786 H   0  0  0  0  0  0  0  0  0  0  0  0
   -6.7759   -4.8614   17.1200 H   0  0  0  0  0  0  0  0  0  0  0  0
  1  6  1  0
  1 24  1  0
  2 14  1  0
  2 19  1  0
  3 19  2  0
  4 21  1  0
  4 25  1  0
  5 22  1  0
  5 26  1  0
  6  7  1  0
  6  8  1  0
  7  9  1  0
  8 10  1  0
  9 11  1  0
 10 12  1  0
 11 13  1  0
 12 14  1  0
 13 15  1  0
 14 17  1  0
 15 16  1  0
 16 18  2  0
 16 20  1  0
 18 19  1  0
 18 21  1  0
 20 22  2  0
 21 23  2  0
 22 23  1  0
M  END
> <PUBCHEM_COMPOUND_CID>
2999413

> <PUBCHEM_CONFORMER_RMSD>
0.6

> <PUBCHEM_CONFORMER_DIVERSEORDER>
1
6
14
27
9
16
11
26
8
2
22
5
20
28
18
17
29
3
24
19
21
13
15
7
23
4
25
12
10

> <PUBCHEM_MMFF94_PARTIAL_CHARGES>
20
1 -0.68
14 0.28
15 0.14
16 -0.14
18 0.09
19 0.63
2 -0.43
20 -0.15
21 0.08
22 0.08
23 -0.15
3 -0.57
4 -0.53
45 0.4
46 0.15
47 0.15
48 0.45
49 0.45
5 -0.53
6 0.28

> <PUBCHEM_EFFECTIVE_ROTOR_COUNT>
2.2

> <PUBCHEM_PHARMACOPHORE_FEATURES>
6
1 1 acceptor
1 1 donor
1 3 acceptor
1 4 donor
1 5 donor
6 16 18 20 21 22 23 rings

> <PUBCHEM_HEAVY_ATOM_COUNT>
23

> <PUBCHEM_ATOM_DEF_STEREO_COUNT>
2

> <PUBCHEM_ATOM_UDEF_STEREO_COUNT>
0

> <PUBCHEM_BOND_DEF_STEREO_COUNT>
0

> <PUBCHEM_BOND_UDEF_STEREO_COUNT>
0

> <PUBCHEM_ISOTOPIC_ATOM_COUNT>
0

> <PUBCHEM_COMPONENT_COUNT>
1

> <PUBCHEM_CACTVS_TAUTO_COUNT>
25

> <PUBCHEM_CONFORMER_ID>
002DC47500000001

> <PUBCHEM_MMFF94_ENERGY>
51.6521

> <PUBCHEM_FEATURE_SELFOVERLAP>
30.446

> <PUBCHEM_SHAPE_FINGERPRINT>
104564 63 18340206271993051459
10498660 4 18187631549186102207
10577160 183 17606693423048979742
10616163 171 18266175029013727061
10759866 29 17750229218859711762
108634 29 18411143511243732574
1100329 8 17185877190433830119
11578080 2 17058915861662947194
116883 192 18412832382636582198
12011746 2 18335696144590423807
12054548 360 18337387261554875763
12156800 1 11695045847065978403
12553582 1 18337941355723699521
12788726 201 18339079272527017530
12954195 1 18196384628153038830
13402501 40 18410292523613913767
13533116 47 17911794988931237615
13941206 138 17823424798885047762
14178342 30 17618481208803059632
14251740 79 18268155262187636390
14251745 187 18265888240930317283
14251751 93 18337386020182837502
14251757 17 18340208496912958262
14251757 5 18336274478600052878
14289585 56 17025448677686211638
14363568 33 17831602116089395611
14790565 3 18338242566191680045
14931854 50 18192983829844991199
15081414 286 18267592488269592273
15210252 30 18041841838786063412
17093844 170 18338788043621724272
17357779 13 18338788026679147463
19591789 44 18410009931708134251
20775438 99 17121094438368206175
21141583 151 18411697703262438637
21634736 98 18410570674064001468
221357 26 18411697699342485711
221490 88 18411139126039522364
22393880 68 18190738627232927852
22907989 373 17973200346140242700
23379529 103 18202007594804787190
23419403 2 17703496796872386008
23559900 14 18341611543049219120
23566358 2 18411982468764321124
238 59 17976219553578124023
2871803 45 18335692832737868381
3014063 31 18410290320121227783
6287921 2 17544481216121896507

> <PUBCHEM_SHAPE_MULTIPOLES>
443.98
8.13
4.23
1.13
0.08
1.63
0.2
-3.4
-2.74
-1.52
0.36
0
0.19
0.73

> <PUBCHEM_SHAPE_SELFOVERLAP>
910.639

> <PUBCHEM_SHAPE_VOLUME>
254.2

> <PUBCHEM_COORDINATE_TYPE>
2
5
10

> <Energy>
43.3336

> <minimizedAffinity>
14.16965

> <CNNscore>
0.3188321590

> <CNNaffinity>
5.8630661964

> <CNN_VS>
1.8693341017

> <CNNaffinity_variance>
0.0477965772

$$$$
2999413


 26 27  0  0  0  0  0  0  0  0999 V2000
   -5.9257   -4.5288   17.8763 O   0  0  0  0  0  0  0  0  0  0  0  0
   -3.2465   -2.1795   22.6076 O   0  0  0  0  0  0  0  0  0  0  0  0
   -3.4092   -4.2692   23.5780 O   0  0  0  0  0  0  0  0  0  0  0  0
   -1.4310   -1.5218   24.8302 O   0  0  0  0  0  0  0  0  0  0  0  0
    2.8415   -2.9987   23.2691 O   0  0  0  0  0  0  0  0  0  0  0  0
   -5.0463   -3.4573   18.2161 C   0  0  0  0  0  0  0  0  0  0  0  0
   -3.5984   -3.9475   18.0701 C   0  0  0  0  0  0  0  0  0  0  0  0
   -5.4128   -2.9329   19.6129 C   0  0  0  0  0  0  0  0  0  0  0  0
   -3.2678   -5.1968   18.9006 C   0  0  0  0  0  0  0  0  0  0  0  0
   -4.5918   -1.7121   20.0355 C   0  0  0  0  0  0  0  0  0  0  0  0
   -1.7641   -5.4984   18.9246 C   0  0  0  0  0  0  0  0  0  0  0  0
   -5.0279   -1.1342   21.3882 C   0  0  0  0  0  0  0  0  0  0  0  0
   -0.9799   -4.6155   19.9049 C   0  0  0  0  0  0  0  0  0  0  0  0
   -4.6772   -2.0338   22.5819 C   0  0  0  0  0  0  0  0  0  0  0  0
   -1.1290   -5.0753   21.3630 C   0  0  0  0  0  0  0  0  0  0  0  0
   -0.5225   -4.0864   22.3347 C   0  0  0  0  0  0  0  0  0  0  0  0
   -5.1314   -1.3868   23.8882 C   0  0  0  0  0  0  0  0  0  0  0  0
   -1.2958   -3.2420   23.1594 C   0  0  0  0  0  0  0  0  0  0  0  0
   -2.7686   -3.3174   23.1675 C   0  0  0  0  0  0  0  0  0  0  0  0
    0.8780   -3.9774   22.4023 C   0  0  0  0  0  0  0  0  0  0  0  0
   -0.6721   -2.3229   24.0195 C   0  0  0  0  0  0  0  0  0  0  0  0
    1.4788   -3.0550   23.2564 C   0  0  0  0  0  0  0  0  0  0  0  0
    0.7168   -2.2222   24.0671 C   0  0  0  0  0  0  0  0  0  0  0  0
   -5.7001   -4.8652   16.9950 H   0  0  0  0  0  0  0  0  0  0  0  0
   -2.3657   -1.5818   24.8057 H   0  0  0  0  0  0  0  0  0  0  0  0
    3.3391   -3.5679   22.7156 H   0  0  0  0  0  0  0  0  0  0  0  0
  1  6  1  0
  1 24  1  0
  2 14  1  0
  2 19  1  0
  3 19  2  0
  4 21  1  0
  4 25  1  0
  5 22  1  0
  5 26  1  0
  6  7  1  0
  6  8  1  0
  7  9  1  0
  8 10  1  0
  9 11  1  0
 10 12  1  0
 11 13  1  0
 12 14  1  0
 13 15  1  0
 14 17  1  0
 15 16  1  0
 16 18  2  0
 16 20  1  0
 18 19  1  0
 18 21  1  0
 20 22  2  0
 21 23  2  0
 22 23  1  0
M  END
> <PUBCHEM_COMPOUND_CID>
2999413

> <PUBCHEM_CONFORMER_RMSD>
0.6

> <PUBCHEM_CONFORMER_DIVERSEORDER>
1
6
14
27
9
16
11
26
8
2
22
5
20
28
18
17
29
3
24
19
21
13
15
7
23
4
25
12
10

> <PUBCHEM_MMFF94_PARTIAL_CHARGES>
20
1 -0.68
14 0.28
15 0.14
16 -0.14
18 0.09
19 0.63
2 -0.43
20 -0.15
21 0.08
22 0.08
23 -0.15
3 -0.57
4 -0.53
45 0.4
46 0.15
47 0.15
48 0.45
49 0.45
5 -0.53
6 0.28

> <PUBCHEM_EFFECTIVE_ROTOR_COUNT>
2.2

> <PUBCHEM_PHARMACOPHORE_FEATURES>
6
1 1 acceptor
1 1 donor
1 3 acceptor
1 4 donor
1 5 donor
6 16 18 20 21 22 23 rings

> <PUBCHEM_HEAVY_ATOM_COUNT>
23

> <PUBCHEM_ATOM_DEF_STEREO_COUNT>
2

> <PUBCHEM_ATOM_UDEF_STEREO_COUNT>
0

> <PUBCHEM_BOND_DEF_STEREO_COUNT>
0

> <PUBCHEM_BOND_UDEF_STEREO_COUNT>
0

> <PUBCHEM_ISOTOPIC_ATOM_COUNT>
0

> <PUBCHEM_COMPONENT_COUNT>
1

> <PUBCHEM_CACTVS_TAUTO_COUNT>
25

> <PUBCHEM_CONFORMER_ID>
002DC47500000001

> <PUBCHEM_MMFF94_ENERGY>
51.6521

> <PUBCHEM_FEATURE_SELFOVERLAP>
30.446

> <PUBCHEM_SHAPE_FINGERPRINT>
104564 63 18340206271993051459
10498660 4 18187631549186102207
10577160 183 17606693423048979742
10616163 171 18266175029013727061
10759866 29 17750229218859711762
108634 29 18411143511243732574
1100329 8 17185877190433830119
11578080 2 17058915861662947194
116883 192 18412832382636582198
12011746 2 18335696144590423807
12054548 360 18337387261554875763
12156800 1 11695045847065978403
12553582 1 18337941355723699521
12788726 201 18339079272527017530
12954195 1 18196384628153038830
13402501 40 18410292523613913767
13533116 47 17911794988931237615
13941206 138 17823424798885047762
14178342 30 17618481208803059632
14251740 79 18268155262187636390
14251745 187 18265888240930317283
14251751 93 18337386020182837502
14251757 17 18340208496912958262
14251757 5 18336274478600052878
14289585 56 17025448677686211638
14363568 33 17831602116089395611
14790565 3 18338242566191680045
14931854 50 18192983829844991199
15081414 286 18267592488269592273
15210252 30 18041841838786063412
17093844 170 18338788043621724272
17357779 13 18338788026679147463
19591789 44 18410009931708134251
20775438 99 17121094438368206175
21141583 151 18411697703262438637
21634736 98 18410570674064001468
221357 26 18411697699342485711
221490 88 18411139126039522364
22393880 68 18190738627232927852
22907989 373 17973200346140242700
23379529 103 18202007594804787190
23419403 2 17703496796872386008
23559900 14 18341611543049219120
23566358 2 18411982468764321124
238 59 17976219553578124023
2871803 45 18335692832737868381
3014063 31 18410290320121227783
6287921 2 17544481216121896507

> <PUBCHEM_SHAPE_MULTIPOLES>
443.98
8.13
4.23
1.13
0.08
1.63
0.2
-3.4
-2.74
-1.52
0.36
0
0.19
0.73

> <PUBCHEM_SHAPE_SELFOVERLAP>
910.639

> <PUBCHEM_SHAPE_VOLUME>
254.2

> <PUBCHEM_COORDINATE_TYPE>
2
5
10

> <Energy>
43.3336

> <minimizedAffinity>
-2.18134

> <CNNscore>
0.2961708009

> <CNNaffinity>
5.9161572456

> <CNN_VS>
1.7521929741

> <CNNaffinity_variance>
0.2621543705

$$$$
2999413


 26 27  0  0  0  0  0  0  0  0999 V2000
   -1.9025   -2.0685   26.6458 O   0  0  0  0  0  0  0  0  0  0  0  0
   -0.3382   -4.2172   21.3525 O   0  0  0  0  0  0  0  0  0  0  0  0
   -1.3846   -6.1778   21.9816 O   0  0  0  0  0  0  0  0  0  0  0  0
   -0.2659   -5.3726   18.6455 O   0  0  0  0  0  0  0  0  0  0  0  0
   -4.5013   -4.1550   16.7878 O   0  0  0  0  0  0  0  0  0  0  0  0
   -1.5834   -1.6137   25.3312 C   0  0  0  0  0  0  0  0  0  0  0  0
   -2.8832   -1.5102   24.5201 C   0  0  0  0  0  0  0  0  0  0  0  0
   -0.5169   -2.5397   24.7265 C   0  0  0  0  0  0  0  0  0  0  0  0
   -3.6926   -2.8143   24.4552 C   0  0  0  0  0  0  0  0  0  0  0  0
   -0.0284   -2.0820   23.3500 C   0  0  0  0  0  0  0  0  0  0  0  0
   -4.8375   -2.7383   23.4373 C   0  0  0  0  0  0  0  0  0  0  0  0
    1.1045   -2.9547   22.7942 C   0  0  0  0  0  0  0  0  0  0  0  0
   -4.3774   -2.9287   21.9855 C   0  0  0  0  0  0  0  0  0  0  0  0
    0.6507   -4.3637   22.3868 C   0  0  0  0  0  0  0  0  0  0  0  0
   -4.1201   -4.4022   21.6360 C   0  0  0  0  0  0  0  0  0  0  0  0
   -3.4771   -4.5587   20.2751 C   0  0  0  0  0  0  0  0  0  0  0  0
    1.8280   -5.1639   21.8347 C   0  0  0  0  0  0  0  0  0  0  0  0
   -2.1223   -4.9110   20.0979 C   0  0  0  0  0  0  0  0  0  0  0  0
   -1.2517   -5.2128   21.2494 C   0  0  0  0  0  0  0  0  0  0  0  0
   -4.2534   -4.3134   19.1283 C   0  0  0  0  0  0  0  0  0  0  0  0
   -1.5765   -5.0108   18.8074 C   0  0  0  0  0  0  0  0  0  0  0  0
   -3.6931   -4.4103   17.8564 C   0  0  0  0  0  0  0  0  0  0  0  0
   -2.3581   -4.7554   17.6824 C   0  0  0  0  0  0  0  0  0  0  0  0
   -2.5757   -1.4882   27.0341 H   0  0  0  0  0  0  0  0  0  0  0  0
    0.2682   -5.5464   19.3955 H   0  0  0  0  0  0  0  0  0  0  0  0
   -5.3990   -3.9236   16.9241 H   0  0  0  0  0  0  0  0  0  0  0  0
  1  6  1  0
  1 24  1  0
  2 14  1  0
  2 19  1  0
  3 19  2  0
  4 21  1  0
  4 25  1  0
  5 22  1  0
  5 26  1  0
  6  7  1  0
  6  8  1  0
  7  9  1  0
  8 10  1  0
  9 11  1  0
 10 12  1  0
 11 13  1  0
 12 14  1  0
 13 15  1  0
 14 17  1  0
 15 16  1  0
 16 18  2  0
 16 20  1  0
 18 19  1  0
 18 21  1  0
 20 22  2  0
 21 23  2  0
 22 23  1  0
M  END
> <PUBCHEM_COMPOUND_CID>
2999413

> <PUBCHEM_CONFORMER_RMSD>
0.6

> <PUBCHEM_CONFORMER_DIVERSEORDER>
1
6
14
27
9
16
11
26
8
2
22
5
20
28
18
17
29
3
24
19
21
13
15
7
23
4
25
12
10

> <PUBCHEM_MMFF94_PARTIAL_CHARGES>
20
1 -0.68
14 0.28
15 0.14
16 -0.14
18 0.09
19 0.63
2 -0.43
20 -0.15
21 0.08
22 0.08
23 -0.15
3 -0.57
4 -0.53
45 0.4
46 0.15
47 0.15
48 0.45
49 0.45
5 -0.53
6 0.28

> <PUBCHEM_EFFECTIVE_ROTOR_COUNT>
2.2

> <PUBCHEM_PHARMACOPHORE_FEATURES>
6
1 1 acceptor
1 1 donor
1 3 acceptor
1 4 donor
1 5 donor
6 16 18 20 21 22 23 rings

> <PUBCHEM_HEAVY_ATOM_COUNT>
23

> <PUBCHEM_ATOM_DEF_STEREO_COUNT>
2

> <PUBCHEM_ATOM_UDEF_STEREO_COUNT>
0

> <PUBCHEM_BOND_DEF_STEREO_COUNT>
0

> <PUBCHEM_BOND_UDEF_STEREO_COUNT>
0

> <PUBCHEM_ISOTOPIC_ATOM_COUNT>
0

> <PUBCHEM_COMPONENT_COUNT>
1

> <PUBCHEM_CACTVS_TAUTO_COUNT>
25

> <PUBCHEM_CONFORMER_ID>
002DC47500000001

> <PUBCHEM_MMFF94_ENERGY>
51.6521

> <PUBCHEM_FEATURE_SELFOVERLAP>
30.446

> <PUBCHEM_SHAPE_FINGERPRINT>
104564 63 18340206271993051459
10498660 4 18187631549186102207
10577160 183 17606693423048979742
10616163 171 18266175029013727061
10759866 29 17750229218859711762
108634 29 18411143511243732574
1100329 8 17185877190433830119
11578080 2 17058915861662947194
116883 192 18412832382636582198
12011746 2 18335696144590423807
12054548 360 18337387261554875763
12156800 1 11695045847065978403
12553582 1 18337941355723699521
12788726 201 18339079272527017530
12954195 1 18196384628153038830
13402501 40 18410292523613913767
13533116 47 17911794988931237615
13941206 138 17823424798885047762
14178342 30 17618481208803059632
14251740 79 18268155262187636390
14251745 187 18265888240930317283
14251751 93 18337386020182837502
14251757 17 18340208496912958262
14251757 5 18336274478600052878
14289585 56 17025448677686211638
14363568 33 17831602116089395611
14790565 3 18338242566191680045
14931854 50 18192983829844991199
15081414 286 18267592488269592273
15210252 30 18041841838786063412
17093844 170 18338788043621724272
17357779 13 18338788026679147463
19591789 44 18410009931708134251
20775438 99 17121094438368206175
21141583 151 18411697703262438637
21634736 98 18410570674064001468
221357 26 18411697699342485711
221490 88 18411139126039522364
22393880 68 18190738627232927852
22907989 373 17973200346140242700
23379529 103 18202007594804787190
23419403 2 17703496796872386008
23559900 14 18341611543049219120
23566358 2 18411982468764321124
238 59 17976219553578124023
2871803 45 18335692832737868381
3014063 31 18410290320121227783
6287921 2 17544481216121896507

> <PUBCHEM_SHAPE_MULTIPOLES>
443.98
8.13
4.23
1.13
0.08
1.63
0.2
-3.4
-2.74
-1.52
0.36
0
0.19
0.73

> <PUBCHEM_SHAPE_SELFOVERLAP>
910.639

> <PUBCHEM_SHAPE_VOLUME>
254.2

> <PUBCHEM_COORDINATE_TYPE>
2
5
10

> <Energy>
43.3336

> <minimizedAffinity>
-0.89393

> <CNNscore>
0.2736945450

> <CNNaffinity>
6.0986251831

> <CNN_VS>
1.6691604853

> <CNNaffinity_variance>
0.0784143135

$$$$
2999413


 26 27  0  0  0  0  0  0  0  0999 V2000
   -2.9345   -9.1689   22.3200 O   0  0  0  0  0  0  0  0  0  0  0  0
   -2.3788   -3.3553   21.3324 O   0  0  0  0  0  0  0  0  0  0  0  0
   -4.3861   -3.1038   22.4471 O   0  0  0  0  0  0  0  0  0  0  0  0
   -2.1314   -0.4300   21.5548 O   0  0  0  0  0  0  0  0  0  0  0  0
   -0.1078    0.2064   25.8411 O   0  0  0  0  0  0  0  0  0  0  0  0
   -1.9224   -8.1916   22.0808 C   0  0  0  0  0  0  0  0  0  0  0  0
   -1.4270   -7.6588   23.4330 C   0  0  0  0  0  0  0  0  0  0  0  0
   -2.4761   -7.1207   21.1283 C   0  0  0  0  0  0  0  0  0  0  0  0
   -2.5334   -7.0779   24.3266 C   0  0  0  0  0  0  0  0  0  0  0  0
   -1.4355   -6.0731   20.7254 C   0  0  0  0  0  0  0  0  0  0  0  0
   -1.9681   -6.3346   25.5434 C   0  0  0  0  0  0  0  0  0  0  0  0
   -1.9662   -5.0632   19.6995 C   0  0  0  0  0  0  0  0  0  0  0  0
   -1.4641   -4.9224   25.2162 C   0  0  0  0  0  0  0  0  0  0  0  0
   -3.0112   -4.0961   20.2740 C   0  0  0  0  0  0  0  0  0  0  0  0
   -2.6061   -3.9038   25.0828 C   0  0  0  0  0  0  0  0  0  0  0  0
   -2.1180   -2.5686   24.5641 C   0  0  0  0  0  0  0  0  0  0  0  0
   -3.4805   -3.1187   19.1990 C   0  0  0  0  0  0  0  0  0  0  0  0
   -2.3708   -2.1111   23.2534 C   0  0  0  0  0  0  0  0  0  0  0  0
   -3.1931   -2.8949   22.3129 C   0  0  0  0  0  0  0  0  0  0  0  0
   -1.3495   -1.7532   25.4140 C   0  0  0  0  0  0  0  0  0  0  0  0
   -1.8638   -0.8741   22.8221 C   0  0  0  0  0  0  0  0  0  0  0  0
   -0.8490   -0.5324   24.9665 C   0  0  0  0  0  0  0  0  0  0  0  0
   -1.0966   -0.0830   23.6749 C   0  0  0  0  0  0  0  0  0  0  0  0
   -2.5919   -9.8489   22.9210 H   0  0  0  0  0  0  0  0  0  0  0  0
   -2.6462   -0.9544   20.9736 H   0  0  0  0  0  0  0  0  0  0  0  0
    0.0490   -0.1124   26.7081 H   0  0  0  0  0  0  0  0  0  0  0  0
  1  6  1  0
  1 24  1  0
  2 14  1  0
  2 19  1  0
  3 19  2  0
  4 21  1  0
  4 25  1  0
  5 22  1  0
  5 26  1  0
  6  7  1  0
  6  8  1  0
  7  9  1  0
  8 10  1  0
  9 11  1  0
 10 12  1  0
 11 13  1  0
 12 14  1  0
 13 15  1  0
 14 17  1  0
 15 16  1  0
 16 18  2  0
 16 20  1  0
 18 19  1  0
 18 21  1  0
 20 22  2  0
 21 23  2  0
 22 23  1  0
M  END
> <PUBCHEM_COMPOUND_CID>
2999413

> <PUBCHEM_CONFORMER_RMSD>
0.6

> <PUBCHEM_CONFORMER_DIVERSEORDER>
1
6
14
27
9
16
11
26
8
2
22
5
20
28
18
17
29
3
24
19
21
13
15
7
23
4
25
12
10

> <PUBCHEM_MMFF94_PARTIAL_CHARGES>
20
1 -0.68
14 0.28
15 0.14
16 -0.14
18 0.09
19 0.63
2 -0.43
20 -0.15
21 0.08
22 0.08
23 -0.15
3 -0.57
4 -0.53
45 0.4
46 0.15
47 0.15
48 0.45
49 0.45
5 -0.53
6 0.28

> <PUBCHEM_EFFECTIVE_ROTOR_COUNT>
2.2

> <PUBCHEM_PHARMACOPHORE_FEATURES>
6
1 1 acceptor
1 1 donor
1 3 acceptor
1 4 donor
1 5 donor
6 16 18 20 21 22 23 rings

> <PUBCHEM_HEAVY_ATOM_COUNT>
23

> <PUBCHEM_ATOM_DEF_STEREO_COUNT>
2

> <PUBCHEM_ATOM_UDEF_STEREO_COUNT>
0

> <PUBCHEM_BOND_DEF_STEREO_COUNT>
0

> <PUBCHEM_BOND_UDEF_STEREO_COUNT>
0

> <PUBCHEM_ISOTOPIC_ATOM_COUNT>
0

> <PUBCHEM_COMPONENT_COUNT>
1

> <PUBCHEM_CACTVS_TAUTO_COUNT>
25

> <PUBCHEM_CONFORMER_ID>
002DC47500000001

> <PUBCHEM_MMFF94_ENERGY>
51.6521

> <PUBCHEM_FEATURE_SELFOVERLAP>
30.446

> <PUBCHEM_SHAPE_FINGERPRINT>
104564 63 18340206271993051459
10498660 4 18187631549186102207
10577160 183 17606693423048979742
10616163 171 18266175029013727061
10759866 29 17750229218859711762
108634 29 18411143511243732574
1100329 8 17185877190433830119
11578080 2 17058915861662947194
116883 192 18412832382636582198
12011746 2 18335696144590423807
12054548 360 18337387261554875763
12156800 1 11695045847065978403
12553582 1 18337941355723699521
12788726 201 18339079272527017530
12954195 1 18196384628153038830
13402501 40 18410292523613913767
13533116 47 17911794988931237615
13941206 138 17823424798885047762
14178342 30 17618481208803059632
14251740 79 18268155262187636390
14251745 187 18265888240930317283
14251751 93 18337386020182837502
14251757 17 18340208496912958262
14251757 5 18336274478600052878
14289585 56 17025448677686211638
14363568 33 17831602116089395611
14790565 3 18338242566191680045
14931854 50 18192983829844991199
15081414 286 18267592488269592273
15210252 30 18041841838786063412
17093844 170 18338788043621724272
17357779 13 18338788026679147463
19591789 44 18410009931708134251
20775438 99 17121094438368206175
21141583 151 18411697703262438637
21634736 98 18410570674064001468
221357 26 18411697699342485711
221490 88 18411139126039522364
22393880 68 18190738627232927852
22907989 373 17973200346140242700
23379529 103 18202007594804787190
23419403 2 17703496796872386008
23559900 14 18341611543049219120
23566358 2 18411982468764321124
238 59 17976219553578124023
2871803 45 18335692832737868381
3014063 31 18410290320121227783
6287921 2 17544481216121896507

> <PUBCHEM_SHAPE_MULTIPOLES>
443.98
8.13
4.23
1.13
0.08
1.63
0.2
-3.4
-2.74
-1.52
0.36
0
0.19
0.73

> <PUBCHEM_SHAPE_SELFOVERLAP>
910.639

> <PUBCHEM_SHAPE_VOLUME>
254.2

> <PUBCHEM_COORDINATE_TYPE>
2
5
10

> <Energy>
43.3336

> <minimizedAffinity>
44.91404

> <CNNscore>
0.2638414204

> <CNNaffinity>
5.5334200859

> <CNN_VS>
1.4599454403

> <CNNaffinity_variance>
0.6615669727

$$$$
