7184


 15 15  0  0  0  0  0  0  0  0999 V2000
    1.0677   -2.1659   20.9766 O   0  0  0  0  0  0  0  0  0  0  0  0
   -2.9961   -2.9156   20.7361 C   0  0  0  0  0  0  0  0  0  0  0  0
   -2.4225   -2.5596   21.9628 C   0  0  0  0  0  0  0  0  0  0  0  0
   -2.2001   -3.0326   19.5931 C   0  0  0  0  0  0  0  0  0  0  0  0
   -1.0513   -2.3044   22.0358 C   0  0  0  0  0  0  0  0  0  0  0  0
   -0.8354   -2.7789   19.6693 C   0  0  0  0  0  0  0  0  0  0  0  0
   -0.2667   -2.4141   20.8906 C   0  0  0  0  0  0  0  0  0  0  0  0
    1.4466   -1.9213   21.7979 H   0  0  0  0  0  0  0  0  0  0  0  0
   -5.3014   -2.4010   21.0125 O   0  0  0  0  0  0  0  0  0  0  0  0
   -4.4431   -3.1953   20.6639 C   0  0  0  0  0  0  0  0  0  0  0  0
   -4.6415   -4.4308   20.1377 O   0  0  0  0  0  0  0  0  0  0  0  0
   -5.9285   -4.9998   20.4053 C   0  0  0  0  0  0  0  0  0  0  0  0
   -5.8332   -5.8159   21.6918 C   0  0  0  0  0  0  0  0  0  0  0  0
   -4.5829   -6.6917   21.7076 C   0  0  0  0  0  0  0  0  0  0  0  0
   -4.9046   -8.1302   21.3362 C   0  0  0  0  0  0  0  0  0  0  0  0
 11 12  1  0
 11 10  1  0
  9 10  2  0
  1  7  1  0
  1  8  1  0
 13 14  1  0
 13 12  1  0
 14 15  1  0
  2 10  1  0
  2  3  2  0
  2  4  1  0
  3  5  1  0
  4  6  2  0
  5  7  2  0
  6  7  1  0
M  END
> <PUBCHEM_COMPOUND_CID>
7184

> <PUBCHEM_CONFORMER_RMSD>
0.6

> <PUBCHEM_CONFORMER_DIVERSEORDER>
1
44
15
20
41
3
43
64
40
47
74
50
4
6
22
69
55
77
16
75
28
26
73
53
11
32
49
58
67
63
62
24
65
27
19
38
12
48
76
25
57
10
31
17
42
34
68
51
9
23
8
14
21
33
18
30
5
66
70
2
56
45
39
37
46
35
60
36
52
59
54
29
71
72
61
13
7

> <PUBCHEM_MMFF94_PARTIAL_CHARGES>
16
1 -0.43
10 -0.15
11 -0.15
12 -0.15
13 -0.15
14 0.08
2 -0.57
24 0.15
25 0.15
26 0.15
27 0.15
28 0.45
3 -0.53
6 0.28
8 0.09
9 0.63

> <PUBCHEM_EFFECTIVE_ROTOR_COUNT>
5

> <PUBCHEM_PHARMACOPHORE_FEATURES>
4
1 2 acceptor
1 3 donor
1 7 hydrophobe
6 8 10 11 12 13 14 rings

> <PUBCHEM_HEAVY_ATOM_COUNT>
14

> <PUBCHEM_ATOM_DEF_STEREO_COUNT>
0

> <PUBCHEM_ATOM_UDEF_STEREO_COUNT>
0

> <PUBCHEM_BOND_DEF_STEREO_COUNT>
0

> <PUBCHEM_BOND_UDEF_STEREO_COUNT>
0

> <PUBCHEM_ISOTOPIC_ATOM_COUNT>
0

> <PUBCHEM_COMPONENT_COUNT>
1

> <PUBCHEM_CACTVS_TAUTO_COUNT>
3

> <PUBCHEM_CONFORMER_ID>
00001C1000000001

> <PUBCHEM_MMFF94_ENERGY>
26.8162

> <PUBCHEM_FEATURE_SELFOVERLAP>
20.297

> <PUBCHEM_SHAPE_FINGERPRINT>
100836 57 10159698014692119138
10465860 250 17561082501386551480
10968037 39 18334860532716625766
11046707 91 18409446968869733128
12032990 46 18409167722807014732
12251169 10 18060418027818494140
13167823 11 18408602527187214402
13288520 33 18409730651148371639
13551218 46 18270963440792261598
13690532 89 18409730694483049495
13862211 1 18342737464162399199
14252887 29 17989215824084205230
17804303 29 18273497883401759577
17834072 33 18410577323021717172
1813 80 17968106291699631366
18186145 218 14923950067535008876
200 152 17530965761531918920
20281475 54 18337672035103360796
20767249 213 10735876175026745610
20828058 44 18273214175553485034
21267235 1 18410019844213228018
22485316 2 18408601440280660184
2297311 6 18130235869953600908
23402539 116 17846774109970031213
23463225 33 18411140233692529510
23559900 14 18270389602695558633
351380 180 10665231458300457486
351380 3 18259982652836299658
42 15 18342740719346176002
4214541 1 18340769252190604880
5104073 3 18271533095046590721
559249 180 18335415712557464698
7364860 26 18126566957732624024
83771 10 18407476665592062532

> <PUBCHEM_SHAPE_MULTIPOLES>
270.51
10.85
1.64
0.68
12.98
0.32
0
-5.61
1.62
-0.51
-0.11
-0.08
0
-0.42

> <PUBCHEM_SHAPE_SELFOVERLAP>
550.017

> <PUBCHEM_SHAPE_VOLUME>
158.1

> <PUBCHEM_COORDINATE_TYPE>
2
5
10

> <Energy>
17.0404

> <minimizedAffinity>
-6.51659

> <CNNscore>
0.9252110124

> <CNNaffinity>
5.5786566734

> <CNN_VS>
5.1614346504

> <CNNaffinity_variance>
0.2565555274

$$$$
7184


 15 15  0  0  0  0  0  0  0  0999 V2000
    1.0544   -2.1444   20.9520 O   0  0  0  0  0  0  0  0  0  0  0  0
   -3.0026   -2.9325   20.7200 C   0  0  0  0  0  0  0  0  0  0  0  0
   -2.2084   -3.0107   19.5694 C   0  0  0  0  0  0  0  0  0  0  0  0
   -2.4340   -2.5757   21.9461 C   0  0  0  0  0  0  0  0  0  0  0  0
   -0.8396   -2.7471   19.6558 C   0  0  0  0  0  0  0  0  0  0  0  0
   -1.0714   -2.3131   22.0286 C   0  0  0  0  0  0  0  0  0  0  0  0
   -0.2793   -2.4015   20.8828 C   0  0  0  0  0  0  0  0  0  0  0  0
    1.5837   -2.2044   20.1811 H   0  0  0  0  0  0  0  0  0  0  0  0
   -5.3076   -2.4138   20.9913 O   0  0  0  0  0  0  0  0  0  0  0  0
   -4.4503   -3.2007   20.6239 C   0  0  0  0  0  0  0  0  0  0  0  0
   -4.6505   -4.4160   20.0531 O   0  0  0  0  0  0  0  0  0  0  0  0
   -5.8085   -5.1175   20.5205 C   0  0  0  0  0  0  0  0  0  0  0  0
   -5.4762   -5.7427   21.8729 C   0  0  0  0  0  0  0  0  0  0  0  0
   -4.3449   -6.7609   21.7558 C   0  0  0  0  0  0  0  0  0  0  0  0
   -4.8642   -8.1260   21.3344 C   0  0  0  0  0  0  0  0  0  0  0  0
 11 12  1  0
 11 10  1  0
  9 10  2  0
  1  7  1  0
  1  8  1  0
 13 14  1  0
 13 12  1  0
 14 15  1  0
  2 10  1  0
  2  3  2  0
  2  4  1  0
  3  5  1  0
  4  6  2  0
  5  7  2  0
  6  7  1  0
M  END
> <PUBCHEM_COMPOUND_CID>
7184

> <PUBCHEM_CONFORMER_RMSD>
0.6

> <PUBCHEM_CONFORMER_DIVERSEORDER>
1
44
15
20
41
3
43
64
40
47
74
50
4
6
22
69
55
77
16
75
28
26
73
53
11
32
49
58
67
63
62
24
65
27
19
38
12
48
76
25
57
10
31
17
42
34
68
51
9
23
8
14
21
33
18
30
5
66
70
2
56
45
39
37
46
35
60
36
52
59
54
29
71
72
61
13
7

> <PUBCHEM_MMFF94_PARTIAL_CHARGES>
16
1 -0.43
10 -0.15
11 -0.15
12 -0.15
13 -0.15
14 0.08
2 -0.57
24 0.15
25 0.15
26 0.15
27 0.15
28 0.45
3 -0.53
6 0.28
8 0.09
9 0.63

> <PUBCHEM_EFFECTIVE_ROTOR_COUNT>
5

> <PUBCHEM_PHARMACOPHORE_FEATURES>
4
1 2 acceptor
1 3 donor
1 7 hydrophobe
6 8 10 11 12 13 14 rings

> <PUBCHEM_HEAVY_ATOM_COUNT>
14

> <PUBCHEM_ATOM_DEF_STEREO_COUNT>
0

> <PUBCHEM_ATOM_UDEF_STEREO_COUNT>
0

> <PUBCHEM_BOND_DEF_STEREO_COUNT>
0

> <PUBCHEM_BOND_UDEF_STEREO_COUNT>
0

> <PUBCHEM_ISOTOPIC_ATOM_COUNT>
0

> <PUBCHEM_COMPONENT_COUNT>
1

> <PUBCHEM_CACTVS_TAUTO_COUNT>
3

> <PUBCHEM_CONFORMER_ID>
00001C1000000001

> <PUBCHEM_MMFF94_ENERGY>
26.8162

> <PUBCHEM_FEATURE_SELFOVERLAP>
20.297

> <PUBCHEM_SHAPE_FINGERPRINT>
100836 57 10159698014692119138
10465860 250 17561082501386551480
10968037 39 18334860532716625766
11046707 91 18409446968869733128
12032990 46 18409167722807014732
12251169 10 18060418027818494140
13167823 11 18408602527187214402
13288520 33 18409730651148371639
13551218 46 18270963440792261598
13690532 89 18409730694483049495
13862211 1 18342737464162399199
14252887 29 17989215824084205230
17804303 29 18273497883401759577
17834072 33 18410577323021717172
1813 80 17968106291699631366
18186145 218 14923950067535008876
200 152 17530965761531918920
20281475 54 18337672035103360796
20767249 213 10735876175026745610
20828058 44 18273214175553485034
21267235 1 18410019844213228018
22485316 2 18408601440280660184
2297311 6 18130235869953600908
23402539 116 17846774109970031213
23463225 33 18411140233692529510
23559900 14 18270389602695558633
351380 180 10665231458300457486
351380 3 18259982652836299658
42 15 18342740719346176002
4214541 1 18340769252190604880
5104073 3 18271533095046590721
559249 180 18335415712557464698
7364860 26 18126566957732624024
83771 10 18407476665592062532

> <PUBCHEM_SHAPE_MULTIPOLES>
270.51
10.85
1.64
0.68
12.98
0.32
0
-5.61
1.62
-0.51
-0.11
-0.08
0
-0.42

> <PUBCHEM_SHAPE_SELFOVERLAP>
550.017

> <PUBCHEM_SHAPE_VOLUME>
158.1

> <PUBCHEM_COORDINATE_TYPE>
2
5
10

> <Energy>
17.0404

> <minimizedAffinity>
-6.50101

> <CNNscore>
0.9179859161

> <CNNaffinity>
5.5337948799

> <CNN_VS>
5.0799455643

> <CNNaffinity_variance>
0.1743874550

$$$$
7184


 15 15  0  0  0  0  0  0  0  0999 V2000
    0.9369   -2.2817   20.9597 O   0  0  0  0  0  0  0  0  0  0  0  0
   -2.7645   -3.8068   22.0123 C   0  0  0  0  0  0  0  0  0  0  0  0
   -2.1708   -2.8097   22.7960 C   0  0  0  0  0  0  0  0  0  0  0  0
   -2.1066   -4.3002   20.8821 C   0  0  0  0  0  0  0  0  0  0  0  0
   -0.9234   -2.2971   22.4328 C   0  0  0  0  0  0  0  0  0  0  0  0
   -0.8647   -3.7886   20.5238 C   0  0  0  0  0  0  0  0  0  0  0  0
   -0.2788   -2.7876   21.3001 C   0  0  0  0  0  0  0  0  0  0  0  0
    1.3278   -1.6097   21.4829 H   0  0  0  0  0  0  0  0  0  0  0  0
   -4.5467   -5.3796   21.9379 O   0  0  0  0  0  0  0  0  0  0  0  0
   -4.0774   -4.3543   22.4044 C   0  0  0  0  0  0  0  0  0  0  0  0
   -4.6343   -3.5624   23.3560 O   0  0  0  0  0  0  0  0  0  0  0  0
   -5.6508   -4.1924   24.1444 C   0  0  0  0  0  0  0  0  0  0  0  0
   -6.5712   -3.1064   24.6954 C   0  0  0  0  0  0  0  0  0  0  0  0
   -8.0382   -3.5201   24.6107 C   0  0  0  0  0  0  0  0  0  0  0  0
   -8.9106   -2.3820   24.1059 C   0  0  0  0  0  0  0  0  0  0  0  0
 11 12  1  0
 11 10  1  0
  9 10  2  0
  1  7  1  0
  1  8  1  0
 13 14  1  0
 13 12  1  0
 14 15  1  0
  2 10  1  0
  2  3  2  0
  2  4  1  0
  3  5  1  0
  4  6  2  0
  5  7  2  0
  6  7  1  0
M  END
> <PUBCHEM_COMPOUND_CID>
7184

> <PUBCHEM_CONFORMER_RMSD>
0.6

> <PUBCHEM_CONFORMER_DIVERSEORDER>
1
44
15
20
41
3
43
64
40
47
74
50
4
6
22
69
55
77
16
75
28
26
73
53
11
32
49
58
67
63
62
24
65
27
19
38
12
48
76
25
57
10
31
17
42
34
68
51
9
23
8
14
21
33
18
30
5
66
70
2
56
45
39
37
46
35
60
36
52
59
54
29
71
72
61
13
7

> <PUBCHEM_MMFF94_PARTIAL_CHARGES>
16
1 -0.43
10 -0.15
11 -0.15
12 -0.15
13 -0.15
14 0.08
2 -0.57
24 0.15
25 0.15
26 0.15
27 0.15
28 0.45
3 -0.53
6 0.28
8 0.09
9 0.63

> <PUBCHEM_EFFECTIVE_ROTOR_COUNT>
5

> <PUBCHEM_PHARMACOPHORE_FEATURES>
4
1 2 acceptor
1 3 donor
1 7 hydrophobe
6 8 10 11 12 13 14 rings

> <PUBCHEM_HEAVY_ATOM_COUNT>
14

> <PUBCHEM_ATOM_DEF_STEREO_COUNT>
0

> <PUBCHEM_ATOM_UDEF_STEREO_COUNT>
0

> <PUBCHEM_BOND_DEF_STEREO_COUNT>
0

> <PUBCHEM_BOND_UDEF_STEREO_COUNT>
0

> <PUBCHEM_ISOTOPIC_ATOM_COUNT>
0

> <PUBCHEM_COMPONENT_COUNT>
1

> <PUBCHEM_CACTVS_TAUTO_COUNT>
3

> <PUBCHEM_CONFORMER_ID>
00001C1000000001

> <PUBCHEM_MMFF94_ENERGY>
26.8162

> <PUBCHEM_FEATURE_SELFOVERLAP>
20.297

> <PUBCHEM_SHAPE_FINGERPRINT>
100836 57 10159698014692119138
10465860 250 17561082501386551480
10968037 39 18334860532716625766
11046707 91 18409446968869733128
12032990 46 18409167722807014732
12251169 10 18060418027818494140
13167823 11 18408602527187214402
13288520 33 18409730651148371639
13551218 46 18270963440792261598
13690532 89 18409730694483049495
13862211 1 18342737464162399199
14252887 29 17989215824084205230
17804303 29 18273497883401759577
17834072 33 18410577323021717172
1813 80 17968106291699631366
18186145 218 14923950067535008876
200 152 17530965761531918920
20281475 54 18337672035103360796
20767249 213 10735876175026745610
20828058 44 18273214175553485034
21267235 1 18410019844213228018
22485316 2 18408601440280660184
2297311 6 18130235869953600908
23402539 116 17846774109970031213
23463225 33 18411140233692529510
23559900 14 18270389602695558633
351380 180 10665231458300457486
351380 3 18259982652836299658
42 15 18342740719346176002
4214541 1 18340769252190604880
5104073 3 18271533095046590721
559249 180 18335415712557464698
7364860 26 18126566957732624024
83771 10 18407476665592062532

> <PUBCHEM_SHAPE_MULTIPOLES>
270.51
10.85
1.64
0.68
12.98
0.32
0
-5.61
1.62
-0.51
-0.11
-0.08
0
-0.42

> <PUBCHEM_SHAPE_SELFOVERLAP>
550.017

> <PUBCHEM_SHAPE_VOLUME>
158.1

> <PUBCHEM_COORDINATE_TYPE>
2
5
10

> <Energy>
17.0404

> <minimizedAffinity>
-6.20927

> <CNNscore>
0.8902261853

> <CNNaffinity>
6.1128768921

> <CNN_VS>
5.4418430328

> <CNNaffinity_variance>
0.9188377261

$$$$
7184


 15 15  0  0  0  0  0  0  0  0999 V2000
    0.9222   -2.3501   20.9192 O   0  0  0  0  0  0  0  0  0  0  0  0
   -3.1858   -2.7895   21.1755 C   0  0  0  0  0  0  0  0  0  0  0  0
   -2.5352   -3.0001   19.9536 C   0  0  0  0  0  0  0  0  0  0  0  0
   -2.4557   -2.4178   22.3080 C   0  0  0  0  0  0  0  0  0  0  0  0
   -1.1484   -2.8537   19.8753 C   0  0  0  0  0  0  0  0  0  0  0  0
   -1.0756   -2.2719   22.2266 C   0  0  0  0  0  0  0  0  0  0  0  0
   -0.4273   -2.4922   21.0104 C   0  0  0  0  0  0  0  0  0  0  0  0
    1.3547   -2.4985   20.1013 H   0  0  0  0  0  0  0  0  0  0  0  0
   -5.2808   -3.7724   20.6273 O   0  0  0  0  0  0  0  0  0  0  0  0
   -4.6521   -2.9341   21.2529 C   0  0  0  0  0  0  0  0  0  0  0  0
   -5.1530   -2.0249   22.1276 O   0  0  0  0  0  0  0  0  0  0  0  0
   -6.5814   -1.9185   22.1336 C   0  0  0  0  0  0  0  0  0  0  0  0
   -6.9517   -0.4572   22.3738 C   0  0  0  0  0  0  0  0  0  0  0  0
   -7.9405   -0.3128   23.5279 C   0  0  0  0  0  0  0  0  0  0  0  0
   -8.6816   -1.6132   23.7936 C   0  0  0  0  0  0  0  0  0  0  0  0
 11 12  1  0
 11 10  1  0
  9 10  2  0
  1  7  1  0
  1  8  1  0
 13 14  1  0
 13 12  1  0
 14 15  1  0
  2 10  1  0
  2  3  2  0
  2  4  1  0
  3  5  1  0
  4  6  2  0
  5  7  2  0
  6  7  1  0
M  END
> <PUBCHEM_COMPOUND_CID>
7184

> <PUBCHEM_CONFORMER_RMSD>
0.6

> <PUBCHEM_CONFORMER_DIVERSEORDER>
1
44
15
20
41
3
43
64
40
47
74
50
4
6
22
69
55
77
16
75
28
26
73
53
11
32
49
58
67
63
62
24
65
27
19
38
12
48
76
25
57
10
31
17
42
34
68
51
9
23
8
14
21
33
18
30
5
66
70
2
56
45
39
37
46
35
60
36
52
59
54
29
71
72
61
13
7

> <PUBCHEM_MMFF94_PARTIAL_CHARGES>
16
1 -0.43
10 -0.15
11 -0.15
12 -0.15
13 -0.15
14 0.08
2 -0.57
24 0.15
25 0.15
26 0.15
27 0.15
28 0.45
3 -0.53
6 0.28
8 0.09
9 0.63

> <PUBCHEM_EFFECTIVE_ROTOR_COUNT>
5

> <PUBCHEM_PHARMACOPHORE_FEATURES>
4
1 2 acceptor
1 3 donor
1 7 hydrophobe
6 8 10 11 12 13 14 rings

> <PUBCHEM_HEAVY_ATOM_COUNT>
14

> <PUBCHEM_ATOM_DEF_STEREO_COUNT>
0

> <PUBCHEM_ATOM_UDEF_STEREO_COUNT>
0

> <PUBCHEM_BOND_DEF_STEREO_COUNT>
0

> <PUBCHEM_BOND_UDEF_STEREO_COUNT>
0

> <PUBCHEM_ISOTOPIC_ATOM_COUNT>
0

> <PUBCHEM_COMPONENT_COUNT>
1

> <PUBCHEM_CACTVS_TAUTO_COUNT>
3

> <PUBCHEM_CONFORMER_ID>
00001C1000000001

> <PUBCHEM_MMFF94_ENERGY>
26.8162

> <PUBCHEM_FEATURE_SELFOVERLAP>
20.297

> <PUBCHEM_SHAPE_FINGERPRINT>
100836 57 10159698014692119138
10465860 250 17561082501386551480
10968037 39 18334860532716625766
11046707 91 18409446968869733128
12032990 46 18409167722807014732
12251169 10 18060418027818494140
13167823 11 18408602527187214402
13288520 33 18409730651148371639
13551218 46 18270963440792261598
13690532 89 18409730694483049495
13862211 1 18342737464162399199
14252887 29 17989215824084205230
17804303 29 18273497883401759577
17834072 33 18410577323021717172
1813 80 17968106291699631366
18186145 218 14923950067535008876
200 152 17530965761531918920
20281475 54 18337672035103360796
20767249 213 10735876175026745610
20828058 44 18273214175553485034
21267235 1 18410019844213228018
22485316 2 18408601440280660184
2297311 6 18130235869953600908
23402539 116 17846774109970031213
23463225 33 18411140233692529510
23559900 14 18270389602695558633
351380 180 10665231458300457486
351380 3 18259982652836299658
42 15 18342740719346176002
4214541 1 18340769252190604880
5104073 3 18271533095046590721
559249 180 18335415712557464698
7364860 26 18126566957732624024
83771 10 18407476665592062532

> <PUBCHEM_SHAPE_MULTIPOLES>
270.51
10.85
1.64
0.68
12.98
0.32
0
-5.61
1.62
-0.51
-0.11
-0.08
0
-0.42

> <PUBCHEM_SHAPE_SELFOVERLAP>
550.017

> <PUBCHEM_SHAPE_VOLUME>
158.1

> <PUBCHEM_COORDINATE_TYPE>
2
5
10

> <Energy>
17.0404

> <minimizedAffinity>
-6.32252

> <CNNscore>
0.8560881615

> <CNNaffinity>
5.3195061684

> <CNN_VS>
4.5539660454

> <CNNaffinity_variance>
0.6418388486

$$$$
7184


 15 15  0  0  0  0  0  0  0  0999 V2000
    0.8477   -2.2295   20.8814 O   0  0  0  0  0  0  0  0  0  0  0  0
   -3.0556   -3.5781   20.5984 C   0  0  0  0  0  0  0  0  0  0  0  0
   -2.4167   -3.0457   19.4720 C   0  0  0  0  0  0  0  0  0  0  0  0
   -2.3857   -3.6443   21.8235 C   0  0  0  0  0  0  0  0  0  0  0  0
   -1.0983   -2.5960   19.5739 C   0  0  0  0  0  0  0  0  0  0  0  0
   -1.0739   -3.1950   21.9218 C   0  0  0  0  0  0  0  0  0  0  0  0
   -0.4348   -2.6739   20.7957 C   0  0  0  0  0  0  0  0  0  0  0  0
    1.2740   -1.8801   20.1237 H   0  0  0  0  0  0  0  0  0  0  0  0
   -4.7672   -5.1326   20.0422 O   0  0  0  0  0  0  0  0  0  0  0  0
   -4.4520   -4.0424   20.4908 C   0  0  0  0  0  0  0  0  0  0  0  0
   -5.2864   -3.0919   20.9838 O   0  0  0  0  0  0  0  0  0  0  0  0
   -5.7788   -3.3488   22.3041 C   0  0  0  0  0  0  0  0  0  0  0  0
   -5.6983   -4.8514   22.5612 C   0  0  0  0  0  0  0  0  0  0  0  0
   -6.4383   -5.2410   23.8383 C   0  0  0  0  0  0  0  0  0  0  0  0
   -6.4023   -4.1226   24.8673 C   0  0  0  0  0  0  0  0  0  0  0  0
 11 12  1  0
 11 10  1  0
  9 10  2  0
  1  7  1  0
  1  8  1  0
 13 14  1  0
 13 12  1  0
 14 15  1  0
  2 10  1  0
  2  3  2  0
  2  4  1  0
  3  5  1  0
  4  6  2  0
  5  7  2  0
  6  7  1  0
M  END
> <PUBCHEM_COMPOUND_CID>
7184

> <PUBCHEM_CONFORMER_RMSD>
0.6

> <PUBCHEM_CONFORMER_DIVERSEORDER>
1
44
15
20
41
3
43
64
40
47
74
50
4
6
22
69
55
77
16
75
28
26
73
53
11
32
49
58
67
63
62
24
65
27
19
38
12
48
76
25
57
10
31
17
42
34
68
51
9
23
8
14
21
33
18
30
5
66
70
2
56
45
39
37
46
35
60
36
52
59
54
29
71
72
61
13
7

> <PUBCHEM_MMFF94_PARTIAL_CHARGES>
16
1 -0.43
10 -0.15
11 -0.15
12 -0.15
13 -0.15
14 0.08
2 -0.57
24 0.15
25 0.15
26 0.15
27 0.15
28 0.45
3 -0.53
6 0.28
8 0.09
9 0.63

> <PUBCHEM_EFFECTIVE_ROTOR_COUNT>
5

> <PUBCHEM_PHARMACOPHORE_FEATURES>
4
1 2 acceptor
1 3 donor
1 7 hydrophobe
6 8 10 11 12 13 14 rings

> <PUBCHEM_HEAVY_ATOM_COUNT>
14

> <PUBCHEM_ATOM_DEF_STEREO_COUNT>
0

> <PUBCHEM_ATOM_UDEF_STEREO_COUNT>
0

> <PUBCHEM_BOND_DEF_STEREO_COUNT>
0

> <PUBCHEM_BOND_UDEF_STEREO_COUNT>
0

> <PUBCHEM_ISOTOPIC_ATOM_COUNT>
0

> <PUBCHEM_COMPONENT_COUNT>
1

> <PUBCHEM_CACTVS_TAUTO_COUNT>
3

> <PUBCHEM_CONFORMER_ID>
00001C1000000001

> <PUBCHEM_MMFF94_ENERGY>
26.8162

> <PUBCHEM_FEATURE_SELFOVERLAP>
20.297

> <PUBCHEM_SHAPE_FINGERPRINT>
100836 57 10159698014692119138
10465860 250 17561082501386551480
10968037 39 18334860532716625766
11046707 91 18409446968869733128
12032990 46 18409167722807014732
12251169 10 18060418027818494140
13167823 11 18408602527187214402
13288520 33 18409730651148371639
13551218 46 18270963440792261598
13690532 89 18409730694483049495
13862211 1 18342737464162399199
14252887 29 17989215824084205230
17804303 29 18273497883401759577
17834072 33 18410577323021717172
1813 80 17968106291699631366
18186145 218 14923950067535008876
200 152 17530965761531918920
20281475 54 18337672035103360796
20767249 213 10735876175026745610
20828058 44 18273214175553485034
21267235 1 18410019844213228018
22485316 2 18408601440280660184
2297311 6 18130235869953600908
23402539 116 17846774109970031213
23463225 33 18411140233692529510
23559900 14 18270389602695558633
351380 180 10665231458300457486
351380 3 18259982652836299658
42 15 18342740719346176002
4214541 1 18340769252190604880
5104073 3 18271533095046590721
559249 180 18335415712557464698
7364860 26 18126566957732624024
83771 10 18407476665592062532

> <PUBCHEM_SHAPE_MULTIPOLES>
270.51
10.85
1.64
0.68
12.98
0.32
0
-5.61
1.62
-0.51
-0.11
-0.08
0
-0.42

> <PUBCHEM_SHAPE_SELFOVERLAP>
550.017

> <PUBCHEM_SHAPE_VOLUME>
158.1

> <PUBCHEM_COORDINATE_TYPE>
2
5
10

> <Energy>
17.0404

> <minimizedAffinity>
-5.97111

> <CNNscore>
0.8506792188

> <CNNaffinity>
5.7152752876

> <CNN_VS>
4.8618659973

> <CNNaffinity_variance>
0.5740356445

$$$$
7184


 15 15  0  0  0  0  0  0  0  0999 V2000
    0.9022   -2.6946   21.0590 O   0  0  0  0  0  0  0  0  0  0  0  0
   -3.0390   -3.3449   22.1446 C   0  0  0  0  0  0  0  0  0  0  0  0
   -2.2109   -2.5597   22.9560 C   0  0  0  0  0  0  0  0  0  0  0  0
   -2.5371   -3.9225   20.9749 C   0  0  0  0  0  0  0  0  0  0  0  0
   -0.8832   -2.3414   22.5816 C   0  0  0  0  0  0  0  0  0  0  0  0
   -1.2149   -3.7041   20.6055 C   0  0  0  0  0  0  0  0  0  0  0  0
   -0.3935   -2.9128   21.4100 C   0  0  0  0  0  0  0  0  0  0  0  0
    1.4513   -2.1630   21.6011 H   0  0  0  0  0  0  0  0  0  0  0  0
   -4.8300   -3.5036   23.7010 O   0  0  0  0  0  0  0  0  0  0  0  0
   -4.4381   -3.5829   22.5481 C   0  0  0  0  0  0  0  0  0  0  0  0
   -5.1855   -3.8672   21.4511 O   0  0  0  0  0  0  0  0  0  0  0  0
   -5.8863   -5.1152   21.5066 C   0  0  0  0  0  0  0  0  0  0  0  0
   -5.5953   -5.8855   20.2212 C   0  0  0  0  0  0  0  0  0  0  0  0
   -5.4422   -7.3808   20.4874 C   0  0  0  0  0  0  0  0  0  0  0  0
   -4.7210   -7.6429   21.7997 C   0  0  0  0  0  0  0  0  0  0  0  0
 11 12  1  0
 11 10  1  0
  9 10  2  0
  1  7  1  0
  1  8  1  0
 13 14  1  0
 13 12  1  0
 14 15  1  0
  2 10  1  0
  2  3  2  0
  2  4  1  0
  3  5  1  0
  4  6  2  0
  5  7  2  0
  6  7  1  0
M  END
> <PUBCHEM_COMPOUND_CID>
7184

> <PUBCHEM_CONFORMER_RMSD>
0.6

> <PUBCHEM_CONFORMER_DIVERSEORDER>
1
44
15
20
41
3
43
64
40
47
74
50
4
6
22
69
55
77
16
75
28
26
73
53
11
32
49
58
67
63
62
24
65
27
19
38
12
48
76
25
57
10
31
17
42
34
68
51
9
23
8
14
21
33
18
30
5
66
70
2
56
45
39
37
46
35
60
36
52
59
54
29
71
72
61
13
7

> <PUBCHEM_MMFF94_PARTIAL_CHARGES>
16
1 -0.43
10 -0.15
11 -0.15
12 -0.15
13 -0.15
14 0.08
2 -0.57
24 0.15
25 0.15
26 0.15
27 0.15
28 0.45
3 -0.53
6 0.28
8 0.09
9 0.63

> <PUBCHEM_EFFECTIVE_ROTOR_COUNT>
5

> <PUBCHEM_PHARMACOPHORE_FEATURES>
4
1 2 acceptor
1 3 donor
1 7 hydrophobe
6 8 10 11 12 13 14 rings

> <PUBCHEM_HEAVY_ATOM_COUNT>
14

> <PUBCHEM_ATOM_DEF_STEREO_COUNT>
0

> <PUBCHEM_ATOM_UDEF_STEREO_COUNT>
0

> <PUBCHEM_BOND_DEF_STEREO_COUNT>
0

> <PUBCHEM_BOND_UDEF_STEREO_COUNT>
0

> <PUBCHEM_ISOTOPIC_ATOM_COUNT>
0

> <PUBCHEM_COMPONENT_COUNT>
1

> <PUBCHEM_CACTVS_TAUTO_COUNT>
3

> <PUBCHEM_CONFORMER_ID>
00001C1000000001

> <PUBCHEM_MMFF94_ENERGY>
26.8162

> <PUBCHEM_FEATURE_SELFOVERLAP>
20.297

> <PUBCHEM_SHAPE_FINGERPRINT>
100836 57 10159698014692119138
10465860 250 17561082501386551480
10968037 39 18334860532716625766
11046707 91 18409446968869733128
12032990 46 18409167722807014732
12251169 10 18060418027818494140
13167823 11 18408602527187214402
13288520 33 18409730651148371639
13551218 46 18270963440792261598
13690532 89 18409730694483049495
13862211 1 18342737464162399199
14252887 29 17989215824084205230
17804303 29 18273497883401759577
17834072 33 18410577323021717172
1813 80 17968106291699631366
18186145 218 14923950067535008876
200 152 17530965761531918920
20281475 54 18337672035103360796
20767249 213 10735876175026745610
20828058 44 18273214175553485034
21267235 1 18410019844213228018
22485316 2 18408601440280660184
2297311 6 18130235869953600908
23402539 116 17846774109970031213
23463225 33 18411140233692529510
23559900 14 18270389602695558633
351380 180 10665231458300457486
351380 3 18259982652836299658
42 15 18342740719346176002
4214541 1 18340769252190604880
5104073 3 18271533095046590721
559249 180 18335415712557464698
7364860 26 18126566957732624024
83771 10 18407476665592062532

> <PUBCHEM_SHAPE_MULTIPOLES>
270.51
10.85
1.64
0.68
12.98
0.32
0
-5.61
1.62
-0.51
-0.11
-0.08
0
-0.42

> <PUBCHEM_SHAPE_SELFOVERLAP>
550.017

> <PUBCHEM_SHAPE_VOLUME>
158.1

> <PUBCHEM_COORDINATE_TYPE>
2
5
10

> <Energy>
17.0404

> <minimizedAffinity>
-6.30077

> <CNNscore>
0.8403181434

> <CNNaffinity>
5.4519267082

> <CNN_VS>
4.5813527107

> <CNNaffinity_variance>
0.2151753902

$$$$
7184


 15 15  0  0  0  0  0  0  0  0999 V2000
    0.9795   -2.1587   20.9397 O   0  0  0  0  0  0  0  0  0  0  0  0
   -3.0648   -3.0232   20.7637 C   0  0  0  0  0  0  0  0  0  0  0  0
   -2.4586   -2.7640   21.9990 C   0  0  0  0  0  0  0  0  0  0  0  0
   -2.3074   -3.0049   19.5891 C   0  0  0  0  0  0  0  0  0  0  0  0
   -1.0943   -2.4693   22.0505 C   0  0  0  0  0  0  0  0  0  0  0  0
   -0.9495   -2.7122   19.6438 C   0  0  0  0  0  0  0  0  0  0  0  0
   -0.3487   -2.4440   20.8747 C   0  0  0  0  0  0  0  0  0  0  0  0
    1.3801   -1.9792   21.7675 H   0  0  0  0  0  0  0  0  0  0  0  0
   -4.9391   -4.4398   20.3954 O   0  0  0  0  0  0  0  0  0  0  0  0
   -4.5039   -3.3449   20.7133 C   0  0  0  0  0  0  0  0  0  0  0  0
   -5.2258   -2.2601   21.0937 O   0  0  0  0  0  0  0  0  0  0  0  0
   -6.1834   -2.5070   22.1299 C   0  0  0  0  0  0  0  0  0  0  0  0
   -5.8759   -1.5741   23.2984 C   0  0  0  0  0  0  0  0  0  0  0  0
   -6.5734   -0.2259   23.1367 C   0  0  0  0  0  0  0  0  0  0  0  0
   -8.0491   -0.3152   23.4906 C   0  0  0  0  0  0  0  0  0  0  0  0
 11 12  1  0
 11 10  1  0
  9 10  2  0
  1  7  1  0
  1  8  1  0
 13 14  1  0
 13 12  1  0
 14 15  1  0
  2 10  1  0
  2  3  2  0
  2  4  1  0
  3  5  1  0
  4  6  2  0
  5  7  2  0
  6  7  1  0
M  END
> <PUBCHEM_COMPOUND_CID>
7184

> <PUBCHEM_CONFORMER_RMSD>
0.6

> <PUBCHEM_CONFORMER_DIVERSEORDER>
1
44
15
20
41
3
43
64
40
47
74
50
4
6
22
69
55
77
16
75
28
26
73
53
11
32
49
58
67
63
62
24
65
27
19
38
12
48
76
25
57
10
31
17
42
34
68
51
9
23
8
14
21
33
18
30
5
66
70
2
56
45
39
37
46
35
60
36
52
59
54
29
71
72
61
13
7

> <PUBCHEM_MMFF94_PARTIAL_CHARGES>
16
1 -0.43
10 -0.15
11 -0.15
12 -0.15
13 -0.15
14 0.08
2 -0.57
24 0.15
25 0.15
26 0.15
27 0.15
28 0.45
3 -0.53
6 0.28
8 0.09
9 0.63

> <PUBCHEM_EFFECTIVE_ROTOR_COUNT>
5

> <PUBCHEM_PHARMACOPHORE_FEATURES>
4
1 2 acceptor
1 3 donor
1 7 hydrophobe
6 8 10 11 12 13 14 rings

> <PUBCHEM_HEAVY_ATOM_COUNT>
14

> <PUBCHEM_ATOM_DEF_STEREO_COUNT>
0

> <PUBCHEM_ATOM_UDEF_STEREO_COUNT>
0

> <PUBCHEM_BOND_DEF_STEREO_COUNT>
0

> <PUBCHEM_BOND_UDEF_STEREO_COUNT>
0

> <PUBCHEM_ISOTOPIC_ATOM_COUNT>
0

> <PUBCHEM_COMPONENT_COUNT>
1

> <PUBCHEM_CACTVS_TAUTO_COUNT>
3

> <PUBCHEM_CONFORMER_ID>
00001C1000000001

> <PUBCHEM_MMFF94_ENERGY>
26.8162

> <PUBCHEM_FEATURE_SELFOVERLAP>
20.297

> <PUBCHEM_SHAPE_FINGERPRINT>
100836 57 10159698014692119138
10465860 250 17561082501386551480
10968037 39 18334860532716625766
11046707 91 18409446968869733128
12032990 46 18409167722807014732
12251169 10 18060418027818494140
13167823 11 18408602527187214402
13288520 33 18409730651148371639
13551218 46 18270963440792261598
13690532 89 18409730694483049495
13862211 1 18342737464162399199
14252887 29 17989215824084205230
17804303 29 18273497883401759577
17834072 33 18410577323021717172
1813 80 17968106291699631366
18186145 218 14923950067535008876
200 152 17530965761531918920
20281475 54 18337672035103360796
20767249 213 10735876175026745610
20828058 44 18273214175553485034
21267235 1 18410019844213228018
22485316 2 18408601440280660184
2297311 6 18130235869953600908
23402539 116 17846774109970031213
23463225 33 18411140233692529510
23559900 14 18270389602695558633
351380 180 10665231458300457486
351380 3 18259982652836299658
42 15 18342740719346176002
4214541 1 18340769252190604880
5104073 3 18271533095046590721
559249 180 18335415712557464698
7364860 26 18126566957732624024
83771 10 18407476665592062532

> <PUBCHEM_SHAPE_MULTIPOLES>
270.51
10.85
1.64
0.68
12.98
0.32
0
-5.61
1.62
-0.51
-0.11
-0.08
0
-0.42

> <PUBCHEM_SHAPE_SELFOVERLAP>
550.017

> <PUBCHEM_SHAPE_VOLUME>
158.1

> <PUBCHEM_COORDINATE_TYPE>
2
5
10

> <Energy>
17.0404

> <minimizedAffinity>
-6.30969

> <CNNscore>
0.8369622231

> <CNNaffinity>
5.5009269714

> <CNN_VS>
4.6040682793

> <CNNaffinity_variance>
0.5885256529

$$$$
7184


 15 15  0  0  0  0  0  0  0  0999 V2000
   -0.8933   -3.7903   18.5714 O   0  0  0  0  0  0  0  0  0  0  0  0
   -2.8558   -2.4208   21.9489 C   0  0  0  0  0  0  0  0  0  0  0  0
   -3.5915   -2.9201   20.8672 C   0  0  0  0  0  0  0  0  0  0  0  0
   -1.4602   -2.3698   21.8887 C   0  0  0  0  0  0  0  0  0  0  0  0
   -2.9226   -3.3839   19.7323 C   0  0  0  0  0  0  0  0  0  0  0  0
   -0.7974   -2.8314   20.7573 C   0  0  0  0  0  0  0  0  0  0  0  0
   -1.5316   -3.3382   19.6840 C   0  0  0  0  0  0  0  0  0  0  0  0
   -1.3889   -4.1300   17.8524 H   0  0  0  0  0  0  0  0  0  0  0  0
   -2.9993   -1.4484   24.1144 O   0  0  0  0  0  0  0  0  0  0  0  0
   -3.5654   -1.9213   23.1423 C   0  0  0  0  0  0  0  0  0  0  0  0
   -4.9046   -2.0510   22.9623 O   0  0  0  0  0  0  0  0  0  0  0  0
   -5.7048   -1.6362   24.0755 C   0  0  0  0  0  0  0  0  0  0  0  0
   -7.1635   -1.9614   23.7642 C   0  0  0  0  0  0  0  0  0  0  0  0
   -7.9847   -0.6936   23.5437 C   0  0  0  0  0  0  0  0  0  0  0  0
   -8.4327   -0.5637   22.0968 C   0  0  0  0  0  0  0  0  0  0  0  0
 11 12  1  0
 11 10  1  0
  9 10  2  0
  1  7  1  0
  1  8  1  0
 13 14  1  0
 13 12  1  0
 14 15  1  0
  2 10  1  0
  2  3  2  0
  2  4  1  0
  3  5  1  0
  4  6  2  0
  5  7  2  0
  6  7  1  0
M  END
> <PUBCHEM_COMPOUND_CID>
7184

> <PUBCHEM_CONFORMER_RMSD>
0.6

> <PUBCHEM_CONFORMER_DIVERSEORDER>
1
44
15
20
41
3
43
64
40
47
74
50
4
6
22
69
55
77
16
75
28
26
73
53
11
32
49
58
67
63
62
24
65
27
19
38
12
48
76
25
57
10
31
17
42
34
68
51
9
23
8
14
21
33
18
30
5
66
70
2
56
45
39
37
46
35
60
36
52
59
54
29
71
72
61
13
7

> <PUBCHEM_MMFF94_PARTIAL_CHARGES>
16
1 -0.43
10 -0.15
11 -0.15
12 -0.15
13 -0.15
14 0.08
2 -0.57
24 0.15
25 0.15
26 0.15
27 0.15
28 0.45
3 -0.53
6 0.28
8 0.09
9 0.63

> <PUBCHEM_EFFECTIVE_ROTOR_COUNT>
5

> <PUBCHEM_PHARMACOPHORE_FEATURES>
4
1 2 acceptor
1 3 donor
1 7 hydrophobe
6 8 10 11 12 13 14 rings

> <PUBCHEM_HEAVY_ATOM_COUNT>
14

> <PUBCHEM_ATOM_DEF_STEREO_COUNT>
0

> <PUBCHEM_ATOM_UDEF_STEREO_COUNT>
0

> <PUBCHEM_BOND_DEF_STEREO_COUNT>
0

> <PUBCHEM_BOND_UDEF_STEREO_COUNT>
0

> <PUBCHEM_ISOTOPIC_ATOM_COUNT>
0

> <PUBCHEM_COMPONENT_COUNT>
1

> <PUBCHEM_CACTVS_TAUTO_COUNT>
3

> <PUBCHEM_CONFORMER_ID>
00001C1000000001

> <PUBCHEM_MMFF94_ENERGY>
26.8162

> <PUBCHEM_FEATURE_SELFOVERLAP>
20.297

> <PUBCHEM_SHAPE_FINGERPRINT>
100836 57 10159698014692119138
10465860 250 17561082501386551480
10968037 39 18334860532716625766
11046707 91 18409446968869733128
12032990 46 18409167722807014732
12251169 10 18060418027818494140
13167823 11 18408602527187214402
13288520 33 18409730651148371639
13551218 46 18270963440792261598
13690532 89 18409730694483049495
13862211 1 18342737464162399199
14252887 29 17989215824084205230
17804303 29 18273497883401759577
17834072 33 18410577323021717172
1813 80 17968106291699631366
18186145 218 14923950067535008876
200 152 17530965761531918920
20281475 54 18337672035103360796
20767249 213 10735876175026745610
20828058 44 18273214175553485034
21267235 1 18410019844213228018
22485316 2 18408601440280660184
2297311 6 18130235869953600908
23402539 116 17846774109970031213
23463225 33 18411140233692529510
23559900 14 18270389602695558633
351380 180 10665231458300457486
351380 3 18259982652836299658
42 15 18342740719346176002
4214541 1 18340769252190604880
5104073 3 18271533095046590721
559249 180 18335415712557464698
7364860 26 18126566957732624024
83771 10 18407476665592062532

> <PUBCHEM_SHAPE_MULTIPOLES>
270.51
10.85
1.64
0.68
12.98
0.32
0
-5.61
1.62
-0.51
-0.11
-0.08
0
-0.42

> <PUBCHEM_SHAPE_SELFOVERLAP>
550.017

> <PUBCHEM_SHAPE_VOLUME>
158.1

> <PUBCHEM_COORDINATE_TYPE>
2
5
10

> <Energy>
17.0404

> <minimizedAffinity>
-6.05526

> <CNNscore>
0.7851167917

> <CNNaffinity>
5.2825298309

> <CNN_VS>
4.1474027634

> <CNNaffinity_variance>
0.6466571689

$$$$
7184


 15 15  0  0  0  0  0  0  0  0999 V2000
   -0.1051   -4.1069   20.2962 O   0  0  0  0  0  0  0  0  0  0  0  0
   -4.0764   -3.2330   21.0705 C   0  0  0  0  0  0  0  0  0  0  0  0
   -3.2625   -3.7465   22.0876 C   0  0  0  0  0  0  0  0  0  0  0  0
   -3.5574   -3.0262   19.7891 C   0  0  0  0  0  0  0  0  0  0  0  0
   -1.9225   -4.0356   21.8202 C   0  0  0  0  0  0  0  0  0  0  0  0
   -2.2235   -3.3159   19.5260 C   0  0  0  0  0  0  0  0  0  0  0  0
   -1.4109   -3.8181   20.5435 C   0  0  0  0  0  0  0  0  0  0  0  0
    0.4380   -4.4440   20.9812 H   0  0  0  0  0  0  0  0  0  0  0  0
   -5.8956   -1.8474   21.7231 O   0  0  0  0  0  0  0  0  0  0  0  0
   -5.4944   -2.9387   21.3527 C   0  0  0  0  0  0  0  0  0  0  0  0
   -6.2448   -4.0439   21.1111 O   0  0  0  0  0  0  0  0  0  0  0  0
   -7.2034   -4.3552   22.1288 C   0  0  0  0  0  0  0  0  0  0  0  0
   -6.4737   -5.0430   23.2798 C   0  0  0  0  0  0  0  0  0  0  0  0
   -6.7600   -4.3572   24.6132 C   0  0  0  0  0  0  0  0  0  0  0  0
   -8.2218   -3.9577   24.7327 C   0  0  0  0  0  0  0  0  0  0  0  0
 11 12  1  0
 11 10  1  0
  9 10  2  0
  1  7  1  0
  1  8  1  0
 13 14  1  0
 13 12  1  0
 14 15  1  0
  2 10  1  0
  2  3  2  0
  2  4  1  0
  3  5  1  0
  4  6  2  0
  5  7  2  0
  6  7  1  0
M  END
> <PUBCHEM_COMPOUND_CID>
7184

> <PUBCHEM_CONFORMER_RMSD>
0.6

> <PUBCHEM_CONFORMER_DIVERSEORDER>
1
44
15
20
41
3
43
64
40
47
74
50
4
6
22
69
55
77
16
75
28
26
73
53
11
32
49
58
67
63
62
24
65
27
19
38
12
48
76
25
57
10
31
17
42
34
68
51
9
23
8
14
21
33
18
30
5
66
70
2
56
45
39
37
46
35
60
36
52
59
54
29
71
72
61
13
7

> <PUBCHEM_MMFF94_PARTIAL_CHARGES>
16
1 -0.43
10 -0.15
11 -0.15
12 -0.15
13 -0.15
14 0.08
2 -0.57
24 0.15
25 0.15
26 0.15
27 0.15
28 0.45
3 -0.53
6 0.28
8 0.09
9 0.63

> <PUBCHEM_EFFECTIVE_ROTOR_COUNT>
5

> <PUBCHEM_PHARMACOPHORE_FEATURES>
4
1 2 acceptor
1 3 donor
1 7 hydrophobe
6 8 10 11 12 13 14 rings

> <PUBCHEM_HEAVY_ATOM_COUNT>
14

> <PUBCHEM_ATOM_DEF_STEREO_COUNT>
0

> <PUBCHEM_ATOM_UDEF_STEREO_COUNT>
0

> <PUBCHEM_BOND_DEF_STEREO_COUNT>
0

> <PUBCHEM_BOND_UDEF_STEREO_COUNT>
0

> <PUBCHEM_ISOTOPIC_ATOM_COUNT>
0

> <PUBCHEM_COMPONENT_COUNT>
1

> <PUBCHEM_CACTVS_TAUTO_COUNT>
3

> <PUBCHEM_CONFORMER_ID>
00001C1000000001

> <PUBCHEM_MMFF94_ENERGY>
26.8162

> <PUBCHEM_FEATURE_SELFOVERLAP>
20.297

> <PUBCHEM_SHAPE_FINGERPRINT>
100836 57 10159698014692119138
10465860 250 17561082501386551480
10968037 39 18334860532716625766
11046707 91 18409446968869733128
12032990 46 18409167722807014732
12251169 10 18060418027818494140
13167823 11 18408602527187214402
13288520 33 18409730651148371639
13551218 46 18270963440792261598
13690532 89 18409730694483049495
13862211 1 18342737464162399199
14252887 29 17989215824084205230
17804303 29 18273497883401759577
17834072 33 18410577323021717172
1813 80 17968106291699631366
18186145 218 14923950067535008876
200 152 17530965761531918920
20281475 54 18337672035103360796
20767249 213 10735876175026745610
20828058 44 18273214175553485034
21267235 1 18410019844213228018
22485316 2 18408601440280660184
2297311 6 18130235869953600908
23402539 116 17846774109970031213
23463225 33 18411140233692529510
23559900 14 18270389602695558633
351380 180 10665231458300457486
351380 3 18259982652836299658
42 15 18342740719346176002
4214541 1 18340769252190604880
5104073 3 18271533095046590721
559249 180 18335415712557464698
7364860 26 18126566957732624024
83771 10 18407476665592062532

> <PUBCHEM_SHAPE_MULTIPOLES>
270.51
10.85
1.64
0.68
12.98
0.32
0
-5.61
1.62
-0.51
-0.11
-0.08
0
-0.42

> <PUBCHEM_SHAPE_SELFOVERLAP>
550.017

> <PUBCHEM_SHAPE_VOLUME>
158.1

> <PUBCHEM_COORDINATE_TYPE>
2
5
10

> <Energy>
17.0404

> <minimizedAffinity>
-5.82313

> <CNNscore>
0.7525551915

> <CNNaffinity>
5.8050742149

> <CNN_VS>
4.3686385155

> <CNNaffinity_variance>
0.6157689691

$$$$
