2999413


 26 27  0  0  0  0  0  0  0  0999 V2000
   -9.5368   -4.7818   22.5192 O   0  0  0  0  0  0  0  0  0  0  0  0
   -4.2849   -2.0985   23.0661 O   0  0  0  0  0  0  0  0  0  0  0  0
   -3.4396   -4.1588   23.6788 O   0  0  0  0  0  0  0  0  0  0  0  0
   -1.4750   -1.2465   22.8491 O   0  0  0  0  0  0  0  0  0  0  0  0
   -0.2597   -2.4973   18.3959 O   0  0  0  0  0  0  0  0  0  0  0  0
   -8.8324   -3.6443   22.0226 C   0  0  0  0  0  0  0  0  0  0  0  0
   -8.1055   -4.0443   20.7305 C   0  0  0  0  0  0  0  0  0  0  0  0
   -7.9222   -3.0958   23.1323 C   0  0  0  0  0  0  0  0  0  0  0  0
   -7.1531   -5.2396   20.8859 C   0  0  0  0  0  0  0  0  0  0  0  0
   -7.1922   -1.8102   22.7357 C   0  0  0  0  0  0  0  0  0  0  0  0
   -6.2672   -5.4420   19.6502 C   0  0  0  0  0  0  0  0  0  0  0  0
   -6.3611   -1.2145   23.8795 C   0  0  0  0  0  0  0  0  0  0  0  0
   -5.0761   -4.4761   19.5880 C   0  0  0  0  0  0  0  0  0  0  0  0
   -5.1210   -2.0468   24.2354 C   0  0  0  0  0  0  0  0  0  0  0  0
   -3.9285   -4.8929   20.5201 C   0  0  0  0  0  0  0  0  0  0  0  0
   -2.8514   -3.8331   20.6031 C   0  0  0  0  0  0  0  0  0  0  0  0
   -4.3428   -1.3850   25.3702 C   0  0  0  0  0  0  0  0  0  0  0  0
   -2.6626   -3.0121   21.7350 C   0  0  0  0  0  0  0  0  0  0  0  0
   -3.4799   -3.1825   22.9507 C   0  0  0  0  0  0  0  0  0  0  0  0
   -2.0146   -3.6312   19.4909 C   0  0  0  0  0  0  0  0  0  0  0  0
   -1.6633   -2.0248   21.7384 C   0  0  0  0  0  0  0  0  0  0  0  0
   -1.0334   -2.6423   19.5098 C   0  0  0  0  0  0  0  0  0  0  0  0
   -0.8490   -1.8325   20.6241 C   0  0  0  0  0  0  0  0  0  0  0  0
  -10.1140   -5.1337   21.8236 H   0  0  0  0  0  0  0  0  0  0  0  0
   -2.0174   -1.3678   23.6035 H   0  0  0  0  0  0  0  0  0  0  0  0
   -0.3983   -3.0522   17.6538 H   0  0  0  0  0  0  0  0  0  0  0  0
  1  6  1  0
  1 24  1  0
  2 14  1  0
  2 19  1  0
  3 19  2  0
  4 21  1  0
  4 25  1  0
  5 22  1  0
  5 26  1  0
  6  7  1  0
  6  8  1  0
  7  9  1  0
  8 10  1  0
  9 11  1  0
 10 12  1  0
 11 13  1  0
 12 14  1  0
 13 15  1  0
 14 17  1  0
 15 16  1  0
 16 18  2  0
 16 20  1  0
 18 19  1  0
 18 21  1  0
 20 22  2  0
 21 23  2  0
 22 23  1  0
M  END
> <PUBCHEM_COMPOUND_CID>
2999413

> <PUBCHEM_CONFORMER_RMSD>
0.6

> <PUBCHEM_CONFORMER_DIVERSEORDER>
1
6
14
27
9
16
11
26
8
2
22
5
20
28
18
17
29
3
24
19
21
13
15
7
23
4
25
12
10

> <PUBCHEM_MMFF94_PARTIAL_CHARGES>
20
1 -0.68
14 0.28
15 0.14
16 -0.14
18 0.09
19 0.63
2 -0.43
20 -0.15
21 0.08
22 0.08
23 -0.15
3 -0.57
4 -0.53
45 0.4
46 0.15
47 0.15
48 0.45
49 0.45
5 -0.53
6 0.28

> <PUBCHEM_EFFECTIVE_ROTOR_COUNT>
2.2

> <PUBCHEM_PHARMACOPHORE_FEATURES>
6
1 1 acceptor
1 1 donor
1 3 acceptor
1 4 donor
1 5 donor
6 16 18 20 21 22 23 rings

> <PUBCHEM_HEAVY_ATOM_COUNT>
23

> <PUBCHEM_ATOM_DEF_STEREO_COUNT>
2

> <PUBCHEM_ATOM_UDEF_STEREO_COUNT>
0

> <PUBCHEM_BOND_DEF_STEREO_COUNT>
0

> <PUBCHEM_BOND_UDEF_STEREO_COUNT>
0

> <PUBCHEM_ISOTOPIC_ATOM_COUNT>
0

> <PUBCHEM_COMPONENT_COUNT>
1

> <PUBCHEM_CACTVS_TAUTO_COUNT>
25

> <PUBCHEM_CONFORMER_ID>
002DC47500000001

> <PUBCHEM_MMFF94_ENERGY>
51.6521

> <PUBCHEM_FEATURE_SELFOVERLAP>
30.446

> <PUBCHEM_SHAPE_FINGERPRINT>
104564 63 18340206271993051459
10498660 4 18187631549186102207
10577160 183 17606693423048979742
10616163 171 18266175029013727061
10759866 29 17750229218859711762
108634 29 18411143511243732574
1100329 8 17185877190433830119
11578080 2 17058915861662947194
116883 192 18412832382636582198
12011746 2 18335696144590423807
12054548 360 18337387261554875763
12156800 1 11695045847065978403
12553582 1 18337941355723699521
12788726 201 18339079272527017530
12954195 1 18196384628153038830
13402501 40 18410292523613913767
13533116 47 17911794988931237615
13941206 138 17823424798885047762
14178342 30 17618481208803059632
14251740 79 18268155262187636390
14251745 187 18265888240930317283
14251751 93 18337386020182837502
14251757 17 18340208496912958262
14251757 5 18336274478600052878
14289585 56 17025448677686211638
14363568 33 17831602116089395611
14790565 3 18338242566191680045
14931854 50 18192983829844991199
15081414 286 18267592488269592273
15210252 30 18041841838786063412
17093844 170 18338788043621724272
17357779 13 18338788026679147463
19591789 44 18410009931708134251
20775438 99 17121094438368206175
21141583 151 18411697703262438637
21634736 98 18410570674064001468
221357 26 18411697699342485711
221490 88 18411139126039522364
22393880 68 18190738627232927852
22907989 373 17973200346140242700
23379529 103 18202007594804787190
23419403 2 17703496796872386008
23559900 14 18341611543049219120
23566358 2 18411982468764321124
238 59 17976219553578124023
2871803 45 18335692832737868381
3014063 31 18410290320121227783
6287921 2 17544481216121896507

> <PUBCHEM_SHAPE_MULTIPOLES>
443.98
8.13
4.23
1.13
0.08
1.63
0.2
-3.4
-2.74
-1.52
0.36
0
0.19
0.73

> <PUBCHEM_SHAPE_SELFOVERLAP>
910.639

> <PUBCHEM_SHAPE_VOLUME>
254.2

> <PUBCHEM_COORDINATE_TYPE>
2
5
10

> <Energy>
43.3336

> <minimizedAffinity>
-4.02250

> <CNNscore>
0.6879103184

> <CNNaffinity>
7.1969528198

> <CNN_VS>
4.9508581161

> <CNNaffinity_variance>
0.4985770285

$$$$
2999413


 26 27  0  0  0  0  0  0  0  0999 V2000
   -9.1584   -3.9020   24.2543 O   0  0  0  0  0  0  0  0  0  0  0  0
   -3.7482   -2.0287   22.7368 O   0  0  0  0  0  0  0  0  0  0  0  0
   -2.9830   -4.1052   23.3984 O   0  0  0  0  0  0  0  0  0  0  0  0
   -1.0820   -1.6609   21.5433 O   0  0  0  0  0  0  0  0  0  0  0  0
   -1.5105   -3.6237   17.2032 O   0  0  0  0  0  0  0  0  0  0  0  0
   -8.5305   -2.9586   23.3868 C   0  0  0  0  0  0  0  0  0  0  0  0
   -8.3071   -3.6232   22.0206 C   0  0  0  0  0  0  0  0  0  0  0  0
   -7.2570   -2.4276   24.0627 C   0  0  0  0  0  0  0  0  0  0  0  0
   -7.4931   -4.9248   22.0771 C   0  0  0  0  0  0  0  0  0  0  0  0
   -6.5566   -1.3309   23.2568 C   0  0  0  0  0  0  0  0  0  0  0  0
   -7.0802   -5.4136   20.6831 C   0  0  0  0  0  0  0  0  0  0  0  0
   -5.3412   -0.7371   23.9807 C   0  0  0  0  0  0  0  0  0  0  0  0
   -5.8738   -4.6614   20.1048 C   0  0  0  0  0  0  0  0  0  0  0  0
   -4.1522   -1.7035   24.0784 C   0  0  0  0  0  0  0  0  0  0  0  0
   -4.5404   -5.1354   20.7024 C   0  0  0  0  0  0  0  0  0  0  0  0
   -3.3842   -4.2555   20.2793 C   0  0  0  0  0  0  0  0  0  0  0  0
   -2.9823   -1.0377   24.7990 C   0  0  0  0  0  0  0  0  0  0  0  0
   -2.7518   -3.3417   21.1488 C   0  0  0  0  0  0  0  0  0  0  0  0
   -3.1477   -3.2314   22.5651 C   0  0  0  0  0  0  0  0  0  0  0  0
   -2.9331   -4.3253   18.9491 C   0  0  0  0  0  0  0  0  0  0  0  0
   -1.7023   -2.5304   20.6865 C   0  0  0  0  0  0  0  0  0  0  0  0
   -1.8954   -3.5078   18.5065 C   0  0  0  0  0  0  0  0  0  0  0  0
   -1.2741   -2.6064   19.3627 C   0  0  0  0  0  0  0  0  0  0  0  0
   -9.9638   -4.2417   23.8339 H   0  0  0  0  0  0  0  0  0  0  0  0
   -1.3624   -1.6022   22.4354 H   0  0  0  0  0  0  0  0  0  0  0  0
   -1.9409   -4.2368   16.6403 H   0  0  0  0  0  0  0  0  0  0  0  0
  1  6  1  0
  1 24  1  0
  2 14  1  0
  2 19  1  0
  3 19  2  0
  4 21  1  0
  4 25  1  0
  5 22  1  0
  5 26  1  0
  6  7  1  0
  6  8  1  0
  7  9  1  0
  8 10  1  0
  9 11  1  0
 10 12  1  0
 11 13  1  0
 12 14  1  0
 13 15  1  0
 14 17  1  0
 15 16  1  0
 16 18  2  0
 16 20  1  0
 18 19  1  0
 18 21  1  0
 20 22  2  0
 21 23  2  0
 22 23  1  0
M  END
> <PUBCHEM_COMPOUND_CID>
2999413

> <PUBCHEM_CONFORMER_RMSD>
0.6

> <PUBCHEM_CONFORMER_DIVERSEORDER>
1
6
14
27
9
16
11
26
8
2
22
5
20
28
18
17
29
3
24
19
21
13
15
7
23
4
25
12
10

> <PUBCHEM_MMFF94_PARTIAL_CHARGES>
20
1 -0.68
14 0.28
15 0.14
16 -0.14
18 0.09
19 0.63
2 -0.43
20 -0.15
21 0.08
22 0.08
23 -0.15
3 -0.57
4 -0.53
45 0.4
46 0.15
47 0.15
48 0.45
49 0.45
5 -0.53
6 0.28

> <PUBCHEM_EFFECTIVE_ROTOR_COUNT>
2.2

> <PUBCHEM_PHARMACOPHORE_FEATURES>
6
1 1 acceptor
1 1 donor
1 3 acceptor
1 4 donor
1 5 donor
6 16 18 20 21 22 23 rings

> <PUBCHEM_HEAVY_ATOM_COUNT>
23

> <PUBCHEM_ATOM_DEF_STEREO_COUNT>
2

> <PUBCHEM_ATOM_UDEF_STEREO_COUNT>
0

> <PUBCHEM_BOND_DEF_STEREO_COUNT>
0

> <PUBCHEM_BOND_UDEF_STEREO_COUNT>
0

> <PUBCHEM_ISOTOPIC_ATOM_COUNT>
0

> <PUBCHEM_COMPONENT_COUNT>
1

> <PUBCHEM_CACTVS_TAUTO_COUNT>
25

> <PUBCHEM_CONFORMER_ID>
002DC47500000001

> <PUBCHEM_MMFF94_ENERGY>
51.6521

> <PUBCHEM_FEATURE_SELFOVERLAP>
30.446

> <PUBCHEM_SHAPE_FINGERPRINT>
104564 63 18340206271993051459
10498660 4 18187631549186102207
10577160 183 17606693423048979742
10616163 171 18266175029013727061
10759866 29 17750229218859711762
108634 29 18411143511243732574
1100329 8 17185877190433830119
11578080 2 17058915861662947194
116883 192 18412832382636582198
12011746 2 18335696144590423807
12054548 360 18337387261554875763
12156800 1 11695045847065978403
12553582 1 18337941355723699521
12788726 201 18339079272527017530
12954195 1 18196384628153038830
13402501 40 18410292523613913767
13533116 47 17911794988931237615
13941206 138 17823424798885047762
14178342 30 17618481208803059632
14251740 79 18268155262187636390
14251745 187 18265888240930317283
14251751 93 18337386020182837502
14251757 17 18340208496912958262
14251757 5 18336274478600052878
14289585 56 17025448677686211638
14363568 33 17831602116089395611
14790565 3 18338242566191680045
14931854 50 18192983829844991199
15081414 286 18267592488269592273
15210252 30 18041841838786063412
17093844 170 18338788043621724272
17357779 13 18338788026679147463
19591789 44 18410009931708134251
20775438 99 17121094438368206175
21141583 151 18411697703262438637
21634736 98 18410570674064001468
221357 26 18411697699342485711
221490 88 18411139126039522364
22393880 68 18190738627232927852
22907989 373 17973200346140242700
23379529 103 18202007594804787190
23419403 2 17703496796872386008
23559900 14 18341611543049219120
23566358 2 18411982468764321124
238 59 17976219553578124023
2871803 45 18335692832737868381
3014063 31 18410290320121227783
6287921 2 17544481216121896507

> <PUBCHEM_SHAPE_MULTIPOLES>
443.98
8.13
4.23
1.13
0.08
1.63
0.2
-3.4
-2.74
-1.52
0.36
0
0.19
0.73

> <PUBCHEM_SHAPE_SELFOVERLAP>
910.639

> <PUBCHEM_SHAPE_VOLUME>
254.2

> <PUBCHEM_COORDINATE_TYPE>
2
5
10

> <Energy>
43.3336

> <minimizedAffinity>
-5.01777

> <CNNscore>
0.4585010707

> <CNNaffinity>
6.7017207146

> <CNN_VS>
3.0727460384

> <CNNaffinity_variance>
0.1330817342

$$$$
2999413


 26 27  0  0  0  0  0  0  0  0999 V2000
   -8.3299   -4.0236   24.6461 O   0  0  0  0  0  0  0  0  0  0  0  0
   -4.0515   -4.9934   20.6665 O   0  0  0  0  0  0  0  0  0  0  0  0
   -4.8475   -3.1360   19.5477 O   0  0  0  0  0  0  0  0  0  0  0  0
   -1.7240   -4.8146   18.8723 O   0  0  0  0  0  0  0  0  0  0  0  0
    1.1878   -1.7487   21.1072 O   0  0  0  0  0  0  0  0  0  0  0  0
   -7.0448   -4.6367   24.5487 C   0  0  0  0  0  0  0  0  0  0  0  0
   -5.9780   -3.6007   24.9312 C   0  0  0  0  0  0  0  0  0  0  0  0
   -6.8840   -5.2413   23.1454 C   0  0  0  0  0  0  0  0  0  0  0  0
   -6.0221   -2.3113   24.0973 C   0  0  0  0  0  0  0  0  0  0  0  0
   -5.5745   -6.0130   22.9655 C   0  0  0  0  0  0  0  0  0  0  0  0
   -4.7956   -1.4217   24.3363 C   0  0  0  0  0  0  0  0  0  0  0  0
   -5.4629   -6.6956   21.5960 C   0  0  0  0  0  0  0  0  0  0  0  0
   -3.5447   -1.8906   23.5807 C   0  0  0  0  0  0  0  0  0  0  0  0
   -5.2760   -5.7110   20.4328 C   0  0  0  0  0  0  0  0  0  0  0  0
   -3.5745   -1.5071   22.0935 C   0  0  0  0  0  0  0  0  0  0  0  0
   -2.4413   -2.1455   21.3200 C   0  0  0  0  0  0  0  0  0  0  0  0
   -5.1620   -6.4647   19.1099 C   0  0  0  0  0  0  0  0  0  0  0  0
   -2.6281   -3.2178   20.4222 C   0  0  0  0  0  0  0  0  0  0  0  0
   -3.9726   -3.7502   20.1328 C   0  0  0  0  0  0  0  0  0  0  0  0
   -1.1327   -1.6719   21.5238 C   0  0  0  0  0  0  0  0  0  0  0  0
   -1.5299   -3.7873   19.7567 C   0  0  0  0  0  0  0  0  0  0  0  0
   -0.0548   -2.2539   20.8601 C   0  0  0  0  0  0  0  0  0  0  0  0
   -0.2389   -3.3114   19.9774 C   0  0  0  0  0  0  0  0  0  0  0  0
   -8.4387   -3.6395   25.5301 H   0  0  0  0  0  0  0  0  0  0  0  0
   -2.5881   -5.1419   18.7169 H   0  0  0  0  0  0  0  0  0  0  0  0
    1.2931   -1.0355   21.7056 H   0  0  0  0  0  0  0  0  0  0  0  0
  1  6  1  0
  1 24  1  0
  2 14  1  0
  2 19  1  0
  3 19  2  0
  4 21  1  0
  4 25  1  0
  5 22  1  0
  5 26  1  0
  6  7  1  0
  6  8  1  0
  7  9  1  0
  8 10  1  0
  9 11  1  0
 10 12  1  0
 11 13  1  0
 12 14  1  0
 13 15  1  0
 14 17  1  0
 15 16  1  0
 16 18  2  0
 16 20  1  0
 18 19  1  0
 18 21  1  0
 20 22  2  0
 21 23  2  0
 22 23  1  0
M  END
> <PUBCHEM_COMPOUND_CID>
2999413

> <PUBCHEM_CONFORMER_RMSD>
0.6

> <PUBCHEM_CONFORMER_DIVERSEORDER>
1
6
14
27
9
16
11
26
8
2
22
5
20
28
18
17
29
3
24
19
21
13
15
7
23
4
25
12
10

> <PUBCHEM_MMFF94_PARTIAL_CHARGES>
20
1 -0.68
14 0.28
15 0.14
16 -0.14
18 0.09
19 0.63
2 -0.43
20 -0.15
21 0.08
22 0.08
23 -0.15
3 -0.57
4 -0.53
45 0.4
46 0.15
47 0.15
48 0.45
49 0.45
5 -0.53
6 0.28

> <PUBCHEM_EFFECTIVE_ROTOR_COUNT>
2.2

> <PUBCHEM_PHARMACOPHORE_FEATURES>
6
1 1 acceptor
1 1 donor
1 3 acceptor
1 4 donor
1 5 donor
6 16 18 20 21 22 23 rings

> <PUBCHEM_HEAVY_ATOM_COUNT>
23

> <PUBCHEM_ATOM_DEF_STEREO_COUNT>
2

> <PUBCHEM_ATOM_UDEF_STEREO_COUNT>
0

> <PUBCHEM_BOND_DEF_STEREO_COUNT>
0

> <PUBCHEM_BOND_UDEF_STEREO_COUNT>
0

> <PUBCHEM_ISOTOPIC_ATOM_COUNT>
0

> <PUBCHEM_COMPONENT_COUNT>
1

> <PUBCHEM_CACTVS_TAUTO_COUNT>
25

> <PUBCHEM_CONFORMER_ID>
002DC47500000001

> <PUBCHEM_MMFF94_ENERGY>
51.6521

> <PUBCHEM_FEATURE_SELFOVERLAP>
30.446

> <PUBCHEM_SHAPE_FINGERPRINT>
104564 63 18340206271993051459
10498660 4 18187631549186102207
10577160 183 17606693423048979742
10616163 171 18266175029013727061
10759866 29 17750229218859711762
108634 29 18411143511243732574
1100329 8 17185877190433830119
11578080 2 17058915861662947194
116883 192 18412832382636582198
12011746 2 18335696144590423807
12054548 360 18337387261554875763
12156800 1 11695045847065978403
12553582 1 18337941355723699521
12788726 201 18339079272527017530
12954195 1 18196384628153038830
13402501 40 18410292523613913767
13533116 47 17911794988931237615
13941206 138 17823424798885047762
14178342 30 17618481208803059632
14251740 79 18268155262187636390
14251745 187 18265888240930317283
14251751 93 18337386020182837502
14251757 17 18340208496912958262
14251757 5 18336274478600052878
14289585 56 17025448677686211638
14363568 33 17831602116089395611
14790565 3 18338242566191680045
14931854 50 18192983829844991199
15081414 286 18267592488269592273
15210252 30 18041841838786063412
17093844 170 18338788043621724272
17357779 13 18338788026679147463
19591789 44 18410009931708134251
20775438 99 17121094438368206175
21141583 151 18411697703262438637
21634736 98 18410570674064001468
221357 26 18411697699342485711
221490 88 18411139126039522364
22393880 68 18190738627232927852
22907989 373 17973200346140242700
23379529 103 18202007594804787190
23419403 2 17703496796872386008
23559900 14 18341611543049219120
23566358 2 18411982468764321124
238 59 17976219553578124023
2871803 45 18335692832737868381
3014063 31 18410290320121227783
6287921 2 17544481216121896507

> <PUBCHEM_SHAPE_MULTIPOLES>
443.98
8.13
4.23
1.13
0.08
1.63
0.2
-3.4
-2.74
-1.52
0.36
0
0.19
0.73

> <PUBCHEM_SHAPE_SELFOVERLAP>
910.639

> <PUBCHEM_SHAPE_VOLUME>
254.2

> <PUBCHEM_COORDINATE_TYPE>
2
5
10

> <Energy>
43.3336

> <minimizedAffinity>
-3.64326

> <CNNscore>
0.3446312845

> <CNNaffinity>
5.9915370941

> <CNN_VS>
2.0648710728

> <CNNaffinity_variance>
0.0234216768

$$$$
2999413


 26 27  0  0  0  0  0  0  0  0999 V2000
   -7.0389   -4.2380   24.6845 O   0  0  0  0  0  0  0  0  0  0  0  0
   -3.9460   -2.5525   19.9226 O   0  0  0  0  0  0  0  0  0  0  0  0
   -3.3652   -0.6680   21.1252 O   0  0  0  0  0  0  0  0  0  0  0  0
   -1.8623   -1.7199   18.0165 O   0  0  0  0  0  0  0  0  0  0  0  0
    2.1362   -3.6331   19.8122 O   0  0  0  0  0  0  0  0  0  0  0  0
   -6.3869   -4.8023   23.5473 C   0  0  0  0  0  0  0  0  0  0  0  0
   -4.9424   -5.1511   23.9342 C   0  0  0  0  0  0  0  0  0  0  0  0
   -6.5221   -3.8347   22.3616 C   0  0  0  0  0  0  0  0  0  0  0  0
   -4.1326   -3.9672   24.4845 C   0  0  0  0  0  0  0  0  0  0  0  0
   -5.9410   -4.3893   21.0587 C   0  0  0  0  0  0  0  0  0  0  0  0
   -2.6400   -4.2948   24.6169 C   0  0  0  0  0  0  0  0  0  0  0  0
   -6.1651   -3.4607   19.8581 C   0  0  0  0  0  0  0  0  0  0  0  0
   -1.8786   -4.2223   23.2863 C   0  0  0  0  0  0  0  0  0  0  0  0
   -5.3330   -2.1717   19.9152 C   0  0  0  0  0  0  0  0  0  0  0  0
   -1.5588   -2.7796   22.8667 C   0  0  0  0  0  0  0  0  0  0  0  0
   -0.9920   -2.7086   21.4654 C   0  0  0  0  0  0  0  0  0  0  0  0
   -5.6018   -1.3090   18.6844 C   0  0  0  0  0  0  0  0  0  0  0  0
   -1.7238   -2.2232   20.3609 C   0  0  0  0  0  0  0  0  0  0  0  0
   -3.0893   -1.6895   20.5207 C   0  0  0  0  0  0  0  0  0  0  0  0
    0.3156   -3.1751   21.2406 C   0  0  0  0  0  0  0  0  0  0  0  0
   -1.1510   -2.2113   19.0783 C   0  0  0  0  0  0  0  0  0  0  0  0
    0.8647   -3.1621   19.9602 C   0  0  0  0  0  0  0  0  0  0  0  0
    0.1429   -2.6858   18.8723 C   0  0  0  0  0  0  0  0  0  0  0  0
   -6.9576   -4.8439   25.4376 H   0  0  0  0  0  0  0  0  0  0  0  0
   -2.7331   -1.3986   18.1444 H   0  0  0  0  0  0  0  0  0  0  0  0
    2.6078   -3.9505   20.5570 H   0  0  0  0  0  0  0  0  0  0  0  0
  1  6  1  0
  1 24  1  0
  2 14  1  0
  2 19  1  0
  3 19  2  0
  4 21  1  0
  4 25  1  0
  5 22  1  0
  5 26  1  0
  6  7  1  0
  6  8  1  0
  7  9  1  0
  8 10  1  0
  9 11  1  0
 10 12  1  0
 11 13  1  0
 12 14  1  0
 13 15  1  0
 14 17  1  0
 15 16  1  0
 16 18  2  0
 16 20  1  0
 18 19  1  0
 18 21  1  0
 20 22  2  0
 21 23  2  0
 22 23  1  0
M  END
> <PUBCHEM_COMPOUND_CID>
2999413

> <PUBCHEM_CONFORMER_RMSD>
0.6

> <PUBCHEM_CONFORMER_DIVERSEORDER>
1
6
14
27
9
16
11
26
8
2
22
5
20
28
18
17
29
3
24
19
21
13
15
7
23
4
25
12
10

> <PUBCHEM_MMFF94_PARTIAL_CHARGES>
20
1 -0.68
14 0.28
15 0.14
16 -0.14
18 0.09
19 0.63
2 -0.43
20 -0.15
21 0.08
22 0.08
23 -0.15
3 -0.57
4 -0.53
45 0.4
46 0.15
47 0.15
48 0.45
49 0.45
5 -0.53
6 0.28

> <PUBCHEM_EFFECTIVE_ROTOR_COUNT>
2.2

> <PUBCHEM_PHARMACOPHORE_FEATURES>
6
1 1 acceptor
1 1 donor
1 3 acceptor
1 4 donor
1 5 donor
6 16 18 20 21 22 23 rings

> <PUBCHEM_HEAVY_ATOM_COUNT>
23

> <PUBCHEM_ATOM_DEF_STEREO_COUNT>
2

> <PUBCHEM_ATOM_UDEF_STEREO_COUNT>
0

> <PUBCHEM_BOND_DEF_STEREO_COUNT>
0

> <PUBCHEM_BOND_UDEF_STEREO_COUNT>
0

> <PUBCHEM_ISOTOPIC_ATOM_COUNT>
0

> <PUBCHEM_COMPONENT_COUNT>
1

> <PUBCHEM_CACTVS_TAUTO_COUNT>
25

> <PUBCHEM_CONFORMER_ID>
002DC47500000001

> <PUBCHEM_MMFF94_ENERGY>
51.6521

> <PUBCHEM_FEATURE_SELFOVERLAP>
30.446

> <PUBCHEM_SHAPE_FINGERPRINT>
104564 63 18340206271993051459
10498660 4 18187631549186102207
10577160 183 17606693423048979742
10616163 171 18266175029013727061
10759866 29 17750229218859711762
108634 29 18411143511243732574
1100329 8 17185877190433830119
11578080 2 17058915861662947194
116883 192 18412832382636582198
12011746 2 18335696144590423807
12054548 360 18337387261554875763
12156800 1 11695045847065978403
12553582 1 18337941355723699521
12788726 201 18339079272527017530
12954195 1 18196384628153038830
13402501 40 18410292523613913767
13533116 47 17911794988931237615
13941206 138 17823424798885047762
14178342 30 17618481208803059632
14251740 79 18268155262187636390
14251745 187 18265888240930317283
14251751 93 18337386020182837502
14251757 17 18340208496912958262
14251757 5 18336274478600052878
14289585 56 17025448677686211638
14363568 33 17831602116089395611
14790565 3 18338242566191680045
14931854 50 18192983829844991199
15081414 286 18267592488269592273
15210252 30 18041841838786063412
17093844 170 18338788043621724272
17357779 13 18338788026679147463
19591789 44 18410009931708134251
20775438 99 17121094438368206175
21141583 151 18411697703262438637
21634736 98 18410570674064001468
221357 26 18411697699342485711
221490 88 18411139126039522364
22393880 68 18190738627232927852
22907989 373 17973200346140242700
23379529 103 18202007594804787190
23419403 2 17703496796872386008
23559900 14 18341611543049219120
23566358 2 18411982468764321124
238 59 17976219553578124023
2871803 45 18335692832737868381
3014063 31 18410290320121227783
6287921 2 17544481216121896507

> <PUBCHEM_SHAPE_MULTIPOLES>
443.98
8.13
4.23
1.13
0.08
1.63
0.2
-3.4
-2.74
-1.52
0.36
0
0.19
0.73

> <PUBCHEM_SHAPE_SELFOVERLAP>
910.639

> <PUBCHEM_SHAPE_VOLUME>
254.2

> <PUBCHEM_COORDINATE_TYPE>
2
5
10

> <Energy>
43.3336

> <minimizedAffinity>
27.29065

> <CNNscore>
0.2066308409

> <CNNaffinity>
5.6009063721

> <CNN_VS>
1.1573200226

> <CNNaffinity_variance>
0.3273923397

$$$$
2999413


 26 27  0  0  0  0  0  0  0  0999 V2000
   -8.9267   -3.3267   24.2564 O   0  0  0  0  0  0  0  0  0  0  0  0
   -4.0456   -5.3741   21.5985 O   0  0  0  0  0  0  0  0  0  0  0  0
   -4.7767   -4.2826   19.6987 O   0  0  0  0  0  0  0  0  0  0  0  0
   -1.4896   -5.6968   20.1732 O   0  0  0  0  0  0  0  0  0  0  0  0
    0.8573   -1.6429   21.1380 O   0  0  0  0  0  0  0  0  0  0  0  0
   -7.6063   -3.7621   24.5785 C   0  0  0  0  0  0  0  0  0  0  0  0
   -6.6752   -2.5410   24.5812 C   0  0  0  0  0  0  0  0  0  0  0  0
   -7.1987   -4.8828   23.6097 C   0  0  0  0  0  0  0  0  0  0  0  0
   -6.6725   -1.7460   23.2667 C   0  0  0  0  0  0  0  0  0  0  0  0
   -5.8320   -5.4926   23.9307 C   0  0  0  0  0  0  0  0  0  0  0  0
   -5.5532   -0.6981   23.2229 C   0  0  0  0  0  0  0  0  0  0  0  0
   -5.4734   -6.6748   23.0208 C   0  0  0  0  0  0  0  0  0  0  0  0
   -4.1762   -1.2890   22.8911 C   0  0  0  0  0  0  0  0  0  0  0  0
   -5.1742   -6.2654   21.5716 C   0  0  0  0  0  0  0  0  0  0  0  0
   -4.0050   -1.5828   21.3931 C   0  0  0  0  0  0  0  0  0  0  0  0
   -2.7309   -2.3475   21.1067 C   0  0  0  0  0  0  0  0  0  0  0  0
   -4.8157   -7.4913   20.7349 C   0  0  0  0  0  0  0  0  0  0  0  0
   -2.7137   -3.7142   20.7562 C   0  0  0  0  0  0  0  0  0  0  0  0
   -3.9638   -4.4777   20.5854 C   0  0  0  0  0  0  0  0  0  0  0  0
   -1.4998   -1.6777   21.2232 C   0  0  0  0  0  0  0  0  0  0  0  0
   -1.4947   -4.3754   20.5322 C   0  0  0  0  0  0  0  0  0  0  0  0
   -0.3003   -2.3517   21.0041 C   0  0  0  0  0  0  0  0  0  0  0  0
   -0.2837   -3.6983   20.6607 C   0  0  0  0  0  0  0  0  0  0  0  0
   -9.1910   -2.6186   24.8644 H   0  0  0  0  0  0  0  0  0  0  0  0
   -2.2985   -6.1611   20.0841 H   0  0  0  0  0  0  0  0  0  0  0  0
    0.8270   -0.7357   21.3701 H   0  0  0  0  0  0  0  0  0  0  0  0
  1  6  1  0
  1 24  1  0
  2 14  1  0
  2 19  1  0
  3 19  2  0
  4 21  1  0
  4 25  1  0
  5 22  1  0
  5 26  1  0
  6  7  1  0
  6  8  1  0
  7  9  1  0
  8 10  1  0
  9 11  1  0
 10 12  1  0
 11 13  1  0
 12 14  1  0
 13 15  1  0
 14 17  1  0
 15 16  1  0
 16 18  2  0
 16 20  1  0
 18 19  1  0
 18 21  1  0
 20 22  2  0
 21 23  2  0
 22 23  1  0
M  END
> <PUBCHEM_COMPOUND_CID>
2999413

> <PUBCHEM_CONFORMER_RMSD>
0.6

> <PUBCHEM_CONFORMER_DIVERSEORDER>
1
6
14
27
9
16
11
26
8
2
22
5
20
28
18
17
29
3
24
19
21
13
15
7
23
4
25
12
10

> <PUBCHEM_MMFF94_PARTIAL_CHARGES>
20
1 -0.68
14 0.28
15 0.14
16 -0.14
18 0.09
19 0.63
2 -0.43
20 -0.15
21 0.08
22 0.08
23 -0.15
3 -0.57
4 -0.53
45 0.4
46 0.15
47 0.15
48 0.45
49 0.45
5 -0.53
6 0.28

> <PUBCHEM_EFFECTIVE_ROTOR_COUNT>
2.2

> <PUBCHEM_PHARMACOPHORE_FEATURES>
6
1 1 acceptor
1 1 donor
1 3 acceptor
1 4 donor
1 5 donor
6 16 18 20 21 22 23 rings

> <PUBCHEM_HEAVY_ATOM_COUNT>
23

> <PUBCHEM_ATOM_DEF_STEREO_COUNT>
2

> <PUBCHEM_ATOM_UDEF_STEREO_COUNT>
0

> <PUBCHEM_BOND_DEF_STEREO_COUNT>
0

> <PUBCHEM_BOND_UDEF_STEREO_COUNT>
0

> <PUBCHEM_ISOTOPIC_ATOM_COUNT>
0

> <PUBCHEM_COMPONENT_COUNT>
1

> <PUBCHEM_CACTVS_TAUTO_COUNT>
25

> <PUBCHEM_CONFORMER_ID>
002DC47500000001

> <PUBCHEM_MMFF94_ENERGY>
51.6521

> <PUBCHEM_FEATURE_SELFOVERLAP>
30.446

> <PUBCHEM_SHAPE_FINGERPRINT>
104564 63 18340206271993051459
10498660 4 18187631549186102207
10577160 183 17606693423048979742
10616163 171 18266175029013727061
10759866 29 17750229218859711762
108634 29 18411143511243732574
1100329 8 17185877190433830119
11578080 2 17058915861662947194
116883 192 18412832382636582198
12011746 2 18335696144590423807
12054548 360 18337387261554875763
12156800 1 11695045847065978403
12553582 1 18337941355723699521
12788726 201 18339079272527017530
12954195 1 18196384628153038830
13402501 40 18410292523613913767
13533116 47 17911794988931237615
13941206 138 17823424798885047762
14178342 30 17618481208803059632
14251740 79 18268155262187636390
14251745 187 18265888240930317283
14251751 93 18337386020182837502
14251757 17 18340208496912958262
14251757 5 18336274478600052878
14289585 56 17025448677686211638
14363568 33 17831602116089395611
14790565 3 18338242566191680045
14931854 50 18192983829844991199
15081414 286 18267592488269592273
15210252 30 18041841838786063412
17093844 170 18338788043621724272
17357779 13 18338788026679147463
19591789 44 18410009931708134251
20775438 99 17121094438368206175
21141583 151 18411697703262438637
21634736 98 18410570674064001468
221357 26 18411697699342485711
221490 88 18411139126039522364
22393880 68 18190738627232927852
22907989 373 17973200346140242700
23379529 103 18202007594804787190
23419403 2 17703496796872386008
23559900 14 18341611543049219120
23566358 2 18411982468764321124
238 59 17976219553578124023
2871803 45 18335692832737868381
3014063 31 18410290320121227783
6287921 2 17544481216121896507

> <PUBCHEM_SHAPE_MULTIPOLES>
443.98
8.13
4.23
1.13
0.08
1.63
0.2
-3.4
-2.74
-1.52
0.36
0
0.19
0.73

> <PUBCHEM_SHAPE_SELFOVERLAP>
910.639

> <PUBCHEM_SHAPE_VOLUME>
254.2

> <PUBCHEM_COORDINATE_TYPE>
2
5
10

> <Energy>
43.3336

> <minimizedAffinity>
-4.19678

> <CNNscore>
0.1574279517

> <CNNaffinity>
5.6172232628

> <CNN_VS>
0.8843079805

> <CNNaffinity_variance>
0.1461791694

$$$$
2999413


 26 27  0  0  0  0  0  0  0  0999 V2000
   -2.2339   -0.6732   24.7087 O   0  0  0  0  0  0  0  0  0  0  0  0
   -3.4386   -4.7701   20.6042 O   0  0  0  0  0  0  0  0  0  0  0  0
   -3.1925   -6.3388   22.2816 O   0  0  0  0  0  0  0  0  0  0  0  0
   -4.5751   -6.9667   19.0068 O   0  0  0  0  0  0  0  0  0  0  0  0
   -9.2027   -6.9600   20.2143 O   0  0  0  0  0  0  0  0  0  0  0  0
   -2.9149   -0.8053   23.4615 C   0  0  0  0  0  0  0  0  0  0  0  0
   -4.3850   -1.1499   23.7406 C   0  0  0  0  0  0  0  0  0  0  0  0
   -2.1671   -1.8247   22.5885 C   0  0  0  0  0  0  0  0  0  0  0  0
   -4.5868   -2.4084   24.5981 C   0  0  0  0  0  0  0  0  0  0  0  0
   -2.7595   -1.9689   21.1846 C   0  0  0  0  0  0  0  0  0  0  0  0
   -6.0534   -2.8558   24.6385 C   0  0  0  0  0  0  0  0  0  0  0  0
   -1.9519   -2.9148   20.2863 C   0  0  0  0  0  0  0  0  0  0  0  0
   -6.4942   -3.6180   23.3814 C   0  0  0  0  0  0  0  0  0  0  0  0
   -2.0545   -4.3901   20.6989 C   0  0  0  0  0  0  0  0  0  0  0  0
   -6.0145   -5.0773   23.3770 C   0  0  0  0  0  0  0  0  0  0  0  0
   -6.2781   -5.7573   22.0510 C   0  0  0  0  0  0  0  0  0  0  0  0
   -1.2360   -5.2660   19.7534 C   0  0  0  0  0  0  0  0  0  0  0  0
   -5.2594   -6.0567   21.1217 C   0  0  0  0  0  0  0  0  0  0  0  0
   -3.8429   -5.7744   21.4193 C   0  0  0  0  0  0  0  0  0  0  0  0
   -7.6032   -6.0818   21.7093 C   0  0  0  0  0  0  0  0  0  0  0  0
   -5.5731   -6.6621   19.8935 C   0  0  0  0  0  0  0  0  0  0  0  0
   -7.8961   -6.6757   20.4835 C   0  0  0  0  0  0  0  0  0  0  0  0
   -6.8927   -6.9687   19.5676 C   0  0  0  0  0  0  0  0  0  0  0  0
   -2.7006   -0.0306   25.2655 H   0  0  0  0  0  0  0  0  0  0  0  0
   -3.6845   -6.7646   19.2164 H   0  0  0  0  0  0  0  0  0  0  0  0
   -9.8659   -6.7553   20.8438 H   0  0  0  0  0  0  0  0  0  0  0  0
  1  6  1  0
  1 24  1  0
  2 14  1  0
  2 19  1  0
  3 19  2  0
  4 21  1  0
  4 25  1  0
  5 22  1  0
  5 26  1  0
  6  7  1  0
  6  8  1  0
  7  9  1  0
  8 10  1  0
  9 11  1  0
 10 12  1  0
 11 13  1  0
 12 14  1  0
 13 15  1  0
 14 17  1  0
 15 16  1  0
 16 18  2  0
 16 20  1  0
 18 19  1  0
 18 21  1  0
 20 22  2  0
 21 23  2  0
 22 23  1  0
M  END
> <PUBCHEM_COMPOUND_CID>
2999413

> <PUBCHEM_CONFORMER_RMSD>
0.6

> <PUBCHEM_CONFORMER_DIVERSEORDER>
1
6
14
27
9
16
11
26
8
2
22
5
20
28
18
17
29
3
24
19
21
13
15
7
23
4
25
12
10

> <PUBCHEM_MMFF94_PARTIAL_CHARGES>
20
1 -0.68
14 0.28
15 0.14
16 -0.14
18 0.09
19 0.63
2 -0.43
20 -0.15
21 0.08
22 0.08
23 -0.15
3 -0.57
4 -0.53
45 0.4
46 0.15
47 0.15
48 0.45
49 0.45
5 -0.53
6 0.28

> <PUBCHEM_EFFECTIVE_ROTOR_COUNT>
2.2

> <PUBCHEM_PHARMACOPHORE_FEATURES>
6
1 1 acceptor
1 1 donor
1 3 acceptor
1 4 donor
1 5 donor
6 16 18 20 21 22 23 rings

> <PUBCHEM_HEAVY_ATOM_COUNT>
23

> <PUBCHEM_ATOM_DEF_STEREO_COUNT>
2

> <PUBCHEM_ATOM_UDEF_STEREO_COUNT>
0

> <PUBCHEM_BOND_DEF_STEREO_COUNT>
0

> <PUBCHEM_BOND_UDEF_STEREO_COUNT>
0

> <PUBCHEM_ISOTOPIC_ATOM_COUNT>
0

> <PUBCHEM_COMPONENT_COUNT>
1

> <PUBCHEM_CACTVS_TAUTO_COUNT>
25

> <PUBCHEM_CONFORMER_ID>
002DC47500000001

> <PUBCHEM_MMFF94_ENERGY>
51.6521

> <PUBCHEM_FEATURE_SELFOVERLAP>
30.446

> <PUBCHEM_SHAPE_FINGERPRINT>
104564 63 18340206271993051459
10498660 4 18187631549186102207
10577160 183 17606693423048979742
10616163 171 18266175029013727061
10759866 29 17750229218859711762
108634 29 18411143511243732574
1100329 8 17185877190433830119
11578080 2 17058915861662947194
116883 192 18412832382636582198
12011746 2 18335696144590423807
12054548 360 18337387261554875763
12156800 1 11695045847065978403
12553582 1 18337941355723699521
12788726 201 18339079272527017530
12954195 1 18196384628153038830
13402501 40 18410292523613913767
13533116 47 17911794988931237615
13941206 138 17823424798885047762
14178342 30 17618481208803059632
14251740 79 18268155262187636390
14251745 187 18265888240930317283
14251751 93 18337386020182837502
14251757 17 18340208496912958262
14251757 5 18336274478600052878
14289585 56 17025448677686211638
14363568 33 17831602116089395611
14790565 3 18338242566191680045
14931854 50 18192983829844991199
15081414 286 18267592488269592273
15210252 30 18041841838786063412
17093844 170 18338788043621724272
17357779 13 18338788026679147463
19591789 44 18410009931708134251
20775438 99 17121094438368206175
21141583 151 18411697703262438637
21634736 98 18410570674064001468
221357 26 18411697699342485711
221490 88 18411139126039522364
22393880 68 18190738627232927852
22907989 373 17973200346140242700
23379529 103 18202007594804787190
23419403 2 17703496796872386008
23559900 14 18341611543049219120
23566358 2 18411982468764321124
238 59 17976219553578124023
2871803 45 18335692832737868381
3014063 31 18410290320121227783
6287921 2 17544481216121896507

> <PUBCHEM_SHAPE_MULTIPOLES>
443.98
8.13
4.23
1.13
0.08
1.63
0.2
-3.4
-2.74
-1.52
0.36
0
0.19
0.73

> <PUBCHEM_SHAPE_SELFOVERLAP>
910.639

> <PUBCHEM_SHAPE_VOLUME>
254.2

> <PUBCHEM_COORDINATE_TYPE>
2
5
10

> <Energy>
43.3336

> <minimizedAffinity>
4.88695

> <CNNscore>
0.1403742880

> <CNNaffinity>
4.5206212997

> <CNN_VS>
0.6345790029

> <CNNaffinity_variance>
0.7622265220

$$$$
2999413


 26 27  0  0  0  0  0  0  0  0999 V2000
   -0.8594   -4.3742   18.1757 O   0  0  0  0  0  0  0  0  0  0  0  0
   -5.7674   -4.0510   21.4756 O   0  0  0  0  0  0  0  0  0  0  0  0
   -4.7376   -5.5272   22.9232 O   0  0  0  0  0  0  0  0  0  0  0  0
   -7.7505   -3.6641   23.6171 O   0  0  0  0  0  0  0  0  0  0  0  0
   -5.8160   -0.2398   26.3381 O   0  0  0  0  0  0  0  0  0  0  0  0
   -1.9463   -3.4867   18.4360 C   0  0  0  0  0  0  0  0  0  0  0  0
   -1.5382   -2.5314   19.5668 C   0  0  0  0  0  0  0  0  0  0  0  0
   -3.2115   -4.3131   18.7138 C   0  0  0  0  0  0  0  0  0  0  0  0
   -1.0982   -3.2347   20.8598 C   0  0  0  0  0  0  0  0  0  0  0  0
   -4.4639   -3.4550   18.9084 C   0  0  0  0  0  0  0  0  0  0  0  0
   -0.9458   -2.2564   22.0312 C   0  0  0  0  0  0  0  0  0  0  0  0
   -5.7400   -4.2875   19.0888 C   0  0  0  0  0  0  0  0  0  0  0  0
   -2.2817   -1.8637   22.6765 C   0  0  0  0  0  0  0  0  0  0  0  0
   -5.8005   -5.0360   20.4279 C   0  0  0  0  0  0  0  0  0  0  0  0
   -2.8278   -2.9519   23.6131 C   0  0  0  0  0  0  0  0  0  0  0  0
   -4.2331   -2.6439   24.0825 C   0  0  0  0  0  0  0  0  0  0  0  0
   -7.1007   -5.8292   20.5367 C   0  0  0  0  0  0  0  0  0  0  0  0
   -5.3718   -3.3316   23.6120 C   0  0  0  0  0  0  0  0  0  0  0  0
   -5.2518   -4.4536   22.6625 C   0  0  0  0  0  0  0  0  0  0  0  0
   -4.4232   -1.6033   25.0094 C   0  0  0  0  0  0  0  0  0  0  0  0
   -6.6536   -2.9775   24.0647 C   0  0  0  0  0  0  0  0  0  0  0  0
   -5.7028   -1.2615   25.4417 C   0  0  0  0  0  0  0  0  0  0  0  0
   -6.8243   -1.9379   24.9766 C   0  0  0  0  0  0  0  0  0  0  0  0
   -0.0566   -3.8592   17.9993 H   0  0  0  0  0  0  0  0  0  0  0  0
   -7.6464   -4.3648   23.0038 H   0  0  0  0  0  0  0  0  0  0  0  0
   -5.0488    0.2050   26.6408 H   0  0  0  0  0  0  0  0  0  0  0  0
  1  6  1  0
  1 24  1  0
  2 14  1  0
  2 19  1  0
  3 19  2  0
  4 21  1  0
  4 25  1  0
  5 22  1  0
  5 26  1  0
  6  7  1  0
  6  8  1  0
  7  9  1  0
  8 10  1  0
  9 11  1  0
 10 12  1  0
 11 13  1  0
 12 14  1  0
 13 15  1  0
 14 17  1  0
 15 16  1  0
 16 18  2  0
 16 20  1  0
 18 19  1  0
 18 21  1  0
 20 22  2  0
 21 23  2  0
 22 23  1  0
M  END
> <PUBCHEM_COMPOUND_CID>
2999413

> <PUBCHEM_CONFORMER_RMSD>
0.6

> <PUBCHEM_CONFORMER_DIVERSEORDER>
1
6
14
27
9
16
11
26
8
2
22
5
20
28
18
17
29
3
24
19
21
13
15
7
23
4
25
12
10

> <PUBCHEM_MMFF94_PARTIAL_CHARGES>
20
1 -0.68
14 0.28
15 0.14
16 -0.14
18 0.09
19 0.63
2 -0.43
20 -0.15
21 0.08
22 0.08
23 -0.15
3 -0.57
4 -0.53
45 0.4
46 0.15
47 0.15
48 0.45
49 0.45
5 -0.53
6 0.28

> <PUBCHEM_EFFECTIVE_ROTOR_COUNT>
2.2

> <PUBCHEM_PHARMACOPHORE_FEATURES>
6
1 1 acceptor
1 1 donor
1 3 acceptor
1 4 donor
1 5 donor
6 16 18 20 21 22 23 rings

> <PUBCHEM_HEAVY_ATOM_COUNT>
23

> <PUBCHEM_ATOM_DEF_STEREO_COUNT>
2

> <PUBCHEM_ATOM_UDEF_STEREO_COUNT>
0

> <PUBCHEM_BOND_DEF_STEREO_COUNT>
0

> <PUBCHEM_BOND_UDEF_STEREO_COUNT>
0

> <PUBCHEM_ISOTOPIC_ATOM_COUNT>
0

> <PUBCHEM_COMPONENT_COUNT>
1

> <PUBCHEM_CACTVS_TAUTO_COUNT>
25

> <PUBCHEM_CONFORMER_ID>
002DC47500000001

> <PUBCHEM_MMFF94_ENERGY>
51.6521

> <PUBCHEM_FEATURE_SELFOVERLAP>
30.446

> <PUBCHEM_SHAPE_FINGERPRINT>
104564 63 18340206271993051459
10498660 4 18187631549186102207
10577160 183 17606693423048979742
10616163 171 18266175029013727061
10759866 29 17750229218859711762
108634 29 18411143511243732574
1100329 8 17185877190433830119
11578080 2 17058915861662947194
116883 192 18412832382636582198
12011746 2 18335696144590423807
12054548 360 18337387261554875763
12156800 1 11695045847065978403
12553582 1 18337941355723699521
12788726 201 18339079272527017530
12954195 1 18196384628153038830
13402501 40 18410292523613913767
13533116 47 17911794988931237615
13941206 138 17823424798885047762
14178342 30 17618481208803059632
14251740 79 18268155262187636390
14251745 187 18265888240930317283
14251751 93 18337386020182837502
14251757 17 18340208496912958262
14251757 5 18336274478600052878
14289585 56 17025448677686211638
14363568 33 17831602116089395611
14790565 3 18338242566191680045
14931854 50 18192983829844991199
15081414 286 18267592488269592273
15210252 30 18041841838786063412
17093844 170 18338788043621724272
17357779 13 18338788026679147463
19591789 44 18410009931708134251
20775438 99 17121094438368206175
21141583 151 18411697703262438637
21634736 98 18410570674064001468
221357 26 18411697699342485711
221490 88 18411139126039522364
22393880 68 18190738627232927852
22907989 373 17973200346140242700
23379529 103 18202007594804787190
23419403 2 17703496796872386008
23559900 14 18341611543049219120
23566358 2 18411982468764321124
238 59 17976219553578124023
2871803 45 18335692832737868381
3014063 31 18410290320121227783
6287921 2 17544481216121896507

> <PUBCHEM_SHAPE_MULTIPOLES>
443.98
8.13
4.23
1.13
0.08
1.63
0.2
-3.4
-2.74
-1.52
0.36
0
0.19
0.73

> <PUBCHEM_SHAPE_SELFOVERLAP>
910.639

> <PUBCHEM_SHAPE_VOLUME>
254.2

> <PUBCHEM_COORDINATE_TYPE>
2
5
10

> <Energy>
43.3336

> <minimizedAffinity>
4.97154

> <CNNscore>
0.1298251003

> <CNNaffinity>
5.5642495155

> <CNN_VS>
0.7223792672

> <CNNaffinity_variance>
0.0029151801

$$$$
2999413


 26 27  0  0  0  0  0  0  0  0999 V2000
    0.0201   -1.4421   21.3035 O   0  0  0  0  0  0  0  0  0  0  0  0
   -5.6330   -2.5240   22.7014 O   0  0  0  0  0  0  0  0  0  0  0  0
   -6.1873   -1.5239   20.6946 O   0  0  0  0  0  0  0  0  0  0  0  0
   -8.4340   -3.4274   22.7822 O   0  0  0  0  0  0  0  0  0  0  0  0
   -8.3724   -7.5110   20.2937 O   0  0  0  0  0  0  0  0  0  0  0  0
   -0.7590   -2.3386   22.0946 C   0  0  0  0  0  0  0  0  0  0  0  0
   -1.0921   -3.5755   21.2478 C   0  0  0  0  0  0  0  0  0  0  0  0
   -1.9795   -1.5867   22.6474 C   0  0  0  0  0  0  0  0  0  0  0  0
   -1.8113   -3.2617   19.9271 C   0  0  0  0  0  0  0  0  0  0  0  0
   -2.8333   -2.4330   23.5949 C   0  0  0  0  0  0  0  0  0  0  0  0
   -2.3464   -4.5252   19.2416 C   0  0  0  0  0  0  0  0  0  0  0  0
   -3.9948   -1.6484   24.2190 C   0  0  0  0  0  0  0  0  0  0  0  0
   -3.6548   -5.0442   19.8533 C   0  0  0  0  0  0  0  0  0  0  0  0
   -5.1023   -1.2907   23.2176 C   0  0  0  0  0  0  0  0  0  0  0  0
   -4.8804   -4.2378   19.3978 C   0  0  0  0  0  0  0  0  0  0  0  0
   -6.1297   -4.6257   20.1585 C   0  0  0  0  0  0  0  0  0  0  0  0
   -6.2235   -0.5239   23.9147 C   0  0  0  0  0  0  0  0  0  0  0  0
   -6.7167   -3.8070   21.1465 C   0  0  0  0  0  0  0  0  0  0  0  0
   -6.1722   -2.4726   21.4592 C   0  0  0  0  0  0  0  0  0  0  0  0
   -6.7218   -5.8738   19.8945 C   0  0  0  0  0  0  0  0  0  0  0  0
   -7.8603   -4.2377   21.8393 C   0  0  0  0  0  0  0  0  0  0  0  0
   -7.8518   -6.2872   20.5967 C   0  0  0  0  0  0  0  0  0  0  0  0
   -8.4286   -5.4814   21.5711 C   0  0  0  0  0  0  0  0  0  0  0  0
    0.7930   -1.9102   20.9509 H   0  0  0  0  0  0  0  0  0  0  0  0
   -8.0595   -2.5893   22.9701 H   0  0  0  0  0  0  0  0  0  0  0  0
   -7.9703   -8.0408   19.6338 H   0  0  0  0  0  0  0  0  0  0  0  0
  1  6  1  0
  1 24  1  0
  2 14  1  0
  2 19  1  0
  3 19  2  0
  4 21  1  0
  4 25  1  0
  5 22  1  0
  5 26  1  0
  6  7  1  0
  6  8  1  0
  7  9  1  0
  8 10  1  0
  9 11  1  0
 10 12  1  0
 11 13  1  0
 12 14  1  0
 13 15  1  0
 14 17  1  0
 15 16  1  0
 16 18  2  0
 16 20  1  0
 18 19  1  0
 18 21  1  0
 20 22  2  0
 21 23  2  0
 22 23  1  0
M  END
> <PUBCHEM_COMPOUND_CID>
2999413

> <PUBCHEM_CONFORMER_RMSD>
0.6

> <PUBCHEM_CONFORMER_DIVERSEORDER>
1
6
14
27
9
16
11
26
8
2
22
5
20
28
18
17
29
3
24
19
21
13
15
7
23
4
25
12
10

> <PUBCHEM_MMFF94_PARTIAL_CHARGES>
20
1 -0.68
14 0.28
15 0.14
16 -0.14
18 0.09
19 0.63
2 -0.43
20 -0.15
21 0.08
22 0.08
23 -0.15
3 -0.57
4 -0.53
45 0.4
46 0.15
47 0.15
48 0.45
49 0.45
5 -0.53
6 0.28

> <PUBCHEM_EFFECTIVE_ROTOR_COUNT>
2.2

> <PUBCHEM_PHARMACOPHORE_FEATURES>
6
1 1 acceptor
1 1 donor
1 3 acceptor
1 4 donor
1 5 donor
6 16 18 20 21 22 23 rings

> <PUBCHEM_HEAVY_ATOM_COUNT>
23

> <PUBCHEM_ATOM_DEF_STEREO_COUNT>
2

> <PUBCHEM_ATOM_UDEF_STEREO_COUNT>
0

> <PUBCHEM_BOND_DEF_STEREO_COUNT>
0

> <PUBCHEM_BOND_UDEF_STEREO_COUNT>
0

> <PUBCHEM_ISOTOPIC_ATOM_COUNT>
0

> <PUBCHEM_COMPONENT_COUNT>
1

> <PUBCHEM_CACTVS_TAUTO_COUNT>
25

> <PUBCHEM_CONFORMER_ID>
002DC47500000001

> <PUBCHEM_MMFF94_ENERGY>
51.6521

> <PUBCHEM_FEATURE_SELFOVERLAP>
30.446

> <PUBCHEM_SHAPE_FINGERPRINT>
104564 63 18340206271993051459
10498660 4 18187631549186102207
10577160 183 17606693423048979742
10616163 171 18266175029013727061
10759866 29 17750229218859711762
108634 29 18411143511243732574
1100329 8 17185877190433830119
11578080 2 17058915861662947194
116883 192 18412832382636582198
12011746 2 18335696144590423807
12054548 360 18337387261554875763
12156800 1 11695045847065978403
12553582 1 18337941355723699521
12788726 201 18339079272527017530
12954195 1 18196384628153038830
13402501 40 18410292523613913767
13533116 47 17911794988931237615
13941206 138 17823424798885047762
14178342 30 17618481208803059632
14251740 79 18268155262187636390
14251745 187 18265888240930317283
14251751 93 18337386020182837502
14251757 17 18340208496912958262
14251757 5 18336274478600052878
14289585 56 17025448677686211638
14363568 33 17831602116089395611
14790565 3 18338242566191680045
14931854 50 18192983829844991199
15081414 286 18267592488269592273
15210252 30 18041841838786063412
17093844 170 18338788043621724272
17357779 13 18338788026679147463
19591789 44 18410009931708134251
20775438 99 17121094438368206175
21141583 151 18411697703262438637
21634736 98 18410570674064001468
221357 26 18411697699342485711
221490 88 18411139126039522364
22393880 68 18190738627232927852
22907989 373 17973200346140242700
23379529 103 18202007594804787190
23419403 2 17703496796872386008
23559900 14 18341611543049219120
23566358 2 18411982468764321124
238 59 17976219553578124023
2871803 45 18335692832737868381
3014063 31 18410290320121227783
6287921 2 17544481216121896507

> <PUBCHEM_SHAPE_MULTIPOLES>
443.98
8.13
4.23
1.13
0.08
1.63
0.2
-3.4
-2.74
-1.52
0.36
0
0.19
0.73

> <PUBCHEM_SHAPE_SELFOVERLAP>
910.639

> <PUBCHEM_SHAPE_VOLUME>
254.2

> <PUBCHEM_COORDINATE_TYPE>
2
5
10

> <Energy>
43.3336

> <minimizedAffinity>
-4.20179

> <CNNscore>
0.1203993559

> <CNNaffinity>
5.2430319786

> <CNN_VS>
0.6312576532

> <CNNaffinity_variance>
0.4141677916

$$$$
2999413


 26 27  0  0  0  0  0  0  0  0999 V2000
    0.4715   -1.8352   20.2584 O   0  0  0  0  0  0  0  0  0  0  0  0
   -4.7099   -2.6395   23.0130 O   0  0  0  0  0  0  0  0  0  0  0  0
   -5.6217   -1.2145   21.4404 O   0  0  0  0  0  0  0  0  0  0  0  0
   -7.4913   -3.2753   23.7398 O   0  0  0  0  0  0  0  0  0  0  0  0
   -8.6778   -6.7728   20.7013 O   0  0  0  0  0  0  0  0  0  0  0  0
   -0.1934   -2.7939   21.0803 C   0  0  0  0  0  0  0  0  0  0  0  0
   -0.9128   -3.8020   20.1724 C   0  0  0  0  0  0  0  0  0  0  0  0
   -1.1035   -2.0557   22.0739 C   0  0  0  0  0  0  0  0  0  0  0  0
   -1.9007   -3.1671   19.1820 C   0  0  0  0  0  0  0  0  0  0  0  0
   -1.7912   -2.9892   23.0731 C   0  0  0  0  0  0  0  0  0  0  0  0
   -2.7742   -4.2142   18.4797 C   0  0  0  0  0  0  0  0  0  0  0  0
   -2.6215   -2.2387   24.1226 C   0  0  0  0  0  0  0  0  0  0  0  0
   -3.9366   -4.7194   19.3452 C   0  0  0  0  0  0  0  0  0  0  0  0
   -3.8895   -1.5880   23.5517 C   0  0  0  0  0  0  0  0  0  0  0  0
   -5.1087   -3.7279   19.3972 C   0  0  0  0  0  0  0  0  0  0  0  0
   -6.1565   -4.1404   20.4081 C   0  0  0  0  0  0  0  0  0  0  0  0
   -4.6648   -0.8730   24.6558 C   0  0  0  0  0  0  0  0  0  0  0  0
   -6.3382   -3.4823   21.6430 C   0  0  0  0  0  0  0  0  0  0  0  0
   -5.5435   -2.2930   22.0023 C   0  0  0  0  0  0  0  0  0  0  0  0
   -6.9713   -5.2505   20.1226 C   0  0  0  0  0  0  0  0  0  0  0  0
   -7.3092   -3.9329   22.5526 C   0  0  0  0  0  0  0  0  0  0  0  0
   -7.9244   -5.6874   21.0401 C   0  0  0  0  0  0  0  0  0  0  0  0
   -8.1018   -5.0402   22.2571 C   0  0  0  0  0  0  0  0  0  0  0  0
    1.0483   -2.2944   19.6280 H   0  0  0  0  0  0  0  0  0  0  0  0
   -6.9634   -2.5297   23.9481 H   0  0  0  0  0  0  0  0  0  0  0  0
   -8.5444   -7.1967   19.8765 H   0  0  0  0  0  0  0  0  0  0  0  0
  1  6  1  0
  1 24  1  0
  2 14  1  0
  2 19  1  0
  3 19  2  0
  4 21  1  0
  4 25  1  0
  5 22  1  0
  5 26  1  0
  6  7  1  0
  6  8  1  0
  7  9  1  0
  8 10  1  0
  9 11  1  0
 10 12  1  0
 11 13  1  0
 12 14  1  0
 13 15  1  0
 14 17  1  0
 15 16  1  0
 16 18  2  0
 16 20  1  0
 18 19  1  0
 18 21  1  0
 20 22  2  0
 21 23  2  0
 22 23  1  0
M  END
> <PUBCHEM_COMPOUND_CID>
2999413

> <PUBCHEM_CONFORMER_RMSD>
0.6

> <PUBCHEM_CONFORMER_DIVERSEORDER>
1
6
14
27
9
16
11
26
8
2
22
5
20
28
18
17
29
3
24
19
21
13
15
7
23
4
25
12
10

> <PUBCHEM_MMFF94_PARTIAL_CHARGES>
20
1 -0.68
14 0.28
15 0.14
16 -0.14
18 0.09
19 0.63
2 -0.43
20 -0.15
21 0.08
22 0.08
23 -0.15
3 -0.57
4 -0.53
45 0.4
46 0.15
47 0.15
48 0.45
49 0.45
5 -0.53
6 0.28

> <PUBCHEM_EFFECTIVE_ROTOR_COUNT>
2.2

> <PUBCHEM_PHARMACOPHORE_FEATURES>
6
1 1 acceptor
1 1 donor
1 3 acceptor
1 4 donor
1 5 donor
6 16 18 20 21 22 23 rings

> <PUBCHEM_HEAVY_ATOM_COUNT>
23

> <PUBCHEM_ATOM_DEF_STEREO_COUNT>
2

> <PUBCHEM_ATOM_UDEF_STEREO_COUNT>
0

> <PUBCHEM_BOND_DEF_STEREO_COUNT>
0

> <PUBCHEM_BOND_UDEF_STEREO_COUNT>
0

> <PUBCHEM_ISOTOPIC_ATOM_COUNT>
0

> <PUBCHEM_COMPONENT_COUNT>
1

> <PUBCHEM_CACTVS_TAUTO_COUNT>
25

> <PUBCHEM_CONFORMER_ID>
002DC47500000001

> <PUBCHEM_MMFF94_ENERGY>
51.6521

> <PUBCHEM_FEATURE_SELFOVERLAP>
30.446

> <PUBCHEM_SHAPE_FINGERPRINT>
104564 63 18340206271993051459
10498660 4 18187631549186102207
10577160 183 17606693423048979742
10616163 171 18266175029013727061
10759866 29 17750229218859711762
108634 29 18411143511243732574
1100329 8 17185877190433830119
11578080 2 17058915861662947194
116883 192 18412832382636582198
12011746 2 18335696144590423807
12054548 360 18337387261554875763
12156800 1 11695045847065978403
12553582 1 18337941355723699521
12788726 201 18339079272527017530
12954195 1 18196384628153038830
13402501 40 18410292523613913767
13533116 47 17911794988931237615
13941206 138 17823424798885047762
14178342 30 17618481208803059632
14251740 79 18268155262187636390
14251745 187 18265888240930317283
14251751 93 18337386020182837502
14251757 17 18340208496912958262
14251757 5 18336274478600052878
14289585 56 17025448677686211638
14363568 33 17831602116089395611
14790565 3 18338242566191680045
14931854 50 18192983829844991199
15081414 286 18267592488269592273
15210252 30 18041841838786063412
17093844 170 18338788043621724272
17357779 13 18338788026679147463
19591789 44 18410009931708134251
20775438 99 17121094438368206175
21141583 151 18411697703262438637
21634736 98 18410570674064001468
221357 26 18411697699342485711
221490 88 18411139126039522364
22393880 68 18190738627232927852
22907989 373 17973200346140242700
23379529 103 18202007594804787190
23419403 2 17703496796872386008
23559900 14 18341611543049219120
23566358 2 18411982468764321124
238 59 17976219553578124023
2871803 45 18335692832737868381
3014063 31 18410290320121227783
6287921 2 17544481216121896507

> <PUBCHEM_SHAPE_MULTIPOLES>
443.98
8.13
4.23
1.13
0.08
1.63
0.2
-3.4
-2.74
-1.52
0.36
0
0.19
0.73

> <PUBCHEM_SHAPE_SELFOVERLAP>
910.639

> <PUBCHEM_SHAPE_VOLUME>
254.2

> <PUBCHEM_COORDINATE_TYPE>
2
5
10

> <Energy>
43.3336

> <minimizedAffinity>
-3.22109

> <CNNscore>
0.1195723489

> <CNNaffinity>
5.6621146202

> <CNN_VS>
0.6770323515

> <CNNaffinity_variance>
0.0065293112

$$$$
