7184


 15 15  0  0  0  0  0  0  0  0999 V2000
    0.2619   -5.0787   20.1042 O   0  0  0  0  0  0  0  0  0  0  0  0
   -3.8495   -5.2459   20.5542 C   0  0  0  0  0  0  0  0  0  0  0  0
   -3.2879   -5.2014   19.2723 C   0  0  0  0  0  0  0  0  0  0  0  0
   -3.0282   -5.2203   21.6849 C   0  0  0  0  0  0  0  0  0  0  0  0
   -1.8997   -5.1489   19.1279 C   0  0  0  0  0  0  0  0  0  0  0  0
   -1.6469   -5.1671   21.5379 C   0  0  0  0  0  0  0  0  0  0  0  0
   -1.0881   -5.1331   20.2593 C   0  0  0  0  0  0  0  0  0  0  0  0
    0.6342   -5.0560   19.2446 H   0  0  0  0  0  0  0  0  0  0  0  0
   -6.0811   -4.5844   20.0664 O   0  0  0  0  0  0  0  0  0  0  0  0
   -5.3167   -5.2903   20.7041 C   0  0  0  0  0  0  0  0  0  0  0  0
   -5.6518   -6.2352   21.6192 O   0  0  0  0  0  0  0  0  0  0  0  0
   -7.0256   -6.2210   22.0243 C   0  0  0  0  0  0  0  0  0  0  0  0
   -7.5469   -7.6555   22.0001 C   0  0  0  0  0  0  0  0  0  0  0  0
   -6.7951   -8.5070   20.9802 C   0  0  0  0  0  0  0  0  0  0  0  0
   -7.4901   -8.5015   19.6282 C   0  0  0  0  0  0  0  0  0  0  0  0
 11 12  1  0
 11 10  1  0
  9 10  2  0
  1  7  1  0
  1  8  1  0
 13 14  1  0
 13 12  1  0
 14 15  1  0
  2 10  1  0
  2  3  2  0
  2  4  1  0
  3  5  1  0
  4  6  2  0
  5  7  2  0
  6  7  1  0
M  END
> <PUBCHEM_COMPOUND_CID>
7184

> <PUBCHEM_CONFORMER_RMSD>
0.6

> <PUBCHEM_CONFORMER_DIVERSEORDER>
1
44
15
20
41
3
43
64
40
47
74
50
4
6
22
69
55
77
16
75
28
26
73
53
11
32
49
58
67
63
62
24
65
27
19
38
12
48
76
25
57
10
31
17
42
34
68
51
9
23
8
14
21
33
18
30
5
66
70
2
56
45
39
37
46
35
60
36
52
59
54
29
71
72
61
13
7

> <PUBCHEM_MMFF94_PARTIAL_CHARGES>
16
1 -0.43
10 -0.15
11 -0.15
12 -0.15
13 -0.15
14 0.08
2 -0.57
24 0.15
25 0.15
26 0.15
27 0.15
28 0.45
3 -0.53
6 0.28
8 0.09
9 0.63

> <PUBCHEM_EFFECTIVE_ROTOR_COUNT>
5

> <PUBCHEM_PHARMACOPHORE_FEATURES>
4
1 2 acceptor
1 3 donor
1 7 hydrophobe
6 8 10 11 12 13 14 rings

> <PUBCHEM_HEAVY_ATOM_COUNT>
14

> <PUBCHEM_ATOM_DEF_STEREO_COUNT>
0

> <PUBCHEM_ATOM_UDEF_STEREO_COUNT>
0

> <PUBCHEM_BOND_DEF_STEREO_COUNT>
0

> <PUBCHEM_BOND_UDEF_STEREO_COUNT>
0

> <PUBCHEM_ISOTOPIC_ATOM_COUNT>
0

> <PUBCHEM_COMPONENT_COUNT>
1

> <PUBCHEM_CACTVS_TAUTO_COUNT>
3

> <PUBCHEM_CONFORMER_ID>
00001C1000000001

> <PUBCHEM_MMFF94_ENERGY>
26.8162

> <PUBCHEM_FEATURE_SELFOVERLAP>
20.297

> <PUBCHEM_SHAPE_FINGERPRINT>
100836 57 10159698014692119138
10465860 250 17561082501386551480
10968037 39 18334860532716625766
11046707 91 18409446968869733128
12032990 46 18409167722807014732
12251169 10 18060418027818494140
13167823 11 18408602527187214402
13288520 33 18409730651148371639
13551218 46 18270963440792261598
13690532 89 18409730694483049495
13862211 1 18342737464162399199
14252887 29 17989215824084205230
17804303 29 18273497883401759577
17834072 33 18410577323021717172
1813 80 17968106291699631366
18186145 218 14923950067535008876
200 152 17530965761531918920
20281475 54 18337672035103360796
20767249 213 10735876175026745610
20828058 44 18273214175553485034
21267235 1 18410019844213228018
22485316 2 18408601440280660184
2297311 6 18130235869953600908
23402539 116 17846774109970031213
23463225 33 18411140233692529510
23559900 14 18270389602695558633
351380 180 10665231458300457486
351380 3 18259982652836299658
42 15 18342740719346176002
4214541 1 18340769252190604880
5104073 3 18271533095046590721
559249 180 18335415712557464698
7364860 26 18126566957732624024
83771 10 18407476665592062532

> <PUBCHEM_SHAPE_MULTIPOLES>
270.51
10.85
1.64
0.68
12.98
0.32
0
-5.61
1.62
-0.51
-0.11
-0.08
0
-0.42

> <PUBCHEM_SHAPE_SELFOVERLAP>
550.017

> <PUBCHEM_SHAPE_VOLUME>
158.1

> <PUBCHEM_COORDINATE_TYPE>
2
5
10

> <Energy>
17.0404

> <minimizedAffinity>
-6.67774

> <CNNscore>
0.8898720741

> <CNNaffinity>
5.6368751526

> <CNN_VS>
5.0160975456

> <CNNaffinity_variance>
0.5361816287

$$$$
7184


 15 15  0  0  0  0  0  0  0  0999 V2000
    0.2732   -5.0343   20.1364 O   0  0  0  0  0  0  0  0  0  0  0  0
   -3.8482   -5.2837   20.4301 C   0  0  0  0  0  0  0  0  0  0  0  0
   -3.0635   -5.2846   21.5898 C   0  0  0  0  0  0  0  0  0  0  0  0
   -3.2453   -5.2125   19.1710 C   0  0  0  0  0  0  0  0  0  0  0  0
   -1.6737   -5.1965   21.4833 C   0  0  0  0  0  0  0  0  0  0  0  0
   -1.8617   -5.1258   19.0684 C   0  0  0  0  0  0  0  0  0  0  0  0
   -1.0814   -5.1166   20.2256 C   0  0  0  0  0  0  0  0  0  0  0  0
    0.7944   -5.0284   20.9150 H   0  0  0  0  0  0  0  0  0  0  0  0
   -6.0927   -4.7932   19.8160 O   0  0  0  0  0  0  0  0  0  0  0  0
   -5.3155   -5.3880   20.5450 C   0  0  0  0  0  0  0  0  0  0  0  0
   -5.6332   -6.2480   21.5461 O   0  0  0  0  0  0  0  0  0  0  0  0
   -7.0105   -6.2328   21.9387 C   0  0  0  0  0  0  0  0  0  0  0  0
   -7.5216   -7.6712   21.9485 C   0  0  0  0  0  0  0  0  0  0  0  0
   -6.8140   -8.5237   20.8982 C   0  0  0  0  0  0  0  0  0  0  0  0
   -7.5495   -8.4945   19.5681 C   0  0  0  0  0  0  0  0  0  0  0  0
 11 12  1  0
 11 10  1  0
  9 10  2  0
  1  7  1  0
  1  8  1  0
 13 14  1  0
 13 12  1  0
 14 15  1  0
  2 10  1  0
  2  3  2  0
  2  4  1  0
  3  5  1  0
  4  6  2  0
  5  7  2  0
  6  7  1  0
M  END
> <PUBCHEM_COMPOUND_CID>
7184

> <PUBCHEM_CONFORMER_RMSD>
0.6

> <PUBCHEM_CONFORMER_DIVERSEORDER>
1
44
15
20
41
3
43
64
40
47
74
50
4
6
22
69
55
77
16
75
28
26
73
53
11
32
49
58
67
63
62
24
65
27
19
38
12
48
76
25
57
10
31
17
42
34
68
51
9
23
8
14
21
33
18
30
5
66
70
2
56
45
39
37
46
35
60
36
52
59
54
29
71
72
61
13
7

> <PUBCHEM_MMFF94_PARTIAL_CHARGES>
16
1 -0.43
10 -0.15
11 -0.15
12 -0.15
13 -0.15
14 0.08
2 -0.57
24 0.15
25 0.15
26 0.15
27 0.15
28 0.45
3 -0.53
6 0.28
8 0.09
9 0.63

> <PUBCHEM_EFFECTIVE_ROTOR_COUNT>
5

> <PUBCHEM_PHARMACOPHORE_FEATURES>
4
1 2 acceptor
1 3 donor
1 7 hydrophobe
6 8 10 11 12 13 14 rings

> <PUBCHEM_HEAVY_ATOM_COUNT>
14

> <PUBCHEM_ATOM_DEF_STEREO_COUNT>
0

> <PUBCHEM_ATOM_UDEF_STEREO_COUNT>
0

> <PUBCHEM_BOND_DEF_STEREO_COUNT>
0

> <PUBCHEM_BOND_UDEF_STEREO_COUNT>
0

> <PUBCHEM_ISOTOPIC_ATOM_COUNT>
0

> <PUBCHEM_COMPONENT_COUNT>
1

> <PUBCHEM_CACTVS_TAUTO_COUNT>
3

> <PUBCHEM_CONFORMER_ID>
00001C1000000001

> <PUBCHEM_MMFF94_ENERGY>
26.8162

> <PUBCHEM_FEATURE_SELFOVERLAP>
20.297

> <PUBCHEM_SHAPE_FINGERPRINT>
100836 57 10159698014692119138
10465860 250 17561082501386551480
10968037 39 18334860532716625766
11046707 91 18409446968869733128
12032990 46 18409167722807014732
12251169 10 18060418027818494140
13167823 11 18408602527187214402
13288520 33 18409730651148371639
13551218 46 18270963440792261598
13690532 89 18409730694483049495
13862211 1 18342737464162399199
14252887 29 17989215824084205230
17804303 29 18273497883401759577
17834072 33 18410577323021717172
1813 80 17968106291699631366
18186145 218 14923950067535008876
200 152 17530965761531918920
20281475 54 18337672035103360796
20767249 213 10735876175026745610
20828058 44 18273214175553485034
21267235 1 18410019844213228018
22485316 2 18408601440280660184
2297311 6 18130235869953600908
23402539 116 17846774109970031213
23463225 33 18411140233692529510
23559900 14 18270389602695558633
351380 180 10665231458300457486
351380 3 18259982652836299658
42 15 18342740719346176002
4214541 1 18340769252190604880
5104073 3 18271533095046590721
559249 180 18335415712557464698
7364860 26 18126566957732624024
83771 10 18407476665592062532

> <PUBCHEM_SHAPE_MULTIPOLES>
270.51
10.85
1.64
0.68
12.98
0.32
0
-5.61
1.62
-0.51
-0.11
-0.08
0
-0.42

> <PUBCHEM_SHAPE_SELFOVERLAP>
550.017

> <PUBCHEM_SHAPE_VOLUME>
158.1

> <PUBCHEM_COORDINATE_TYPE>
2
5
10

> <Energy>
17.0404

> <minimizedAffinity>
-6.64734

> <CNNscore>
0.8864402771

> <CNNaffinity>
5.4830994606

> <CNN_VS>
4.8604402542

> <CNNaffinity_variance>
0.5907813907

$$$$
7184


 15 15  0  0  0  0  0  0  0  0999 V2000
   -0.6285   -4.4605   18.3645 O   0  0  0  0  0  0  0  0  0  0  0  0
   -3.9829   -6.1272   20.1265 C   0  0  0  0  0  0  0  0  0  0  0  0
   -4.0667   -5.5840   18.8386 C   0  0  0  0  0  0  0  0  0  0  0  0
   -2.7736   -6.0972   20.8268 C   0  0  0  0  0  0  0  0  0  0  0  0
   -2.9300   -5.0267   18.2488 C   0  0  0  0  0  0  0  0  0  0  0  0
   -1.6442   -5.5409   20.2373 C   0  0  0  0  0  0  0  0  0  0  0  0
   -1.7268   -5.0092   18.9496 C   0  0  0  0  0  0  0  0  0  0  0  0
   -0.6870   -4.1042   17.4998 H   0  0  0  0  0  0  0  0  0  0  0  0
   -5.4208   -7.9029   20.7857 O   0  0  0  0  0  0  0  0  0  0  0  0
   -5.1878   -6.7055   20.7515 C   0  0  0  0  0  0  0  0  0  0  0  0
   -5.9454   -5.7123   21.2830 O   0  0  0  0  0  0  0  0  0  0  0  0
   -6.8924   -6.1393   22.2692 C   0  0  0  0  0  0  0  0  0  0  0  0
   -8.2536   -6.2862   21.5940 C   0  0  0  0  0  0  0  0  0  0  0  0
   -8.5880   -5.0674   20.7378 C   0  0  0  0  0  0  0  0  0  0  0  0
   -8.8807   -5.4599   19.2986 C   0  0  0  0  0  0  0  0  0  0  0  0
 11 12  1  0
 11 10  1  0
  9 10  2  0
  1  7  1  0
  1  8  1  0
 13 14  1  0
 13 12  1  0
 14 15  1  0
  2 10  1  0
  2  3  2  0
  2  4  1  0
  3  5  1  0
  4  6  2  0
  5  7  2  0
  6  7  1  0
M  END
> <PUBCHEM_COMPOUND_CID>
7184

> <PUBCHEM_CONFORMER_RMSD>
0.6

> <PUBCHEM_CONFORMER_DIVERSEORDER>
1
44
15
20
41
3
43
64
40
47
74
50
4
6
22
69
55
77
16
75
28
26
73
53
11
32
49
58
67
63
62
24
65
27
19
38
12
48
76
25
57
10
31
17
42
34
68
51
9
23
8
14
21
33
18
30
5
66
70
2
56
45
39
37
46
35
60
36
52
59
54
29
71
72
61
13
7

> <PUBCHEM_MMFF94_PARTIAL_CHARGES>
16
1 -0.43
10 -0.15
11 -0.15
12 -0.15
13 -0.15
14 0.08
2 -0.57
24 0.15
25 0.15
26 0.15
27 0.15
28 0.45
3 -0.53
6 0.28
8 0.09
9 0.63

> <PUBCHEM_EFFECTIVE_ROTOR_COUNT>
5

> <PUBCHEM_PHARMACOPHORE_FEATURES>
4
1 2 acceptor
1 3 donor
1 7 hydrophobe
6 8 10 11 12 13 14 rings

> <PUBCHEM_HEAVY_ATOM_COUNT>
14

> <PUBCHEM_ATOM_DEF_STEREO_COUNT>
0

> <PUBCHEM_ATOM_UDEF_STEREO_COUNT>
0

> <PUBCHEM_BOND_DEF_STEREO_COUNT>
0

> <PUBCHEM_BOND_UDEF_STEREO_COUNT>
0

> <PUBCHEM_ISOTOPIC_ATOM_COUNT>
0

> <PUBCHEM_COMPONENT_COUNT>
1

> <PUBCHEM_CACTVS_TAUTO_COUNT>
3

> <PUBCHEM_CONFORMER_ID>
00001C1000000001

> <PUBCHEM_MMFF94_ENERGY>
26.8162

> <PUBCHEM_FEATURE_SELFOVERLAP>
20.297

> <PUBCHEM_SHAPE_FINGERPRINT>
100836 57 10159698014692119138
10465860 250 17561082501386551480
10968037 39 18334860532716625766
11046707 91 18409446968869733128
12032990 46 18409167722807014732
12251169 10 18060418027818494140
13167823 11 18408602527187214402
13288520 33 18409730651148371639
13551218 46 18270963440792261598
13690532 89 18409730694483049495
13862211 1 18342737464162399199
14252887 29 17989215824084205230
17804303 29 18273497883401759577
17834072 33 18410577323021717172
1813 80 17968106291699631366
18186145 218 14923950067535008876
200 152 17530965761531918920
20281475 54 18337672035103360796
20767249 213 10735876175026745610
20828058 44 18273214175553485034
21267235 1 18410019844213228018
22485316 2 18408601440280660184
2297311 6 18130235869953600908
23402539 116 17846774109970031213
23463225 33 18411140233692529510
23559900 14 18270389602695558633
351380 180 10665231458300457486
351380 3 18259982652836299658
42 15 18342740719346176002
4214541 1 18340769252190604880
5104073 3 18271533095046590721
559249 180 18335415712557464698
7364860 26 18126566957732624024
83771 10 18407476665592062532

> <PUBCHEM_SHAPE_MULTIPOLES>
270.51
10.85
1.64
0.68
12.98
0.32
0
-5.61
1.62
-0.51
-0.11
-0.08
0
-0.42

> <PUBCHEM_SHAPE_SELFOVERLAP>
550.017

> <PUBCHEM_SHAPE_VOLUME>
158.1

> <PUBCHEM_COORDINATE_TYPE>
2
5
10

> <Energy>
17.0404

> <minimizedAffinity>
-5.97010

> <CNNscore>
0.8843038678

> <CNNaffinity>
5.7449207306

> <CNN_VS>
5.0802555084

> <CNNaffinity_variance>
0.4604468048

$$$$
7184


 15 15  0  0  0  0  0  0  0  0999 V2000
    0.3065   -5.2698   20.0923 O   0  0  0  0  0  0  0  0  0  0  0  0
   -3.7546   -5.2252   20.8922 C   0  0  0  0  0  0  0  0  0  0  0  0
   -3.3025   -5.4230   19.5819 C   0  0  0  0  0  0  0  0  0  0  0  0
   -2.8405   -5.0288   21.9313 C   0  0  0  0  0  0  0  0  0  0  0  0
   -1.9307   -5.4406   19.3199 C   0  0  0  0  0  0  0  0  0  0  0  0
   -1.4758   -5.0459   21.6671 C   0  0  0  0  0  0  0  0  0  0  0  0
   -1.0264   -5.2534   20.3621 C   0  0  0  0  0  0  0  0  0  0  0  0
    0.6052   -5.4092   19.2152 H   0  0  0  0  0  0  0  0  0  0  0  0
   -6.0527   -5.1095   20.2915 O   0  0  0  0  0  0  0  0  0  0  0  0
   -5.2045   -5.1961   21.1645 C   0  0  0  0  0  0  0  0  0  0  0  0
   -5.4183   -5.3056   22.5006 O   0  0  0  0  0  0  0  0  0  0  0  0
   -6.7476   -4.9835   22.9261 C   0  0  0  0  0  0  0  0  0  0  0  0
   -7.3731   -6.2368   23.5330 C   0  0  0  0  0  0  0  0  0  0  0  0
   -8.1713   -7.0223   22.4956 C   0  0  0  0  0  0  0  0  0  0  0  0
   -7.3658   -8.1823   21.9331 C   0  0  0  0  0  0  0  0  0  0  0  0
 11 12  1  0
 11 10  1  0
  9 10  2  0
  1  7  1  0
  1  8  1  0
 13 14  1  0
 13 12  1  0
 14 15  1  0
  2 10  1  0
  2  3  2  0
  2  4  1  0
  3  5  1  0
  4  6  2  0
  5  7  2  0
  6  7  1  0
M  END
> <PUBCHEM_COMPOUND_CID>
7184

> <PUBCHEM_CONFORMER_RMSD>
0.6

> <PUBCHEM_CONFORMER_DIVERSEORDER>
1
44
15
20
41
3
43
64
40
47
74
50
4
6
22
69
55
77
16
75
28
26
73
53
11
32
49
58
67
63
62
24
65
27
19
38
12
48
76
25
57
10
31
17
42
34
68
51
9
23
8
14
21
33
18
30
5
66
70
2
56
45
39
37
46
35
60
36
52
59
54
29
71
72
61
13
7

> <PUBCHEM_MMFF94_PARTIAL_CHARGES>
16
1 -0.43
10 -0.15
11 -0.15
12 -0.15
13 -0.15
14 0.08
2 -0.57
24 0.15
25 0.15
26 0.15
27 0.15
28 0.45
3 -0.53
6 0.28
8 0.09
9 0.63

> <PUBCHEM_EFFECTIVE_ROTOR_COUNT>
5

> <PUBCHEM_PHARMACOPHORE_FEATURES>
4
1 2 acceptor
1 3 donor
1 7 hydrophobe
6 8 10 11 12 13 14 rings

> <PUBCHEM_HEAVY_ATOM_COUNT>
14

> <PUBCHEM_ATOM_DEF_STEREO_COUNT>
0

> <PUBCHEM_ATOM_UDEF_STEREO_COUNT>
0

> <PUBCHEM_BOND_DEF_STEREO_COUNT>
0

> <PUBCHEM_BOND_UDEF_STEREO_COUNT>
0

> <PUBCHEM_ISOTOPIC_ATOM_COUNT>
0

> <PUBCHEM_COMPONENT_COUNT>
1

> <PUBCHEM_CACTVS_TAUTO_COUNT>
3

> <PUBCHEM_CONFORMER_ID>
00001C1000000001

> <PUBCHEM_MMFF94_ENERGY>
26.8162

> <PUBCHEM_FEATURE_SELFOVERLAP>
20.297

> <PUBCHEM_SHAPE_FINGERPRINT>
100836 57 10159698014692119138
10465860 250 17561082501386551480
10968037 39 18334860532716625766
11046707 91 18409446968869733128
12032990 46 18409167722807014732
12251169 10 18060418027818494140
13167823 11 18408602527187214402
13288520 33 18409730651148371639
13551218 46 18270963440792261598
13690532 89 18409730694483049495
13862211 1 18342737464162399199
14252887 29 17989215824084205230
17804303 29 18273497883401759577
17834072 33 18410577323021717172
1813 80 17968106291699631366
18186145 218 14923950067535008876
200 152 17530965761531918920
20281475 54 18337672035103360796
20767249 213 10735876175026745610
20828058 44 18273214175553485034
21267235 1 18410019844213228018
22485316 2 18408601440280660184
2297311 6 18130235869953600908
23402539 116 17846774109970031213
23463225 33 18411140233692529510
23559900 14 18270389602695558633
351380 180 10665231458300457486
351380 3 18259982652836299658
42 15 18342740719346176002
4214541 1 18340769252190604880
5104073 3 18271533095046590721
559249 180 18335415712557464698
7364860 26 18126566957732624024
83771 10 18407476665592062532

> <PUBCHEM_SHAPE_MULTIPOLES>
270.51
10.85
1.64
0.68
12.98
0.32
0
-5.61
1.62
-0.51
-0.11
-0.08
0
-0.42

> <PUBCHEM_SHAPE_SELFOVERLAP>
550.017

> <PUBCHEM_SHAPE_VOLUME>
158.1

> <PUBCHEM_COORDINATE_TYPE>
2
5
10

> <Energy>
17.0404

> <minimizedAffinity>
-6.43254

> <CNNscore>
0.8819023371

> <CNNaffinity>
6.0462737083

> <CNN_VS>
5.3322229385

> <CNNaffinity_variance>
0.7191450596

$$$$
7184


 15 15  0  0  0  0  0  0  0  0999 V2000
    0.1862   -5.1682   20.1582 O   0  0  0  0  0  0  0  0  0  0  0  0
   -3.7877   -5.9688   20.9960 C   0  0  0  0  0  0  0  0  0  0  0  0
   -2.9776   -5.3629   21.9641 C   0  0  0  0  0  0  0  0  0  0  0  0
   -3.2572   -6.3176   19.7508 C   0  0  0  0  0  0  0  0  0  0  0  0
   -1.6386   -5.0923   21.6732 C   0  0  0  0  0  0  0  0  0  0  0  0
   -1.9238   -6.0478   19.4646 C   0  0  0  0  0  0  0  0  0  0  0  0
   -1.1201   -5.4346   20.4270 C   0  0  0  0  0  0  0  0  0  0  0  0
    0.7233   -4.7565   20.8063 H   0  0  0  0  0  0  0  0  0  0  0  0
   -5.8618   -5.6174   22.1051 O   0  0  0  0  0  0  0  0  0  0  0  0
   -5.1990   -6.2635   21.3098 C   0  0  0  0  0  0  0  0  0  0  0  0
   -5.6187   -7.3197   20.5675 O   0  0  0  0  0  0  0  0  0  0  0  0
   -7.0377   -7.5135   20.5442 C   0  0  0  0  0  0  0  0  0  0  0  0
   -7.5559   -7.0939   19.1710 C   0  0  0  0  0  0  0  0  0  0  0  0
   -8.3283   -5.7791   19.2421 C   0  0  0  0  0  0  0  0  0  0  0  0
   -9.1572   -5.6870   20.5131 C   0  0  0  0  0  0  0  0  0  0  0  0
 11 12  1  0
 11 10  1  0
  9 10  2  0
  1  7  1  0
  1  8  1  0
 13 14  1  0
 13 12  1  0
 14 15  1  0
  2 10  1  0
  2  3  2  0
  2  4  1  0
  3  5  1  0
  4  6  2  0
  5  7  2  0
  6  7  1  0
M  END
> <PUBCHEM_COMPOUND_CID>
7184

> <PUBCHEM_CONFORMER_RMSD>
0.6

> <PUBCHEM_CONFORMER_DIVERSEORDER>
1
44
15
20
41
3
43
64
40
47
74
50
4
6
22
69
55
77
16
75
28
26
73
53
11
32
49
58
67
63
62
24
65
27
19
38
12
48
76
25
57
10
31
17
42
34
68
51
9
23
8
14
21
33
18
30
5
66
70
2
56
45
39
37
46
35
60
36
52
59
54
29
71
72
61
13
7

> <PUBCHEM_MMFF94_PARTIAL_CHARGES>
16
1 -0.43
10 -0.15
11 -0.15
12 -0.15
13 -0.15
14 0.08
2 -0.57
24 0.15
25 0.15
26 0.15
27 0.15
28 0.45
3 -0.53
6 0.28
8 0.09
9 0.63

> <PUBCHEM_EFFECTIVE_ROTOR_COUNT>
5

> <PUBCHEM_PHARMACOPHORE_FEATURES>
4
1 2 acceptor
1 3 donor
1 7 hydrophobe
6 8 10 11 12 13 14 rings

> <PUBCHEM_HEAVY_ATOM_COUNT>
14

> <PUBCHEM_ATOM_DEF_STEREO_COUNT>
0

> <PUBCHEM_ATOM_UDEF_STEREO_COUNT>
0

> <PUBCHEM_BOND_DEF_STEREO_COUNT>
0

> <PUBCHEM_BOND_UDEF_STEREO_COUNT>
0

> <PUBCHEM_ISOTOPIC_ATOM_COUNT>
0

> <PUBCHEM_COMPONENT_COUNT>
1

> <PUBCHEM_CACTVS_TAUTO_COUNT>
3

> <PUBCHEM_CONFORMER_ID>
00001C1000000001

> <PUBCHEM_MMFF94_ENERGY>
26.8162

> <PUBCHEM_FEATURE_SELFOVERLAP>
20.297

> <PUBCHEM_SHAPE_FINGERPRINT>
100836 57 10159698014692119138
10465860 250 17561082501386551480
10968037 39 18334860532716625766
11046707 91 18409446968869733128
12032990 46 18409167722807014732
12251169 10 18060418027818494140
13167823 11 18408602527187214402
13288520 33 18409730651148371639
13551218 46 18270963440792261598
13690532 89 18409730694483049495
13862211 1 18342737464162399199
14252887 29 17989215824084205230
17804303 29 18273497883401759577
17834072 33 18410577323021717172
1813 80 17968106291699631366
18186145 218 14923950067535008876
200 152 17530965761531918920
20281475 54 18337672035103360796
20767249 213 10735876175026745610
20828058 44 18273214175553485034
21267235 1 18410019844213228018
22485316 2 18408601440280660184
2297311 6 18130235869953600908
23402539 116 17846774109970031213
23463225 33 18411140233692529510
23559900 14 18270389602695558633
351380 180 10665231458300457486
351380 3 18259982652836299658
42 15 18342740719346176002
4214541 1 18340769252190604880
5104073 3 18271533095046590721
559249 180 18335415712557464698
7364860 26 18126566957732624024
83771 10 18407476665592062532

> <PUBCHEM_SHAPE_MULTIPOLES>
270.51
10.85
1.64
0.68
12.98
0.32
0
-5.61
1.62
-0.51
-0.11
-0.08
0
-0.42

> <PUBCHEM_SHAPE_SELFOVERLAP>
550.017

> <PUBCHEM_SHAPE_VOLUME>
158.1

> <PUBCHEM_COORDINATE_TYPE>
2
5
10

> <Energy>
17.0404

> <minimizedAffinity>
-6.42816

> <CNNscore>
0.8788677454

> <CNNaffinity>
5.8431153297

> <CNN_VS>
5.1353254318

> <CNNaffinity_variance>
0.5139052272

$$$$
7184


 15 15  0  0  0  0  0  0  0  0999 V2000
    0.3000   -5.0479   20.1473 O   0  0  0  0  0  0  0  0  0  0  0  0
   -3.8290   -5.3276   20.0596 C   0  0  0  0  0  0  0  0  0  0  0  0
   -3.1169   -5.1220   18.8716 C   0  0  0  0  0  0  0  0  0  0  0  0
   -3.1526   -5.4255   21.2789 C   0  0  0  0  0  0  0  0  0  0  0  0
   -1.7236   -5.0324   18.9082 C   0  0  0  0  0  0  0  0  0  0  0  0
   -1.7658   -5.3349   21.3121 C   0  0  0  0  0  0  0  0  0  0  0  0
   -1.0567   -5.1402   20.1258 C   0  0  0  0  0  0  0  0  0  0  0  0
    0.7734   -4.9171   19.3493 H   0  0  0  0  0  0  0  0  0  0  0  0
   -5.9418   -5.5365   18.9883 O   0  0  0  0  0  0  0  0  0  0  0  0
   -5.3015   -5.4110   20.0196 C   0  0  0  0  0  0  0  0  0  0  0  0
   -5.7946   -5.3531   21.2830 O   0  0  0  0  0  0  0  0  0  0  0  0
   -7.1401   -4.8720   21.3829 C   0  0  0  0  0  0  0  0  0  0  0  0
   -8.0864   -6.0270   21.0654 C   0  0  0  0  0  0  0  0  0  0  0  0
   -8.7763   -6.5473   22.3239 C   0  0  0  0  0  0  0  0  0  0  0  0
   -7.9587   -7.6371   22.9982 C   0  0  0  0  0  0  0  0  0  0  0  0
 11 12  1  0
 11 10  1  0
  9 10  2  0
  1  7  1  0
  1  8  1  0
 13 14  1  0
 13 12  1  0
 14 15  1  0
  2 10  1  0
  2  3  2  0
  2  4  1  0
  3  5  1  0
  4  6  2  0
  5  7  2  0
  6  7  1  0
M  END
> <PUBCHEM_COMPOUND_CID>
7184

> <PUBCHEM_CONFORMER_RMSD>
0.6

> <PUBCHEM_CONFORMER_DIVERSEORDER>
1
44
15
20
41
3
43
64
40
47
74
50
4
6
22
69
55
77
16
75
28
26
73
53
11
32
49
58
67
63
62
24
65
27
19
38
12
48
76
25
57
10
31
17
42
34
68
51
9
23
8
14
21
33
18
30
5
66
70
2
56
45
39
37
46
35
60
36
52
59
54
29
71
72
61
13
7

> <PUBCHEM_MMFF94_PARTIAL_CHARGES>
16
1 -0.43
10 -0.15
11 -0.15
12 -0.15
13 -0.15
14 0.08
2 -0.57
24 0.15
25 0.15
26 0.15
27 0.15
28 0.45
3 -0.53
6 0.28
8 0.09
9 0.63

> <PUBCHEM_EFFECTIVE_ROTOR_COUNT>
5

> <PUBCHEM_PHARMACOPHORE_FEATURES>
4
1 2 acceptor
1 3 donor
1 7 hydrophobe
6 8 10 11 12 13 14 rings

> <PUBCHEM_HEAVY_ATOM_COUNT>
14

> <PUBCHEM_ATOM_DEF_STEREO_COUNT>
0

> <PUBCHEM_ATOM_UDEF_STEREO_COUNT>
0

> <PUBCHEM_BOND_DEF_STEREO_COUNT>
0

> <PUBCHEM_BOND_UDEF_STEREO_COUNT>
0

> <PUBCHEM_ISOTOPIC_ATOM_COUNT>
0

> <PUBCHEM_COMPONENT_COUNT>
1

> <PUBCHEM_CACTVS_TAUTO_COUNT>
3

> <PUBCHEM_CONFORMER_ID>
00001C1000000001

> <PUBCHEM_MMFF94_ENERGY>
26.8162

> <PUBCHEM_FEATURE_SELFOVERLAP>
20.297

> <PUBCHEM_SHAPE_FINGERPRINT>
100836 57 10159698014692119138
10465860 250 17561082501386551480
10968037 39 18334860532716625766
11046707 91 18409446968869733128
12032990 46 18409167722807014732
12251169 10 18060418027818494140
13167823 11 18408602527187214402
13288520 33 18409730651148371639
13551218 46 18270963440792261598
13690532 89 18409730694483049495
13862211 1 18342737464162399199
14252887 29 17989215824084205230
17804303 29 18273497883401759577
17834072 33 18410577323021717172
1813 80 17968106291699631366
18186145 218 14923950067535008876
200 152 17530965761531918920
20281475 54 18337672035103360796
20767249 213 10735876175026745610
20828058 44 18273214175553485034
21267235 1 18410019844213228018
22485316 2 18408601440280660184
2297311 6 18130235869953600908
23402539 116 17846774109970031213
23463225 33 18411140233692529510
23559900 14 18270389602695558633
351380 180 10665231458300457486
351380 3 18259982652836299658
42 15 18342740719346176002
4214541 1 18340769252190604880
5104073 3 18271533095046590721
559249 180 18335415712557464698
7364860 26 18126566957732624024
83771 10 18407476665592062532

> <PUBCHEM_SHAPE_MULTIPOLES>
270.51
10.85
1.64
0.68
12.98
0.32
0
-5.61
1.62
-0.51
-0.11
-0.08
0
-0.42

> <PUBCHEM_SHAPE_SELFOVERLAP>
550.017

> <PUBCHEM_SHAPE_VOLUME>
158.1

> <PUBCHEM_COORDINATE_TYPE>
2
5
10

> <Energy>
17.0404

> <minimizedAffinity>
-6.12232

> <CNNscore>
0.8717163205

> <CNNaffinity>
5.7060809135

> <CNN_VS>
4.9740839005

> <CNNaffinity_variance>
0.8561636806

$$$$
7184


 15 15  0  0  0  0  0  0  0  0999 V2000
    0.3799   -5.0544   20.1490 O   0  0  0  0  0  0  0  0  0  0  0  0
   -3.7587   -5.1189   20.1004 C   0  0  0  0  0  0  0  0  0  0  0  0
   -3.0460   -5.0843   18.8956 C   0  0  0  0  0  0  0  0  0  0  0  0
   -3.0790   -5.1182   21.3218 C   0  0  0  0  0  0  0  0  0  0  0  0
   -1.6496   -5.0664   18.9195 C   0  0  0  0  0  0  0  0  0  0  0  0
   -1.6891   -5.0994   21.3422 C   0  0  0  0  0  0  0  0  0  0  0  0
   -0.9799   -5.0751   20.1404 C   0  0  0  0  0  0  0  0  0  0  0  0
    0.8533   -5.0380   19.3406 H   0  0  0  0  0  0  0  0  0  0  0  0
   -5.9166   -4.1297   20.2434 O   0  0  0  0  0  0  0  0  0  0  0  0
   -5.2339   -5.1267   20.0726 C   0  0  0  0  0  0  0  0  0  0  0  0
   -5.6769   -6.3822   19.8075 O   0  0  0  0  0  0  0  0  0  0  0  0
   -6.9361   -6.4454   19.1277 C   0  0  0  0  0  0  0  0  0  0  0  0
   -7.7728   -7.5483   19.7711 C   0  0  0  0  0  0  0  0  0  0  0  0
   -7.0433   -8.1891   20.9491 C   0  0  0  0  0  0  0  0  0  0  0  0
   -7.6828   -7.8091   22.2748 C   0  0  0  0  0  0  0  0  0  0  0  0
 11 12  1  0
 11 10  1  0
  9 10  2  0
  1  7  1  0
  1  8  1  0
 13 14  1  0
 13 12  1  0
 14 15  1  0
  2 10  1  0
  2  3  2  0
  2  4  1  0
  3  5  1  0
  4  6  2  0
  5  7  2  0
  6  7  1  0
M  END
> <PUBCHEM_COMPOUND_CID>
7184

> <PUBCHEM_CONFORMER_RMSD>
0.6

> <PUBCHEM_CONFORMER_DIVERSEORDER>
1
44
15
20
41
3
43
64
40
47
74
50
4
6
22
69
55
77
16
75
28
26
73
53
11
32
49
58
67
63
62
24
65
27
19
38
12
48
76
25
57
10
31
17
42
34
68
51
9
23
8
14
21
33
18
30
5
66
70
2
56
45
39
37
46
35
60
36
52
59
54
29
71
72
61
13
7

> <PUBCHEM_MMFF94_PARTIAL_CHARGES>
16
1 -0.43
10 -0.15
11 -0.15
12 -0.15
13 -0.15
14 0.08
2 -0.57
24 0.15
25 0.15
26 0.15
27 0.15
28 0.45
3 -0.53
6 0.28
8 0.09
9 0.63

> <PUBCHEM_EFFECTIVE_ROTOR_COUNT>
5

> <PUBCHEM_PHARMACOPHORE_FEATURES>
4
1 2 acceptor
1 3 donor
1 7 hydrophobe
6 8 10 11 12 13 14 rings

> <PUBCHEM_HEAVY_ATOM_COUNT>
14

> <PUBCHEM_ATOM_DEF_STEREO_COUNT>
0

> <PUBCHEM_ATOM_UDEF_STEREO_COUNT>
0

> <PUBCHEM_BOND_DEF_STEREO_COUNT>
0

> <PUBCHEM_BOND_UDEF_STEREO_COUNT>
0

> <PUBCHEM_ISOTOPIC_ATOM_COUNT>
0

> <PUBCHEM_COMPONENT_COUNT>
1

> <PUBCHEM_CACTVS_TAUTO_COUNT>
3

> <PUBCHEM_CONFORMER_ID>
00001C1000000001

> <PUBCHEM_MMFF94_ENERGY>
26.8162

> <PUBCHEM_FEATURE_SELFOVERLAP>
20.297

> <PUBCHEM_SHAPE_FINGERPRINT>
100836 57 10159698014692119138
10465860 250 17561082501386551480
10968037 39 18334860532716625766
11046707 91 18409446968869733128
12032990 46 18409167722807014732
12251169 10 18060418027818494140
13167823 11 18408602527187214402
13288520 33 18409730651148371639
13551218 46 18270963440792261598
13690532 89 18409730694483049495
13862211 1 18342737464162399199
14252887 29 17989215824084205230
17804303 29 18273497883401759577
17834072 33 18410577323021717172
1813 80 17968106291699631366
18186145 218 14923950067535008876
200 152 17530965761531918920
20281475 54 18337672035103360796
20767249 213 10735876175026745610
20828058 44 18273214175553485034
21267235 1 18410019844213228018
22485316 2 18408601440280660184
2297311 6 18130235869953600908
23402539 116 17846774109970031213
23463225 33 18411140233692529510
23559900 14 18270389602695558633
351380 180 10665231458300457486
351380 3 18259982652836299658
42 15 18342740719346176002
4214541 1 18340769252190604880
5104073 3 18271533095046590721
559249 180 18335415712557464698
7364860 26 18126566957732624024
83771 10 18407476665592062532

> <PUBCHEM_SHAPE_MULTIPOLES>
270.51
10.85
1.64
0.68
12.98
0.32
0
-5.61
1.62
-0.51
-0.11
-0.08
0
-0.42

> <PUBCHEM_SHAPE_SELFOVERLAP>
550.017

> <PUBCHEM_SHAPE_VOLUME>
158.1

> <PUBCHEM_COORDINATE_TYPE>
2
5
10

> <Energy>
17.0404

> <minimizedAffinity>
-6.63022

> <CNNscore>
0.8710768223

> <CNNaffinity>
5.5974745750

> <CNN_VS>
4.8758301735

> <CNNaffinity_variance>
0.5162278414

$$$$
7184


 15 15  0  0  0  0  0  0  0  0999 V2000
    0.3540   -4.9467   20.1451 O   0  0  0  0  0  0  0  0  0  0  0  0
   -3.7702   -5.3002   20.1299 C   0  0  0  0  0  0  0  0  0  0  0  0
   -3.0622   -5.4273   21.3313 C   0  0  0  0  0  0  0  0  0  0  0  0
   -3.0893   -5.0677   18.9315 C   0  0  0  0  0  0  0  0  0  0  0  0
   -1.6711   -5.3031   21.3295 C   0  0  0  0  0  0  0  0  0  0  0  0
   -1.7045   -4.9456   18.9330 C   0  0  0  0  0  0  0  0  0  0  0  0
   -1.0010   -5.0623   20.1328 C   0  0  0  0  0  0  0  0  0  0  0  0
    0.8236   -5.0256   20.9521 H   0  0  0  0  0  0  0  0  0  0  0  0
   -6.0009   -4.5763   19.7355 O   0  0  0  0  0  0  0  0  0  0  0  0
   -5.2388   -5.4427   20.1328 C   0  0  0  0  0  0  0  0  0  0  0  0
   -5.5757   -6.6678   20.6107 O   0  0  0  0  0  0  0  0  0  0  0  0
   -6.9839   -6.9179   20.6875 C   0  0  0  0  0  0  0  0  0  0  0  0
   -7.2101   -8.0978   21.6292 C   0  0  0  0  0  0  0  0  0  0  0  0
   -7.9059   -7.6615   22.9160 C   0  0  0  0  0  0  0  0  0  0  0  0
   -7.4220   -6.2959   23.3764 C   0  0  0  0  0  0  0  0  0  0  0  0
 11 12  1  0
 11 10  1  0
  9 10  2  0
  1  7  1  0
  1  8  1  0
 13 14  1  0
 13 12  1  0
 14 15  1  0
  2 10  1  0
  2  3  2  0
  2  4  1  0
  3  5  1  0
  4  6  2  0
  5  7  2  0
  6  7  1  0
M  END
> <PUBCHEM_COMPOUND_CID>
7184

> <PUBCHEM_CONFORMER_RMSD>
0.6

> <PUBCHEM_CONFORMER_DIVERSEORDER>
1
44
15
20
41
3
43
64
40
47
74
50
4
6
22
69
55
77
16
75
28
26
73
53
11
32
49
58
67
63
62
24
65
27
19
38
12
48
76
25
57
10
31
17
42
34
68
51
9
23
8
14
21
33
18
30
5
66
70
2
56
45
39
37
46
35
60
36
52
59
54
29
71
72
61
13
7

> <PUBCHEM_MMFF94_PARTIAL_CHARGES>
16
1 -0.43
10 -0.15
11 -0.15
12 -0.15
13 -0.15
14 0.08
2 -0.57
24 0.15
25 0.15
26 0.15
27 0.15
28 0.45
3 -0.53
6 0.28
8 0.09
9 0.63

> <PUBCHEM_EFFECTIVE_ROTOR_COUNT>
5

> <PUBCHEM_PHARMACOPHORE_FEATURES>
4
1 2 acceptor
1 3 donor
1 7 hydrophobe
6 8 10 11 12 13 14 rings

> <PUBCHEM_HEAVY_ATOM_COUNT>
14

> <PUBCHEM_ATOM_DEF_STEREO_COUNT>
0

> <PUBCHEM_ATOM_UDEF_STEREO_COUNT>
0

> <PUBCHEM_BOND_DEF_STEREO_COUNT>
0

> <PUBCHEM_BOND_UDEF_STEREO_COUNT>
0

> <PUBCHEM_ISOTOPIC_ATOM_COUNT>
0

> <PUBCHEM_COMPONENT_COUNT>
1

> <PUBCHEM_CACTVS_TAUTO_COUNT>
3

> <PUBCHEM_CONFORMER_ID>
00001C1000000001

> <PUBCHEM_MMFF94_ENERGY>
26.8162

> <PUBCHEM_FEATURE_SELFOVERLAP>
20.297

> <PUBCHEM_SHAPE_FINGERPRINT>
100836 57 10159698014692119138
10465860 250 17561082501386551480
10968037 39 18334860532716625766
11046707 91 18409446968869733128
12032990 46 18409167722807014732
12251169 10 18060418027818494140
13167823 11 18408602527187214402
13288520 33 18409730651148371639
13551218 46 18270963440792261598
13690532 89 18409730694483049495
13862211 1 18342737464162399199
14252887 29 17989215824084205230
17804303 29 18273497883401759577
17834072 33 18410577323021717172
1813 80 17968106291699631366
18186145 218 14923950067535008876
200 152 17530965761531918920
20281475 54 18337672035103360796
20767249 213 10735876175026745610
20828058 44 18273214175553485034
21267235 1 18410019844213228018
22485316 2 18408601440280660184
2297311 6 18130235869953600908
23402539 116 17846774109970031213
23463225 33 18411140233692529510
23559900 14 18270389602695558633
351380 180 10665231458300457486
351380 3 18259982652836299658
42 15 18342740719346176002
4214541 1 18340769252190604880
5104073 3 18271533095046590721
559249 180 18335415712557464698
7364860 26 18126566957732624024
83771 10 18407476665592062532

> <PUBCHEM_SHAPE_MULTIPOLES>
270.51
10.85
1.64
0.68
12.98
0.32
0
-5.61
1.62
-0.51
-0.11
-0.08
0
-0.42

> <PUBCHEM_SHAPE_SELFOVERLAP>
550.017

> <PUBCHEM_SHAPE_VOLUME>
158.1

> <PUBCHEM_COORDINATE_TYPE>
2
5
10

> <Energy>
17.0404

> <minimizedAffinity>
-6.46342

> <CNNscore>
0.8507202268

> <CNNaffinity>
5.6409258842

> <CNN_VS>
4.7988495827

> <CNNaffinity_variance>
0.9818268418

$$$$
7184


 15 15  0  0  0  0  0  0  0  0999 V2000
    0.0484   -5.2618   20.2234 O   0  0  0  0  0  0  0  0  0  0  0  0
   -4.0598   -5.7684   20.2041 C   0  0  0  0  0  0  0  0  0  0  0  0
   -3.3648   -5.6473   18.9945 C   0  0  0  0  0  0  0  0  0  0  0  0
   -3.3741   -5.7054   21.4205 C   0  0  0  0  0  0  0  0  0  0  0  0
   -1.9782   -5.4804   19.0085 C   0  0  0  0  0  0  0  0  0  0  0  0
   -1.9941   -5.5382   21.4310 C   0  0  0  0  0  0  0  0  0  0  0  0
   -1.3014   -5.4279   20.2244 C   0  0  0  0  0  0  0  0  0  0  0  0
    0.5107   -5.1880   19.4117 H   0  0  0  0  0  0  0  0  0  0  0  0
   -6.2151   -5.7351   19.1995 O   0  0  0  0  0  0  0  0  0  0  0  0
   -5.5259   -5.9337   20.1868 C   0  0  0  0  0  0  0  0  0  0  0  0
   -5.9503   -6.3545   21.4057 O   0  0  0  0  0  0  0  0  0  0  0  0
   -7.0932   -7.2175   21.3806 C   0  0  0  0  0  0  0  0  0  0  0  0
   -7.7075   -7.2394   22.7778 C   0  0  0  0  0  0  0  0  0  0  0  0
   -7.2756   -6.0266   23.5981 C   0  0  0  0  0  0  0  0  0  0  0  0
   -8.3575   -4.9591   23.6279 C   0  0  0  0  0  0  0  0  0  0  0  0
 11 12  1  0
 11 10  1  0
  9 10  2  0
  1  7  1  0
  1  8  1  0
 13 14  1  0
 13 12  1  0
 14 15  1  0
  2 10  1  0
  2  3  2  0
  2  4  1  0
  3  5  1  0
  4  6  2  0
  5  7  2  0
  6  7  1  0
M  END
> <PUBCHEM_COMPOUND_CID>
7184

> <PUBCHEM_CONFORMER_RMSD>
0.6

> <PUBCHEM_CONFORMER_DIVERSEORDER>
1
44
15
20
41
3
43
64
40
47
74
50
4
6
22
69
55
77
16
75
28
26
73
53
11
32
49
58
67
63
62
24
65
27
19
38
12
48
76
25
57
10
31
17
42
34
68
51
9
23
8
14
21
33
18
30
5
66
70
2
56
45
39
37
46
35
60
36
52
59
54
29
71
72
61
13
7

> <PUBCHEM_MMFF94_PARTIAL_CHARGES>
16
1 -0.43
10 -0.15
11 -0.15
12 -0.15
13 -0.15
14 0.08
2 -0.57
24 0.15
25 0.15
26 0.15
27 0.15
28 0.45
3 -0.53
6 0.28
8 0.09
9 0.63

> <PUBCHEM_EFFECTIVE_ROTOR_COUNT>
5

> <PUBCHEM_PHARMACOPHORE_FEATURES>
4
1 2 acceptor
1 3 donor
1 7 hydrophobe
6 8 10 11 12 13 14 rings

> <PUBCHEM_HEAVY_ATOM_COUNT>
14

> <PUBCHEM_ATOM_DEF_STEREO_COUNT>
0

> <PUBCHEM_ATOM_UDEF_STEREO_COUNT>
0

> <PUBCHEM_BOND_DEF_STEREO_COUNT>
0

> <PUBCHEM_BOND_UDEF_STEREO_COUNT>
0

> <PUBCHEM_ISOTOPIC_ATOM_COUNT>
0

> <PUBCHEM_COMPONENT_COUNT>
1

> <PUBCHEM_CACTVS_TAUTO_COUNT>
3

> <PUBCHEM_CONFORMER_ID>
00001C1000000001

> <PUBCHEM_MMFF94_ENERGY>
26.8162

> <PUBCHEM_FEATURE_SELFOVERLAP>
20.297

> <PUBCHEM_SHAPE_FINGERPRINT>
100836 57 10159698014692119138
10465860 250 17561082501386551480
10968037 39 18334860532716625766
11046707 91 18409446968869733128
12032990 46 18409167722807014732
12251169 10 18060418027818494140
13167823 11 18408602527187214402
13288520 33 18409730651148371639
13551218 46 18270963440792261598
13690532 89 18409730694483049495
13862211 1 18342737464162399199
14252887 29 17989215824084205230
17804303 29 18273497883401759577
17834072 33 18410577323021717172
1813 80 17968106291699631366
18186145 218 14923950067535008876
200 152 17530965761531918920
20281475 54 18337672035103360796
20767249 213 10735876175026745610
20828058 44 18273214175553485034
21267235 1 18410019844213228018
22485316 2 18408601440280660184
2297311 6 18130235869953600908
23402539 116 17846774109970031213
23463225 33 18411140233692529510
23559900 14 18270389602695558633
351380 180 10665231458300457486
351380 3 18259982652836299658
42 15 18342740719346176002
4214541 1 18340769252190604880
5104073 3 18271533095046590721
559249 180 18335415712557464698
7364860 26 18126566957732624024
83771 10 18407476665592062532

> <PUBCHEM_SHAPE_MULTIPOLES>
270.51
10.85
1.64
0.68
12.98
0.32
0
-5.61
1.62
-0.51
-0.11
-0.08
0
-0.42

> <PUBCHEM_SHAPE_SELFOVERLAP>
550.017

> <PUBCHEM_SHAPE_VOLUME>
158.1

> <PUBCHEM_COORDINATE_TYPE>
2
5
10

> <Energy>
17.0404

> <minimizedAffinity>
-6.35927

> <CNNscore>
0.8452774286

> <CNNaffinity>
5.7502722740

> <CNN_VS>
4.8605751991

> <CNNaffinity_variance>
1.0755347013

$$$$
