6623


 19 20  0  0  0  0  0  0  0  0999 V2000
   -1.4386   -3.6757   22.2606 C   0  0  0  0  0  0  0  0  0  0  0  0
   -0.5174   -3.5622   21.0149 C   0  0  0  0  0  0  0  0  0  0  0  0
   -1.7224   -5.1937   22.4247 C   0  0  0  0  0  0  0  0  0  0  0  0
   -6.5468   -1.1726   21.6054 O   0  0  0  0  0  0  0  0  0  0  0  0
   -2.8091   -2.9778   22.0864 C   0  0  0  0  0  0  0  0  0  0  0  0
   -3.9960   -3.7009   22.3341 C   0  0  0  0  0  0  0  0  0  0  0  0
   -2.9368   -1.6372   21.6840 C   0  0  0  0  0  0  0  0  0  0  0  0
   -5.2548   -3.1137   22.1763 C   0  0  0  0  0  0  0  0  0  0  0  0
   -4.1957   -1.0471   21.5305 C   0  0  0  0  0  0  0  0  0  0  0  0
   -5.3425   -1.7884   21.7742 C   0  0  0  0  0  0  0  0  0  0  0  0
   -7.3406   -1.6452   21.7618 H   0  0  0  0  0  0  0  0  0  0  0  0
    1.3553   -1.3159   26.6647 O   0  0  0  0  0  0  0  0  0  0  0  0
   -0.6595   -3.0596   23.4468 C   0  0  0  0  0  0  0  0  0  0  0  0
   -1.3065   -2.8770   24.6879 C   0  0  0  0  0  0  0  0  0  0  0  0
    0.6825   -2.6513   23.3467 C   0  0  0  0  0  0  0  0  0  0  0  0
   -0.6483   -2.2947   25.7748 C   0  0  0  0  0  0  0  0  0  0  0  0
    1.3431   -2.0740   24.4348 C   0  0  0  0  0  0  0  0  0  0  0  0
    0.6733   -1.8946   25.6359 C   0  0  0  0  0  0  0  0  0  0  0  0
    0.9322   -1.1803   27.4896 H   0  0  0  0  0  0  0  0  0  0  0  0
  4 10  1  0
  4 11  1  0
 12 18  1  0
 12 19  1  0
  1  5  1  0
  1 13  1  0
  1  2  1  0
  1  3  1  0
  5  6  2  0
  5  7  1  0
 13 14  2  0
 13 15  1  0
  6  8  1  0
 14 16  1  0
  7  9  2  0
 15 17  2  0
  8 10  2  0
 16 18  2  0
  9 10  1  0
 17 18  1  0
M  END
> <PUBCHEM_COMPOUND_CID>
6623

> <PUBCHEM_CONFORMER_RMSD>
0.6

> <PUBCHEM_CONFORMER_DIVERSEORDER>
1
3
2

> <PUBCHEM_MMFF94_PARTIAL_CHARGES>
25
1 -0.53
10 -0.15
11 -0.15
12 -0.15
13 -0.15
14 -0.15
15 -0.15
16 0.08
17 0.08
2 -0.53
24 0.15
25 0.15
26 0.15
27 0.15
28 0.15
29 0.15
3 0.29
30 0.15
31 0.15
32 0.45
33 0.45
4 -0.14
5 -0.14
8 -0.15
9 -0.15

> <PUBCHEM_EFFECTIVE_ROTOR_COUNT>
2

> <PUBCHEM_PHARMACOPHORE_FEATURES>
5
1 1 donor
1 2 donor
3 3 6 7 hydrophobe
6 4 8 10 12 14 16 rings
6 5 9 11 13 15 17 rings

> <PUBCHEM_HEAVY_ATOM_COUNT>
17

> <PUBCHEM_ATOM_DEF_STEREO_COUNT>
0

> <PUBCHEM_ATOM_UDEF_STEREO_COUNT>
0

> <PUBCHEM_BOND_DEF_STEREO_COUNT>
0

> <PUBCHEM_BOND_UDEF_STEREO_COUNT>
0

> <PUBCHEM_ISOTOPIC_ATOM_COUNT>
0

> <PUBCHEM_COMPONENT_COUNT>
1

> <PUBCHEM_CACTVS_TAUTO_COUNT>
3

> <PUBCHEM_CONFORMER_ID>
000019DF00000001

> <PUBCHEM_MMFF94_ENERGY>
64.1206

> <PUBCHEM_FEATURE_SELFOVERLAP>
25.372

> <PUBCHEM_SHAPE_FINGERPRINT>
10465860 228 18265052440146906875
10498660 4 17846494807956907777
10618630 7 8862950471944920352
11046707 91 8574440819802817220
11640471 11 18410569587104953028
12138202 97 17632297942700988494
12251169 10 15719115772587467277
12491281 212 18341893034625719138
12633257 1 15647059291015153984
12788726 201 18049710021441717058
12892183 10 15719384001885322888
13571099 52 18261397711031002503
13764800 53 18340221781019704851
14251764 38 17758668950351880149
14739800 52 17985806350554812304
15061688 2 18410575084673810317
15309172 13 17822005415182549066
15342168 16 18187090559068058613
15375462 189 9295287269996453078
15534591 1 18337673126062282338
15653759 3 15068339003624658237
15775835 57 18410853261110395364
15906896 17 18264490774389428130
16945 1 17917141818369727011
17357779 13 13899614313340361589
1741750 31 18337674225716062138
17804303 29 12829490320433961629
1813 80 17692251833473259110
18186145 218 18334012757179395950
19765921 60 18411697656461014379
19868273 293 17988923409424780430
20291156 8 9223230745321134917
20361792 2 9943803365827786299
204376 136 18186802491163379179
20645476 183 18339358668581405150
20671657 53 12751245791825749096
20871999 31 16988551447065141829
21499 59 18412825772344063143
21524375 3 18410855460138945163
21713013 43 13758065299356720749
21731228 192 17894352193594983955
23184049 59 17894627041684797236
23402539 116 17774993601125170188
23557571 272 16557885966252971863
23559900 14 17561366193283564332
298252 57 18202560691760254914
3472631 163 18202563986327517557
4028521 119 17846780714954732865
4340502 62 18114473262852369283
474 4 18336547123060049707
633830 44 18410010996606913815
7364860 26 17700693965181141591
83771 10 9223230749695054610
94968 8 10663806477749826557
9981440 41 18128808828214612290

> <PUBCHEM_SHAPE_MULTIPOLES>
338.11
7.28
2.04
1.32
0.26
0.87
0
-5.89
0
-0.06
0
0
0.27
-0.69

> <PUBCHEM_SHAPE_SELFOVERLAP>
731.212

> <PUBCHEM_SHAPE_VOLUME>
187.1

> <PUBCHEM_COORDINATE_TYPE>
2
5
10

> <Energy>
42.8498

> <minimizedAffinity>
-8.50363

> <CNNscore>
0.9167124629

> <CNNaffinity>
7.1557736397

> <CNN_VS>
6.5597867966

> <CNNaffinity_variance>
0.7088585496

$$$$
6623


 19 20  0  0  0  0  0  0  0  0999 V2000
   -1.4499   -3.6328   22.2983 C   0  0  0  0  0  0  0  0  0  0  0  0
   -0.5076   -3.5076   21.0697 C   0  0  0  0  0  0  0  0  0  0  0  0
   -1.7175   -5.1543   22.4575 C   0  0  0  0  0  0  0  0  0  0  0  0
   -6.5761   -1.1941   21.5478 O   0  0  0  0  0  0  0  0  0  0  0  0
   -2.8257   -2.9522   22.0990 C   0  0  0  0  0  0  0  0  0  0  0  0
   -4.0076   -3.6969   22.3024 C   0  0  0  0  0  0  0  0  0  0  0  0
   -2.9629   -1.6069   21.7159 C   0  0  0  0  0  0  0  0  0  0  0  0
   -5.2706   -3.1256   22.1206 C   0  0  0  0  0  0  0  0  0  0  0  0
   -4.2260   -1.0328   21.5385 C   0  0  0  0  0  0  0  0  0  0  0  0
   -5.3676   -1.7950   21.7386 C   0  0  0  0  0  0  0  0  0  0  0  0
   -7.3666   -1.6810   21.6748 H   0  0  0  0  0  0  0  0  0  0  0  0
    1.4132   -1.3963   26.7224 O   0  0  0  0  0  0  0  0  0  0  0  0
   -0.7004   -3.0070   23.4985 C   0  0  0  0  0  0  0  0  0  0  0  0
    0.6430   -2.6009   23.3480 C   0  0  0  0  0  0  0  0  0  0  0  0
   -1.2956   -2.8309   24.7603 C   0  0  0  0  0  0  0  0  0  0  0  0
    1.3656   -2.0609   24.4157 C   0  0  0  0  0  0  0  0  0  0  0  0
   -0.5754   -2.2859   25.8270 C   0  0  0  0  0  0  0  0  0  0  0  0
    0.7481   -1.9114   25.6496 C   0  0  0  0  0  0  0  0  0  0  0  0
    2.3084   -1.1334   26.6364 H   0  0  0  0  0  0  0  0  0  0  0  0
  4 10  1  0
  4 11  1  0
 12 18  1  0
 12 19  1  0
  1  5  1  0
  1 13  1  0
  1  2  1  0
  1  3  1  0
  5  6  2  0
  5  7  1  0
 13 14  2  0
 13 15  1  0
  6  8  1  0
 14 16  1  0
  7  9  2  0
 15 17  2  0
  8 10  2  0
 16 18  2  0
  9 10  1  0
 17 18  1  0
M  END
> <PUBCHEM_COMPOUND_CID>
6623

> <PUBCHEM_CONFORMER_RMSD>
0.6

> <PUBCHEM_CONFORMER_DIVERSEORDER>
1
3
2

> <PUBCHEM_MMFF94_PARTIAL_CHARGES>
25
1 -0.53
10 -0.15
11 -0.15
12 -0.15
13 -0.15
14 -0.15
15 -0.15
16 0.08
17 0.08
2 -0.53
24 0.15
25 0.15
26 0.15
27 0.15
28 0.15
29 0.15
3 0.29
30 0.15
31 0.15
32 0.45
33 0.45
4 -0.14
5 -0.14
8 -0.15
9 -0.15

> <PUBCHEM_EFFECTIVE_ROTOR_COUNT>
2

> <PUBCHEM_PHARMACOPHORE_FEATURES>
5
1 1 donor
1 2 donor
3 3 6 7 hydrophobe
6 4 8 10 12 14 16 rings
6 5 9 11 13 15 17 rings

> <PUBCHEM_HEAVY_ATOM_COUNT>
17

> <PUBCHEM_ATOM_DEF_STEREO_COUNT>
0

> <PUBCHEM_ATOM_UDEF_STEREO_COUNT>
0

> <PUBCHEM_BOND_DEF_STEREO_COUNT>
0

> <PUBCHEM_BOND_UDEF_STEREO_COUNT>
0

> <PUBCHEM_ISOTOPIC_ATOM_COUNT>
0

> <PUBCHEM_COMPONENT_COUNT>
1

> <PUBCHEM_CACTVS_TAUTO_COUNT>
3

> <PUBCHEM_CONFORMER_ID>
000019DF00000001

> <PUBCHEM_MMFF94_ENERGY>
64.1206

> <PUBCHEM_FEATURE_SELFOVERLAP>
25.372

> <PUBCHEM_SHAPE_FINGERPRINT>
10465860 228 18265052440146906875
10498660 4 17846494807956907777
10618630 7 8862950471944920352
11046707 91 8574440819802817220
11640471 11 18410569587104953028
12138202 97 17632297942700988494
12251169 10 15719115772587467277
12491281 212 18341893034625719138
12633257 1 15647059291015153984
12788726 201 18049710021441717058
12892183 10 15719384001885322888
13571099 52 18261397711031002503
13764800 53 18340221781019704851
14251764 38 17758668950351880149
14739800 52 17985806350554812304
15061688 2 18410575084673810317
15309172 13 17822005415182549066
15342168 16 18187090559068058613
15375462 189 9295287269996453078
15534591 1 18337673126062282338
15653759 3 15068339003624658237
15775835 57 18410853261110395364
15906896 17 18264490774389428130
16945 1 17917141818369727011
17357779 13 13899614313340361589
1741750 31 18337674225716062138
17804303 29 12829490320433961629
1813 80 17692251833473259110
18186145 218 18334012757179395950
19765921 60 18411697656461014379
19868273 293 17988923409424780430
20291156 8 9223230745321134917
20361792 2 9943803365827786299
204376 136 18186802491163379179
20645476 183 18339358668581405150
20671657 53 12751245791825749096
20871999 31 16988551447065141829
21499 59 18412825772344063143
21524375 3 18410855460138945163
21713013 43 13758065299356720749
21731228 192 17894352193594983955
23184049 59 17894627041684797236
23402539 116 17774993601125170188
23557571 272 16557885966252971863
23559900 14 17561366193283564332
298252 57 18202560691760254914
3472631 163 18202563986327517557
4028521 119 17846780714954732865
4340502 62 18114473262852369283
474 4 18336547123060049707
633830 44 18410010996606913815
7364860 26 17700693965181141591
83771 10 9223230749695054610
94968 8 10663806477749826557
9981440 41 18128808828214612290

> <PUBCHEM_SHAPE_MULTIPOLES>
338.11
7.28
2.04
1.32
0.26
0.87
0
-5.89
0
-0.06
0
0
0.27
-0.69

> <PUBCHEM_SHAPE_SELFOVERLAP>
731.212

> <PUBCHEM_SHAPE_VOLUME>
187.1

> <PUBCHEM_COORDINATE_TYPE>
2
5
10

> <Energy>
42.8498

> <minimizedAffinity>
-8.47994

> <CNNscore>
0.9160977006

> <CNNaffinity>
7.2031402588

> <CNN_VS>
6.5987801552

> <CNNaffinity_variance>
0.7362427115

$$$$
6623


 19 20  0  0  0  0  0  0  0  0999 V2000
   -1.4489   -3.6221   22.3064 C   0  0  0  0  0  0  0  0  0  0  0  0
   -1.7183   -5.1453   22.4498 C   0  0  0  0  0  0  0  0  0  0  0  0
   -0.5179   -3.4842   21.0711 C   0  0  0  0  0  0  0  0  0  0  0  0
    1.4208   -1.3724   26.7213 O   0  0  0  0  0  0  0  0  0  0  0  0
   -0.6939   -3.0080   23.5099 C   0  0  0  0  0  0  0  0  0  0  0  0
    0.6491   -2.6010   23.3560 C   0  0  0  0  0  0  0  0  0  0  0  0
   -1.2854   -2.8335   24.7729 C   0  0  0  0  0  0  0  0  0  0  0  0
    1.3724   -2.0539   24.4200 C   0  0  0  0  0  0  0  0  0  0  0  0
   -0.5642   -2.2816   25.8369 C   0  0  0  0  0  0  0  0  0  0  0  0
    0.7567   -1.8996   25.6540 C   0  0  0  0  0  0  0  0  0  0  0  0
    2.3141   -1.1043   26.6314 H   0  0  0  0  0  0  0  0  0  0  0  0
   -6.5797   -1.1981   21.5513 O   0  0  0  0  0  0  0  0  0  0  0  0
   -2.8267   -2.9428   22.1223 C   0  0  0  0  0  0  0  0  0  0  0  0
   -4.0066   -3.6912   22.3220 C   0  0  0  0  0  0  0  0  0  0  0  0
   -2.9673   -1.5952   21.7455 C   0  0  0  0  0  0  0  0  0  0  0  0
   -5.2704   -3.1242   22.1348 C   0  0  0  0  0  0  0  0  0  0  0  0
   -4.2308   -1.0260   21.5635 C   0  0  0  0  0  0  0  0  0  0  0  0
   -5.3701   -1.7937   21.7529 C   0  0  0  0  0  0  0  0  0  0  0  0
   -7.3691   -1.6886   21.6708 H   0  0  0  0  0  0  0  0  0  0  0  0
  4 10  1  0
  4 11  1  0
 12 18  1  0
 12 19  1  0
  1  5  1  0
  1 13  1  0
  1  2  1  0
  1  3  1  0
  5  6  2  0
  5  7  1  0
 13 14  2  0
 13 15  1  0
  6  8  1  0
 14 16  1  0
  7  9  2  0
 15 17  2  0
  8 10  2  0
 16 18  2  0
  9 10  1  0
 17 18  1  0
M  END
> <PUBCHEM_COMPOUND_CID>
6623

> <PUBCHEM_CONFORMER_RMSD>
0.6

> <PUBCHEM_CONFORMER_DIVERSEORDER>
1
3
2

> <PUBCHEM_MMFF94_PARTIAL_CHARGES>
25
1 -0.53
10 -0.15
11 -0.15
12 -0.15
13 -0.15
14 -0.15
15 -0.15
16 0.08
17 0.08
2 -0.53
24 0.15
25 0.15
26 0.15
27 0.15
28 0.15
29 0.15
3 0.29
30 0.15
31 0.15
32 0.45
33 0.45
4 -0.14
5 -0.14
8 -0.15
9 -0.15

> <PUBCHEM_EFFECTIVE_ROTOR_COUNT>
2

> <PUBCHEM_PHARMACOPHORE_FEATURES>
5
1 1 donor
1 2 donor
3 3 6 7 hydrophobe
6 4 8 10 12 14 16 rings
6 5 9 11 13 15 17 rings

> <PUBCHEM_HEAVY_ATOM_COUNT>
17

> <PUBCHEM_ATOM_DEF_STEREO_COUNT>
0

> <PUBCHEM_ATOM_UDEF_STEREO_COUNT>
0

> <PUBCHEM_BOND_DEF_STEREO_COUNT>
0

> <PUBCHEM_BOND_UDEF_STEREO_COUNT>
0

> <PUBCHEM_ISOTOPIC_ATOM_COUNT>
0

> <PUBCHEM_COMPONENT_COUNT>
1

> <PUBCHEM_CACTVS_TAUTO_COUNT>
3

> <PUBCHEM_CONFORMER_ID>
000019DF00000001

> <PUBCHEM_MMFF94_ENERGY>
64.1206

> <PUBCHEM_FEATURE_SELFOVERLAP>
25.372

> <PUBCHEM_SHAPE_FINGERPRINT>
10465860 228 18265052440146906875
10498660 4 17846494807956907777
10618630 7 8862950471944920352
11046707 91 8574440819802817220
11640471 11 18410569587104953028
12138202 97 17632297942700988494
12251169 10 15719115772587467277
12491281 212 18341893034625719138
12633257 1 15647059291015153984
12788726 201 18049710021441717058
12892183 10 15719384001885322888
13571099 52 18261397711031002503
13764800 53 18340221781019704851
14251764 38 17758668950351880149
14739800 52 17985806350554812304
15061688 2 18410575084673810317
15309172 13 17822005415182549066
15342168 16 18187090559068058613
15375462 189 9295287269996453078
15534591 1 18337673126062282338
15653759 3 15068339003624658237
15775835 57 18410853261110395364
15906896 17 18264490774389428130
16945 1 17917141818369727011
17357779 13 13899614313340361589
1741750 31 18337674225716062138
17804303 29 12829490320433961629
1813 80 17692251833473259110
18186145 218 18334012757179395950
19765921 60 18411697656461014379
19868273 293 17988923409424780430
20291156 8 9223230745321134917
20361792 2 9943803365827786299
204376 136 18186802491163379179
20645476 183 18339358668581405150
20671657 53 12751245791825749096
20871999 31 16988551447065141829
21499 59 18412825772344063143
21524375 3 18410855460138945163
21713013 43 13758065299356720749
21731228 192 17894352193594983955
23184049 59 17894627041684797236
23402539 116 17774993601125170188
23557571 272 16557885966252971863
23559900 14 17561366193283564332
298252 57 18202560691760254914
3472631 163 18202563986327517557
4028521 119 17846780714954732865
4340502 62 18114473262852369283
474 4 18336547123060049707
633830 44 18410010996606913815
7364860 26 17700693965181141591
83771 10 9223230749695054610
94968 8 10663806477749826557
9981440 41 18128808828214612290

> <PUBCHEM_SHAPE_MULTIPOLES>
338.11
7.28
2.04
1.32
0.26
0.87
0
-5.89
0
-0.06
0
0
0.27
-0.69

> <PUBCHEM_SHAPE_SELFOVERLAP>
731.212

> <PUBCHEM_SHAPE_VOLUME>
187.1

> <PUBCHEM_COORDINATE_TYPE>
2
5
10

> <Energy>
42.8498

> <minimizedAffinity>
-8.50316

> <CNNscore>
0.9148699641

> <CNNaffinity>
7.1986365318

> <CNN_VS>
6.5858163834

> <CNNaffinity_variance>
0.7353970408

$$$$
6623


 19 20  0  0  0  0  0  0  0  0999 V2000
   -1.4266   -3.7827   22.2868 C   0  0  0  0  0  0  0  0  0  0  0  0
   -1.7170   -5.2933   22.5033 C   0  0  0  0  0  0  0  0  0  0  0  0
   -0.5000   -3.7168   21.0422 C   0  0  0  0  0  0  0  0  0  0  0  0
    1.3446   -1.3220   26.6518 O   0  0  0  0  0  0  0  0  0  0  0  0
   -0.6567   -3.1235   23.4565 C   0  0  0  0  0  0  0  0  0  0  0  0
   -1.2956   -2.9546   24.7040 C   0  0  0  0  0  0  0  0  0  0  0  0
    0.6693   -2.6727   23.3391 C   0  0  0  0  0  0  0  0  0  0  0  0
   -0.6421   -2.3522   25.7831 C   0  0  0  0  0  0  0  0  0  0  0  0
    1.3260   -2.0743   24.4196 C   0  0  0  0  0  0  0  0  0  0  0  0
    0.6663   -1.9161   25.6295 C   0  0  0  0  0  0  0  0  0  0  0  0
    0.9279   -1.2001   27.4821 H   0  0  0  0  0  0  0  0  0  0  0  0
   -6.4504   -1.1335   21.5699 O   0  0  0  0  0  0  0  0  0  0  0  0
   -2.7955   -3.0929   22.0770 C   0  0  0  0  0  0  0  0  0  0  0  0
   -2.8459   -1.7937   21.5275 C   0  0  0  0  0  0  0  0  0  0  0  0
   -4.0155   -3.6996   22.4250 C   0  0  0  0  0  0  0  0  0  0  0  0
   -4.0594   -1.1229   21.3515 C   0  0  0  0  0  0  0  0  0  0  0  0
   -5.2298   -3.0316   22.2441 C   0  0  0  0  0  0  0  0  0  0  0  0
   -5.2430   -1.7494   21.7159 C   0  0  0  0  0  0  0  0  0  0  0  0
   -6.4945   -0.2670   21.2161 H   0  0  0  0  0  0  0  0  0  0  0  0
  4 10  1  0
  4 11  1  0
 12 18  1  0
 12 19  1  0
  1  5  1  0
  1 13  1  0
  1  2  1  0
  1  3  1  0
  5  6  2  0
  5  7  1  0
 13 14  2  0
 13 15  1  0
  6  8  1  0
 14 16  1  0
  7  9  2  0
 15 17  2  0
  8 10  2  0
 16 18  2  0
  9 10  1  0
 17 18  1  0
M  END
> <PUBCHEM_COMPOUND_CID>
6623

> <PUBCHEM_CONFORMER_RMSD>
0.6

> <PUBCHEM_CONFORMER_DIVERSEORDER>
1
3
2

> <PUBCHEM_MMFF94_PARTIAL_CHARGES>
25
1 -0.53
10 -0.15
11 -0.15
12 -0.15
13 -0.15
14 -0.15
15 -0.15
16 0.08
17 0.08
2 -0.53
24 0.15
25 0.15
26 0.15
27 0.15
28 0.15
29 0.15
3 0.29
30 0.15
31 0.15
32 0.45
33 0.45
4 -0.14
5 -0.14
8 -0.15
9 -0.15

> <PUBCHEM_EFFECTIVE_ROTOR_COUNT>
2

> <PUBCHEM_PHARMACOPHORE_FEATURES>
5
1 1 donor
1 2 donor
3 3 6 7 hydrophobe
6 4 8 10 12 14 16 rings
6 5 9 11 13 15 17 rings

> <PUBCHEM_HEAVY_ATOM_COUNT>
17

> <PUBCHEM_ATOM_DEF_STEREO_COUNT>
0

> <PUBCHEM_ATOM_UDEF_STEREO_COUNT>
0

> <PUBCHEM_BOND_DEF_STEREO_COUNT>
0

> <PUBCHEM_BOND_UDEF_STEREO_COUNT>
0

> <PUBCHEM_ISOTOPIC_ATOM_COUNT>
0

> <PUBCHEM_COMPONENT_COUNT>
1

> <PUBCHEM_CACTVS_TAUTO_COUNT>
3

> <PUBCHEM_CONFORMER_ID>
000019DF00000001

> <PUBCHEM_MMFF94_ENERGY>
64.1206

> <PUBCHEM_FEATURE_SELFOVERLAP>
25.372

> <PUBCHEM_SHAPE_FINGERPRINT>
10465860 228 18265052440146906875
10498660 4 17846494807956907777
10618630 7 8862950471944920352
11046707 91 8574440819802817220
11640471 11 18410569587104953028
12138202 97 17632297942700988494
12251169 10 15719115772587467277
12491281 212 18341893034625719138
12633257 1 15647059291015153984
12788726 201 18049710021441717058
12892183 10 15719384001885322888
13571099 52 18261397711031002503
13764800 53 18340221781019704851
14251764 38 17758668950351880149
14739800 52 17985806350554812304
15061688 2 18410575084673810317
15309172 13 17822005415182549066
15342168 16 18187090559068058613
15375462 189 9295287269996453078
15534591 1 18337673126062282338
15653759 3 15068339003624658237
15775835 57 18410853261110395364
15906896 17 18264490774389428130
16945 1 17917141818369727011
17357779 13 13899614313340361589
1741750 31 18337674225716062138
17804303 29 12829490320433961629
1813 80 17692251833473259110
18186145 218 18334012757179395950
19765921 60 18411697656461014379
19868273 293 17988923409424780430
20291156 8 9223230745321134917
20361792 2 9943803365827786299
204376 136 18186802491163379179
20645476 183 18339358668581405150
20671657 53 12751245791825749096
20871999 31 16988551447065141829
21499 59 18412825772344063143
21524375 3 18410855460138945163
21713013 43 13758065299356720749
21731228 192 17894352193594983955
23184049 59 17894627041684797236
23402539 116 17774993601125170188
23557571 272 16557885966252971863
23559900 14 17561366193283564332
298252 57 18202560691760254914
3472631 163 18202563986327517557
4028521 119 17846780714954732865
4340502 62 18114473262852369283
474 4 18336547123060049707
633830 44 18410010996606913815
7364860 26 17700693965181141591
83771 10 9223230749695054610
94968 8 10663806477749826557
9981440 41 18128808828214612290

> <PUBCHEM_SHAPE_MULTIPOLES>
338.11
7.28
2.04
1.32
0.26
0.87
0
-5.89
0
-0.06
0
0
0.27
-0.69

> <PUBCHEM_SHAPE_SELFOVERLAP>
731.212

> <PUBCHEM_SHAPE_VOLUME>
187.1

> <PUBCHEM_COORDINATE_TYPE>
2
5
10

> <Energy>
42.8498

> <minimizedAffinity>
-8.44140

> <CNNscore>
0.9062609076

> <CNNaffinity>
7.1312317848

> <CNN_VS>
6.4627566338

> <CNNaffinity_variance>
0.6933348179

$$$$
6623


 19 20  0  0  0  0  0  0  0  0999 V2000
   -1.1133   -3.9151   21.7753 C   0  0  0  0  0  0  0  0  0  0  0  0
   -0.2020   -3.6377   20.5482 C   0  0  0  0  0  0  0  0  0  0  0  0
   -1.2147   -5.4619   21.8704 C   0  0  0  0  0  0  0  0  0  0  0  0
   -6.4211   -1.8483   21.1892 O   0  0  0  0  0  0  0  0  0  0  0  0
   -2.5559   -3.3786   21.6127 C   0  0  0  0  0  0  0  0  0  0  0  0
   -2.7616   -2.0226   21.2780 C   0  0  0  0  0  0  0  0  0  0  0  0
   -3.6939   -4.1849   21.7869 C   0  0  0  0  0  0  0  0  0  0  0  0
   -4.0475   -1.4932   21.1344 C   0  0  0  0  0  0  0  0  0  0  0  0
   -4.9810   -3.6575   21.6386 C   0  0  0  0  0  0  0  0  0  0  0  0
   -5.1481   -2.3185   21.3172 C   0  0  0  0  0  0  0  0  0  0  0  0
   -6.5687   -0.9487   20.9728 H   0  0  0  0  0  0  0  0  0  0  0  0
    1.5332   -1.5788   26.2818 O   0  0  0  0  0  0  0  0  0  0  0  0
   -0.4233   -3.2635   22.9973 C   0  0  0  0  0  0  0  0  0  0  0  0
    0.9027   -2.7939   22.8824 C   0  0  0  0  0  0  0  0  0  0  0  0
   -1.0567   -3.1246   24.2451 C   0  0  0  0  0  0  0  0  0  0  0  0
    1.5730   -2.2283   23.9707 C   0  0  0  0  0  0  0  0  0  0  0  0
   -0.3890   -2.5541   25.3325 C   0  0  0  0  0  0  0  0  0  0  0  0
    0.9194   -2.1167   25.1899 C   0  0  0  0  0  0  0  0  0  0  0  0
    2.4170   -1.2736   26.2195 H   0  0  0  0  0  0  0  0  0  0  0  0
  4 10  1  0
  4 11  1  0
 12 18  1  0
 12 19  1  0
  1  5  1  0
  1 13  1  0
  1  2  1  0
  1  3  1  0
  5  6  2  0
  5  7  1  0
 13 14  2  0
 13 15  1  0
  6  8  1  0
 14 16  1  0
  7  9  2  0
 15 17  2  0
  8 10  2  0
 16 18  2  0
  9 10  1  0
 17 18  1  0
M  END
> <PUBCHEM_COMPOUND_CID>
6623

> <PUBCHEM_CONFORMER_RMSD>
0.6

> <PUBCHEM_CONFORMER_DIVERSEORDER>
1
3
2

> <PUBCHEM_MMFF94_PARTIAL_CHARGES>
25
1 -0.53
10 -0.15
11 -0.15
12 -0.15
13 -0.15
14 -0.15
15 -0.15
16 0.08
17 0.08
2 -0.53
24 0.15
25 0.15
26 0.15
27 0.15
28 0.15
29 0.15
3 0.29
30 0.15
31 0.15
32 0.45
33 0.45
4 -0.14
5 -0.14
8 -0.15
9 -0.15

> <PUBCHEM_EFFECTIVE_ROTOR_COUNT>
2

> <PUBCHEM_PHARMACOPHORE_FEATURES>
5
1 1 donor
1 2 donor
3 3 6 7 hydrophobe
6 4 8 10 12 14 16 rings
6 5 9 11 13 15 17 rings

> <PUBCHEM_HEAVY_ATOM_COUNT>
17

> <PUBCHEM_ATOM_DEF_STEREO_COUNT>
0

> <PUBCHEM_ATOM_UDEF_STEREO_COUNT>
0

> <PUBCHEM_BOND_DEF_STEREO_COUNT>
0

> <PUBCHEM_BOND_UDEF_STEREO_COUNT>
0

> <PUBCHEM_ISOTOPIC_ATOM_COUNT>
0

> <PUBCHEM_COMPONENT_COUNT>
1

> <PUBCHEM_CACTVS_TAUTO_COUNT>
3

> <PUBCHEM_CONFORMER_ID>
000019DF00000001

> <PUBCHEM_MMFF94_ENERGY>
64.1206

> <PUBCHEM_FEATURE_SELFOVERLAP>
25.372

> <PUBCHEM_SHAPE_FINGERPRINT>
10465860 228 18265052440146906875
10498660 4 17846494807956907777
10618630 7 8862950471944920352
11046707 91 8574440819802817220
11640471 11 18410569587104953028
12138202 97 17632297942700988494
12251169 10 15719115772587467277
12491281 212 18341893034625719138
12633257 1 15647059291015153984
12788726 201 18049710021441717058
12892183 10 15719384001885322888
13571099 52 18261397711031002503
13764800 53 18340221781019704851
14251764 38 17758668950351880149
14739800 52 17985806350554812304
15061688 2 18410575084673810317
15309172 13 17822005415182549066
15342168 16 18187090559068058613
15375462 189 9295287269996453078
15534591 1 18337673126062282338
15653759 3 15068339003624658237
15775835 57 18410853261110395364
15906896 17 18264490774389428130
16945 1 17917141818369727011
17357779 13 13899614313340361589
1741750 31 18337674225716062138
17804303 29 12829490320433961629
1813 80 17692251833473259110
18186145 218 18334012757179395950
19765921 60 18411697656461014379
19868273 293 17988923409424780430
20291156 8 9223230745321134917
20361792 2 9943803365827786299
204376 136 18186802491163379179
20645476 183 18339358668581405150
20671657 53 12751245791825749096
20871999 31 16988551447065141829
21499 59 18412825772344063143
21524375 3 18410855460138945163
21713013 43 13758065299356720749
21731228 192 17894352193594983955
23184049 59 17894627041684797236
23402539 116 17774993601125170188
23557571 272 16557885966252971863
23559900 14 17561366193283564332
298252 57 18202560691760254914
3472631 163 18202563986327517557
4028521 119 17846780714954732865
4340502 62 18114473262852369283
474 4 18336547123060049707
633830 44 18410010996606913815
7364860 26 17700693965181141591
83771 10 9223230749695054610
94968 8 10663806477749826557
9981440 41 18128808828214612290

> <PUBCHEM_SHAPE_MULTIPOLES>
338.11
7.28
2.04
1.32
0.26
0.87
0
-5.89
0
-0.06
0
0
0.27
-0.69

> <PUBCHEM_SHAPE_SELFOVERLAP>
731.212

> <PUBCHEM_SHAPE_VOLUME>
187.1

> <PUBCHEM_COORDINATE_TYPE>
2
5
10

> <Energy>
42.8498

> <minimizedAffinity>
-7.36618

> <CNNscore>
0.7995947599

> <CNNaffinity>
7.0616250038

> <CNN_VS>
5.6464381218

> <CNNaffinity_variance>
0.6280287504

$$$$
6623


 19 20  0  0  0  0  0  0  0  0999 V2000
   -0.9077   -4.9367   21.4789 C   0  0  0  0  0  0  0  0  0  0  0  0
   -0.8826   -6.4248   21.9239 C   0  0  0  0  0  0  0  0  0  0  0  0
    0.4880   -4.6721   20.8514 C   0  0  0  0  0  0  0  0  0  0  0  0
   -1.4256   -1.2236   25.8070 O   0  0  0  0  0  0  0  0  0  0  0  0
   -1.0705   -3.9395   22.6514 C   0  0  0  0  0  0  0  0  0  0  0  0
   -0.1903   -2.8410   22.7594 C   0  0  0  0  0  0  0  0  0  0  0  0
   -2.0656   -4.0742   23.6347 C   0  0  0  0  0  0  0  0  0  0  0  0
   -0.2932   -1.9239   23.8095 C   0  0  0  0  0  0  0  0  0  0  0  0
   -2.1726   -3.1544   24.6832 C   0  0  0  0  0  0  0  0  0  0  0  0
   -1.2863   -2.0905   24.7644 C   0  0  0  0  0  0  0  0  0  0  0  0
   -0.8433   -0.4944   25.8911 H   0  0  0  0  0  0  0  0  0  0  0  0
   -5.1712   -4.3133   17.7099 O   0  0  0  0  0  0  0  0  0  0  0  0
   -2.0756   -4.7932   20.4744 C   0  0  0  0  0  0  0  0  0  0  0  0
   -1.8055   -4.7603   19.0894 C   0  0  0  0  0  0  0  0  0  0  0  0
   -3.4177   -4.6776   20.8782 C   0  0  0  0  0  0  0  0  0  0  0  0
   -2.8284   -4.5996   18.1505 C   0  0  0  0  0  0  0  0  0  0  0  0
   -4.4417   -4.5225   19.9396 C   0  0  0  0  0  0  0  0  0  0  0  0
   -4.1403   -4.4786   18.5866 C   0  0  0  0  0  0  0  0  0  0  0  0
   -5.0019   -4.2795   16.7890 H   0  0  0  0  0  0  0  0  0  0  0  0
  4 10  1  0
  4 11  1  0
 12 18  1  0
 12 19  1  0
  1  5  1  0
  1 13  1  0
  1  2  1  0
  1  3  1  0
  5  6  2  0
  5  7  1  0
 13 14  2  0
 13 15  1  0
  6  8  1  0
 14 16  1  0
  7  9  2  0
 15 17  2  0
  8 10  2  0
 16 18  2  0
  9 10  1  0
 17 18  1  0
M  END
> <PUBCHEM_COMPOUND_CID>
6623

> <PUBCHEM_CONFORMER_RMSD>
0.6

> <PUBCHEM_CONFORMER_DIVERSEORDER>
1
3
2

> <PUBCHEM_MMFF94_PARTIAL_CHARGES>
25
1 -0.53
10 -0.15
11 -0.15
12 -0.15
13 -0.15
14 -0.15
15 -0.15
16 0.08
17 0.08
2 -0.53
24 0.15
25 0.15
26 0.15
27 0.15
28 0.15
29 0.15
3 0.29
30 0.15
31 0.15
32 0.45
33 0.45
4 -0.14
5 -0.14
8 -0.15
9 -0.15

> <PUBCHEM_EFFECTIVE_ROTOR_COUNT>
2

> <PUBCHEM_PHARMACOPHORE_FEATURES>
5
1 1 donor
1 2 donor
3 3 6 7 hydrophobe
6 4 8 10 12 14 16 rings
6 5 9 11 13 15 17 rings

> <PUBCHEM_HEAVY_ATOM_COUNT>
17

> <PUBCHEM_ATOM_DEF_STEREO_COUNT>
0

> <PUBCHEM_ATOM_UDEF_STEREO_COUNT>
0

> <PUBCHEM_BOND_DEF_STEREO_COUNT>
0

> <PUBCHEM_BOND_UDEF_STEREO_COUNT>
0

> <PUBCHEM_ISOTOPIC_ATOM_COUNT>
0

> <PUBCHEM_COMPONENT_COUNT>
1

> <PUBCHEM_CACTVS_TAUTO_COUNT>
3

> <PUBCHEM_CONFORMER_ID>
000019DF00000001

> <PUBCHEM_MMFF94_ENERGY>
64.1206

> <PUBCHEM_FEATURE_SELFOVERLAP>
25.372

> <PUBCHEM_SHAPE_FINGERPRINT>
10465860 228 18265052440146906875
10498660 4 17846494807956907777
10618630 7 8862950471944920352
11046707 91 8574440819802817220
11640471 11 18410569587104953028
12138202 97 17632297942700988494
12251169 10 15719115772587467277
12491281 212 18341893034625719138
12633257 1 15647059291015153984
12788726 201 18049710021441717058
12892183 10 15719384001885322888
13571099 52 18261397711031002503
13764800 53 18340221781019704851
14251764 38 17758668950351880149
14739800 52 17985806350554812304
15061688 2 18410575084673810317
15309172 13 17822005415182549066
15342168 16 18187090559068058613
15375462 189 9295287269996453078
15534591 1 18337673126062282338
15653759 3 15068339003624658237
15775835 57 18410853261110395364
15906896 17 18264490774389428130
16945 1 17917141818369727011
17357779 13 13899614313340361589
1741750 31 18337674225716062138
17804303 29 12829490320433961629
1813 80 17692251833473259110
18186145 218 18334012757179395950
19765921 60 18411697656461014379
19868273 293 17988923409424780430
20291156 8 9223230745321134917
20361792 2 9943803365827786299
204376 136 18186802491163379179
20645476 183 18339358668581405150
20671657 53 12751245791825749096
20871999 31 16988551447065141829
21499 59 18412825772344063143
21524375 3 18410855460138945163
21713013 43 13758065299356720749
21731228 192 17894352193594983955
23184049 59 17894627041684797236
23402539 116 17774993601125170188
23557571 272 16557885966252971863
23559900 14 17561366193283564332
298252 57 18202560691760254914
3472631 163 18202563986327517557
4028521 119 17846780714954732865
4340502 62 18114473262852369283
474 4 18336547123060049707
633830 44 18410010996606913815
7364860 26 17700693965181141591
83771 10 9223230749695054610
94968 8 10663806477749826557
9981440 41 18128808828214612290

> <PUBCHEM_SHAPE_MULTIPOLES>
338.11
7.28
2.04
1.32
0.26
0.87
0
-5.89
0
-0.06
0
0
0.27
-0.69

> <PUBCHEM_SHAPE_SELFOVERLAP>
731.212

> <PUBCHEM_SHAPE_VOLUME>
187.1

> <PUBCHEM_COORDINATE_TYPE>
2
5
10

> <Energy>
42.8498

> <minimizedAffinity>
-8.14791

> <CNNscore>
0.7719249725

> <CNNaffinity>
7.0276012421

> <CNN_VS>
5.4247808456

> <CNNaffinity_variance>
0.5320003033

$$$$
6623


 19 20  0  0  0  0  0  0  0  0999 V2000
   -1.1563   -4.2887   22.2418 C   0  0  0  0  0  0  0  0  0  0  0  0
    0.0205   -5.1905   21.7781 C   0  0  0  0  0  0  0  0  0  0  0  0
   -2.2503   -5.2685   22.7468 C   0  0  0  0  0  0  0  0  0  0  0  0
   -3.5700   -1.1975   18.0697 O   0  0  0  0  0  0  0  0  0  0  0  0
   -1.7894   -3.4565   21.1006 C   0  0  0  0  0  0  0  0  0  0  0  0
   -2.8070   -2.5248   21.3993 C   0  0  0  0  0  0  0  0  0  0  0  0
   -1.3991   -3.5841   19.7564 C   0  0  0  0  0  0  0  0  0  0  0  0
   -3.4152   -1.7622   20.3978 C   0  0  0  0  0  0  0  0  0  0  0  0
   -2.0034   -2.8181   18.7541 C   0  0  0  0  0  0  0  0  0  0  0  0
   -3.0064   -1.9173   19.0807 C   0  0  0  0  0  0  0  0  0  0  0  0
   -4.2500   -0.5805   18.2564 H   0  0  0  0  0  0  0  0  0  0  0  0
    1.0097   -0.9322   26.3422 O   0  0  0  0  0  0  0  0  0  0  0  0
   -0.5969   -3.3620   23.3472 C   0  0  0  0  0  0  0  0  0  0  0  0
    0.7247   -2.8764   23.2488 C   0  0  0  0  0  0  0  0  0  0  0  0
   -1.3471   -2.9820   24.4743 C   0  0  0  0  0  0  0  0  0  0  0  0
    1.2788   -2.0632   24.2415 C   0  0  0  0  0  0  0  0  0  0  0  0
   -0.7956   -2.1644   25.4648 C   0  0  0  0  0  0  0  0  0  0  0  0
    0.5116   -1.7169   25.3449 C   0  0  0  0  0  0  0  0  0  0  0  0
    1.8892   -0.6130   26.2920 H   0  0  0  0  0  0  0  0  0  0  0  0
  4 10  1  0
  4 11  1  0
 12 18  1  0
 12 19  1  0
  1  5  1  0
  1 13  1  0
  1  2  1  0
  1  3  1  0
  5  6  2  0
  5  7  1  0
 13 14  2  0
 13 15  1  0
  6  8  1  0
 14 16  1  0
  7  9  2  0
 15 17  2  0
  8 10  2  0
 16 18  2  0
  9 10  1  0
 17 18  1  0
M  END
> <PUBCHEM_COMPOUND_CID>
6623

> <PUBCHEM_CONFORMER_RMSD>
0.6

> <PUBCHEM_CONFORMER_DIVERSEORDER>
1
3
2

> <PUBCHEM_MMFF94_PARTIAL_CHARGES>
25
1 -0.53
10 -0.15
11 -0.15
12 -0.15
13 -0.15
14 -0.15
15 -0.15
16 0.08
17 0.08
2 -0.53
24 0.15
25 0.15
26 0.15
27 0.15
28 0.15
29 0.15
3 0.29
30 0.15
31 0.15
32 0.45
33 0.45
4 -0.14
5 -0.14
8 -0.15
9 -0.15

> <PUBCHEM_EFFECTIVE_ROTOR_COUNT>
2

> <PUBCHEM_PHARMACOPHORE_FEATURES>
5
1 1 donor
1 2 donor
3 3 6 7 hydrophobe
6 4 8 10 12 14 16 rings
6 5 9 11 13 15 17 rings

> <PUBCHEM_HEAVY_ATOM_COUNT>
17

> <PUBCHEM_ATOM_DEF_STEREO_COUNT>
0

> <PUBCHEM_ATOM_UDEF_STEREO_COUNT>
0

> <PUBCHEM_BOND_DEF_STEREO_COUNT>
0

> <PUBCHEM_BOND_UDEF_STEREO_COUNT>
0

> <PUBCHEM_ISOTOPIC_ATOM_COUNT>
0

> <PUBCHEM_COMPONENT_COUNT>
1

> <PUBCHEM_CACTVS_TAUTO_COUNT>
3

> <PUBCHEM_CONFORMER_ID>
000019DF00000001

> <PUBCHEM_MMFF94_ENERGY>
64.1206

> <PUBCHEM_FEATURE_SELFOVERLAP>
25.372

> <PUBCHEM_SHAPE_FINGERPRINT>
10465860 228 18265052440146906875
10498660 4 17846494807956907777
10618630 7 8862950471944920352
11046707 91 8574440819802817220
11640471 11 18410569587104953028
12138202 97 17632297942700988494
12251169 10 15719115772587467277
12491281 212 18341893034625719138
12633257 1 15647059291015153984
12788726 201 18049710021441717058
12892183 10 15719384001885322888
13571099 52 18261397711031002503
13764800 53 18340221781019704851
14251764 38 17758668950351880149
14739800 52 17985806350554812304
15061688 2 18410575084673810317
15309172 13 17822005415182549066
15342168 16 18187090559068058613
15375462 189 9295287269996453078
15534591 1 18337673126062282338
15653759 3 15068339003624658237
15775835 57 18410853261110395364
15906896 17 18264490774389428130
16945 1 17917141818369727011
17357779 13 13899614313340361589
1741750 31 18337674225716062138
17804303 29 12829490320433961629
1813 80 17692251833473259110
18186145 218 18334012757179395950
19765921 60 18411697656461014379
19868273 293 17988923409424780430
20291156 8 9223230745321134917
20361792 2 9943803365827786299
204376 136 18186802491163379179
20645476 183 18339358668581405150
20671657 53 12751245791825749096
20871999 31 16988551447065141829
21499 59 18412825772344063143
21524375 3 18410855460138945163
21713013 43 13758065299356720749
21731228 192 17894352193594983955
23184049 59 17894627041684797236
23402539 116 17774993601125170188
23557571 272 16557885966252971863
23559900 14 17561366193283564332
298252 57 18202560691760254914
3472631 163 18202563986327517557
4028521 119 17846780714954732865
4340502 62 18114473262852369283
474 4 18336547123060049707
633830 44 18410010996606913815
7364860 26 17700693965181141591
83771 10 9223230749695054610
94968 8 10663806477749826557
9981440 41 18128808828214612290

> <PUBCHEM_SHAPE_MULTIPOLES>
338.11
7.28
2.04
1.32
0.26
0.87
0
-5.89
0
-0.06
0
0
0.27
-0.69

> <PUBCHEM_SHAPE_SELFOVERLAP>
731.212

> <PUBCHEM_SHAPE_VOLUME>
187.1

> <PUBCHEM_COORDINATE_TYPE>
2
5
10

> <Energy>
42.8498

> <minimizedAffinity>
-8.44688

> <CNNscore>
0.7577105761

> <CNNaffinity>
7.1761622429

> <CNN_VS>
5.4374542236

> <CNNaffinity_variance>
0.9511218071

$$$$
6623


 19 20  0  0  0  0  0  0  0  0999 V2000
   -1.1538   -4.3018   22.2429 C   0  0  0  0  0  0  0  0  0  0  0  0
   -2.2584   -5.2772   22.7346 C   0  0  0  0  0  0  0  0  0  0  0  0
    0.0149   -5.2091   21.7709 C   0  0  0  0  0  0  0  0  0  0  0  0
    1.0090   -0.9369   26.3403 O   0  0  0  0  0  0  0  0  0  0  0  0
   -0.5913   -3.3865   23.3571 C   0  0  0  0  0  0  0  0  0  0  0  0
    0.7225   -2.8818   23.2475 C   0  0  0  0  0  0  0  0  0  0  0  0
   -1.3328   -3.0268   24.4956 C   0  0  0  0  0  0  0  0  0  0  0  0
    1.2748   -2.0628   24.2368 C   0  0  0  0  0  0  0  0  0  0  0  0
   -0.7831   -2.2033   25.4838 C   0  0  0  0  0  0  0  0  0  0  0  0
    0.5141   -1.7311   25.3491 C   0  0  0  0  0  0  0  0  0  0  0  0
    1.8817   -0.6013   26.2799 H   0  0  0  0  0  0  0  0  0  0  0  0
   -3.5804   -1.2120   18.0793 O   0  0  0  0  0  0  0  0  0  0  0  0
   -1.7800   -3.4576   21.1076 C   0  0  0  0  0  0  0  0  0  0  0  0
   -2.7927   -2.5221   21.4100 C   0  0  0  0  0  0  0  0  0  0  0  0
   -1.3945   -3.5864   19.7613 C   0  0  0  0  0  0  0  0  0  0  0  0
   -3.4066   -1.7630   20.4098 C   0  0  0  0  0  0  0  0  0  0  0  0
   -2.0041   -2.8237   18.7612 C   0  0  0  0  0  0  0  0  0  0  0  0
   -3.0071   -1.9243   19.0905 C   0  0  0  0  0  0  0  0  0  0  0  0
   -4.2609   -0.5960   18.2676 H   0  0  0  0  0  0  0  0  0  0  0  0
  4 10  1  0
  4 11  1  0
 12 18  1  0
 12 19  1  0
  1  5  1  0
  1 13  1  0
  1  2  1  0
  1  3  1  0
  5  6  2  0
  5  7  1  0
 13 14  2  0
 13 15  1  0
  6  8  1  0
 14 16  1  0
  7  9  2  0
 15 17  2  0
  8 10  2  0
 16 18  2  0
  9 10  1  0
 17 18  1  0
M  END
> <PUBCHEM_COMPOUND_CID>
6623

> <PUBCHEM_CONFORMER_RMSD>
0.6

> <PUBCHEM_CONFORMER_DIVERSEORDER>
1
3
2

> <PUBCHEM_MMFF94_PARTIAL_CHARGES>
25
1 -0.53
10 -0.15
11 -0.15
12 -0.15
13 -0.15
14 -0.15
15 -0.15
16 0.08
17 0.08
2 -0.53
24 0.15
25 0.15
26 0.15
27 0.15
28 0.15
29 0.15
3 0.29
30 0.15
31 0.15
32 0.45
33 0.45
4 -0.14
5 -0.14
8 -0.15
9 -0.15

> <PUBCHEM_EFFECTIVE_ROTOR_COUNT>
2

> <PUBCHEM_PHARMACOPHORE_FEATURES>
5
1 1 donor
1 2 donor
3 3 6 7 hydrophobe
6 4 8 10 12 14 16 rings
6 5 9 11 13 15 17 rings

> <PUBCHEM_HEAVY_ATOM_COUNT>
17

> <PUBCHEM_ATOM_DEF_STEREO_COUNT>
0

> <PUBCHEM_ATOM_UDEF_STEREO_COUNT>
0

> <PUBCHEM_BOND_DEF_STEREO_COUNT>
0

> <PUBCHEM_BOND_UDEF_STEREO_COUNT>
0

> <PUBCHEM_ISOTOPIC_ATOM_COUNT>
0

> <PUBCHEM_COMPONENT_COUNT>
1

> <PUBCHEM_CACTVS_TAUTO_COUNT>
3

> <PUBCHEM_CONFORMER_ID>
000019DF00000001

> <PUBCHEM_MMFF94_ENERGY>
64.1206

> <PUBCHEM_FEATURE_SELFOVERLAP>
25.372

> <PUBCHEM_SHAPE_FINGERPRINT>
10465860 228 18265052440146906875
10498660 4 17846494807956907777
10618630 7 8862950471944920352
11046707 91 8574440819802817220
11640471 11 18410569587104953028
12138202 97 17632297942700988494
12251169 10 15719115772587467277
12491281 212 18341893034625719138
12633257 1 15647059291015153984
12788726 201 18049710021441717058
12892183 10 15719384001885322888
13571099 52 18261397711031002503
13764800 53 18340221781019704851
14251764 38 17758668950351880149
14739800 52 17985806350554812304
15061688 2 18410575084673810317
15309172 13 17822005415182549066
15342168 16 18187090559068058613
15375462 189 9295287269996453078
15534591 1 18337673126062282338
15653759 3 15068339003624658237
15775835 57 18410853261110395364
15906896 17 18264490774389428130
16945 1 17917141818369727011
17357779 13 13899614313340361589
1741750 31 18337674225716062138
17804303 29 12829490320433961629
1813 80 17692251833473259110
18186145 218 18334012757179395950
19765921 60 18411697656461014379
19868273 293 17988923409424780430
20291156 8 9223230745321134917
20361792 2 9943803365827786299
204376 136 18186802491163379179
20645476 183 18339358668581405150
20671657 53 12751245791825749096
20871999 31 16988551447065141829
21499 59 18412825772344063143
21524375 3 18410855460138945163
21713013 43 13758065299356720749
21731228 192 17894352193594983955
23184049 59 17894627041684797236
23402539 116 17774993601125170188
23557571 272 16557885966252971863
23559900 14 17561366193283564332
298252 57 18202560691760254914
3472631 163 18202563986327517557
4028521 119 17846780714954732865
4340502 62 18114473262852369283
474 4 18336547123060049707
633830 44 18410010996606913815
7364860 26 17700693965181141591
83771 10 9223230749695054610
94968 8 10663806477749826557
9981440 41 18128808828214612290

> <PUBCHEM_SHAPE_MULTIPOLES>
338.11
7.28
2.04
1.32
0.26
0.87
0
-5.89
0
-0.06
0
0
0.27
-0.69

> <PUBCHEM_SHAPE_SELFOVERLAP>
731.212

> <PUBCHEM_SHAPE_VOLUME>
187.1

> <PUBCHEM_COORDINATE_TYPE>
2
5
10

> <Energy>
42.8498

> <minimizedAffinity>
-8.41466

> <CNNscore>
0.7531073689

> <CNNaffinity>
7.1658911705

> <CNN_VS>
5.3966856003

> <CNNaffinity_variance>
0.9453420639

$$$$
6623


 19 20  0  0  0  0  0  0  0  0999 V2000
   -1.4498   -2.2733   22.5112 C   0  0  0  0  0  0  0  0  0  0  0  0
   -1.6343   -0.7525   22.2534 C   0  0  0  0  0  0  0  0  0  0  0  0
   -0.3764   -2.7360   21.4887 C   0  0  0  0  0  0  0  0  0  0  0  0
   -6.2045   -5.3168   21.5530 O   0  0  0  0  0  0  0  0  0  0  0  0
   -2.7229   -3.1096   22.2368 C   0  0  0  0  0  0  0  0  0  0  0  0
   -3.9934   -2.5482   22.4891 C   0  0  0  0  0  0  0  0  0  0  0  0
   -2.6799   -4.4249   21.7431 C   0  0  0  0  0  0  0  0  0  0  0  0
   -5.1684   -3.2727   22.2682 C   0  0  0  0  0  0  0  0  0  0  0  0
   -3.8551   -5.1491   21.5169 C   0  0  0  0  0  0  0  0  0  0  0  0
   -5.0873   -4.5704   21.7831 C   0  0  0  0  0  0  0  0  0  0  0  0
   -7.0523   -4.9556   21.7224 H   0  0  0  0  0  0  0  0  0  0  0  0
    0.2795   -2.9045   27.9317 O   0  0  0  0  0  0  0  0  0  0  0  0
   -1.0058   -2.4231   23.9857 C   0  0  0  0  0  0  0  0  0  0  0  0
    0.3508   -2.2383   24.3288 C   0  0  0  0  0  0  0  0  0  0  0  0
   -1.8990   -2.7541   25.0202 C   0  0  0  0  0  0  0  0  0  0  0  0
    0.7986   -2.3960   25.6434 C   0  0  0  0  0  0  0  0  0  0  0  0
   -1.4529   -2.9066   26.3360 C   0  0  0  0  0  0  0  0  0  0  0  0
   -0.1102   -2.7330   26.6367 C   0  0  0  0  0  0  0  0  0  0  0  0
    1.1793   -2.7947   28.1686 H   0  0  0  0  0  0  0  0  0  0  0  0
  4 10  1  0
  4 11  1  0
 12 18  1  0
 12 19  1  0
  1  5  1  0
  1 13  1  0
  1  2  1  0
  1  3  1  0
  5  6  2  0
  5  7  1  0
 13 14  2  0
 13 15  1  0
  6  8  1  0
 14 16  1  0
  7  9  2  0
 15 17  2  0
  8 10  2  0
 16 18  2  0
  9 10  1  0
 17 18  1  0
M  END
> <PUBCHEM_COMPOUND_CID>
6623

> <PUBCHEM_CONFORMER_RMSD>
0.6

> <PUBCHEM_CONFORMER_DIVERSEORDER>
1
3
2

> <PUBCHEM_MMFF94_PARTIAL_CHARGES>
25
1 -0.53
10 -0.15
11 -0.15
12 -0.15
13 -0.15
14 -0.15
15 -0.15
16 0.08
17 0.08
2 -0.53
24 0.15
25 0.15
26 0.15
27 0.15
28 0.15
29 0.15
3 0.29
30 0.15
31 0.15
32 0.45
33 0.45
4 -0.14
5 -0.14
8 -0.15
9 -0.15

> <PUBCHEM_EFFECTIVE_ROTOR_COUNT>
2

> <PUBCHEM_PHARMACOPHORE_FEATURES>
5
1 1 donor
1 2 donor
3 3 6 7 hydrophobe
6 4 8 10 12 14 16 rings
6 5 9 11 13 15 17 rings

> <PUBCHEM_HEAVY_ATOM_COUNT>
17

> <PUBCHEM_ATOM_DEF_STEREO_COUNT>
0

> <PUBCHEM_ATOM_UDEF_STEREO_COUNT>
0

> <PUBCHEM_BOND_DEF_STEREO_COUNT>
0

> <PUBCHEM_BOND_UDEF_STEREO_COUNT>
0

> <PUBCHEM_ISOTOPIC_ATOM_COUNT>
0

> <PUBCHEM_COMPONENT_COUNT>
1

> <PUBCHEM_CACTVS_TAUTO_COUNT>
3

> <PUBCHEM_CONFORMER_ID>
000019DF00000001

> <PUBCHEM_MMFF94_ENERGY>
64.1206

> <PUBCHEM_FEATURE_SELFOVERLAP>
25.372

> <PUBCHEM_SHAPE_FINGERPRINT>
10465860 228 18265052440146906875
10498660 4 17846494807956907777
10618630 7 8862950471944920352
11046707 91 8574440819802817220
11640471 11 18410569587104953028
12138202 97 17632297942700988494
12251169 10 15719115772587467277
12491281 212 18341893034625719138
12633257 1 15647059291015153984
12788726 201 18049710021441717058
12892183 10 15719384001885322888
13571099 52 18261397711031002503
13764800 53 18340221781019704851
14251764 38 17758668950351880149
14739800 52 17985806350554812304
15061688 2 18410575084673810317
15309172 13 17822005415182549066
15342168 16 18187090559068058613
15375462 189 9295287269996453078
15534591 1 18337673126062282338
15653759 3 15068339003624658237
15775835 57 18410853261110395364
15906896 17 18264490774389428130
16945 1 17917141818369727011
17357779 13 13899614313340361589
1741750 31 18337674225716062138
17804303 29 12829490320433961629
1813 80 17692251833473259110
18186145 218 18334012757179395950
19765921 60 18411697656461014379
19868273 293 17988923409424780430
20291156 8 9223230745321134917
20361792 2 9943803365827786299
204376 136 18186802491163379179
20645476 183 18339358668581405150
20671657 53 12751245791825749096
20871999 31 16988551447065141829
21499 59 18412825772344063143
21524375 3 18410855460138945163
21713013 43 13758065299356720749
21731228 192 17894352193594983955
23184049 59 17894627041684797236
23402539 116 17774993601125170188
23557571 272 16557885966252971863
23559900 14 17561366193283564332
298252 57 18202560691760254914
3472631 163 18202563986327517557
4028521 119 17846780714954732865
4340502 62 18114473262852369283
474 4 18336547123060049707
633830 44 18410010996606913815
7364860 26 17700693965181141591
83771 10 9223230749695054610
94968 8 10663806477749826557
9981440 41 18128808828214612290

> <PUBCHEM_SHAPE_MULTIPOLES>
338.11
7.28
2.04
1.32
0.26
0.87
0
-5.89
0
-0.06
0
0
0.27
-0.69

> <PUBCHEM_SHAPE_SELFOVERLAP>
731.212

> <PUBCHEM_SHAPE_VOLUME>
187.1

> <PUBCHEM_COORDINATE_TYPE>
2
5
10

> <Energy>
42.8498

> <minimizedAffinity>
-6.42881

> <CNNscore>
0.7388017774

> <CNNaffinity>
7.3061366081

> <CNN_VS>
5.3977866173

> <CNNaffinity_variance>
1.3879247904

$$$$
