2519


 14 15  0  0  0  0  0  0  0  0999 V2000
   -6.5324   -6.2084   18.8499 O   0  0  0  0  0  0  0  0  0  0  0  0
   -9.4362   -4.6246   22.0894 O   0  0  0  0  0  0  0  0  0  0  0  0
   -7.1775   -4.3258   22.4277 N   0  0  0  0  0  0  0  0  0  0  0  0
   -4.3370   -5.1630   20.5904 N   0  0  0  0  0  0  0  0  0  0  0  0
   -8.0088   -5.4209   20.4642 N   0  0  0  0  0  0  0  0  0  0  0  0
   -4.7447   -4.1461   22.5264 N   0  0  0  0  0  0  0  0  0  0  0  0
   -5.6937   -5.1513   20.7429 C   0  0  0  0  0  0  0  0  0  0  0  0
   -5.9100   -4.5253   21.9324 C   0  0  0  0  0  0  0  0  0  0  0  0
   -6.7404   -5.6462   19.9207 C   0  0  0  0  0  0  0  0  0  0  0  0
   -8.2767   -4.7770   21.6924 C   0  0  0  0  0  0  0  0  0  0  0  0
   -3.8054   -4.5453   21.6916 C   0  0  0  0  0  0  0  0  0  0  0  0
   -7.3612   -3.6525   23.7016 C   0  0  0  0  0  0  0  0  0  0  0  0
   -3.5968   -5.7168   19.4855 C   0  0  0  0  0  0  0  0  0  0  0  0
   -9.1592   -5.8829   19.7116 C   0  0  0  0  0  0  0  0  0  0  0  0
  1  9  2  0
  2 10  2  0
  3  8  1  0
  3 10  1  0
  3 12  1  0
  4  7  1  0
  4 11  1  0
  4 13  1  0
  5  9  1  0
  5 10  1  0
  5 14  1  0
  6  8  1  0
  6 11  2  0
  7  8  2  0
  7  9  1  0
M  END
> <PUBCHEM_COMPOUND_CID>
2519

> <PUBCHEM_CONFORMER_RMSD>
0.4

> <PUBCHEM_CONFORMER_DIVERSEORDER>
1

> <PUBCHEM_MMFF94_PARTIAL_CHARGES>
15
1 -0.57
10 0.69
11 0.04
12 0.3
13 0.26
14 0.3
15 0.15
2 -0.57
3 -0.42
4 0.05
5 -0.42
6 -0.57
7 -0.24
8 0.29
9 0.71

> <PUBCHEM_EFFECTIVE_ROTOR_COUNT>
0

> <PUBCHEM_PHARMACOPHORE_FEATURES>
5
1 1 acceptor
1 2 acceptor
3 4 6 11 cation
5 4 6 7 8 11 rings
6 3 5 7 8 9 10 rings

> <PUBCHEM_HEAVY_ATOM_COUNT>
14

> <PUBCHEM_ATOM_DEF_STEREO_COUNT>
0

> <PUBCHEM_ATOM_UDEF_STEREO_COUNT>
0

> <PUBCHEM_BOND_DEF_STEREO_COUNT>
0

> <PUBCHEM_BOND_UDEF_STEREO_COUNT>
0

> <PUBCHEM_ISOTOPIC_ATOM_COUNT>
0

> <PUBCHEM_COMPONENT_COUNT>
1

> <PUBCHEM_CACTVS_TAUTO_COUNT>
1

> <PUBCHEM_CONFORMER_ID>
000009D700000001

> <PUBCHEM_MMFF94_ENERGY>
22.901

> <PUBCHEM_FEATURE_SELFOVERLAP>
25.487

> <PUBCHEM_SHAPE_FINGERPRINT>
10967382 1 18338799025773621285
11132069 177 18339075025094499008
12524768 44 18342463625094026902
13140716 1 17978511158789908153
16945 1 18338517550775811621
193761 8 15816500986559935910
20588541 1 18339082691204868851
21501502 16 18338796715286957384
22802520 49 18128840606503503494
2334 1 18338516344016692929
23402539 116 18270382932679789735
23552423 10 18262240993325675966
23559900 14 18199193898169584358
241688 4 18266458702623303353
2748010 2 18266180539182415717
5084963 1 17698433339235542986
528886 8 18267580380709240570
53812653 166 18198902694142226312
66348 1 18339079396917369615

> <PUBCHEM_SHAPE_MULTIPOLES>
256.45
4.01
2.83
0.58
0.71
0.08
0
-0.48
0
-0.81
0
0.01
0
0

> <PUBCHEM_SHAPE_SELFOVERLAP>
550.88

> <PUBCHEM_SHAPE_VOLUME>
143.9

> <PUBCHEM_COORDINATE_TYPE>
2
5
10

> <Energy>
-122.511

> <minimizedAffinity>
-5.65277

> <CNNscore>
0.7292115688

> <CNNaffinity>
5.3872084618

> <CNN_VS>
3.9284148216

> <CNNaffinity_variance>
0.0312895812

$$$$
2519


 14 15  0  0  0  0  0  0  0  0999 V2000
   -5.0182   -4.1480   23.2792 O   0  0  0  0  0  0  0  0  0  0  0  0
   -9.3761   -4.7529   21.8377 O   0  0  0  0  0  0  0  0  0  0  0  0
   -7.6758   -5.2254   20.3574 N   0  0  0  0  0  0  0  0  0  0  0  0
   -4.1999   -5.0721   20.5555 N   0  0  0  0  0  0  0  0  0  0  0  0
   -7.2145   -4.4445   22.5762 N   0  0  0  0  0  0  0  0  0  0  0  0
   -5.6875   -5.6470   19.0047 N   0  0  0  0  0  0  0  0  0  0  0  0
   -5.4315   -4.9062   21.1208 C   0  0  0  0  0  0  0  0  0  0  0  0
   -6.3167   -5.2644   20.1504 C   0  0  0  0  0  0  0  0  0  0  0  0
   -5.8261   -4.4676   22.4125 C   0  0  0  0  0  0  0  0  0  0  0  0
   -8.1658   -4.8071   21.5972 C   0  0  0  0  0  0  0  0  0  0  0  0
   -4.4036   -5.5206   19.2772 C   0  0  0  0  0  0  0  0  0  0  0  0
   -8.5836   -5.6170   19.2931 C   0  0  0  0  0  0  0  0  0  0  0  0
   -2.9239   -4.8253   21.1771 C   0  0  0  0  0  0  0  0  0  0  0  0
   -7.7376   -4.0134   23.8582 C   0  0  0  0  0  0  0  0  0  0  0  0
  1  9  2  0
  2 10  2  0
  3  8  1  0
  3 10  1  0
  3 12  1  0
  4  7  1  0
  4 11  1  0
  4 13  1  0
  5  9  1  0
  5 10  1  0
  5 14  1  0
  6  8  1  0
  6 11  2  0
  7  8  2  0
  7  9  1  0
M  END
> <PUBCHEM_COMPOUND_CID>
2519

> <PUBCHEM_CONFORMER_RMSD>
0.4

> <PUBCHEM_CONFORMER_DIVERSEORDER>
1

> <PUBCHEM_MMFF94_PARTIAL_CHARGES>
15
1 -0.57
10 0.69
11 0.04
12 0.3
13 0.26
14 0.3
15 0.15
2 -0.57
3 -0.42
4 0.05
5 -0.42
6 -0.57
7 -0.24
8 0.29
9 0.71

> <PUBCHEM_EFFECTIVE_ROTOR_COUNT>
0

> <PUBCHEM_PHARMACOPHORE_FEATURES>
5
1 1 acceptor
1 2 acceptor
3 4 6 11 cation
5 4 6 7 8 11 rings
6 3 5 7 8 9 10 rings

> <PUBCHEM_HEAVY_ATOM_COUNT>
14

> <PUBCHEM_ATOM_DEF_STEREO_COUNT>
0

> <PUBCHEM_ATOM_UDEF_STEREO_COUNT>
0

> <PUBCHEM_BOND_DEF_STEREO_COUNT>
0

> <PUBCHEM_BOND_UDEF_STEREO_COUNT>
0

> <PUBCHEM_ISOTOPIC_ATOM_COUNT>
0

> <PUBCHEM_COMPONENT_COUNT>
1

> <PUBCHEM_CACTVS_TAUTO_COUNT>
1

> <PUBCHEM_CONFORMER_ID>
000009D700000001

> <PUBCHEM_MMFF94_ENERGY>
22.901

> <PUBCHEM_FEATURE_SELFOVERLAP>
25.487

> <PUBCHEM_SHAPE_FINGERPRINT>
10967382 1 18338799025773621285
11132069 177 18339075025094499008
12524768 44 18342463625094026902
13140716 1 17978511158789908153
16945 1 18338517550775811621
193761 8 15816500986559935910
20588541 1 18339082691204868851
21501502 16 18338796715286957384
22802520 49 18128840606503503494
2334 1 18338516344016692929
23402539 116 18270382932679789735
23552423 10 18262240993325675966
23559900 14 18199193898169584358
241688 4 18266458702623303353
2748010 2 18266180539182415717
5084963 1 17698433339235542986
528886 8 18267580380709240570
53812653 166 18198902694142226312
66348 1 18339079396917369615

> <PUBCHEM_SHAPE_MULTIPOLES>
256.45
4.01
2.83
0.58
0.71
0.08
0
-0.48
0
-0.81
0
0.01
0
0

> <PUBCHEM_SHAPE_SELFOVERLAP>
550.88

> <PUBCHEM_SHAPE_VOLUME>
143.9

> <PUBCHEM_COORDINATE_TYPE>
2
5
10

> <Energy>
-122.511

> <minimizedAffinity>
-5.75595

> <CNNscore>
0.7181841135

> <CNNaffinity>
5.3683400154

> <CNN_VS>
3.8554565907

> <CNNaffinity_variance>
0.1653959602

$$$$
2519


 14 15  0  0  0  0  0  0  0  0999 V2000
   -5.7836   -3.7629   23.4955 O   0  0  0  0  0  0  0  0  0  0  0  0
   -9.2602   -6.2975   21.7854 O   0  0  0  0  0  0  0  0  0  0  0  0
   -7.1199   -6.8017   21.0995 N   0  0  0  0  0  0  0  0  0  0  0  0
   -3.9819   -5.4748   21.8326 N   0  0  0  0  0  0  0  0  0  0  0  0
   -7.5448   -5.0230   22.6491 N   0  0  0  0  0  0  0  0  0  0  0  0
   -4.7622   -7.1149   20.5481 N   0  0  0  0  0  0  0  0  0  0  0  0
   -5.3376   -5.4807   21.9939 C   0  0  0  0  0  0  0  0  0  0  0  0
   -5.7837   -6.4911   21.1978 C   0  0  0  0  0  0  0  0  0  0  0  0
   -6.1982   -4.6706   22.7811 C   0  0  0  0  0  0  0  0  0  0  0  0
   -8.0488   -6.0619   21.8358 C   0  0  0  0  0  0  0  0  0  0  0  0
   -3.6798   -6.4787   20.9506 C   0  0  0  0  0  0  0  0  0  0  0  0
   -7.5508   -7.8886   20.2375 C   0  0  0  0  0  0  0  0  0  0  0  0
   -3.0406   -4.5865   22.4652 C   0  0  0  0  0  0  0  0  0  0  0  0
   -8.5203   -4.2645   23.4081 C   0  0  0  0  0  0  0  0  0  0  0  0
  1  9  2  0
  2 10  2  0
  3  8  1  0
  3 10  1  0
  3 12  1  0
  4  7  1  0
  4 11  1  0
  4 13  1  0
  5  9  1  0
  5 10  1  0
  5 14  1  0
  6  8  1  0
  6 11  2  0
  7  8  2  0
  7  9  1  0
M  END
> <PUBCHEM_COMPOUND_CID>
2519

> <PUBCHEM_CONFORMER_RMSD>
0.4

> <PUBCHEM_CONFORMER_DIVERSEORDER>
1

> <PUBCHEM_MMFF94_PARTIAL_CHARGES>
15
1 -0.57
10 0.69
11 0.04
12 0.3
13 0.26
14 0.3
15 0.15
2 -0.57
3 -0.42
4 0.05
5 -0.42
6 -0.57
7 -0.24
8 0.29
9 0.71

> <PUBCHEM_EFFECTIVE_ROTOR_COUNT>
0

> <PUBCHEM_PHARMACOPHORE_FEATURES>
5
1 1 acceptor
1 2 acceptor
3 4 6 11 cation
5 4 6 7 8 11 rings
6 3 5 7 8 9 10 rings

> <PUBCHEM_HEAVY_ATOM_COUNT>
14

> <PUBCHEM_ATOM_DEF_STEREO_COUNT>
0

> <PUBCHEM_ATOM_UDEF_STEREO_COUNT>
0

> <PUBCHEM_BOND_DEF_STEREO_COUNT>
0

> <PUBCHEM_BOND_UDEF_STEREO_COUNT>
0

> <PUBCHEM_ISOTOPIC_ATOM_COUNT>
0

> <PUBCHEM_COMPONENT_COUNT>
1

> <PUBCHEM_CACTVS_TAUTO_COUNT>
1

> <PUBCHEM_CONFORMER_ID>
000009D700000001

> <PUBCHEM_MMFF94_ENERGY>
22.901

> <PUBCHEM_FEATURE_SELFOVERLAP>
25.487

> <PUBCHEM_SHAPE_FINGERPRINT>
10967382 1 18338799025773621285
11132069 177 18339075025094499008
12524768 44 18342463625094026902
13140716 1 17978511158789908153
16945 1 18338517550775811621
193761 8 15816500986559935910
20588541 1 18339082691204868851
21501502 16 18338796715286957384
22802520 49 18128840606503503494
2334 1 18338516344016692929
23402539 116 18270382932679789735
23552423 10 18262240993325675966
23559900 14 18199193898169584358
241688 4 18266458702623303353
2748010 2 18266180539182415717
5084963 1 17698433339235542986
528886 8 18267580380709240570
53812653 166 18198902694142226312
66348 1 18339079396917369615

> <PUBCHEM_SHAPE_MULTIPOLES>
256.45
4.01
2.83
0.58
0.71
0.08
0
-0.48
0
-0.81
0
0.01
0
0

> <PUBCHEM_SHAPE_SELFOVERLAP>
550.88

> <PUBCHEM_SHAPE_VOLUME>
143.9

> <PUBCHEM_COORDINATE_TYPE>
2
5
10

> <Energy>
-122.511

> <minimizedAffinity>
-5.59770

> <CNNscore>
0.5444292426

> <CNNaffinity>
4.9670963287

> <CNN_VS>
2.7042324543

> <CNNaffinity_variance>
0.2633219659

$$$$
2519


 14 15  0  0  0  0  0  0  0  0999 V2000
   -4.3515   -3.7694   23.3899 O   0  0  0  0  0  0  0  0  0  0  0  0
   -8.2994   -4.6319   21.1304 O   0  0  0  0  0  0  0  0  0  0  0  0
   -6.3539   -5.5251   20.2804 N   0  0  0  0  0  0  0  0  0  0  0  0
   -3.0160   -5.4089   21.2757 N   0  0  0  0  0  0  0  0  0  0  0  0
   -6.3458   -4.1898   22.2710 N   0  0  0  0  0  0  0  0  0  0  0  0
   -4.1538   -6.3419   19.6072 N   0  0  0  0  0  0  0  0  0  0  0  0
   -4.3248   -5.0678   21.4617 C   0  0  0  0  0  0  0  0  0  0  0  0
   -4.9923   -5.6512   20.4285 C   0  0  0  0  0  0  0  0  0  0  0  0
   -4.9645   -4.2897   22.4628 C   0  0  0  0  0  0  0  0  0  0  0  0
   -7.0759   -4.7780   21.2147 C   0  0  0  0  0  0  0  0  0  0  0  0
   -2.9604   -6.1784   20.1436 C   0  0  0  0  0  0  0  0  0  0  0  0
   -7.0246   -6.1652   19.1622 C   0  0  0  0  0  0  0  0  0  0  0  0
   -1.8997   -5.0358   22.1062 C   0  0  0  0  0  0  0  0  0  0  0  0
   -7.1085   -3.4183   23.2335 C   0  0  0  0  0  0  0  0  0  0  0  0
  1  9  2  0
  2 10  2  0
  3  8  1  0
  3 10  1  0
  3 12  1  0
  4  7  1  0
  4 11  1  0
  4 13  1  0
  5  9  1  0
  5 10  1  0
  5 14  1  0
  6  8  1  0
  6 11  2  0
  7  8  2  0
  7  9  1  0
M  END
> <PUBCHEM_COMPOUND_CID>
2519

> <PUBCHEM_CONFORMER_RMSD>
0.4

> <PUBCHEM_CONFORMER_DIVERSEORDER>
1

> <PUBCHEM_MMFF94_PARTIAL_CHARGES>
15
1 -0.57
10 0.69
11 0.04
12 0.3
13 0.26
14 0.3
15 0.15
2 -0.57
3 -0.42
4 0.05
5 -0.42
6 -0.57
7 -0.24
8 0.29
9 0.71

> <PUBCHEM_EFFECTIVE_ROTOR_COUNT>
0

> <PUBCHEM_PHARMACOPHORE_FEATURES>
5
1 1 acceptor
1 2 acceptor
3 4 6 11 cation
5 4 6 7 8 11 rings
6 3 5 7 8 9 10 rings

> <PUBCHEM_HEAVY_ATOM_COUNT>
14

> <PUBCHEM_ATOM_DEF_STEREO_COUNT>
0

> <PUBCHEM_ATOM_UDEF_STEREO_COUNT>
0

> <PUBCHEM_BOND_DEF_STEREO_COUNT>
0

> <PUBCHEM_BOND_UDEF_STEREO_COUNT>
0

> <PUBCHEM_ISOTOPIC_ATOM_COUNT>
0

> <PUBCHEM_COMPONENT_COUNT>
1

> <PUBCHEM_CACTVS_TAUTO_COUNT>
1

> <PUBCHEM_CONFORMER_ID>
000009D700000001

> <PUBCHEM_MMFF94_ENERGY>
22.901

> <PUBCHEM_FEATURE_SELFOVERLAP>
25.487

> <PUBCHEM_SHAPE_FINGERPRINT>
10967382 1 18338799025773621285
11132069 177 18339075025094499008
12524768 44 18342463625094026902
13140716 1 17978511158789908153
16945 1 18338517550775811621
193761 8 15816500986559935910
20588541 1 18339082691204868851
21501502 16 18338796715286957384
22802520 49 18128840606503503494
2334 1 18338516344016692929
23402539 116 18270382932679789735
23552423 10 18262240993325675966
23559900 14 18199193898169584358
241688 4 18266458702623303353
2748010 2 18266180539182415717
5084963 1 17698433339235542986
528886 8 18267580380709240570
53812653 166 18198902694142226312
66348 1 18339079396917369615

> <PUBCHEM_SHAPE_MULTIPOLES>
256.45
4.01
2.83
0.58
0.71
0.08
0
-0.48
0
-0.81
0
0.01
0
0

> <PUBCHEM_SHAPE_SELFOVERLAP>
550.88

> <PUBCHEM_SHAPE_VOLUME>
143.9

> <PUBCHEM_COORDINATE_TYPE>
2
5
10

> <Energy>
-122.511

> <minimizedAffinity>
-5.61987

> <CNNscore>
0.5133584738

> <CNNaffinity>
5.2119417191

> <CNN_VS>
2.6755943298

> <CNNaffinity_variance>
0.1694798023

$$$$
2519


 14 15  0  0  0  0  0  0  0  0999 V2000
   -4.4633   -7.1294   20.5844 O   0  0  0  0  0  0  0  0  0  0  0  0
   -8.9155   -6.3884   21.6159 O   0  0  0  0  0  0  0  0  0  0  0  0
   -7.3451   -4.9855   22.5491 N   0  0  0  0  0  0  0  0  0  0  0  0
   -3.8714   -4.7891   22.3493 N   0  0  0  0  0  0  0  0  0  0  0  0
   -6.7052   -6.7756   21.0890 N   0  0  0  0  0  0  0  0  0  0  0  0
   -5.4777   -3.6582   23.3930 N   0  0  0  0  0  0  0  0  0  0  0  0
   -5.0504   -5.3849   22.0044 C   0  0  0  0  0  0  0  0  0  0  0  0
   -6.0101   -4.6729   22.6569 C   0  0  0  0  0  0  0  0  0  0  0  0
   -5.3376   -6.4959   21.1679 C   0  0  0  0  0  0  0  0  0  0  0  0
   -7.7313   -6.0635   21.7485 C   0  0  0  0  0  0  0  0  0  0  0  0
   -4.1783   -3.7512   23.1892 C   0  0  0  0  0  0  0  0  0  0  0  0
   -8.3348   -4.1978   23.2632 C   0  0  0  0  0  0  0  0  0  0  0  0
   -2.5515   -5.1717   21.9171 C   0  0  0  0  0  0  0  0  0  0  0  0
   -7.1211   -7.8911   20.2609 C   0  0  0  0  0  0  0  0  0  0  0  0
  1  9  2  0
  2 10  2  0
  3  8  1  0
  3 10  1  0
  3 12  1  0
  4  7  1  0
  4 11  1  0
  4 13  1  0
  5  9  1  0
  5 10  1  0
  5 14  1  0
  6  8  1  0
  6 11  2  0
  7  8  2  0
  7  9  1  0
M  END
> <PUBCHEM_COMPOUND_CID>
2519

> <PUBCHEM_CONFORMER_RMSD>
0.4

> <PUBCHEM_CONFORMER_DIVERSEORDER>
1

> <PUBCHEM_MMFF94_PARTIAL_CHARGES>
15
1 -0.57
10 0.69
11 0.04
12 0.3
13 0.26
14 0.3
15 0.15
2 -0.57
3 -0.42
4 0.05
5 -0.42
6 -0.57
7 -0.24
8 0.29
9 0.71

> <PUBCHEM_EFFECTIVE_ROTOR_COUNT>
0

> <PUBCHEM_PHARMACOPHORE_FEATURES>
5
1 1 acceptor
1 2 acceptor
3 4 6 11 cation
5 4 6 7 8 11 rings
6 3 5 7 8 9 10 rings

> <PUBCHEM_HEAVY_ATOM_COUNT>
14

> <PUBCHEM_ATOM_DEF_STEREO_COUNT>
0

> <PUBCHEM_ATOM_UDEF_STEREO_COUNT>
0

> <PUBCHEM_BOND_DEF_STEREO_COUNT>
0

> <PUBCHEM_BOND_UDEF_STEREO_COUNT>
0

> <PUBCHEM_ISOTOPIC_ATOM_COUNT>
0

> <PUBCHEM_COMPONENT_COUNT>
1

> <PUBCHEM_CACTVS_TAUTO_COUNT>
1

> <PUBCHEM_CONFORMER_ID>
000009D700000001

> <PUBCHEM_MMFF94_ENERGY>
22.901

> <PUBCHEM_FEATURE_SELFOVERLAP>
25.487

> <PUBCHEM_SHAPE_FINGERPRINT>
10967382 1 18338799025773621285
11132069 177 18339075025094499008
12524768 44 18342463625094026902
13140716 1 17978511158789908153
16945 1 18338517550775811621
193761 8 15816500986559935910
20588541 1 18339082691204868851
21501502 16 18338796715286957384
22802520 49 18128840606503503494
2334 1 18338516344016692929
23402539 116 18270382932679789735
23552423 10 18262240993325675966
23559900 14 18199193898169584358
241688 4 18266458702623303353
2748010 2 18266180539182415717
5084963 1 17698433339235542986
528886 8 18267580380709240570
53812653 166 18198902694142226312
66348 1 18339079396917369615

> <PUBCHEM_SHAPE_MULTIPOLES>
256.45
4.01
2.83
0.58
0.71
0.08
0
-0.48
0
-0.81
0
0.01
0
0

> <PUBCHEM_SHAPE_SELFOVERLAP>
550.88

> <PUBCHEM_SHAPE_VOLUME>
143.9

> <PUBCHEM_COORDINATE_TYPE>
2
5
10

> <Energy>
-122.511

> <minimizedAffinity>
-5.73064

> <CNNscore>
0.4848684669

> <CNNaffinity>
4.7485680580

> <CNN_VS>
2.3024308681

> <CNNaffinity_variance>
0.3398993015

$$$$
2519


 14 15  0  0  0  0  0  0  0  0999 V2000
   -4.1498   -7.0639   20.5066 O   0  0  0  0  0  0  0  0  0  0  0  0
   -4.4991   -2.9563   22.6140 O   0  0  0  0  0  0  0  0  0  0  0  0
   -6.3510   -4.3260   22.6088 N   0  0  0  0  0  0  0  0  0  0  0  0
   -6.9986   -7.4934   21.3075 N   0  0  0  0  0  0  0  0  0  0  0  0
   -4.3030   -4.9964   21.5591 N   0  0  0  0  0  0  0  0  0  0  0  0
   -8.1484   -5.9708   22.4515 N   0  0  0  0  0  0  0  0  0  0  0  0
   -6.1507   -6.4436   21.5146 C   0  0  0  0  0  0  0  0  0  0  0  0
   -6.8811   -5.5321   22.2140 C   0  0  0  0  0  0  0  0  0  0  0  0
   -4.7980   -6.2338   21.1366 C   0  0  0  0  0  0  0  0  0  0  0  0
   -5.0258   -4.0239   22.2849 C   0  0  0  0  0  0  0  0  0  0  0  0
   -8.1936   -7.1633   21.8906 C   0  0  0  0  0  0  0  0  0  0  0  0
   -7.1674   -3.3835   23.3539 C   0  0  0  0  0  0  0  0  0  0  0  0
   -6.7021   -8.7186   20.6102 C   0  0  0  0  0  0  0  0  0  0  0  0
   -2.9287   -4.6696   21.2310 C   0  0  0  0  0  0  0  0  0  0  0  0
  1  9  2  0
  2 10  2  0
  3  8  1  0
  3 10  1  0
  3 12  1  0
  4  7  1  0
  4 11  1  0
  4 13  1  0
  5  9  1  0
  5 10  1  0
  5 14  1  0
  6  8  1  0
  6 11  2  0
  7  8  2  0
  7  9  1  0
M  END
> <PUBCHEM_COMPOUND_CID>
2519

> <PUBCHEM_CONFORMER_RMSD>
0.4

> <PUBCHEM_CONFORMER_DIVERSEORDER>
1

> <PUBCHEM_MMFF94_PARTIAL_CHARGES>
15
1 -0.57
10 0.69
11 0.04
12 0.3
13 0.26
14 0.3
15 0.15
2 -0.57
3 -0.42
4 0.05
5 -0.42
6 -0.57
7 -0.24
8 0.29
9 0.71

> <PUBCHEM_EFFECTIVE_ROTOR_COUNT>
0

> <PUBCHEM_PHARMACOPHORE_FEATURES>
5
1 1 acceptor
1 2 acceptor
3 4 6 11 cation
5 4 6 7 8 11 rings
6 3 5 7 8 9 10 rings

> <PUBCHEM_HEAVY_ATOM_COUNT>
14

> <PUBCHEM_ATOM_DEF_STEREO_COUNT>
0

> <PUBCHEM_ATOM_UDEF_STEREO_COUNT>
0

> <PUBCHEM_BOND_DEF_STEREO_COUNT>
0

> <PUBCHEM_BOND_UDEF_STEREO_COUNT>
0

> <PUBCHEM_ISOTOPIC_ATOM_COUNT>
0

> <PUBCHEM_COMPONENT_COUNT>
1

> <PUBCHEM_CACTVS_TAUTO_COUNT>
1

> <PUBCHEM_CONFORMER_ID>
000009D700000001

> <PUBCHEM_MMFF94_ENERGY>
22.901

> <PUBCHEM_FEATURE_SELFOVERLAP>
25.487

> <PUBCHEM_SHAPE_FINGERPRINT>
10967382 1 18338799025773621285
11132069 177 18339075025094499008
12524768 44 18342463625094026902
13140716 1 17978511158789908153
16945 1 18338517550775811621
193761 8 15816500986559935910
20588541 1 18339082691204868851
21501502 16 18338796715286957384
22802520 49 18128840606503503494
2334 1 18338516344016692929
23402539 116 18270382932679789735
23552423 10 18262240993325675966
23559900 14 18199193898169584358
241688 4 18266458702623303353
2748010 2 18266180539182415717
5084963 1 17698433339235542986
528886 8 18267580380709240570
53812653 166 18198902694142226312
66348 1 18339079396917369615

> <PUBCHEM_SHAPE_MULTIPOLES>
256.45
4.01
2.83
0.58
0.71
0.08
0
-0.48
0
-0.81
0
0.01
0
0

> <PUBCHEM_SHAPE_SELFOVERLAP>
550.88

> <PUBCHEM_SHAPE_VOLUME>
143.9

> <PUBCHEM_COORDINATE_TYPE>
2
5
10

> <Energy>
-122.511

> <minimizedAffinity>
-5.63411

> <CNNscore>
0.4818845987

> <CNNaffinity>
5.0334773064

> <CNN_VS>
2.4255552292

> <CNNaffinity_variance>
0.0014677196

$$$$
2519


 14 15  0  0  0  0  0  0  0  0999 V2000
   -8.6889   -4.9575   22.1542 O   0  0  0  0  0  0  0  0  0  0  0  0
   -4.5028   -3.7149   23.6932 O   0  0  0  0  0  0  0  0  0  0  0  0
   -4.6362   -4.7199   21.6249 N   0  0  0  0  0  0  0  0  0  0  0  0
   -7.2764   -5.9542   19.7142 N   0  0  0  0  0  0  0  0  0  0  0  0
   -6.5964   -4.3255   22.9468 N   0  0  0  0  0  0  0  0  0  0  0  0
   -5.0699   -5.7987   19.4781 N   0  0  0  0  0  0  0  0  0  0  0  0
   -6.8074   -5.3549   20.8477 C   0  0  0  0  0  0  0  0  0  0  0  0
   -5.4596   -5.2748   20.6733 C   0  0  0  0  0  0  0  0  0  0  0  0
   -7.4727   -4.8802   22.0091 C   0  0  0  0  0  0  0  0  0  0  0  0
   -5.1948   -4.2233   22.8054 C   0  0  0  0  0  0  0  0  0  0  0  0
   -6.1915   -6.2043   18.9159 C   0  0  0  0  0  0  0  0  0  0  0  0
   -3.2032   -4.6552   21.3961 C   0  0  0  0  0  0  0  0  0  0  0  0
   -8.6486   -6.2676   19.4073 C   0  0  0  0  0  0  0  0  0  0  0  0
   -7.1622   -3.8050   24.1765 C   0  0  0  0  0  0  0  0  0  0  0  0
  1  9  2  0
  2 10  2  0
  3  8  1  0
  3 10  1  0
  3 12  1  0
  4  7  1  0
  4 11  1  0
  4 13  1  0
  5  9  1  0
  5 10  1  0
  5 14  1  0
  6  8  1  0
  6 11  2  0
  7  8  2  0
  7  9  1  0
M  END
> <PUBCHEM_COMPOUND_CID>
2519

> <PUBCHEM_CONFORMER_RMSD>
0.4

> <PUBCHEM_CONFORMER_DIVERSEORDER>
1

> <PUBCHEM_MMFF94_PARTIAL_CHARGES>
15
1 -0.57
10 0.69
11 0.04
12 0.3
13 0.26
14 0.3
15 0.15
2 -0.57
3 -0.42
4 0.05
5 -0.42
6 -0.57
7 -0.24
8 0.29
9 0.71

> <PUBCHEM_EFFECTIVE_ROTOR_COUNT>
0

> <PUBCHEM_PHARMACOPHORE_FEATURES>
5
1 1 acceptor
1 2 acceptor
3 4 6 11 cation
5 4 6 7 8 11 rings
6 3 5 7 8 9 10 rings

> <PUBCHEM_HEAVY_ATOM_COUNT>
14

> <PUBCHEM_ATOM_DEF_STEREO_COUNT>
0

> <PUBCHEM_ATOM_UDEF_STEREO_COUNT>
0

> <PUBCHEM_BOND_DEF_STEREO_COUNT>
0

> <PUBCHEM_BOND_UDEF_STEREO_COUNT>
0

> <PUBCHEM_ISOTOPIC_ATOM_COUNT>
0

> <PUBCHEM_COMPONENT_COUNT>
1

> <PUBCHEM_CACTVS_TAUTO_COUNT>
1

> <PUBCHEM_CONFORMER_ID>
000009D700000001

> <PUBCHEM_MMFF94_ENERGY>
22.901

> <PUBCHEM_FEATURE_SELFOVERLAP>
25.487

> <PUBCHEM_SHAPE_FINGERPRINT>
10967382 1 18338799025773621285
11132069 177 18339075025094499008
12524768 44 18342463625094026902
13140716 1 17978511158789908153
16945 1 18338517550775811621
193761 8 15816500986559935910
20588541 1 18339082691204868851
21501502 16 18338796715286957384
22802520 49 18128840606503503494
2334 1 18338516344016692929
23402539 116 18270382932679789735
23552423 10 18262240993325675966
23559900 14 18199193898169584358
241688 4 18266458702623303353
2748010 2 18266180539182415717
5084963 1 17698433339235542986
528886 8 18267580380709240570
53812653 166 18198902694142226312
66348 1 18339079396917369615

> <PUBCHEM_SHAPE_MULTIPOLES>
256.45
4.01
2.83
0.58
0.71
0.08
0
-0.48
0
-0.81
0
0.01
0
0

> <PUBCHEM_SHAPE_SELFOVERLAP>
550.88

> <PUBCHEM_SHAPE_VOLUME>
143.9

> <PUBCHEM_COORDINATE_TYPE>
2
5
10

> <Energy>
-122.511

> <minimizedAffinity>
-4.66691

> <CNNscore>
0.4713803530

> <CNNaffinity>
5.0842313766

> <CNN_VS>
2.3966066837

> <CNNaffinity_variance>
0.0724365339

$$$$
2519


 14 15  0  0  0  0  0  0  0  0999 V2000
   -5.6777   -6.0106   18.8756 O   0  0  0  0  0  0  0  0  0  0  0  0
   -7.8553   -3.8201   22.3245 O   0  0  0  0  0  0  0  0  0  0  0  0
   -5.5653   -4.0293   22.4565 N   0  0  0  0  0  0  0  0  0  0  0  0
   -3.1576   -5.4768   20.3942 N   0  0  0  0  0  0  0  0  0  0  0  0
   -6.7918   -4.9142   20.5969 N   0  0  0  0  0  0  0  0  0  0  0  0
   -3.1541   -4.3934   22.3372 N   0  0  0  0  0  0  0  0  0  0  0  0
   -4.4587   -5.1645   20.6652 C   0  0  0  0  0  0  0  0  0  0  0  0
   -4.4232   -4.5052   21.8559 C   0  0  0  0  0  0  0  0  0  0  0  0
   -5.6588   -5.4155   19.9488 C   0  0  0  0  0  0  0  0  0  0  0  0
   -6.7988   -4.2261   21.8303 C   0  0  0  0  0  0  0  0  0  0  0  0
   -2.4055   -4.9915   21.4314 C   0  0  0  0  0  0  0  0  0  0  0  0
   -5.4800   -3.3311   23.7275 C   0  0  0  0  0  0  0  0  0  0  0  0
   -2.6608   -6.1816   19.2402 C   0  0  0  0  0  0  0  0  0  0  0  0
   -8.0789   -5.1102   19.9581 C   0  0  0  0  0  0  0  0  0  0  0  0
  1  9  2  0
  2 10  2  0
  3  8  1  0
  3 10  1  0
  3 12  1  0
  4  7  1  0
  4 11  1  0
  4 13  1  0
  5  9  1  0
  5 10  1  0
  5 14  1  0
  6  8  1  0
  6 11  2  0
  7  8  2  0
  7  9  1  0
M  END
> <PUBCHEM_COMPOUND_CID>
2519

> <PUBCHEM_CONFORMER_RMSD>
0.4

> <PUBCHEM_CONFORMER_DIVERSEORDER>
1

> <PUBCHEM_MMFF94_PARTIAL_CHARGES>
15
1 -0.57
10 0.69
11 0.04
12 0.3
13 0.26
14 0.3
15 0.15
2 -0.57
3 -0.42
4 0.05
5 -0.42
6 -0.57
7 -0.24
8 0.29
9 0.71

> <PUBCHEM_EFFECTIVE_ROTOR_COUNT>
0

> <PUBCHEM_PHARMACOPHORE_FEATURES>
5
1 1 acceptor
1 2 acceptor
3 4 6 11 cation
5 4 6 7 8 11 rings
6 3 5 7 8 9 10 rings

> <PUBCHEM_HEAVY_ATOM_COUNT>
14

> <PUBCHEM_ATOM_DEF_STEREO_COUNT>
0

> <PUBCHEM_ATOM_UDEF_STEREO_COUNT>
0

> <PUBCHEM_BOND_DEF_STEREO_COUNT>
0

> <PUBCHEM_BOND_UDEF_STEREO_COUNT>
0

> <PUBCHEM_ISOTOPIC_ATOM_COUNT>
0

> <PUBCHEM_COMPONENT_COUNT>
1

> <PUBCHEM_CACTVS_TAUTO_COUNT>
1

> <PUBCHEM_CONFORMER_ID>
000009D700000001

> <PUBCHEM_MMFF94_ENERGY>
22.901

> <PUBCHEM_FEATURE_SELFOVERLAP>
25.487

> <PUBCHEM_SHAPE_FINGERPRINT>
10967382 1 18338799025773621285
11132069 177 18339075025094499008
12524768 44 18342463625094026902
13140716 1 17978511158789908153
16945 1 18338517550775811621
193761 8 15816500986559935910
20588541 1 18339082691204868851
21501502 16 18338796715286957384
22802520 49 18128840606503503494
2334 1 18338516344016692929
23402539 116 18270382932679789735
23552423 10 18262240993325675966
23559900 14 18199193898169584358
241688 4 18266458702623303353
2748010 2 18266180539182415717
5084963 1 17698433339235542986
528886 8 18267580380709240570
53812653 166 18198902694142226312
66348 1 18339079396917369615

> <PUBCHEM_SHAPE_MULTIPOLES>
256.45
4.01
2.83
0.58
0.71
0.08
0
-0.48
0
-0.81
0
0.01
0
0

> <PUBCHEM_SHAPE_SELFOVERLAP>
550.88

> <PUBCHEM_SHAPE_VOLUME>
143.9

> <PUBCHEM_COORDINATE_TYPE>
2
5
10

> <Energy>
-122.511

> <minimizedAffinity>
-5.27747

> <CNNscore>
0.4510666728

> <CNNaffinity>
4.9713425636

> <CNN_VS>
2.2424068451

> <CNNaffinity_variance>
0.2914433777

$$$$
2519


 14 15  0  0  0  0  0  0  0  0999 V2000
   -8.5702   -6.7263   22.1657 O   0  0  0  0  0  0  0  0  0  0  0  0
   -6.3714   -2.9288   23.6419 O   0  0  0  0  0  0  0  0  0  0  0  0
   -5.1749   -4.4502   22.3933 N   0  0  0  0  0  0  0  0  0  0  0  0
   -5.9716   -7.4981   20.9033 N   0  0  0  0  0  0  0  0  0  0  0  0
   -7.4857   -4.8121   22.9176 N   0  0  0  0  0  0  0  0  0  0  0  0
   -4.1562   -6.2218   21.0575 N   0  0  0  0  0  0  0  0  0  0  0  0
   -6.3284   -6.4057   21.6403 C   0  0  0  0  0  0  0  0  0  0  0  0
   -5.2003   -5.6474   21.7168 C   0  0  0  0  0  0  0  0  0  0  0  0
   -7.5597   -6.0341   22.2423 C   0  0  0  0  0  0  0  0  0  0  0  0
   -6.3376   -3.9959   23.0210 C   0  0  0  0  0  0  0  0  0  0  0  0
   -4.6509   -7.3440   20.5733 C   0  0  0  0  0  0  0  0  0  0  0  0
   -3.9485   -3.6737   22.4486 C   0  0  0  0  0  0  0  0  0  0  0  0
   -6.8161   -8.6064   20.5372 C   0  0  0  0  0  0  0  0  0  0  0  0
   -8.6851   -4.3275   23.5731 C   0  0  0  0  0  0  0  0  0  0  0  0
  1  9  2  0
  2 10  2  0
  3  8  1  0
  3 10  1  0
  3 12  1  0
  4  7  1  0
  4 11  1  0
  4 13  1  0
  5  9  1  0
  5 10  1  0
  5 14  1  0
  6  8  1  0
  6 11  2  0
  7  8  2  0
  7  9  1  0
M  END
> <PUBCHEM_COMPOUND_CID>
2519

> <PUBCHEM_CONFORMER_RMSD>
0.4

> <PUBCHEM_CONFORMER_DIVERSEORDER>
1

> <PUBCHEM_MMFF94_PARTIAL_CHARGES>
15
1 -0.57
10 0.69
11 0.04
12 0.3
13 0.26
14 0.3
15 0.15
2 -0.57
3 -0.42
4 0.05
5 -0.42
6 -0.57
7 -0.24
8 0.29
9 0.71

> <PUBCHEM_EFFECTIVE_ROTOR_COUNT>
0

> <PUBCHEM_PHARMACOPHORE_FEATURES>
5
1 1 acceptor
1 2 acceptor
3 4 6 11 cation
5 4 6 7 8 11 rings
6 3 5 7 8 9 10 rings

> <PUBCHEM_HEAVY_ATOM_COUNT>
14

> <PUBCHEM_ATOM_DEF_STEREO_COUNT>
0

> <PUBCHEM_ATOM_UDEF_STEREO_COUNT>
0

> <PUBCHEM_BOND_DEF_STEREO_COUNT>
0

> <PUBCHEM_BOND_UDEF_STEREO_COUNT>
0

> <PUBCHEM_ISOTOPIC_ATOM_COUNT>
0

> <PUBCHEM_COMPONENT_COUNT>
1

> <PUBCHEM_CACTVS_TAUTO_COUNT>
1

> <PUBCHEM_CONFORMER_ID>
000009D700000001

> <PUBCHEM_MMFF94_ENERGY>
22.901

> <PUBCHEM_FEATURE_SELFOVERLAP>
25.487

> <PUBCHEM_SHAPE_FINGERPRINT>
10967382 1 18338799025773621285
11132069 177 18339075025094499008
12524768 44 18342463625094026902
13140716 1 17978511158789908153
16945 1 18338517550775811621
193761 8 15816500986559935910
20588541 1 18339082691204868851
21501502 16 18338796715286957384
22802520 49 18128840606503503494
2334 1 18338516344016692929
23402539 116 18270382932679789735
23552423 10 18262240993325675966
23559900 14 18199193898169584358
241688 4 18266458702623303353
2748010 2 18266180539182415717
5084963 1 17698433339235542986
528886 8 18267580380709240570
53812653 166 18198902694142226312
66348 1 18339079396917369615

> <PUBCHEM_SHAPE_MULTIPOLES>
256.45
4.01
2.83
0.58
0.71
0.08
0
-0.48
0
-0.81
0
0.01
0
0

> <PUBCHEM_SHAPE_SELFOVERLAP>
550.88

> <PUBCHEM_SHAPE_VOLUME>
143.9

> <PUBCHEM_COORDINATE_TYPE>
2
5
10

> <Energy>
-122.511

> <minimizedAffinity>
-5.29984

> <CNNscore>
0.4046366811

> <CNNaffinity>
4.9969906807

> <CNN_VS>
2.0219657421

> <CNNaffinity_variance>
0.0199951176

$$$$
