6623


 19 20  0  0  0  0  0  0  0  0999 V2000
    9.1939   46.6993  131.4788 C   0  0  0  0  0  0  0  0  0  0  0  0
   10.5055   47.1904  132.1509 C   0  0  0  0  0  0  0  0  0  0  0  0
    8.3388   46.1061  132.6316 C   0  0  0  0  0  0  0  0  0  0  0  0
    9.9549   42.4440  127.7235 O   0  0  0  0  0  0  0  0  0  0  0  0
    9.4100   45.5644  130.4488 C   0  0  0  0  0  0  0  0  0  0  0  0
    8.5957   44.4124  130.4999 C   0  0  0  0  0  0  0  0  0  0  0  0
   10.3950   45.6202  129.4478 C   0  0  0  0  0  0  0  0  0  0  0  0
    8.7653   43.3580  129.5977 C   0  0  0  0  0  0  0  0  0  0  0  0
   10.5624   44.5680  128.5413 C   0  0  0  0  0  0  0  0  0  0  0  0
    9.7506   43.4464  128.6245 C   0  0  0  0  0  0  0  0  0  0  0  0
    9.4237   41.6728  127.7523 H   0  0  0  0  0  0  0  0  0  0  0  0
    6.8614   51.2318  128.8736 O   0  0  0  0  0  0  0  0  0  0  0  0
    8.5515   47.9341  130.8034 C   0  0  0  0  0  0  0  0  0  0  0  0
    7.7353   47.7618  129.6648 C   0  0  0  0  0  0  0  0  0  0  0  0
    8.7537   49.2467  131.2660 C   0  0  0  0  0  0  0  0  0  0  0  0
    7.1625   48.8535  129.0061 C   0  0  0  0  0  0  0  0  0  0  0  0
    8.1767   50.3384  130.6112 C   0  0  0  0  0  0  0  0  0  0  0  0
    7.3924   50.1354  129.4855 C   0  0  0  0  0  0  0  0  0  0  0  0
    6.3268   51.1296  128.1109 H   0  0  0  0  0  0  0  0  0  0  0  0
  4 10  1  0
  4 11  1  0
 12 18  1  0
 12 19  1  0
  1  5  1  0
  1 13  1  0
  1  2  1  0
  1  3  1  0
  5  6  2  0
  5  7  1  0
 13 14  2  0
 13 15  1  0
  6  8  1  0
 14 16  1  0
  7  9  2  0
 15 17  2  0
  8 10  2  0
 16 18  2  0
  9 10  1  0
 17 18  1  0
M  END
> <PUBCHEM_COMPOUND_CID>
6623

> <PUBCHEM_CONFORMER_RMSD>
0.6

> <PUBCHEM_CONFORMER_DIVERSEORDER>
1
3
2

> <PUBCHEM_MMFF94_PARTIAL_CHARGES>
25
1 -0.53
10 -0.15
11 -0.15
12 -0.15
13 -0.15
14 -0.15
15 -0.15
16 0.08
17 0.08
2 -0.53
24 0.15
25 0.15
26 0.15
27 0.15
28 0.15
29 0.15
3 0.29
30 0.15
31 0.15
32 0.45
33 0.45
4 -0.14
5 -0.14
8 -0.15
9 -0.15

> <PUBCHEM_EFFECTIVE_ROTOR_COUNT>
2

> <PUBCHEM_PHARMACOPHORE_FEATURES>
5
1 1 donor
1 2 donor
3 3 6 7 hydrophobe
6 4 8 10 12 14 16 rings
6 5 9 11 13 15 17 rings

> <PUBCHEM_HEAVY_ATOM_COUNT>
17

> <PUBCHEM_ATOM_DEF_STEREO_COUNT>
0

> <PUBCHEM_ATOM_UDEF_STEREO_COUNT>
0

> <PUBCHEM_BOND_DEF_STEREO_COUNT>
0

> <PUBCHEM_BOND_UDEF_STEREO_COUNT>
0

> <PUBCHEM_ISOTOPIC_ATOM_COUNT>
0

> <PUBCHEM_COMPONENT_COUNT>
1

> <PUBCHEM_CACTVS_TAUTO_COUNT>
3

> <PUBCHEM_CONFORMER_ID>
000019DF00000001

> <PUBCHEM_MMFF94_ENERGY>
64.1206

> <PUBCHEM_FEATURE_SELFOVERLAP>
25.372

> <PUBCHEM_SHAPE_FINGERPRINT>
10465860 228 18265052440146906875
10498660 4 17846494807956907777
10618630 7 8862950471944920352
11046707 91 8574440819802817220
11640471 11 18410569587104953028
12138202 97 17632297942700988494
12251169 10 15719115772587467277
12491281 212 18341893034625719138
12633257 1 15647059291015153984
12788726 201 18049710021441717058
12892183 10 15719384001885322888
13571099 52 18261397711031002503
13764800 53 18340221781019704851
14251764 38 17758668950351880149
14739800 52 17985806350554812304
15061688 2 18410575084673810317
15309172 13 17822005415182549066
15342168 16 18187090559068058613
15375462 189 9295287269996453078
15534591 1 18337673126062282338
15653759 3 15068339003624658237
15775835 57 18410853261110395364
15906896 17 18264490774389428130
16945 1 17917141818369727011
17357779 13 13899614313340361589
1741750 31 18337674225716062138
17804303 29 12829490320433961629
1813 80 17692251833473259110
18186145 218 18334012757179395950
19765921 60 18411697656461014379
19868273 293 17988923409424780430
20291156 8 9223230745321134917
20361792 2 9943803365827786299
204376 136 18186802491163379179
20645476 183 18339358668581405150
20671657 53 12751245791825749096
20871999 31 16988551447065141829
21499 59 18412825772344063143
21524375 3 18410855460138945163
21713013 43 13758065299356720749
21731228 192 17894352193594983955
23184049 59 17894627041684797236
23402539 116 17774993601125170188
23557571 272 16557885966252971863
23559900 14 17561366193283564332
298252 57 18202560691760254914
3472631 163 18202563986327517557
4028521 119 17846780714954732865
4340502 62 18114473262852369283
474 4 18336547123060049707
633830 44 18410010996606913815
7364860 26 17700693965181141591
83771 10 9223230749695054610
94968 8 10663806477749826557
9981440 41 18128808828214612290

> <PUBCHEM_SHAPE_MULTIPOLES>
338.11
7.28
2.04
1.32
0.26
0.87
0
-5.89
0
-0.06
0
0
0.27
-0.69

> <PUBCHEM_SHAPE_SELFOVERLAP>
731.212

> <PUBCHEM_SHAPE_VOLUME>
187.1

> <PUBCHEM_COORDINATE_TYPE>
2
5
10

> <Energy>
42.8498

> <minimizedAffinity>
-8.73620

> <CNNscore>
0.8795760870

> <CNNaffinity>
7.1203799248

> <CNN_VS>
6.2629160881

> <CNNaffinity_variance>
0.6944125295

$$$$
6623


 19 20  0  0  0  0  0  0  0  0999 V2000
    9.2092   46.6938  131.4278 C   0  0  0  0  0  0  0  0  0  0  0  0
    8.3482   46.1043  132.5786 C   0  0  0  0  0  0  0  0  0  0  0  0
   10.5255   47.1685  132.1013 C   0  0  0  0  0  0  0  0  0  0  0  0
    6.8692   51.2378  128.8463 O   0  0  0  0  0  0  0  0  0  0  0  0
    8.5773   47.9339  130.7507 C   0  0  0  0  0  0  0  0  0  0  0  0
    7.8297   47.7748  129.5638 C   0  0  0  0  0  0  0  0  0  0  0  0
    8.7136   49.2354  131.2634 C   0  0  0  0  0  0  0  0  0  0  0  0
    7.2531   48.8690  128.9122 C   0  0  0  0  0  0  0  0  0  0  0  0
    8.1330   50.3305  130.6151 C   0  0  0  0  0  0  0  0  0  0  0  0
    7.4114   50.1403  129.4458 C   0  0  0  0  0  0  0  0  0  0  0  0
    6.3759   51.1439  128.0552 H   0  0  0  0  0  0  0  0  0  0  0  0
    9.9764   42.4055  127.7139 O   0  0  0  0  0  0  0  0  0  0  0  0
    9.4150   45.5562  130.3995 C   0  0  0  0  0  0  0  0  0  0  0  0
    8.5929   44.4101  130.4521 C   0  0  0  0  0  0  0  0  0  0  0  0
   10.4073   45.5997  129.4041 C   0  0  0  0  0  0  0  0  0  0  0  0
    8.7669   43.3463  129.5623 C   0  0  0  0  0  0  0  0  0  0  0  0
   10.5784   44.5387  128.5104 C   0  0  0  0  0  0  0  0  0  0  0  0
    9.7635   43.4201  128.5992 C   0  0  0  0  0  0  0  0  0  0  0  0
    9.4434   41.6356  127.7467 H   0  0  0  0  0  0  0  0  0  0  0  0
  4 10  1  0
  4 11  1  0
 12 18  1  0
 12 19  1  0
  1  5  1  0
  1 13  1  0
  1  2  1  0
  1  3  1  0
  5  6  2  0
  5  7  1  0
 13 14  2  0
 13 15  1  0
  6  8  1  0
 14 16  1  0
  7  9  2  0
 15 17  2  0
  8 10  2  0
 16 18  2  0
  9 10  1  0
 17 18  1  0
M  END
> <PUBCHEM_COMPOUND_CID>
6623

> <PUBCHEM_CONFORMER_RMSD>
0.6

> <PUBCHEM_CONFORMER_DIVERSEORDER>
1
3
2

> <PUBCHEM_MMFF94_PARTIAL_CHARGES>
25
1 -0.53
10 -0.15
11 -0.15
12 -0.15
13 -0.15
14 -0.15
15 -0.15
16 0.08
17 0.08
2 -0.53
24 0.15
25 0.15
26 0.15
27 0.15
28 0.15
29 0.15
3 0.29
30 0.15
31 0.15
32 0.45
33 0.45
4 -0.14
5 -0.14
8 -0.15
9 -0.15

> <PUBCHEM_EFFECTIVE_ROTOR_COUNT>
2

> <PUBCHEM_PHARMACOPHORE_FEATURES>
5
1 1 donor
1 2 donor
3 3 6 7 hydrophobe
6 4 8 10 12 14 16 rings
6 5 9 11 13 15 17 rings

> <PUBCHEM_HEAVY_ATOM_COUNT>
17

> <PUBCHEM_ATOM_DEF_STEREO_COUNT>
0

> <PUBCHEM_ATOM_UDEF_STEREO_COUNT>
0

> <PUBCHEM_BOND_DEF_STEREO_COUNT>
0

> <PUBCHEM_BOND_UDEF_STEREO_COUNT>
0

> <PUBCHEM_ISOTOPIC_ATOM_COUNT>
0

> <PUBCHEM_COMPONENT_COUNT>
1

> <PUBCHEM_CACTVS_TAUTO_COUNT>
3

> <PUBCHEM_CONFORMER_ID>
000019DF00000001

> <PUBCHEM_MMFF94_ENERGY>
64.1206

> <PUBCHEM_FEATURE_SELFOVERLAP>
25.372

> <PUBCHEM_SHAPE_FINGERPRINT>
10465860 228 18265052440146906875
10498660 4 17846494807956907777
10618630 7 8862950471944920352
11046707 91 8574440819802817220
11640471 11 18410569587104953028
12138202 97 17632297942700988494
12251169 10 15719115772587467277
12491281 212 18341893034625719138
12633257 1 15647059291015153984
12788726 201 18049710021441717058
12892183 10 15719384001885322888
13571099 52 18261397711031002503
13764800 53 18340221781019704851
14251764 38 17758668950351880149
14739800 52 17985806350554812304
15061688 2 18410575084673810317
15309172 13 17822005415182549066
15342168 16 18187090559068058613
15375462 189 9295287269996453078
15534591 1 18337673126062282338
15653759 3 15068339003624658237
15775835 57 18410853261110395364
15906896 17 18264490774389428130
16945 1 17917141818369727011
17357779 13 13899614313340361589
1741750 31 18337674225716062138
17804303 29 12829490320433961629
1813 80 17692251833473259110
18186145 218 18334012757179395950
19765921 60 18411697656461014379
19868273 293 17988923409424780430
20291156 8 9223230745321134917
20361792 2 9943803365827786299
204376 136 18186802491163379179
20645476 183 18339358668581405150
20671657 53 12751245791825749096
20871999 31 16988551447065141829
21499 59 18412825772344063143
21524375 3 18410855460138945163
21713013 43 13758065299356720749
21731228 192 17894352193594983955
23184049 59 17894627041684797236
23402539 116 17774993601125170188
23557571 272 16557885966252971863
23559900 14 17561366193283564332
298252 57 18202560691760254914
3472631 163 18202563986327517557
4028521 119 17846780714954732865
4340502 62 18114473262852369283
474 4 18336547123060049707
633830 44 18410010996606913815
7364860 26 17700693965181141591
83771 10 9223230749695054610
94968 8 10663806477749826557
9981440 41 18128808828214612290

> <PUBCHEM_SHAPE_MULTIPOLES>
338.11
7.28
2.04
1.32
0.26
0.87
0
-5.89
0
-0.06
0
0
0.27
-0.69

> <PUBCHEM_SHAPE_SELFOVERLAP>
731.212

> <PUBCHEM_SHAPE_VOLUME>
187.1

> <PUBCHEM_COORDINATE_TYPE>
2
5
10

> <Energy>
42.8498

> <minimizedAffinity>
-8.72160

> <CNNscore>
0.8709779382

> <CNNaffinity>
7.1298480034

> <CNN_VS>
6.2099404335

> <CNNaffinity_variance>
0.7034131885

$$$$
6623


 19 20  0  0  0  0  0  0  0  0999 V2000
    9.1929   46.6624  131.5056 C   0  0  0  0  0  0  0  0  0  0  0  0
   10.5223   47.1420  132.1504 C   0  0  0  0  0  0  0  0  0  0  0  0
    8.3465   46.0995  132.6798 C   0  0  0  0  0  0  0  0  0  0  0  0
    9.9053   42.4541  127.6884 O   0  0  0  0  0  0  0  0  0  0  0  0
    9.3751   45.5096  130.4890 C   0  0  0  0  0  0  0  0  0  0  0  0
   10.3727   45.6082  129.4949 C   0  0  0  0  0  0  0  0  0  0  0  0
    8.5825   44.3490  130.5015 C   0  0  0  0  0  0  0  0  0  0  0  0
   10.5627   44.5967  128.5488 C   0  0  0  0  0  0  0  0  0  0  0  0
    8.7750   43.3340  129.5584 C   0  0  0  0  0  0  0  0  0  0  0  0
    9.7590   43.4661  128.5898 C   0  0  0  0  0  0  0  0  0  0  0  0
   10.5607   42.5121  127.0213 H   0  0  0  0  0  0  0  0  0  0  0  0
    6.8930   51.1944  128.8709 O   0  0  0  0  0  0  0  0  0  0  0  0
    8.5597   47.8976  130.8222 C   0  0  0  0  0  0  0  0  0  0  0  0
    7.7301   47.7228  129.6938 C   0  0  0  0  0  0  0  0  0  0  0  0
    8.7834   49.2126  131.2675 C   0  0  0  0  0  0  0  0  0  0  0  0
    7.1648   48.8141  129.0281 C   0  0  0  0  0  0  0  0  0  0  0  0
    8.2140   50.3041  130.6057 C   0  0  0  0  0  0  0  0  0  0  0  0
    7.4159   50.0984  129.4903 C   0  0  0  0  0  0  0  0  0  0  0  0
    6.3496   51.0904  128.1147 H   0  0  0  0  0  0  0  0  0  0  0  0
  4 10  1  0
  4 11  1  0
 12 18  1  0
 12 19  1  0
  1  5  1  0
  1 13  1  0
  1  2  1  0
  1  3  1  0
  5  6  2  0
  5  7  1  0
 13 14  2  0
 13 15  1  0
  6  8  1  0
 14 16  1  0
  7  9  2  0
 15 17  2  0
  8 10  2  0
 16 18  2  0
  9 10  1  0
 17 18  1  0
M  END
> <PUBCHEM_COMPOUND_CID>
6623

> <PUBCHEM_CONFORMER_RMSD>
0.6

> <PUBCHEM_CONFORMER_DIVERSEORDER>
1
3
2

> <PUBCHEM_MMFF94_PARTIAL_CHARGES>
25
1 -0.53
10 -0.15
11 -0.15
12 -0.15
13 -0.15
14 -0.15
15 -0.15
16 0.08
17 0.08
2 -0.53
24 0.15
25 0.15
26 0.15
27 0.15
28 0.15
29 0.15
3 0.29
30 0.15
31 0.15
32 0.45
33 0.45
4 -0.14
5 -0.14
8 -0.15
9 -0.15

> <PUBCHEM_EFFECTIVE_ROTOR_COUNT>
2

> <PUBCHEM_PHARMACOPHORE_FEATURES>
5
1 1 donor
1 2 donor
3 3 6 7 hydrophobe
6 4 8 10 12 14 16 rings
6 5 9 11 13 15 17 rings

> <PUBCHEM_HEAVY_ATOM_COUNT>
17

> <PUBCHEM_ATOM_DEF_STEREO_COUNT>
0

> <PUBCHEM_ATOM_UDEF_STEREO_COUNT>
0

> <PUBCHEM_BOND_DEF_STEREO_COUNT>
0

> <PUBCHEM_BOND_UDEF_STEREO_COUNT>
0

> <PUBCHEM_ISOTOPIC_ATOM_COUNT>
0

> <PUBCHEM_COMPONENT_COUNT>
1

> <PUBCHEM_CACTVS_TAUTO_COUNT>
3

> <PUBCHEM_CONFORMER_ID>
000019DF00000001

> <PUBCHEM_MMFF94_ENERGY>
64.1206

> <PUBCHEM_FEATURE_SELFOVERLAP>
25.372

> <PUBCHEM_SHAPE_FINGERPRINT>
10465860 228 18265052440146906875
10498660 4 17846494807956907777
10618630 7 8862950471944920352
11046707 91 8574440819802817220
11640471 11 18410569587104953028
12138202 97 17632297942700988494
12251169 10 15719115772587467277
12491281 212 18341893034625719138
12633257 1 15647059291015153984
12788726 201 18049710021441717058
12892183 10 15719384001885322888
13571099 52 18261397711031002503
13764800 53 18340221781019704851
14251764 38 17758668950351880149
14739800 52 17985806350554812304
15061688 2 18410575084673810317
15309172 13 17822005415182549066
15342168 16 18187090559068058613
15375462 189 9295287269996453078
15534591 1 18337673126062282338
15653759 3 15068339003624658237
15775835 57 18410853261110395364
15906896 17 18264490774389428130
16945 1 17917141818369727011
17357779 13 13899614313340361589
1741750 31 18337674225716062138
17804303 29 12829490320433961629
1813 80 17692251833473259110
18186145 218 18334012757179395950
19765921 60 18411697656461014379
19868273 293 17988923409424780430
20291156 8 9223230745321134917
20361792 2 9943803365827786299
204376 136 18186802491163379179
20645476 183 18339358668581405150
20671657 53 12751245791825749096
20871999 31 16988551447065141829
21499 59 18412825772344063143
21524375 3 18410855460138945163
21713013 43 13758065299356720749
21731228 192 17894352193594983955
23184049 59 17894627041684797236
23402539 116 17774993601125170188
23557571 272 16557885966252971863
23559900 14 17561366193283564332
298252 57 18202560691760254914
3472631 163 18202563986327517557
4028521 119 17846780714954732865
4340502 62 18114473262852369283
474 4 18336547123060049707
633830 44 18410010996606913815
7364860 26 17700693965181141591
83771 10 9223230749695054610
94968 8 10663806477749826557
9981440 41 18128808828214612290

> <PUBCHEM_SHAPE_MULTIPOLES>
338.11
7.28
2.04
1.32
0.26
0.87
0
-5.89
0
-0.06
0
0
0.27
-0.69

> <PUBCHEM_SHAPE_SELFOVERLAP>
731.212

> <PUBCHEM_SHAPE_VOLUME>
187.1

> <PUBCHEM_COORDINATE_TYPE>
2
5
10

> <Energy>
42.8498

> <minimizedAffinity>
-8.79612

> <CNNscore>
0.8582045436

> <CNNaffinity>
7.1228294373

> <CNN_VS>
6.1128444672

> <CNNaffinity_variance>
0.7194127440

$$$$
6623


 19 20  0  0  0  0  0  0  0  0999 V2000
    9.2164   46.6622  131.5205 C   0  0  0  0  0  0  0  0  0  0  0  0
    8.3576   46.1001  132.6866 C   0  0  0  0  0  0  0  0  0  0  0  0
   10.5409   47.1372  132.1777 C   0  0  0  0  0  0  0  0  0  0  0  0
    6.8986   51.1806  128.8747 O   0  0  0  0  0  0  0  0  0  0  0  0
    8.5909   47.8958  130.8258 C   0  0  0  0  0  0  0  0  0  0  0  0
    7.8282   47.7217  129.6506 C   0  0  0  0  0  0  0  0  0  0  0  0
    8.7476   49.2056  131.3108 C   0  0  0  0  0  0  0  0  0  0  0  0
    7.2566   48.8093  128.9837 C   0  0  0  0  0  0  0  0  0  0  0  0
    8.1720   50.2941  130.6472 C   0  0  0  0  0  0  0  0  0  0  0  0
    7.4352   50.0890  129.4900 C   0  0  0  0  0  0  0  0  0  0  0  0
    6.3954   51.0766  128.0912 H   0  0  0  0  0  0  0  0  0  0  0  0
    9.9120   42.4612  127.6945 O   0  0  0  0  0  0  0  0  0  0  0  0
    9.4062   45.5053  130.5109 C   0  0  0  0  0  0  0  0  0  0  0  0
   10.4055   45.6010  129.5187 C   0  0  0  0  0  0  0  0  0  0  0  0
    8.6098   44.3463  130.5222 C   0  0  0  0  0  0  0  0  0  0  0  0
   10.5883   44.5928  128.5681 C   0  0  0  0  0  0  0  0  0  0  0  0
    8.7957   43.3351  129.5753 C   0  0  0  0  0  0  0  0  0  0  0  0
    9.7767   43.4676  128.6040 C   0  0  0  0  0  0  0  0  0  0  0  0
   10.5651   42.5194  127.0251 H   0  0  0  0  0  0  0  0  0  0  0  0
  4 10  1  0
  4 11  1  0
 12 18  1  0
 12 19  1  0
  1  5  1  0
  1 13  1  0
  1  2  1  0
  1  3  1  0
  5  6  2  0
  5  7  1  0
 13 14  2  0
 13 15  1  0
  6  8  1  0
 14 16  1  0
  7  9  2  0
 15 17  2  0
  8 10  2  0
 16 18  2  0
  9 10  1  0
 17 18  1  0
M  END
> <PUBCHEM_COMPOUND_CID>
6623

> <PUBCHEM_CONFORMER_RMSD>
0.6

> <PUBCHEM_CONFORMER_DIVERSEORDER>
1
3
2

> <PUBCHEM_MMFF94_PARTIAL_CHARGES>
25
1 -0.53
10 -0.15
11 -0.15
12 -0.15
13 -0.15
14 -0.15
15 -0.15
16 0.08
17 0.08
2 -0.53
24 0.15
25 0.15
26 0.15
27 0.15
28 0.15
29 0.15
3 0.29
30 0.15
31 0.15
32 0.45
33 0.45
4 -0.14
5 -0.14
8 -0.15
9 -0.15

> <PUBCHEM_EFFECTIVE_ROTOR_COUNT>
2

> <PUBCHEM_PHARMACOPHORE_FEATURES>
5
1 1 donor
1 2 donor
3 3 6 7 hydrophobe
6 4 8 10 12 14 16 rings
6 5 9 11 13 15 17 rings

> <PUBCHEM_HEAVY_ATOM_COUNT>
17

> <PUBCHEM_ATOM_DEF_STEREO_COUNT>
0

> <PUBCHEM_ATOM_UDEF_STEREO_COUNT>
0

> <PUBCHEM_BOND_DEF_STEREO_COUNT>
0

> <PUBCHEM_BOND_UDEF_STEREO_COUNT>
0

> <PUBCHEM_ISOTOPIC_ATOM_COUNT>
0

> <PUBCHEM_COMPONENT_COUNT>
1

> <PUBCHEM_CACTVS_TAUTO_COUNT>
3

> <PUBCHEM_CONFORMER_ID>
000019DF00000001

> <PUBCHEM_MMFF94_ENERGY>
64.1206

> <PUBCHEM_FEATURE_SELFOVERLAP>
25.372

> <PUBCHEM_SHAPE_FINGERPRINT>
10465860 228 18265052440146906875
10498660 4 17846494807956907777
10618630 7 8862950471944920352
11046707 91 8574440819802817220
11640471 11 18410569587104953028
12138202 97 17632297942700988494
12251169 10 15719115772587467277
12491281 212 18341893034625719138
12633257 1 15647059291015153984
12788726 201 18049710021441717058
12892183 10 15719384001885322888
13571099 52 18261397711031002503
13764800 53 18340221781019704851
14251764 38 17758668950351880149
14739800 52 17985806350554812304
15061688 2 18410575084673810317
15309172 13 17822005415182549066
15342168 16 18187090559068058613
15375462 189 9295287269996453078
15534591 1 18337673126062282338
15653759 3 15068339003624658237
15775835 57 18410853261110395364
15906896 17 18264490774389428130
16945 1 17917141818369727011
17357779 13 13899614313340361589
1741750 31 18337674225716062138
17804303 29 12829490320433961629
1813 80 17692251833473259110
18186145 218 18334012757179395950
19765921 60 18411697656461014379
19868273 293 17988923409424780430
20291156 8 9223230745321134917
20361792 2 9943803365827786299
204376 136 18186802491163379179
20645476 183 18339358668581405150
20671657 53 12751245791825749096
20871999 31 16988551447065141829
21499 59 18412825772344063143
21524375 3 18410855460138945163
21713013 43 13758065299356720749
21731228 192 17894352193594983955
23184049 59 17894627041684797236
23402539 116 17774993601125170188
23557571 272 16557885966252971863
23559900 14 17561366193283564332
298252 57 18202560691760254914
3472631 163 18202563986327517557
4028521 119 17846780714954732865
4340502 62 18114473262852369283
474 4 18336547123060049707
633830 44 18410010996606913815
7364860 26 17700693965181141591
83771 10 9223230749695054610
94968 8 10663806477749826557
9981440 41 18128808828214612290

> <PUBCHEM_SHAPE_MULTIPOLES>
338.11
7.28
2.04
1.32
0.26
0.87
0
-5.89
0
-0.06
0
0
0.27
-0.69

> <PUBCHEM_SHAPE_SELFOVERLAP>
731.212

> <PUBCHEM_SHAPE_VOLUME>
187.1

> <PUBCHEM_COORDINATE_TYPE>
2
5
10

> <Energy>
42.8498

> <minimizedAffinity>
-8.82479

> <CNNscore>
0.8515462875

> <CNNaffinity>
7.1311626434

> <CNN_VS>
6.0725150108

> <CNNaffinity_variance>
0.7252094746

$$$$
6623


 19 20  0  0  0  0  0  0  0  0999 V2000
    9.4780   45.8028  129.6931 C   0  0  0  0  0  0  0  0  0  0  0  0
   10.7014   45.7096  128.7404 C   0  0  0  0  0  0  0  0  0  0  0  0
    8.4398   44.7953  129.1283 C   0  0  0  0  0  0  0  0  0  0  0  0
    7.0151   50.9714  129.7827 O   0  0  0  0  0  0  0  0  0  0  0  0
    8.7986   47.1935  129.6988 C   0  0  0  0  0  0  0  0  0  0  0  0
    9.4645   48.2921  130.2843 C   0  0  0  0  0  0  0  0  0  0  0  0
    7.5281   47.4242  129.1438 C   0  0  0  0  0  0  0  0  0  0  0  0
    8.8820   49.5624  130.3232 C   0  0  0  0  0  0  0  0  0  0  0  0
    6.9464   48.6958  129.1776 C   0  0  0  0  0  0  0  0  0  0  0  0
    7.6244   49.7522  129.7681 C   0  0  0  0  0  0  0  0  0  0  0  0
    7.4460   51.7058  130.1737 H   0  0  0  0  0  0  0  0  0  0  0  0
   11.2885   44.5374  134.9744 O   0  0  0  0  0  0  0  0  0  0  0  0
    9.9878   45.4389  131.1078 C   0  0  0  0  0  0  0  0  0  0  0  0
    9.0619   45.1059  132.1196 C   0  0  0  0  0  0  0  0  0  0  0  0
   11.3523   45.4360  131.4482 C   0  0  0  0  0  0  0  0  0  0  0  0
    9.4789   44.8024  133.4187 C   0  0  0  0  0  0  0  0  0  0  0  0
   11.7705   45.1273  132.7457 C   0  0  0  0  0  0  0  0  0  0  0  0
   10.8334   44.8195  133.7206 C   0  0  0  0  0  0  0  0  0  0  0  0
   10.6817   44.3254  135.6562 H   0  0  0  0  0  0  0  0  0  0  0  0
  4 10  1  0
  4 11  1  0
 12 18  1  0
 12 19  1  0
  1  5  1  0
  1 13  1  0
  1  2  1  0
  1  3  1  0
  5  6  2  0
  5  7  1  0
 13 14  2  0
 13 15  1  0
  6  8  1  0
 14 16  1  0
  7  9  2  0
 15 17  2  0
  8 10  2  0
 16 18  2  0
  9 10  1  0
 17 18  1  0
M  END
> <PUBCHEM_COMPOUND_CID>
6623

> <PUBCHEM_CONFORMER_RMSD>
0.6

> <PUBCHEM_CONFORMER_DIVERSEORDER>
1
3
2

> <PUBCHEM_MMFF94_PARTIAL_CHARGES>
25
1 -0.53
10 -0.15
11 -0.15
12 -0.15
13 -0.15
14 -0.15
15 -0.15
16 0.08
17 0.08
2 -0.53
24 0.15
25 0.15
26 0.15
27 0.15
28 0.15
29 0.15
3 0.29
30 0.15
31 0.15
32 0.45
33 0.45
4 -0.14
5 -0.14
8 -0.15
9 -0.15

> <PUBCHEM_EFFECTIVE_ROTOR_COUNT>
2

> <PUBCHEM_PHARMACOPHORE_FEATURES>
5
1 1 donor
1 2 donor
3 3 6 7 hydrophobe
6 4 8 10 12 14 16 rings
6 5 9 11 13 15 17 rings

> <PUBCHEM_HEAVY_ATOM_COUNT>
17

> <PUBCHEM_ATOM_DEF_STEREO_COUNT>
0

> <PUBCHEM_ATOM_UDEF_STEREO_COUNT>
0

> <PUBCHEM_BOND_DEF_STEREO_COUNT>
0

> <PUBCHEM_BOND_UDEF_STEREO_COUNT>
0

> <PUBCHEM_ISOTOPIC_ATOM_COUNT>
0

> <PUBCHEM_COMPONENT_COUNT>
1

> <PUBCHEM_CACTVS_TAUTO_COUNT>
3

> <PUBCHEM_CONFORMER_ID>
000019DF00000001

> <PUBCHEM_MMFF94_ENERGY>
64.1206

> <PUBCHEM_FEATURE_SELFOVERLAP>
25.372

> <PUBCHEM_SHAPE_FINGERPRINT>
10465860 228 18265052440146906875
10498660 4 17846494807956907777
10618630 7 8862950471944920352
11046707 91 8574440819802817220
11640471 11 18410569587104953028
12138202 97 17632297942700988494
12251169 10 15719115772587467277
12491281 212 18341893034625719138
12633257 1 15647059291015153984
12788726 201 18049710021441717058
12892183 10 15719384001885322888
13571099 52 18261397711031002503
13764800 53 18340221781019704851
14251764 38 17758668950351880149
14739800 52 17985806350554812304
15061688 2 18410575084673810317
15309172 13 17822005415182549066
15342168 16 18187090559068058613
15375462 189 9295287269996453078
15534591 1 18337673126062282338
15653759 3 15068339003624658237
15775835 57 18410853261110395364
15906896 17 18264490774389428130
16945 1 17917141818369727011
17357779 13 13899614313340361589
1741750 31 18337674225716062138
17804303 29 12829490320433961629
1813 80 17692251833473259110
18186145 218 18334012757179395950
19765921 60 18411697656461014379
19868273 293 17988923409424780430
20291156 8 9223230745321134917
20361792 2 9943803365827786299
204376 136 18186802491163379179
20645476 183 18339358668581405150
20671657 53 12751245791825749096
20871999 31 16988551447065141829
21499 59 18412825772344063143
21524375 3 18410855460138945163
21713013 43 13758065299356720749
21731228 192 17894352193594983955
23184049 59 17894627041684797236
23402539 116 17774993601125170188
23557571 272 16557885966252971863
23559900 14 17561366193283564332
298252 57 18202560691760254914
3472631 163 18202563986327517557
4028521 119 17846780714954732865
4340502 62 18114473262852369283
474 4 18336547123060049707
633830 44 18410010996606913815
7364860 26 17700693965181141591
83771 10 9223230749695054610
94968 8 10663806477749826557
9981440 41 18128808828214612290

> <PUBCHEM_SHAPE_MULTIPOLES>
338.11
7.28
2.04
1.32
0.26
0.87
0
-5.89
0
-0.06
0
0
0.27
-0.69

> <PUBCHEM_SHAPE_SELFOVERLAP>
731.212

> <PUBCHEM_SHAPE_VOLUME>
187.1

> <PUBCHEM_COORDINATE_TYPE>
2
5
10

> <Energy>
42.8498

> <minimizedAffinity>
-7.91207

> <CNNscore>
0.7472113967

> <CNNaffinity>
7.2527561188

> <CNN_VS>
5.4193420410

> <CNNaffinity_variance>
1.4724065065

$$$$
6623


 19 20  0  0  0  0  0  0  0  0999 V2000
    9.0120   46.2235  130.3380 C   0  0  0  0  0  0  0  0  0  0  0  0
    8.0297   45.1620  129.7709 C   0  0  0  0  0  0  0  0  0  0  0  0
   10.3768   45.9238  129.6604 C   0  0  0  0  0  0  0  0  0  0  0  0
    9.9181   45.7957  135.9757 O   0  0  0  0  0  0  0  0  0  0  0  0
    9.2338   46.1123  131.8657 C   0  0  0  0  0  0  0  0  0  0  0  0
   10.5253   46.3135  132.3990 C   0  0  0  0  0  0  0  0  0  0  0  0
    8.1978   45.8129  132.7672 C   0  0  0  0  0  0  0  0  0  0  0  0
   10.7729   46.2094  133.7709 C   0  0  0  0  0  0  0  0  0  0  0  0
    8.4433   45.7134  134.1407 C   0  0  0  0  0  0  0  0  0  0  0  0
    9.7261   45.9089  134.6310 C   0  0  0  0  0  0  0  0  0  0  0  0
   10.7724   45.9218  136.3392 H   0  0  0  0  0  0  0  0  0  0  0  0
    6.8962   51.3351  128.8661 O   0  0  0  0  0  0  0  0  0  0  0  0
    8.4293   47.6089  129.9707 C   0  0  0  0  0  0  0  0  0  0  0  0
    7.5838   47.7355  128.8476 C   0  0  0  0  0  0  0  0  0  0  0  0
    8.7150   48.7742  130.7043 C   0  0  0  0  0  0  0  0  0  0  0  0
    7.0626   48.9741  128.4630 C   0  0  0  0  0  0  0  0  0  0  0  0
    8.1898   50.0122  130.3235 C   0  0  0  0  0  0  0  0  0  0  0  0
    7.3745   50.1044  129.2054 C   0  0  0  0  0  0  0  0  0  0  0  0
    6.3428   51.4322  128.1163 H   0  0  0  0  0  0  0  0  0  0  0  0
  4 10  1  0
  4 11  1  0
 12 18  1  0
 12 19  1  0
  1  5  1  0
  1 13  1  0
  1  2  1  0
  1  3  1  0
  5  6  2  0
  5  7  1  0
 13 14  2  0
 13 15  1  0
  6  8  1  0
 14 16  1  0
  7  9  2  0
 15 17  2  0
  8 10  2  0
 16 18  2  0
  9 10  1  0
 17 18  1  0
M  END
> <PUBCHEM_COMPOUND_CID>
6623

> <PUBCHEM_CONFORMER_RMSD>
0.6

> <PUBCHEM_CONFORMER_DIVERSEORDER>
1
3
2

> <PUBCHEM_MMFF94_PARTIAL_CHARGES>
25
1 -0.53
10 -0.15
11 -0.15
12 -0.15
13 -0.15
14 -0.15
15 -0.15
16 0.08
17 0.08
2 -0.53
24 0.15
25 0.15
26 0.15
27 0.15
28 0.15
29 0.15
3 0.29
30 0.15
31 0.15
32 0.45
33 0.45
4 -0.14
5 -0.14
8 -0.15
9 -0.15

> <PUBCHEM_EFFECTIVE_ROTOR_COUNT>
2

> <PUBCHEM_PHARMACOPHORE_FEATURES>
5
1 1 donor
1 2 donor
3 3 6 7 hydrophobe
6 4 8 10 12 14 16 rings
6 5 9 11 13 15 17 rings

> <PUBCHEM_HEAVY_ATOM_COUNT>
17

> <PUBCHEM_ATOM_DEF_STEREO_COUNT>
0

> <PUBCHEM_ATOM_UDEF_STEREO_COUNT>
0

> <PUBCHEM_BOND_DEF_STEREO_COUNT>
0

> <PUBCHEM_BOND_UDEF_STEREO_COUNT>
0

> <PUBCHEM_ISOTOPIC_ATOM_COUNT>
0

> <PUBCHEM_COMPONENT_COUNT>
1

> <PUBCHEM_CACTVS_TAUTO_COUNT>
3

> <PUBCHEM_CONFORMER_ID>
000019DF00000001

> <PUBCHEM_MMFF94_ENERGY>
64.1206

> <PUBCHEM_FEATURE_SELFOVERLAP>
25.372

> <PUBCHEM_SHAPE_FINGERPRINT>
10465860 228 18265052440146906875
10498660 4 17846494807956907777
10618630 7 8862950471944920352
11046707 91 8574440819802817220
11640471 11 18410569587104953028
12138202 97 17632297942700988494
12251169 10 15719115772587467277
12491281 212 18341893034625719138
12633257 1 15647059291015153984
12788726 201 18049710021441717058
12892183 10 15719384001885322888
13571099 52 18261397711031002503
13764800 53 18340221781019704851
14251764 38 17758668950351880149
14739800 52 17985806350554812304
15061688 2 18410575084673810317
15309172 13 17822005415182549066
15342168 16 18187090559068058613
15375462 189 9295287269996453078
15534591 1 18337673126062282338
15653759 3 15068339003624658237
15775835 57 18410853261110395364
15906896 17 18264490774389428130
16945 1 17917141818369727011
17357779 13 13899614313340361589
1741750 31 18337674225716062138
17804303 29 12829490320433961629
1813 80 17692251833473259110
18186145 218 18334012757179395950
19765921 60 18411697656461014379
19868273 293 17988923409424780430
20291156 8 9223230745321134917
20361792 2 9943803365827786299
204376 136 18186802491163379179
20645476 183 18339358668581405150
20671657 53 12751245791825749096
20871999 31 16988551447065141829
21499 59 18412825772344063143
21524375 3 18410855460138945163
21713013 43 13758065299356720749
21731228 192 17894352193594983955
23184049 59 17894627041684797236
23402539 116 17774993601125170188
23557571 272 16557885966252971863
23559900 14 17561366193283564332
298252 57 18202560691760254914
3472631 163 18202563986327517557
4028521 119 17846780714954732865
4340502 62 18114473262852369283
474 4 18336547123060049707
633830 44 18410010996606913815
7364860 26 17700693965181141591
83771 10 9223230749695054610
94968 8 10663806477749826557
9981440 41 18128808828214612290

> <PUBCHEM_SHAPE_MULTIPOLES>
338.11
7.28
2.04
1.32
0.26
0.87
0
-5.89
0
-0.06
0
0
0.27
-0.69

> <PUBCHEM_SHAPE_SELFOVERLAP>
731.212

> <PUBCHEM_SHAPE_VOLUME>
187.1

> <PUBCHEM_COORDINATE_TYPE>
2
5
10

> <Energy>
42.8498

> <minimizedAffinity>
-7.87473

> <CNNscore>
0.7173864841

> <CNNaffinity>
7.0564675331

> <CNN_VS>
5.0622143745

> <CNNaffinity_variance>
0.9095303416

$$$$
6623


 19 20  0  0  0  0  0  0  0  0999 V2000
    8.8439   46.5477  132.0980 C   0  0  0  0  0  0  0  0  0  0  0  0
    8.9960   47.1455  133.5237 C   0  0  0  0  0  0  0  0  0  0  0  0
    7.7812   45.4235  132.2351 C   0  0  0  0  0  0  0  0  0  0  0  0
   13.6667   44.1371  130.1700 O   0  0  0  0  0  0  0  0  0  0  0  0
   10.1347   45.8838  131.5609 C   0  0  0  0  0  0  0  0  0  0  0  0
   11.2788   45.8164  132.3853 C   0  0  0  0  0  0  0  0  0  0  0  0
   10.2308   45.3367  130.2699 C   0  0  0  0  0  0  0  0  0  0  0  0
   12.4693   45.2377  131.9358 C   0  0  0  0  0  0  0  0  0  0  0  0
   11.4200   44.7529  129.8207 C   0  0  0  0  0  0  0  0  0  0  0  0
   12.5284   44.7103  130.6535 C   0  0  0  0  0  0  0  0  0  0  0  0
   14.4333   44.0923  130.7070 H   0  0  0  0  0  0  0  0  0  0  0  0
    7.1743   50.9030  128.7790 O   0  0  0  0  0  0  0  0  0  0  0  0
    8.4023   47.7080  131.1747 C   0  0  0  0  0  0  0  0  0  0  0  0
    8.8511   49.0200  131.4385 C   0  0  0  0  0  0  0  0  0  0  0  0
    7.5490   47.5219  130.0725 C   0  0  0  0  0  0  0  0  0  0  0  0
    8.4499   50.1008  130.6482 C   0  0  0  0  0  0  0  0  0  0  0  0
    7.1518   48.6013  129.2784 C   0  0  0  0  0  0  0  0  0  0  0  0
    7.5987   49.8804  129.5745 C   0  0  0  0  0  0  0  0  0  0  0  0
    7.4576   51.7793  128.9516 H   0  0  0  0  0  0  0  0  0  0  0  0
  4 10  1  0
  4 11  1  0
 12 18  1  0
 12 19  1  0
  1  5  1  0
  1 13  1  0
  1  2  1  0
  1  3  1  0
  5  6  2  0
  5  7  1  0
 13 14  2  0
 13 15  1  0
  6  8  1  0
 14 16  1  0
  7  9  2  0
 15 17  2  0
  8 10  2  0
 16 18  2  0
  9 10  1  0
 17 18  1  0
M  END
> <PUBCHEM_COMPOUND_CID>
6623

> <PUBCHEM_CONFORMER_RMSD>
0.6

> <PUBCHEM_CONFORMER_DIVERSEORDER>
1
3
2

> <PUBCHEM_MMFF94_PARTIAL_CHARGES>
25
1 -0.53
10 -0.15
11 -0.15
12 -0.15
13 -0.15
14 -0.15
15 -0.15
16 0.08
17 0.08
2 -0.53
24 0.15
25 0.15
26 0.15
27 0.15
28 0.15
29 0.15
3 0.29
30 0.15
31 0.15
32 0.45
33 0.45
4 -0.14
5 -0.14
8 -0.15
9 -0.15

> <PUBCHEM_EFFECTIVE_ROTOR_COUNT>
2

> <PUBCHEM_PHARMACOPHORE_FEATURES>
5
1 1 donor
1 2 donor
3 3 6 7 hydrophobe
6 4 8 10 12 14 16 rings
6 5 9 11 13 15 17 rings

> <PUBCHEM_HEAVY_ATOM_COUNT>
17

> <PUBCHEM_ATOM_DEF_STEREO_COUNT>
0

> <PUBCHEM_ATOM_UDEF_STEREO_COUNT>
0

> <PUBCHEM_BOND_DEF_STEREO_COUNT>
0

> <PUBCHEM_BOND_UDEF_STEREO_COUNT>
0

> <PUBCHEM_ISOTOPIC_ATOM_COUNT>
0

> <PUBCHEM_COMPONENT_COUNT>
1

> <PUBCHEM_CACTVS_TAUTO_COUNT>
3

> <PUBCHEM_CONFORMER_ID>
000019DF00000001

> <PUBCHEM_MMFF94_ENERGY>
64.1206

> <PUBCHEM_FEATURE_SELFOVERLAP>
25.372

> <PUBCHEM_SHAPE_FINGERPRINT>
10465860 228 18265052440146906875
10498660 4 17846494807956907777
10618630 7 8862950471944920352
11046707 91 8574440819802817220
11640471 11 18410569587104953028
12138202 97 17632297942700988494
12251169 10 15719115772587467277
12491281 212 18341893034625719138
12633257 1 15647059291015153984
12788726 201 18049710021441717058
12892183 10 15719384001885322888
13571099 52 18261397711031002503
13764800 53 18340221781019704851
14251764 38 17758668950351880149
14739800 52 17985806350554812304
15061688 2 18410575084673810317
15309172 13 17822005415182549066
15342168 16 18187090559068058613
15375462 189 9295287269996453078
15534591 1 18337673126062282338
15653759 3 15068339003624658237
15775835 57 18410853261110395364
15906896 17 18264490774389428130
16945 1 17917141818369727011
17357779 13 13899614313340361589
1741750 31 18337674225716062138
17804303 29 12829490320433961629
1813 80 17692251833473259110
18186145 218 18334012757179395950
19765921 60 18411697656461014379
19868273 293 17988923409424780430
20291156 8 9223230745321134917
20361792 2 9943803365827786299
204376 136 18186802491163379179
20645476 183 18339358668581405150
20671657 53 12751245791825749096
20871999 31 16988551447065141829
21499 59 18412825772344063143
21524375 3 18410855460138945163
21713013 43 13758065299356720749
21731228 192 17894352193594983955
23184049 59 17894627041684797236
23402539 116 17774993601125170188
23557571 272 16557885966252971863
23559900 14 17561366193283564332
298252 57 18202560691760254914
3472631 163 18202563986327517557
4028521 119 17846780714954732865
4340502 62 18114473262852369283
474 4 18336547123060049707
633830 44 18410010996606913815
7364860 26 17700693965181141591
83771 10 9223230749695054610
94968 8 10663806477749826557
9981440 41 18128808828214612290

> <PUBCHEM_SHAPE_MULTIPOLES>
338.11
7.28
2.04
1.32
0.26
0.87
0
-5.89
0
-0.06
0
0
0.27
-0.69

> <PUBCHEM_SHAPE_SELFOVERLAP>
731.212

> <PUBCHEM_SHAPE_VOLUME>
187.1

> <PUBCHEM_COORDINATE_TYPE>
2
5
10

> <Energy>
42.8498

> <minimizedAffinity>
-8.60322

> <CNNscore>
0.7156978250

> <CNNaffinity>
7.1641011238

> <CNN_VS>
5.1273317337

> <CNNaffinity_variance>
1.0908209085

$$$$
6623


 19 20  0  0  0  0  0  0  0  0999 V2000
    8.8931   46.4891  132.1430 C   0  0  0  0  0  0  0  0  0  0  0  0
    7.8294   45.3659  132.2848 C   0  0  0  0  0  0  0  0  0  0  0  0
    9.0500   47.0884  133.5671 C   0  0  0  0  0  0  0  0  0  0  0  0
    7.2882   50.8284  128.7691 O   0  0  0  0  0  0  0  0  0  0  0  0
    8.4553   47.6465  131.2133 C   0  0  0  0  0  0  0  0  0  0  0  0
    8.8908   48.9616  131.4852 C   0  0  0  0  0  0  0  0  0  0  0  0
    7.6287   47.4541  130.0930 C   0  0  0  0  0  0  0  0  0  0  0  0
    8.5085   50.0383  130.6795 C   0  0  0  0  0  0  0  0  0  0  0  0
    7.2496   48.5298  129.2832 C   0  0  0  0  0  0  0  0  0  0  0  0
    7.6886   49.8110  129.5832 C   0  0  0  0  0  0  0  0  0  0  0  0
    7.5671   51.7056  128.9438 H   0  0  0  0  0  0  0  0  0  0  0  0
   13.7172   44.1026  130.1927 O   0  0  0  0  0  0  0  0  0  0  0  0
   10.1801   45.8170  131.6086 C   0  0  0  0  0  0  0  0  0  0  0  0
   11.3396   45.7902  132.4130 C   0  0  0  0  0  0  0  0  0  0  0  0
   10.2603   45.2321  130.3323 C   0  0  0  0  0  0  0  0  0  0  0  0
   12.5317   45.2217  131.9554 C   0  0  0  0  0  0  0  0  0  0  0  0
   11.4504   44.6584  129.8761 C   0  0  0  0  0  0  0  0  0  0  0  0
   12.5763   44.6625  130.6859 C   0  0  0  0  0  0  0  0  0  0  0  0
   14.4955   44.0888  130.7142 H   0  0  0  0  0  0  0  0  0  0  0  0
  4 10  1  0
  4 11  1  0
 12 18  1  0
 12 19  1  0
  1  5  1  0
  1 13  1  0
  1  2  1  0
  1  3  1  0
  5  6  2  0
  5  7  1  0
 13 14  2  0
 13 15  1  0
  6  8  1  0
 14 16  1  0
  7  9  2  0
 15 17  2  0
  8 10  2  0
 16 18  2  0
  9 10  1  0
 17 18  1  0
M  END
> <PUBCHEM_COMPOUND_CID>
6623

> <PUBCHEM_CONFORMER_RMSD>
0.6

> <PUBCHEM_CONFORMER_DIVERSEORDER>
1
3
2

> <PUBCHEM_MMFF94_PARTIAL_CHARGES>
25
1 -0.53
10 -0.15
11 -0.15
12 -0.15
13 -0.15
14 -0.15
15 -0.15
16 0.08
17 0.08
2 -0.53
24 0.15
25 0.15
26 0.15
27 0.15
28 0.15
29 0.15
3 0.29
30 0.15
31 0.15
32 0.45
33 0.45
4 -0.14
5 -0.14
8 -0.15
9 -0.15

> <PUBCHEM_EFFECTIVE_ROTOR_COUNT>
2

> <PUBCHEM_PHARMACOPHORE_FEATURES>
5
1 1 donor
1 2 donor
3 3 6 7 hydrophobe
6 4 8 10 12 14 16 rings
6 5 9 11 13 15 17 rings

> <PUBCHEM_HEAVY_ATOM_COUNT>
17

> <PUBCHEM_ATOM_DEF_STEREO_COUNT>
0

> <PUBCHEM_ATOM_UDEF_STEREO_COUNT>
0

> <PUBCHEM_BOND_DEF_STEREO_COUNT>
0

> <PUBCHEM_BOND_UDEF_STEREO_COUNT>
0

> <PUBCHEM_ISOTOPIC_ATOM_COUNT>
0

> <PUBCHEM_COMPONENT_COUNT>
1

> <PUBCHEM_CACTVS_TAUTO_COUNT>
3

> <PUBCHEM_CONFORMER_ID>
000019DF00000001

> <PUBCHEM_MMFF94_ENERGY>
64.1206

> <PUBCHEM_FEATURE_SELFOVERLAP>
25.372

> <PUBCHEM_SHAPE_FINGERPRINT>
10465860 228 18265052440146906875
10498660 4 17846494807956907777
10618630 7 8862950471944920352
11046707 91 8574440819802817220
11640471 11 18410569587104953028
12138202 97 17632297942700988494
12251169 10 15719115772587467277
12491281 212 18341893034625719138
12633257 1 15647059291015153984
12788726 201 18049710021441717058
12892183 10 15719384001885322888
13571099 52 18261397711031002503
13764800 53 18340221781019704851
14251764 38 17758668950351880149
14739800 52 17985806350554812304
15061688 2 18410575084673810317
15309172 13 17822005415182549066
15342168 16 18187090559068058613
15375462 189 9295287269996453078
15534591 1 18337673126062282338
15653759 3 15068339003624658237
15775835 57 18410853261110395364
15906896 17 18264490774389428130
16945 1 17917141818369727011
17357779 13 13899614313340361589
1741750 31 18337674225716062138
17804303 29 12829490320433961629
1813 80 17692251833473259110
18186145 218 18334012757179395950
19765921 60 18411697656461014379
19868273 293 17988923409424780430
20291156 8 9223230745321134917
20361792 2 9943803365827786299
204376 136 18186802491163379179
20645476 183 18339358668581405150
20671657 53 12751245791825749096
20871999 31 16988551447065141829
21499 59 18412825772344063143
21524375 3 18410855460138945163
21713013 43 13758065299356720749
21731228 192 17894352193594983955
23184049 59 17894627041684797236
23402539 116 17774993601125170188
23557571 272 16557885966252971863
23559900 14 17561366193283564332
298252 57 18202560691760254914
3472631 163 18202563986327517557
4028521 119 17846780714954732865
4340502 62 18114473262852369283
474 4 18336547123060049707
633830 44 18410010996606913815
7364860 26 17700693965181141591
83771 10 9223230749695054610
94968 8 10663806477749826557
9981440 41 18128808828214612290

> <PUBCHEM_SHAPE_MULTIPOLES>
338.11
7.28
2.04
1.32
0.26
0.87
0
-5.89
0
-0.06
0
0
0.27
-0.69

> <PUBCHEM_SHAPE_SELFOVERLAP>
731.212

> <PUBCHEM_SHAPE_VOLUME>
187.1

> <PUBCHEM_COORDINATE_TYPE>
2
5
10

> <Energy>
42.8498

> <minimizedAffinity>
-8.59135

> <CNNscore>
0.7006735802

> <CNNaffinity>
7.1479358673

> <CNN_VS>
5.0083699226

> <CNNaffinity_variance>
1.0830376148

$$$$
6623


 19 20  0  0  0  0  0  0  0  0999 V2000
    9.7685   45.3678  129.6776 C   0  0  0  0  0  0  0  0  0  0  0  0
    8.6327   44.4806  129.0981 C   0  0  0  0  0  0  0  0  0  0  0  0
   10.9367   45.2559  128.6606 C   0  0  0  0  0  0  0  0  0  0  0  0
   11.6943   43.5630  134.7592 O   0  0  0  0  0  0  0  0  0  0  0  0
   10.3096   44.8736  131.0409 C   0  0  0  0  0  0  0  0  0  0  0  0
    9.4032   44.5199  132.0638 C   0  0  0  0  0  0  0  0  0  0  0  0
   11.6822   44.7591  131.3207 C   0  0  0  0  0  0  0  0  0  0  0  0
    9.8486   44.0815  133.3143 C   0  0  0  0  0  0  0  0  0  0  0  0
   12.1291   44.3159  132.5699 C   0  0  0  0  0  0  0  0  0  0  0  0
   11.2117   43.9841  133.5559 C   0  0  0  0  0  0  0  0  0  0  0  0
   11.1013   43.3311  135.4466 H   0  0  0  0  0  0  0  0  0  0  0  0
    7.6260   50.6647  130.0294 O   0  0  0  0  0  0  0  0  0  0  0  0
    9.1933   46.7985  129.8051 C   0  0  0  0  0  0  0  0  0  0  0  0
    7.9550   47.1095  129.2034 C   0  0  0  0  0  0  0  0  0  0  0  0
    9.8601   47.8291  130.4913 C   0  0  0  0  0  0  0  0  0  0  0  0
    7.4160   48.3975  129.2677 C   0  0  0  0  0  0  0  0  0  0  0  0
    9.3191   49.1160  130.5607 C   0  0  0  0  0  0  0  0  0  0  0  0
    8.1074   49.3921  129.9451 C   0  0  0  0  0  0  0  0  0  0  0  0
    6.8102   50.8847  129.6246 H   0  0  0  0  0  0  0  0  0  0  0  0
  4 10  1  0
  4 11  1  0
 12 18  1  0
 12 19  1  0
  1  5  1  0
  1 13  1  0
  1  2  1  0
  1  3  1  0
  5  6  2  0
  5  7  1  0
 13 14  2  0
 13 15  1  0
  6  8  1  0
 14 16  1  0
  7  9  2  0
 15 17  2  0
  8 10  2  0
 16 18  2  0
  9 10  1  0
 17 18  1  0
M  END
> <PUBCHEM_COMPOUND_CID>
6623

> <PUBCHEM_CONFORMER_RMSD>
0.6

> <PUBCHEM_CONFORMER_DIVERSEORDER>
1
3
2

> <PUBCHEM_MMFF94_PARTIAL_CHARGES>
25
1 -0.53
10 -0.15
11 -0.15
12 -0.15
13 -0.15
14 -0.15
15 -0.15
16 0.08
17 0.08
2 -0.53
24 0.15
25 0.15
26 0.15
27 0.15
28 0.15
29 0.15
3 0.29
30 0.15
31 0.15
32 0.45
33 0.45
4 -0.14
5 -0.14
8 -0.15
9 -0.15

> <PUBCHEM_EFFECTIVE_ROTOR_COUNT>
2

> <PUBCHEM_PHARMACOPHORE_FEATURES>
5
1 1 donor
1 2 donor
3 3 6 7 hydrophobe
6 4 8 10 12 14 16 rings
6 5 9 11 13 15 17 rings

> <PUBCHEM_HEAVY_ATOM_COUNT>
17

> <PUBCHEM_ATOM_DEF_STEREO_COUNT>
0

> <PUBCHEM_ATOM_UDEF_STEREO_COUNT>
0

> <PUBCHEM_BOND_DEF_STEREO_COUNT>
0

> <PUBCHEM_BOND_UDEF_STEREO_COUNT>
0

> <PUBCHEM_ISOTOPIC_ATOM_COUNT>
0

> <PUBCHEM_COMPONENT_COUNT>
1

> <PUBCHEM_CACTVS_TAUTO_COUNT>
3

> <PUBCHEM_CONFORMER_ID>
000019DF00000001

> <PUBCHEM_MMFF94_ENERGY>
64.1206

> <PUBCHEM_FEATURE_SELFOVERLAP>
25.372

> <PUBCHEM_SHAPE_FINGERPRINT>
10465860 228 18265052440146906875
10498660 4 17846494807956907777
10618630 7 8862950471944920352
11046707 91 8574440819802817220
11640471 11 18410569587104953028
12138202 97 17632297942700988494
12251169 10 15719115772587467277
12491281 212 18341893034625719138
12633257 1 15647059291015153984
12788726 201 18049710021441717058
12892183 10 15719384001885322888
13571099 52 18261397711031002503
13764800 53 18340221781019704851
14251764 38 17758668950351880149
14739800 52 17985806350554812304
15061688 2 18410575084673810317
15309172 13 17822005415182549066
15342168 16 18187090559068058613
15375462 189 9295287269996453078
15534591 1 18337673126062282338
15653759 3 15068339003624658237
15775835 57 18410853261110395364
15906896 17 18264490774389428130
16945 1 17917141818369727011
17357779 13 13899614313340361589
1741750 31 18337674225716062138
17804303 29 12829490320433961629
1813 80 17692251833473259110
18186145 218 18334012757179395950
19765921 60 18411697656461014379
19868273 293 17988923409424780430
20291156 8 9223230745321134917
20361792 2 9943803365827786299
204376 136 18186802491163379179
20645476 183 18339358668581405150
20671657 53 12751245791825749096
20871999 31 16988551447065141829
21499 59 18412825772344063143
21524375 3 18410855460138945163
21713013 43 13758065299356720749
21731228 192 17894352193594983955
23184049 59 17894627041684797236
23402539 116 17774993601125170188
23557571 272 16557885966252971863
23559900 14 17561366193283564332
298252 57 18202560691760254914
3472631 163 18202563986327517557
4028521 119 17846780714954732865
4340502 62 18114473262852369283
474 4 18336547123060049707
633830 44 18410010996606913815
7364860 26 17700693965181141591
83771 10 9223230749695054610
94968 8 10663806477749826557
9981440 41 18128808828214612290

> <PUBCHEM_SHAPE_MULTIPOLES>
338.11
7.28
2.04
1.32
0.26
0.87
0
-5.89
0
-0.06
0
0
0.27
-0.69

> <PUBCHEM_SHAPE_SELFOVERLAP>
731.212

> <PUBCHEM_SHAPE_VOLUME>
187.1

> <PUBCHEM_COORDINATE_TYPE>
2
5
10

> <Energy>
42.8498

> <minimizedAffinity>
-8.01549

> <CNNscore>
0.6973311305

> <CNNaffinity>
7.1639060974

> <CNN_VS>
4.9956145287

> <CNNaffinity_variance>
1.2516851425

$$$$
