8571


 22 23  0  0  0  0  0  0  0  0999 V2000
   -6.6059   -4.5241   11.5584 O   0  0  0  0  0  0  0  0  0  0  0  0
   -7.0600   -4.0378   12.5906 C   0  0  0  0  0  0  0  0  0  0  0  0
   -8.4560   -4.3495   15.0864 O   0  0  0  0  0  0  0  0  0  0  0  0
   -4.3852   -4.7282   17.5059 O   0  0  0  0  0  0  0  0  0  0  0  0
   -6.3438   -4.2254   13.8771 C   0  0  0  0  0  0  0  0  0  0  0  0
   -7.0859   -4.3688   15.0608 C   0  0  0  0  0  0  0  0  0  0  0  0
   -4.9439   -4.2500   13.9405 C   0  0  0  0  0  0  0  0  0  0  0  0
   -6.4475   -4.5497   16.2862 C   0  0  0  0  0  0  0  0  0  0  0  0
   -4.3032   -4.4146   15.1711 C   0  0  0  0  0  0  0  0  0  0  0  0
   -5.0572   -4.5672   16.3302 C   0  0  0  0  0  0  0  0  0  0  0  0
   -8.9378   -4.2312   14.2914 H   0  0  0  0  0  0  0  0  0  0  0  0
   -4.8604   -4.8338   18.3065 H   0  0  0  0  0  0  0  0  0  0  0  0
   -9.5903   -5.1930   12.2600 O   0  0  0  0  0  0  0  0  0  0  0  0
  -11.6842   -0.8789   12.3710 O   0  0  0  0  0  0  0  0  0  0  0  0
   -8.2789   -3.2141   12.5251 C   0  0  0  0  0  0  0  0  0  0  0  0
   -9.5231   -3.8331   12.3739 C   0  0  0  0  0  0  0  0  0  0  0  0
   -8.1820   -1.8249   12.6390 C   0  0  0  0  0  0  0  0  0  0  0  0
  -10.6855   -3.0653   12.3286 C   0  0  0  0  0  0  0  0  0  0  0  0
   -9.3429   -1.0545   12.5728 C   0  0  0  0  0  0  0  0  0  0  0  0
  -10.5805   -1.6784   12.4228 C   0  0  0  0  0  0  0  0  0  0  0  0
   -8.8061   -5.7050   12.2910 H   0  0  0  0  0  0  0  0  0  0  0  0
  -12.5343   -1.2599   12.2708 H   0  0  0  0  0  0  0  0  0  0  0  0
  3  6  1  0
  3 11  1  0
 13 16  1  0
 13 21  1  0
  1  2  2  0
  4 10  1  0
  4 12  1  0
 14 20  1  0
 14 22  1  0
  5  2  1  0
  5  6  2  0
  5  7  1  0
 15  2  1  0
 15 16  2  0
 15 17  1  0
  6  8  1  0
 16 18  1  0
  7  9  2  0
 17 19  2  0
  8 10  2  0
 18 20  2  0
  9 10  1  0
 19 20  1  0
M  END
> <PUBCHEM_COMPOUND_CID>
8571

> <PUBCHEM_CONFORMER_RMSD>
0.6

> <PUBCHEM_CONFORMER_DIVERSEORDER>
3
14
8
5
6
10
13
11
12
7
2
4
9
1

> <PUBCHEM_MMFF94_PARTIAL_CHARGES>
28
1 -0.53
10 0.08
11 -0.15
12 -0.15
13 -0.15
14 -0.15
15 -0.15
16 -0.15
17 0.08
18 0.08
19 0.15
2 -0.53
20 0.15
21 0.15
22 0.15
23 0.15
24 0.15
25 0.45
26 0.45
27 0.45
28 0.45
3 -0.57
4 -0.53
5 -0.53
6 0.09
7 0.09
8 0.4
9 0.08

> <PUBCHEM_EFFECTIVE_ROTOR_COUNT>
2

> <PUBCHEM_PHARMACOPHORE_FEATURES>
7
1 1 donor
1 2 donor
1 3 acceptor
1 4 donor
1 5 donor
6 6 9 11 13 15 17 rings
6 7 10 12 14 16 18 rings

> <PUBCHEM_HEAVY_ATOM_COUNT>
18

> <PUBCHEM_ATOM_DEF_STEREO_COUNT>
0

> <PUBCHEM_ATOM_UDEF_STEREO_COUNT>
0

> <PUBCHEM_BOND_DEF_STEREO_COUNT>
0

> <PUBCHEM_BOND_UDEF_STEREO_COUNT>
0

> <PUBCHEM_ISOTOPIC_ATOM_COUNT>
0

> <PUBCHEM_COMPONENT_COUNT>
1

> <PUBCHEM_CACTVS_TAUTO_COUNT>
72

> <PUBCHEM_CONFORMER_ID>
0000217B00000003

> <PUBCHEM_MMFF94_ENERGY>
59.7646

> <PUBCHEM_FEATURE_SELFOVERLAP>
35.523

> <PUBCHEM_SHAPE_FINGERPRINT>
11471102 20 18409169892103070408
11543360 7 16558473084182650672
11578080 2 11531614863815746903
12236239 1 18131065996288699443
12730499 353 18260275135465842107
13764800 53 16298659508524951853
14115302 16 17274813641062312855
14993402 34 17846215540487606185
15309172 13 17603583049510828995
15342168 16 17968104165179409005
15775835 57 18412826888988243309
16752209 62 16702019734536568467
16945 1 18338804403115108058
1813 80 17908702826610089778
18186145 218 18334579027342918966
19784866 34 18334295413878624880
19862831 5 17703791439638752137
19868273 293 17846494850753190559
20612939 158 18410015399459763708
20645476 183 18131345336920073351
20645477 70 18339644438557177238
20871999 31 17703499013054573895
21486144 27 18040157318289672158
22079108 93 18187935001610251691
22854114 59 17458065950124340569
231179 274 17822006519258234448
23402539 116 18409442626948148612
23402655 69 18343585139818180612
23559900 14 18270131244514800908
23598291 2 17916313731579383754
25 1 18335137605093349618
2748010 2 18049736405846724776
2838139 119 17898835865392311757
3082319 5 17846778520178562597
350125 39 17829344823007393920
4028521 119 18341894112446576825
474 4 18335984259027423912
5374978 207 12973890299285696421
633830 44 18335985259854816367
74978 22 17775280611934871745
76465 3 11743574149888780620
77492 1 18131067091542367739
81228 2 16880770831219455195
8272917 22 18265617572439684195
9981440 41 17624393673978878472

> <PUBCHEM_SHAPE_MULTIPOLES>
341.08
8.1
1.9
1.16
0.73
0.35
-0.07
-4.23
-1.78
-1.35
0.05
0.84
0.24
-0.62

> <PUBCHEM_SHAPE_SELFOVERLAP>
750.848

> <PUBCHEM_SHAPE_VOLUME>
184

> <PUBCHEM_COORDINATE_TYPE>
2
5
10

> <Energy>
46.2868

> <minimizedAffinity>
-8.48096

> <CNNscore>
0.8802950978

> <CNNaffinity>
5.4424309731

> <CNN_VS>
4.7909455299

> <CNNaffinity_variance>
0.2013825327

$$$$
8571


 22 23  0  0  0  0  0  0  0  0999 V2000
   -6.6848   -4.7057   11.6761 O   0  0  0  0  0  0  0  0  0  0  0  0
   -7.0640   -4.0813   12.6632 C   0  0  0  0  0  0  0  0  0  0  0  0
   -9.6924   -5.1773   12.2565 O   0  0  0  0  0  0  0  0  0  0  0  0
  -11.6806   -0.8632   12.3142 O   0  0  0  0  0  0  0  0  0  0  0  0
   -8.2724   -3.2233   12.5796 C   0  0  0  0  0  0  0  0  0  0  0  0
   -9.5263   -3.8223   12.3769 C   0  0  0  0  0  0  0  0  0  0  0  0
   -8.1901   -1.8282   12.6855 C   0  0  0  0  0  0  0  0  0  0  0  0
  -10.6825   -3.0486   12.2964 C   0  0  0  0  0  0  0  0  0  0  0  0
   -9.3469   -1.0509   12.5881 C   0  0  0  0  0  0  0  0  0  0  0  0
  -10.5809   -1.6650   12.3994 C   0  0  0  0  0  0  0  0  0  0  0  0
   -8.9493   -5.7463   12.3031 H   0  0  0  0  0  0  0  0  0  0  0  0
  -12.5281   -1.2421   12.1872 H   0  0  0  0  0  0  0  0  0  0  0  0
   -8.4433   -4.4046   15.0797 O   0  0  0  0  0  0  0  0  0  0  0  0
   -4.3182   -4.7349   17.5050 O   0  0  0  0  0  0  0  0  0  0  0  0
   -6.3497   -4.2467   13.9403 C   0  0  0  0  0  0  0  0  0  0  0  0
   -7.0777   -4.4197   15.1211 C   0  0  0  0  0  0  0  0  0  0  0  0
   -4.9526   -4.2533   13.9557 C   0  0  0  0  0  0  0  0  0  0  0  0
   -6.4128   -4.5952   16.3335 C   0  0  0  0  0  0  0  0  0  0  0  0
   -4.2866   -4.4080   15.1715 C   0  0  0  0  0  0  0  0  0  0  0  0
   -5.0188   -4.5810   16.3451 C   0  0  0  0  0  0  0  0  0  0  0  0
   -8.8859   -4.2863   14.2623 H   0  0  0  0  0  0  0  0  0  0  0  0
   -4.7736   -4.8537   18.3151 H   0  0  0  0  0  0  0  0  0  0  0  0
  3  6  1  0
  3 11  1  0
 13 16  1  0
 13 21  1  0
  1  2  2  0
  4 10  1  0
  4 12  1  0
 14 20  1  0
 14 22  1  0
  5  2  1  0
  5  6  2  0
  5  7  1  0
 15  2  1  0
 15 16  2  0
 15 17  1  0
  6  8  1  0
 16 18  1  0
  7  9  2  0
 17 19  2  0
  8 10  2  0
 18 20  2  0
  9 10  1  0
 19 20  1  0
M  END
> <PUBCHEM_COMPOUND_CID>
8571

> <PUBCHEM_CONFORMER_RMSD>
0.6

> <PUBCHEM_CONFORMER_DIVERSEORDER>
3
14
8
5
6
10
13
11
12
7
2
4
9
1

> <PUBCHEM_MMFF94_PARTIAL_CHARGES>
28
1 -0.53
10 0.08
11 -0.15
12 -0.15
13 -0.15
14 -0.15
15 -0.15
16 -0.15
17 0.08
18 0.08
19 0.15
2 -0.53
20 0.15
21 0.15
22 0.15
23 0.15
24 0.15
25 0.45
26 0.45
27 0.45
28 0.45
3 -0.57
4 -0.53
5 -0.53
6 0.09
7 0.09
8 0.4
9 0.08

> <PUBCHEM_EFFECTIVE_ROTOR_COUNT>
2

> <PUBCHEM_PHARMACOPHORE_FEATURES>
7
1 1 donor
1 2 donor
1 3 acceptor
1 4 donor
1 5 donor
6 6 9 11 13 15 17 rings
6 7 10 12 14 16 18 rings

> <PUBCHEM_HEAVY_ATOM_COUNT>
18

> <PUBCHEM_ATOM_DEF_STEREO_COUNT>
0

> <PUBCHEM_ATOM_UDEF_STEREO_COUNT>
0

> <PUBCHEM_BOND_DEF_STEREO_COUNT>
0

> <PUBCHEM_BOND_UDEF_STEREO_COUNT>
0

> <PUBCHEM_ISOTOPIC_ATOM_COUNT>
0

> <PUBCHEM_COMPONENT_COUNT>
1

> <PUBCHEM_CACTVS_TAUTO_COUNT>
72

> <PUBCHEM_CONFORMER_ID>
0000217B00000003

> <PUBCHEM_MMFF94_ENERGY>
59.7646

> <PUBCHEM_FEATURE_SELFOVERLAP>
35.523

> <PUBCHEM_SHAPE_FINGERPRINT>
11471102 20 18409169892103070408
11543360 7 16558473084182650672
11578080 2 11531614863815746903
12236239 1 18131065996288699443
12730499 353 18260275135465842107
13764800 53 16298659508524951853
14115302 16 17274813641062312855
14993402 34 17846215540487606185
15309172 13 17603583049510828995
15342168 16 17968104165179409005
15775835 57 18412826888988243309
16752209 62 16702019734536568467
16945 1 18338804403115108058
1813 80 17908702826610089778
18186145 218 18334579027342918966
19784866 34 18334295413878624880
19862831 5 17703791439638752137
19868273 293 17846494850753190559
20612939 158 18410015399459763708
20645476 183 18131345336920073351
20645477 70 18339644438557177238
20871999 31 17703499013054573895
21486144 27 18040157318289672158
22079108 93 18187935001610251691
22854114 59 17458065950124340569
231179 274 17822006519258234448
23402539 116 18409442626948148612
23402655 69 18343585139818180612
23559900 14 18270131244514800908
23598291 2 17916313731579383754
25 1 18335137605093349618
2748010 2 18049736405846724776
2838139 119 17898835865392311757
3082319 5 17846778520178562597
350125 39 17829344823007393920
4028521 119 18341894112446576825
474 4 18335984259027423912
5374978 207 12973890299285696421
633830 44 18335985259854816367
74978 22 17775280611934871745
76465 3 11743574149888780620
77492 1 18131067091542367739
81228 2 16880770831219455195
8272917 22 18265617572439684195
9981440 41 17624393673978878472

> <PUBCHEM_SHAPE_MULTIPOLES>
341.08
8.1
1.9
1.16
0.73
0.35
-0.07
-4.23
-1.78
-1.35
0.05
0.84
0.24
-0.62

> <PUBCHEM_SHAPE_SELFOVERLAP>
750.848

> <PUBCHEM_SHAPE_VOLUME>
184

> <PUBCHEM_COORDINATE_TYPE>
2
5
10

> <Energy>
46.2868

> <minimizedAffinity>
-8.34382

> <CNNscore>
0.8787677884

> <CNNaffinity>
5.4282221794

> <CNN_VS>
4.7701468468

> <CNNaffinity_variance>
0.2065085173

$$$$
8571


 22 23  0  0  0  0  0  0  0  0999 V2000
   -6.5108   -4.4911   11.5207 O   0  0  0  0  0  0  0  0  0  0  0  0
   -6.9647   -4.0018   12.5516 C   0  0  0  0  0  0  0  0  0  0  0  0
   -4.2747   -5.0165   12.6472 O   0  0  0  0  0  0  0  0  0  0  0  0
   -4.0767   -4.5138   17.3670 O   0  0  0  0  0  0  0  0  0  0  0  0
   -6.2129   -4.1255   13.8255 C   0  0  0  0  0  0  0  0  0  0  0  0
   -4.9031   -4.6315   13.8027 C   0  0  0  0  0  0  0  0  0  0  0  0
   -6.7839   -3.7610   15.0524 C   0  0  0  0  0  0  0  0  0  0  0  0
   -4.1663   -4.7588   14.9786 C   0  0  0  0  0  0  0  0  0  0  0  0
   -6.0516   -3.9042   16.2336 C   0  0  0  0  0  0  0  0  0  0  0  0
   -4.7511   -4.3961   16.1876 C   0  0  0  0  0  0  0  0  0  0  0  0
   -4.7226   -4.9525   11.8267 H   0  0  0  0  0  0  0  0  0  0  0  0
   -3.1989   -4.8415   17.3742 H   0  0  0  0  0  0  0  0  0  0  0  0
   -9.4486   -5.2825   12.3600 O   0  0  0  0  0  0  0  0  0  0  0  0
  -11.7349   -1.0658   12.3643 O   0  0  0  0  0  0  0  0  0  0  0  0
   -8.2220   -3.2372   12.4950 C   0  0  0  0  0  0  0  0  0  0  0  0
   -9.4406   -3.9173   12.4143 C   0  0  0  0  0  0  0  0  0  0  0  0
   -8.1856   -1.8414   12.5469 C   0  0  0  0  0  0  0  0  0  0  0  0
  -10.6382   -3.2051   12.3782 C   0  0  0  0  0  0  0  0  0  0  0  0
   -9.3825   -1.1274   12.4898 C   0  0  0  0  0  0  0  0  0  0  0  0
  -10.5943   -1.8120   12.4103 C   0  0  0  0  0  0  0  0  0  0  0  0
   -8.6410   -5.7570   12.3846 H   0  0  0  0  0  0  0  0  0  0  0  0
  -12.5693   -1.4885   12.3105 H   0  0  0  0  0  0  0  0  0  0  0  0
  3  6  1  0
  3 11  1  0
 13 16  1  0
 13 21  1  0
  1  2  2  0
  4 10  1  0
  4 12  1  0
 14 20  1  0
 14 22  1  0
  5  2  1  0
  5  6  2  0
  5  7  1  0
 15  2  1  0
 15 16  2  0
 15 17  1  0
  6  8  1  0
 16 18  1  0
  7  9  2  0
 17 19  2  0
  8 10  2  0
 18 20  2  0
  9 10  1  0
 19 20  1  0
M  END
> <PUBCHEM_COMPOUND_CID>
8571

> <PUBCHEM_CONFORMER_RMSD>
0.6

> <PUBCHEM_CONFORMER_DIVERSEORDER>
3
14
8
5
6
10
13
11
12
7
2
4
9
1

> <PUBCHEM_MMFF94_PARTIAL_CHARGES>
28
1 -0.53
10 0.08
11 -0.15
12 -0.15
13 -0.15
14 -0.15
15 -0.15
16 -0.15
17 0.08
18 0.08
19 0.15
2 -0.53
20 0.15
21 0.15
22 0.15
23 0.15
24 0.15
25 0.45
26 0.45
27 0.45
28 0.45
3 -0.57
4 -0.53
5 -0.53
6 0.09
7 0.09
8 0.4
9 0.08

> <PUBCHEM_EFFECTIVE_ROTOR_COUNT>
2

> <PUBCHEM_PHARMACOPHORE_FEATURES>
7
1 1 donor
1 2 donor
1 3 acceptor
1 4 donor
1 5 donor
6 6 9 11 13 15 17 rings
6 7 10 12 14 16 18 rings

> <PUBCHEM_HEAVY_ATOM_COUNT>
18

> <PUBCHEM_ATOM_DEF_STEREO_COUNT>
0

> <PUBCHEM_ATOM_UDEF_STEREO_COUNT>
0

> <PUBCHEM_BOND_DEF_STEREO_COUNT>
0

> <PUBCHEM_BOND_UDEF_STEREO_COUNT>
0

> <PUBCHEM_ISOTOPIC_ATOM_COUNT>
0

> <PUBCHEM_COMPONENT_COUNT>
1

> <PUBCHEM_CACTVS_TAUTO_COUNT>
72

> <PUBCHEM_CONFORMER_ID>
0000217B00000003

> <PUBCHEM_MMFF94_ENERGY>
59.7646

> <PUBCHEM_FEATURE_SELFOVERLAP>
35.523

> <PUBCHEM_SHAPE_FINGERPRINT>
11471102 20 18409169892103070408
11543360 7 16558473084182650672
11578080 2 11531614863815746903
12236239 1 18131065996288699443
12730499 353 18260275135465842107
13764800 53 16298659508524951853
14115302 16 17274813641062312855
14993402 34 17846215540487606185
15309172 13 17603583049510828995
15342168 16 17968104165179409005
15775835 57 18412826888988243309
16752209 62 16702019734536568467
16945 1 18338804403115108058
1813 80 17908702826610089778
18186145 218 18334579027342918966
19784866 34 18334295413878624880
19862831 5 17703791439638752137
19868273 293 17846494850753190559
20612939 158 18410015399459763708
20645476 183 18131345336920073351
20645477 70 18339644438557177238
20871999 31 17703499013054573895
21486144 27 18040157318289672158
22079108 93 18187935001610251691
22854114 59 17458065950124340569
231179 274 17822006519258234448
23402539 116 18409442626948148612
23402655 69 18343585139818180612
23559900 14 18270131244514800908
23598291 2 17916313731579383754
25 1 18335137605093349618
2748010 2 18049736405846724776
2838139 119 17898835865392311757
3082319 5 17846778520178562597
350125 39 17829344823007393920
4028521 119 18341894112446576825
474 4 18335984259027423912
5374978 207 12973890299285696421
633830 44 18335985259854816367
74978 22 17775280611934871745
76465 3 11743574149888780620
77492 1 18131067091542367739
81228 2 16880770831219455195
8272917 22 18265617572439684195
9981440 41 17624393673978878472

> <PUBCHEM_SHAPE_MULTIPOLES>
341.08
8.1
1.9
1.16
0.73
0.35
-0.07
-4.23
-1.78
-1.35
0.05
0.84
0.24
-0.62

> <PUBCHEM_SHAPE_SELFOVERLAP>
750.848

> <PUBCHEM_SHAPE_VOLUME>
184

> <PUBCHEM_COORDINATE_TYPE>
2
5
10

> <Energy>
46.2868

> <minimizedAffinity>
-8.42342

> <CNNscore>
0.8760119081

> <CNNaffinity>
5.8172969818

> <CNN_VS>
5.0960216522

> <CNNaffinity_variance>
0.2773029804

$$$$
8571


 22 23  0  0  0  0  0  0  0  0999 V2000
   -6.5023   -4.4247   11.5268 O   0  0  0  0  0  0  0  0  0  0  0  0
   -6.9276   -3.8975   12.5511 C   0  0  0  0  0  0  0  0  0  0  0  0
   -9.4944   -5.1909   12.4343 O   0  0  0  0  0  0  0  0  0  0  0  0
  -11.7769   -1.0247   12.4007 O   0  0  0  0  0  0  0  0  0  0  0  0
   -8.1973   -3.1295   12.5186 C   0  0  0  0  0  0  0  0  0  0  0  0
   -9.4172   -3.8229   12.4588 C   0  0  0  0  0  0  0  0  0  0  0  0
   -8.2074   -1.7281   12.5332 C   0  0  0  0  0  0  0  0  0  0  0  0
  -10.6287   -3.1350   12.4298 C   0  0  0  0  0  0  0  0  0  0  0  0
   -9.4213   -1.0378   12.4874 C   0  0  0  0  0  0  0  0  0  0  0  0
  -10.6190   -1.7440   12.4407 C   0  0  0  0  0  0  0  0  0  0  0  0
   -8.7110   -5.7048   12.4520 H   0  0  0  0  0  0  0  0  0  0  0  0
  -12.6023   -1.4669   12.3687 H   0  0  0  0  0  0  0  0  0  0  0  0
   -4.3603   -5.0165   12.6103 O   0  0  0  0  0  0  0  0  0  0  0  0
   -4.1830   -4.6055   17.3860 O   0  0  0  0  0  0  0  0  0  0  0  0
   -6.2028   -4.0931   13.8181 C   0  0  0  0  0  0  0  0  0  0  0  0
   -4.9173   -4.6418   13.8004 C   0  0  0  0  0  0  0  0  0  0  0  0
   -6.7972   -3.7061   15.0219 C   0  0  0  0  0  0  0  0  0  0  0  0
   -4.2142   -4.8151   14.9913 C   0  0  0  0  0  0  0  0  0  0  0  0
   -6.1025   -3.8985   16.2160 C   0  0  0  0  0  0  0  0  0  0  0  0
   -4.8205   -4.4455   16.1910 C   0  0  0  0  0  0  0  0  0  0  0  0
   -4.8368   -4.8980   11.8122 H   0  0  0  0  0  0  0  0  0  0  0  0
   -3.3201   -4.9697   17.4116 H   0  0  0  0  0  0  0  0  0  0  0  0
  3  6  1  0
  3 11  1  0
 13 16  1  0
 13 21  1  0
  1  2  2  0
  4 10  1  0
  4 12  1  0
 14 20  1  0
 14 22  1  0
  5  2  1  0
  5  6  2  0
  5  7  1  0
 15  2  1  0
 15 16  2  0
 15 17  1  0
  6  8  1  0
 16 18  1  0
  7  9  2  0
 17 19  2  0
  8 10  2  0
 18 20  2  0
  9 10  1  0
 19 20  1  0
M  END
> <PUBCHEM_COMPOUND_CID>
8571

> <PUBCHEM_CONFORMER_RMSD>
0.6

> <PUBCHEM_CONFORMER_DIVERSEORDER>
3
14
8
5
6
10
13
11
12
7
2
4
9
1

> <PUBCHEM_MMFF94_PARTIAL_CHARGES>
28
1 -0.53
10 0.08
11 -0.15
12 -0.15
13 -0.15
14 -0.15
15 -0.15
16 -0.15
17 0.08
18 0.08
19 0.15
2 -0.53
20 0.15
21 0.15
22 0.15
23 0.15
24 0.15
25 0.45
26 0.45
27 0.45
28 0.45
3 -0.57
4 -0.53
5 -0.53
6 0.09
7 0.09
8 0.4
9 0.08

> <PUBCHEM_EFFECTIVE_ROTOR_COUNT>
2

> <PUBCHEM_PHARMACOPHORE_FEATURES>
7
1 1 donor
1 2 donor
1 3 acceptor
1 4 donor
1 5 donor
6 6 9 11 13 15 17 rings
6 7 10 12 14 16 18 rings

> <PUBCHEM_HEAVY_ATOM_COUNT>
18

> <PUBCHEM_ATOM_DEF_STEREO_COUNT>
0

> <PUBCHEM_ATOM_UDEF_STEREO_COUNT>
0

> <PUBCHEM_BOND_DEF_STEREO_COUNT>
0

> <PUBCHEM_BOND_UDEF_STEREO_COUNT>
0

> <PUBCHEM_ISOTOPIC_ATOM_COUNT>
0

> <PUBCHEM_COMPONENT_COUNT>
1

> <PUBCHEM_CACTVS_TAUTO_COUNT>
72

> <PUBCHEM_CONFORMER_ID>
0000217B00000003

> <PUBCHEM_MMFF94_ENERGY>
59.7646

> <PUBCHEM_FEATURE_SELFOVERLAP>
35.523

> <PUBCHEM_SHAPE_FINGERPRINT>
11471102 20 18409169892103070408
11543360 7 16558473084182650672
11578080 2 11531614863815746903
12236239 1 18131065996288699443
12730499 353 18260275135465842107
13764800 53 16298659508524951853
14115302 16 17274813641062312855
14993402 34 17846215540487606185
15309172 13 17603583049510828995
15342168 16 17968104165179409005
15775835 57 18412826888988243309
16752209 62 16702019734536568467
16945 1 18338804403115108058
1813 80 17908702826610089778
18186145 218 18334579027342918966
19784866 34 18334295413878624880
19862831 5 17703791439638752137
19868273 293 17846494850753190559
20612939 158 18410015399459763708
20645476 183 18131345336920073351
20645477 70 18339644438557177238
20871999 31 17703499013054573895
21486144 27 18040157318289672158
22079108 93 18187935001610251691
22854114 59 17458065950124340569
231179 274 17822006519258234448
23402539 116 18409442626948148612
23402655 69 18343585139818180612
23559900 14 18270131244514800908
23598291 2 17916313731579383754
25 1 18335137605093349618
2748010 2 18049736405846724776
2838139 119 17898835865392311757
3082319 5 17846778520178562597
350125 39 17829344823007393920
4028521 119 18341894112446576825
474 4 18335984259027423912
5374978 207 12973890299285696421
633830 44 18335985259854816367
74978 22 17775280611934871745
76465 3 11743574149888780620
77492 1 18131067091542367739
81228 2 16880770831219455195
8272917 22 18265617572439684195
9981440 41 17624393673978878472

> <PUBCHEM_SHAPE_MULTIPOLES>
341.08
8.1
1.9
1.16
0.73
0.35
-0.07
-4.23
-1.78
-1.35
0.05
0.84
0.24
-0.62

> <PUBCHEM_SHAPE_SELFOVERLAP>
750.848

> <PUBCHEM_SHAPE_VOLUME>
184

> <PUBCHEM_COORDINATE_TYPE>
2
5
10

> <Energy>
46.2868

> <minimizedAffinity>
-8.41162

> <CNNscore>
0.8695569634

> <CNNaffinity>
5.7754435539

> <CNN_VS>
5.0220770836

> <CNNaffinity_variance>
0.2352710217

$$$$
8571


 22 23  0  0  0  0  0  0  0  0999 V2000
   -5.9388   -4.5371   11.6056 O   0  0  0  0  0  0  0  0  0  0  0  0
   -6.6898   -4.4355   12.5720 C   0  0  0  0  0  0  0  0  0  0  0  0
   -8.3685   -4.2298   14.8989 O   0  0  0  0  0  0  0  0  0  0  0  0
   -4.6748   -4.8467   17.8219 O   0  0  0  0  0  0  0  0  0  0  0  0
   -6.1476   -4.5521   13.9488 C   0  0  0  0  0  0  0  0  0  0  0  0
   -7.0218   -4.4393   15.0421 C   0  0  0  0  0  0  0  0  0  0  0  0
   -4.7816   -4.7594   14.1840 C   0  0  0  0  0  0  0  0  0  0  0  0
   -6.5487   -4.5465   16.3485 C   0  0  0  0  0  0  0  0  0  0  0  0
   -4.3043   -4.8503   15.4940 C   0  0  0  0  0  0  0  0  0  0  0  0
   -5.1890   -4.7480   16.5627 C   0  0  0  0  0  0  0  0  0  0  0  0
   -8.7418   -4.1500   14.0431 H   0  0  0  0  0  0  0  0  0  0  0  0
   -5.2410   -4.7825   18.5656 H   0  0  0  0  0  0  0  0  0  0  0  0
   -7.6791   -1.8248   12.8004 O   0  0  0  0  0  0  0  0  0  0  0  0
  -12.1083   -3.3004   11.6995 O   0  0  0  0  0  0  0  0  0  0  0  0
   -8.1134   -4.1303   12.3509 C   0  0  0  0  0  0  0  0  0  0  0  0
   -8.5618   -2.8109   12.4610 C   0  0  0  0  0  0  0  0  0  0  0  0
   -8.9963   -5.1582   12.0101 C   0  0  0  0  0  0  0  0  0  0  0  0
   -9.9034   -2.5070   12.2366 C   0  0  0  0  0  0  0  0  0  0  0  0
  -10.3431   -4.8580   11.8057 C   0  0  0  0  0  0  0  0  0  0  0  0
  -10.7833   -3.5398   11.9162 C   0  0  0  0  0  0  0  0  0  0  0  0
   -6.7780   -2.0339   12.9503 H   0  0  0  0  0  0  0  0  0  0  0  0
  -12.4434   -2.4279   11.7644 H   0  0  0  0  0  0  0  0  0  0  0  0
  3  6  1  0
  3 11  1  0
 13 16  1  0
 13 21  1  0
  1  2  2  0
  4 10  1  0
  4 12  1  0
 14 20  1  0
 14 22  1  0
  5  2  1  0
  5  6  2  0
  5  7  1  0
 15  2  1  0
 15 16  2  0
 15 17  1  0
  6  8  1  0
 16 18  1  0
  7  9  2  0
 17 19  2  0
  8 10  2  0
 18 20  2  0
  9 10  1  0
 19 20  1  0
M  END
> <PUBCHEM_COMPOUND_CID>
8571

> <PUBCHEM_CONFORMER_RMSD>
0.6

> <PUBCHEM_CONFORMER_DIVERSEORDER>
3
14
8
5
6
10
13
11
12
7
2
4
9
1

> <PUBCHEM_MMFF94_PARTIAL_CHARGES>
28
1 -0.53
10 0.08
11 -0.15
12 -0.15
13 -0.15
14 -0.15
15 -0.15
16 -0.15
17 0.08
18 0.08
19 0.15
2 -0.53
20 0.15
21 0.15
22 0.15
23 0.15
24 0.15
25 0.45
26 0.45
27 0.45
28 0.45
3 -0.57
4 -0.53
5 -0.53
6 0.09
7 0.09
8 0.4
9 0.08

> <PUBCHEM_EFFECTIVE_ROTOR_COUNT>
2

> <PUBCHEM_PHARMACOPHORE_FEATURES>
7
1 1 donor
1 2 donor
1 3 acceptor
1 4 donor
1 5 donor
6 6 9 11 13 15 17 rings
6 7 10 12 14 16 18 rings

> <PUBCHEM_HEAVY_ATOM_COUNT>
18

> <PUBCHEM_ATOM_DEF_STEREO_COUNT>
0

> <PUBCHEM_ATOM_UDEF_STEREO_COUNT>
0

> <PUBCHEM_BOND_DEF_STEREO_COUNT>
0

> <PUBCHEM_BOND_UDEF_STEREO_COUNT>
0

> <PUBCHEM_ISOTOPIC_ATOM_COUNT>
0

> <PUBCHEM_COMPONENT_COUNT>
1

> <PUBCHEM_CACTVS_TAUTO_COUNT>
72

> <PUBCHEM_CONFORMER_ID>
0000217B00000003

> <PUBCHEM_MMFF94_ENERGY>
59.7646

> <PUBCHEM_FEATURE_SELFOVERLAP>
35.523

> <PUBCHEM_SHAPE_FINGERPRINT>
11471102 20 18409169892103070408
11543360 7 16558473084182650672
11578080 2 11531614863815746903
12236239 1 18131065996288699443
12730499 353 18260275135465842107
13764800 53 16298659508524951853
14115302 16 17274813641062312855
14993402 34 17846215540487606185
15309172 13 17603583049510828995
15342168 16 17968104165179409005
15775835 57 18412826888988243309
16752209 62 16702019734536568467
16945 1 18338804403115108058
1813 80 17908702826610089778
18186145 218 18334579027342918966
19784866 34 18334295413878624880
19862831 5 17703791439638752137
19868273 293 17846494850753190559
20612939 158 18410015399459763708
20645476 183 18131345336920073351
20645477 70 18339644438557177238
20871999 31 17703499013054573895
21486144 27 18040157318289672158
22079108 93 18187935001610251691
22854114 59 17458065950124340569
231179 274 17822006519258234448
23402539 116 18409442626948148612
23402655 69 18343585139818180612
23559900 14 18270131244514800908
23598291 2 17916313731579383754
25 1 18335137605093349618
2748010 2 18049736405846724776
2838139 119 17898835865392311757
3082319 5 17846778520178562597
350125 39 17829344823007393920
4028521 119 18341894112446576825
474 4 18335984259027423912
5374978 207 12973890299285696421
633830 44 18335985259854816367
74978 22 17775280611934871745
76465 3 11743574149888780620
77492 1 18131067091542367739
81228 2 16880770831219455195
8272917 22 18265617572439684195
9981440 41 17624393673978878472

> <PUBCHEM_SHAPE_MULTIPOLES>
341.08
8.1
1.9
1.16
0.73
0.35
-0.07
-4.23
-1.78
-1.35
0.05
0.84
0.24
-0.62

> <PUBCHEM_SHAPE_SELFOVERLAP>
750.848

> <PUBCHEM_SHAPE_VOLUME>
184

> <PUBCHEM_COORDINATE_TYPE>
2
5
10

> <Energy>
46.2868

> <minimizedAffinity>
-7.92584

> <CNNscore>
0.8547348976

> <CNNaffinity>
5.8120713234

> <CNN_VS>
4.9677801132

> <CNNaffinity_variance>
0.4494479895

$$$$
8571


 22 23  0  0  0  0  0  0  0  0999 V2000
   -7.9671   -2.4532   12.9414 O   0  0  0  0  0  0  0  0  0  0  0  0
   -7.5510   -3.6040   13.0439 C   0  0  0  0  0  0  0  0  0  0  0  0
   -7.9643   -2.6830   10.3502 O   0  0  0  0  0  0  0  0  0  0  0  0
   -8.0379   -7.1247    8.6668 O   0  0  0  0  0  0  0  0  0  0  0  0
   -7.6710   -4.5414   11.8993 C   0  0  0  0  0  0  0  0  0  0  0  0
   -7.8750   -4.0258   10.6089 C   0  0  0  0  0  0  0  0  0  0  0  0
   -7.5984   -5.9296   12.0773 C   0  0  0  0  0  0  0  0  0  0  0  0
   -7.9894   -4.8756    9.5104 C   0  0  0  0  0  0  0  0  0  0  0  0
   -7.7297   -6.7826   10.9786 C   0  0  0  0  0  0  0  0  0  0  0  0
   -7.9190   -6.2510    9.7070 C   0  0  0  0  0  0  0  0  0  0  0  0
   -7.8943   -2.0652   11.0513 H   0  0  0  0  0  0  0  0  0  0  0  0
   -8.1664   -6.8024    7.7965 H   0  0  0  0  0  0  0  0  0  0  0  0
   -4.7593   -3.7709   13.2023 O   0  0  0  0  0  0  0  0  0  0  0  0
   -5.0029   -5.1625   17.7861 O   0  0  0  0  0  0  0  0  0  0  0  0
   -6.8744   -4.0193   14.2842 C   0  0  0  0  0  0  0  0  0  0  0  0
   -5.4782   -4.0749   14.3237 C   0  0  0  0  0  0  0  0  0  0  0  0
   -7.6334   -4.3299   15.4155 C   0  0  0  0  0  0  0  0  0  0  0  0
   -4.8259   -4.4492   15.4972 C   0  0  0  0  0  0  0  0  0  0  0  0
   -6.9820   -4.7247   16.5840 C   0  0  0  0  0  0  0  0  0  0  0  0
   -5.5892   -4.7771   16.6166 C   0  0  0  0  0  0  0  0  0  0  0  0
   -5.2022   -3.5198   12.4156 H   0  0  0  0  0  0  0  0  0  0  0  0
   -4.0693   -5.2104   17.8485 H   0  0  0  0  0  0  0  0  0  0  0  0
  3  6  1  0
  3 11  1  0
 13 16  1  0
 13 21  1  0
  1  2  2  0
  4 10  1  0
  4 12  1  0
 14 20  1  0
 14 22  1  0
  5  2  1  0
  5  6  2  0
  5  7  1  0
 15  2  1  0
 15 16  2  0
 15 17  1  0
  6  8  1  0
 16 18  1  0
  7  9  2  0
 17 19  2  0
  8 10  2  0
 18 20  2  0
  9 10  1  0
 19 20  1  0
M  END
> <PUBCHEM_COMPOUND_CID>
8571

> <PUBCHEM_CONFORMER_RMSD>
0.6

> <PUBCHEM_CONFORMER_DIVERSEORDER>
3
14
8
5
6
10
13
11
12
7
2
4
9
1

> <PUBCHEM_MMFF94_PARTIAL_CHARGES>
28
1 -0.53
10 0.08
11 -0.15
12 -0.15
13 -0.15
14 -0.15
15 -0.15
16 -0.15
17 0.08
18 0.08
19 0.15
2 -0.53
20 0.15
21 0.15
22 0.15
23 0.15
24 0.15
25 0.45
26 0.45
27 0.45
28 0.45
3 -0.57
4 -0.53
5 -0.53
6 0.09
7 0.09
8 0.4
9 0.08

> <PUBCHEM_EFFECTIVE_ROTOR_COUNT>
2

> <PUBCHEM_PHARMACOPHORE_FEATURES>
7
1 1 donor
1 2 donor
1 3 acceptor
1 4 donor
1 5 donor
6 6 9 11 13 15 17 rings
6 7 10 12 14 16 18 rings

> <PUBCHEM_HEAVY_ATOM_COUNT>
18

> <PUBCHEM_ATOM_DEF_STEREO_COUNT>
0

> <PUBCHEM_ATOM_UDEF_STEREO_COUNT>
0

> <PUBCHEM_BOND_DEF_STEREO_COUNT>
0

> <PUBCHEM_BOND_UDEF_STEREO_COUNT>
0

> <PUBCHEM_ISOTOPIC_ATOM_COUNT>
0

> <PUBCHEM_COMPONENT_COUNT>
1

> <PUBCHEM_CACTVS_TAUTO_COUNT>
72

> <PUBCHEM_CONFORMER_ID>
0000217B00000003

> <PUBCHEM_MMFF94_ENERGY>
59.7646

> <PUBCHEM_FEATURE_SELFOVERLAP>
35.523

> <PUBCHEM_SHAPE_FINGERPRINT>
11471102 20 18409169892103070408
11543360 7 16558473084182650672
11578080 2 11531614863815746903
12236239 1 18131065996288699443
12730499 353 18260275135465842107
13764800 53 16298659508524951853
14115302 16 17274813641062312855
14993402 34 17846215540487606185
15309172 13 17603583049510828995
15342168 16 17968104165179409005
15775835 57 18412826888988243309
16752209 62 16702019734536568467
16945 1 18338804403115108058
1813 80 17908702826610089778
18186145 218 18334579027342918966
19784866 34 18334295413878624880
19862831 5 17703791439638752137
19868273 293 17846494850753190559
20612939 158 18410015399459763708
20645476 183 18131345336920073351
20645477 70 18339644438557177238
20871999 31 17703499013054573895
21486144 27 18040157318289672158
22079108 93 18187935001610251691
22854114 59 17458065950124340569
231179 274 17822006519258234448
23402539 116 18409442626948148612
23402655 69 18343585139818180612
23559900 14 18270131244514800908
23598291 2 17916313731579383754
25 1 18335137605093349618
2748010 2 18049736405846724776
2838139 119 17898835865392311757
3082319 5 17846778520178562597
350125 39 17829344823007393920
4028521 119 18341894112446576825
474 4 18335984259027423912
5374978 207 12973890299285696421
633830 44 18335985259854816367
74978 22 17775280611934871745
76465 3 11743574149888780620
77492 1 18131067091542367739
81228 2 16880770831219455195
8272917 22 18265617572439684195
9981440 41 17624393673978878472

> <PUBCHEM_SHAPE_MULTIPOLES>
341.08
8.1
1.9
1.16
0.73
0.35
-0.07
-4.23
-1.78
-1.35
0.05
0.84
0.24
-0.62

> <PUBCHEM_SHAPE_SELFOVERLAP>
750.848

> <PUBCHEM_SHAPE_VOLUME>
184

> <PUBCHEM_COORDINATE_TYPE>
2
5
10

> <Energy>
46.2868

> <minimizedAffinity>
-7.91490

> <CNNscore>
0.7991527915

> <CNNaffinity>
6.1299548149

> <CNN_VS>
4.8987703323

> <CNNaffinity_variance>
0.7520852685

$$$$
8571


 22 23  0  0  0  0  0  0  0  0999 V2000
   -8.0173   -2.4275   12.9058 O   0  0  0  0  0  0  0  0  0  0  0  0
   -7.5316   -3.5517   12.9980 C   0  0  0  0  0  0  0  0  0  0  0  0
   -4.6756   -3.8017   13.2337 O   0  0  0  0  0  0  0  0  0  0  0  0
   -5.0049   -5.1860   17.7662 O   0  0  0  0  0  0  0  0  0  0  0  0
   -6.8784   -3.9768   14.2613 C   0  0  0  0  0  0  0  0  0  0  0  0
   -5.4787   -4.0815   14.3083 C   0  0  0  0  0  0  0  0  0  0  0  0
   -7.6263   -4.2885   15.4048 C   0  0  0  0  0  0  0  0  0  0  0  0
   -4.8311   -4.4746   15.4779 C   0  0  0  0  0  0  0  0  0  0  0  0
   -6.9784   -4.6988   16.5727 C   0  0  0  0  0  0  0  0  0  0  0  0
   -5.5901   -4.7841   16.6019 C   0  0  0  0  0  0  0  0  0  0  0  0
   -5.0571   -3.5325   12.4212 H   0  0  0  0  0  0  0  0  0  0  0  0
   -4.0721   -5.2550   17.8223 H   0  0  0  0  0  0  0  0  0  0  0  0
   -7.9427   -2.6452   10.3796 O   0  0  0  0  0  0  0  0  0  0  0  0
   -8.0093   -7.1470    8.7253 O   0  0  0  0  0  0  0  0  0  0  0  0
   -7.6649   -4.4903   11.8710 C   0  0  0  0  0  0  0  0  0  0  0  0
   -7.8547   -3.9942   10.5781 C   0  0  0  0  0  0  0  0  0  0  0  0
   -7.5763   -5.8655   12.1020 C   0  0  0  0  0  0  0  0  0  0  0  0
   -7.9643   -4.8720    9.5010 C   0  0  0  0  0  0  0  0  0  0  0  0
   -7.7068   -6.7453   11.0275 C   0  0  0  0  0  0  0  0  0  0  0  0
   -7.8950   -6.2436    9.7405 C   0  0  0  0  0  0  0  0  0  0  0  0
   -7.8684   -2.0589   11.1068 H   0  0  0  0  0  0  0  0  0  0  0  0
   -8.1367   -6.8498    7.8459 H   0  0  0  0  0  0  0  0  0  0  0  0
  3  6  1  0
  3 11  1  0
 13 16  1  0
 13 21  1  0
  1  2  2  0
  4 10  1  0
  4 12  1  0
 14 20  1  0
 14 22  1  0
  5  2  1  0
  5  6  2  0
  5  7  1  0
 15  2  1  0
 15 16  2  0
 15 17  1  0
  6  8  1  0
 16 18  1  0
  7  9  2  0
 17 19  2  0
  8 10  2  0
 18 20  2  0
  9 10  1  0
 19 20  1  0
M  END
> <PUBCHEM_COMPOUND_CID>
8571

> <PUBCHEM_CONFORMER_RMSD>
0.6

> <PUBCHEM_CONFORMER_DIVERSEORDER>
3
14
8
5
6
10
13
11
12
7
2
4
9
1

> <PUBCHEM_MMFF94_PARTIAL_CHARGES>
28
1 -0.53
10 0.08
11 -0.15
12 -0.15
13 -0.15
14 -0.15
15 -0.15
16 -0.15
17 0.08
18 0.08
19 0.15
2 -0.53
20 0.15
21 0.15
22 0.15
23 0.15
24 0.15
25 0.45
26 0.45
27 0.45
28 0.45
3 -0.57
4 -0.53
5 -0.53
6 0.09
7 0.09
8 0.4
9 0.08

> <PUBCHEM_EFFECTIVE_ROTOR_COUNT>
2

> <PUBCHEM_PHARMACOPHORE_FEATURES>
7
1 1 donor
1 2 donor
1 3 acceptor
1 4 donor
1 5 donor
6 6 9 11 13 15 17 rings
6 7 10 12 14 16 18 rings

> <PUBCHEM_HEAVY_ATOM_COUNT>
18

> <PUBCHEM_ATOM_DEF_STEREO_COUNT>
0

> <PUBCHEM_ATOM_UDEF_STEREO_COUNT>
0

> <PUBCHEM_BOND_DEF_STEREO_COUNT>
0

> <PUBCHEM_BOND_UDEF_STEREO_COUNT>
0

> <PUBCHEM_ISOTOPIC_ATOM_COUNT>
0

> <PUBCHEM_COMPONENT_COUNT>
1

> <PUBCHEM_CACTVS_TAUTO_COUNT>
72

> <PUBCHEM_CONFORMER_ID>
0000217B00000003

> <PUBCHEM_MMFF94_ENERGY>
59.7646

> <PUBCHEM_FEATURE_SELFOVERLAP>
35.523

> <PUBCHEM_SHAPE_FINGERPRINT>
11471102 20 18409169892103070408
11543360 7 16558473084182650672
11578080 2 11531614863815746903
12236239 1 18131065996288699443
12730499 353 18260275135465842107
13764800 53 16298659508524951853
14115302 16 17274813641062312855
14993402 34 17846215540487606185
15309172 13 17603583049510828995
15342168 16 17968104165179409005
15775835 57 18412826888988243309
16752209 62 16702019734536568467
16945 1 18338804403115108058
1813 80 17908702826610089778
18186145 218 18334579027342918966
19784866 34 18334295413878624880
19862831 5 17703791439638752137
19868273 293 17846494850753190559
20612939 158 18410015399459763708
20645476 183 18131345336920073351
20645477 70 18339644438557177238
20871999 31 17703499013054573895
21486144 27 18040157318289672158
22079108 93 18187935001610251691
22854114 59 17458065950124340569
231179 274 17822006519258234448
23402539 116 18409442626948148612
23402655 69 18343585139818180612
23559900 14 18270131244514800908
23598291 2 17916313731579383754
25 1 18335137605093349618
2748010 2 18049736405846724776
2838139 119 17898835865392311757
3082319 5 17846778520178562597
350125 39 17829344823007393920
4028521 119 18341894112446576825
474 4 18335984259027423912
5374978 207 12973890299285696421
633830 44 18335985259854816367
74978 22 17775280611934871745
76465 3 11743574149888780620
77492 1 18131067091542367739
81228 2 16880770831219455195
8272917 22 18265617572439684195
9981440 41 17624393673978878472

> <PUBCHEM_SHAPE_MULTIPOLES>
341.08
8.1
1.9
1.16
0.73
0.35
-0.07
-4.23
-1.78
-1.35
0.05
0.84
0.24
-0.62

> <PUBCHEM_SHAPE_SELFOVERLAP>
750.848

> <PUBCHEM_SHAPE_VOLUME>
184

> <PUBCHEM_COORDINATE_TYPE>
2
5
10

> <Energy>
46.2868

> <minimizedAffinity>
-7.90457

> <CNNscore>
0.7977285981

> <CNNaffinity>
6.1098895073

> <CNN_VS>
4.8740334511

> <CNNaffinity_variance>
0.7361355424

$$$$
8571


 22 23  0  0  0  0  0  0  0  0999 V2000
   -7.0494   -5.5103   11.5255 O   0  0  0  0  0  0  0  0  0  0  0  0
   -7.1919   -4.6887   12.4271 C   0  0  0  0  0  0  0  0  0  0  0  0
   -7.6786   -2.9281   10.2049 O   0  0  0  0  0  0  0  0  0  0  0  0
  -11.5296   -1.0891   12.2920 O   0  0  0  0  0  0  0  0  0  0  0  0
   -8.3416   -3.7502   12.4012 C   0  0  0  0  0  0  0  0  0  0  0  0
   -8.5204   -2.9152   11.2862 C   0  0  0  0  0  0  0  0  0  0  0  0
   -9.2459   -3.6684   13.4688 C   0  0  0  0  0  0  0  0  0  0  0  0
   -9.5899   -2.0240   11.2260 C   0  0  0  0  0  0  0  0  0  0  0  0
  -10.3088   -2.7631   13.4161 C   0  0  0  0  0  0  0  0  0  0  0  0
  -10.4750   -1.9536   12.2969 C   0  0  0  0  0  0  0  0  0  0  0  0
   -6.9426   -3.5079   10.1911 H   0  0  0  0  0  0  0  0  0  0  0  0
  -11.6725   -0.5286   11.5549 H   0  0  0  0  0  0  0  0  0  0  0  0
   -4.4261   -4.8993   12.0367 O   0  0  0  0  0  0  0  0  0  0  0  0
   -3.6410   -4.6716   16.7632 O   0  0  0  0  0  0  0  0  0  0  0  0
   -6.2530   -4.6918   13.5616 C   0  0  0  0  0  0  0  0  0  0  0  0
   -4.8792   -4.7842   13.3206 C   0  0  0  0  0  0  0  0  0  0  0  0
   -6.7429   -4.5782   14.8652 C   0  0  0  0  0  0  0  0  0  0  0  0
   -3.9796   -4.7701   14.3851 C   0  0  0  0  0  0  0  0  0  0  0  0
   -5.8445   -4.5850   15.9323 C   0  0  0  0  0  0  0  0  0  0  0  0
   -4.4757   -4.6765   15.6846 C   0  0  0  0  0  0  0  0  0  0  0  0
   -5.0347   -4.9083   11.3242 H   0  0  0  0  0  0  0  0  0  0  0  0
   -2.7144   -4.7315   16.6386 H   0  0  0  0  0  0  0  0  0  0  0  0
  3  6  1  0
  3 11  1  0
 13 16  1  0
 13 21  1  0
  1  2  2  0
  4 10  1  0
  4 12  1  0
 14 20  1  0
 14 22  1  0
  5  2  1  0
  5  6  2  0
  5  7  1  0
 15  2  1  0
 15 16  2  0
 15 17  1  0
  6  8  1  0
 16 18  1  0
  7  9  2  0
 17 19  2  0
  8 10  2  0
 18 20  2  0
  9 10  1  0
 19 20  1  0
M  END
> <PUBCHEM_COMPOUND_CID>
8571

> <PUBCHEM_CONFORMER_RMSD>
0.6

> <PUBCHEM_CONFORMER_DIVERSEORDER>
3
14
8
5
6
10
13
11
12
7
2
4
9
1

> <PUBCHEM_MMFF94_PARTIAL_CHARGES>
28
1 -0.53
10 0.08
11 -0.15
12 -0.15
13 -0.15
14 -0.15
15 -0.15
16 -0.15
17 0.08
18 0.08
19 0.15
2 -0.53
20 0.15
21 0.15
22 0.15
23 0.15
24 0.15
25 0.45
26 0.45
27 0.45
28 0.45
3 -0.57
4 -0.53
5 -0.53
6 0.09
7 0.09
8 0.4
9 0.08

> <PUBCHEM_EFFECTIVE_ROTOR_COUNT>
2

> <PUBCHEM_PHARMACOPHORE_FEATURES>
7
1 1 donor
1 2 donor
1 3 acceptor
1 4 donor
1 5 donor
6 6 9 11 13 15 17 rings
6 7 10 12 14 16 18 rings

> <PUBCHEM_HEAVY_ATOM_COUNT>
18

> <PUBCHEM_ATOM_DEF_STEREO_COUNT>
0

> <PUBCHEM_ATOM_UDEF_STEREO_COUNT>
0

> <PUBCHEM_BOND_DEF_STEREO_COUNT>
0

> <PUBCHEM_BOND_UDEF_STEREO_COUNT>
0

> <PUBCHEM_ISOTOPIC_ATOM_COUNT>
0

> <PUBCHEM_COMPONENT_COUNT>
1

> <PUBCHEM_CACTVS_TAUTO_COUNT>
72

> <PUBCHEM_CONFORMER_ID>
0000217B00000003

> <PUBCHEM_MMFF94_ENERGY>
59.7646

> <PUBCHEM_FEATURE_SELFOVERLAP>
35.523

> <PUBCHEM_SHAPE_FINGERPRINT>
11471102 20 18409169892103070408
11543360 7 16558473084182650672
11578080 2 11531614863815746903
12236239 1 18131065996288699443
12730499 353 18260275135465842107
13764800 53 16298659508524951853
14115302 16 17274813641062312855
14993402 34 17846215540487606185
15309172 13 17603583049510828995
15342168 16 17968104165179409005
15775835 57 18412826888988243309
16752209 62 16702019734536568467
16945 1 18338804403115108058
1813 80 17908702826610089778
18186145 218 18334579027342918966
19784866 34 18334295413878624880
19862831 5 17703791439638752137
19868273 293 17846494850753190559
20612939 158 18410015399459763708
20645476 183 18131345336920073351
20645477 70 18339644438557177238
20871999 31 17703499013054573895
21486144 27 18040157318289672158
22079108 93 18187935001610251691
22854114 59 17458065950124340569
231179 274 17822006519258234448
23402539 116 18409442626948148612
23402655 69 18343585139818180612
23559900 14 18270131244514800908
23598291 2 17916313731579383754
25 1 18335137605093349618
2748010 2 18049736405846724776
2838139 119 17898835865392311757
3082319 5 17846778520178562597
350125 39 17829344823007393920
4028521 119 18341894112446576825
474 4 18335984259027423912
5374978 207 12973890299285696421
633830 44 18335985259854816367
74978 22 17775280611934871745
76465 3 11743574149888780620
77492 1 18131067091542367739
81228 2 16880770831219455195
8272917 22 18265617572439684195
9981440 41 17624393673978878472

> <PUBCHEM_SHAPE_MULTIPOLES>
341.08
8.1
1.9
1.16
0.73
0.35
-0.07
-4.23
-1.78
-1.35
0.05
0.84
0.24
-0.62

> <PUBCHEM_SHAPE_SELFOVERLAP>
750.848

> <PUBCHEM_SHAPE_VOLUME>
184

> <PUBCHEM_COORDINATE_TYPE>
2
5
10

> <Energy>
46.2868

> <minimizedAffinity>
-7.81064

> <CNNscore>
0.7956387401

> <CNNaffinity>
5.8543968201

> <CNN_VS>
4.6579847336

> <CNNaffinity_variance>
0.4333883226

$$$$
8571


 22 23  0  0  0  0  0  0  0  0999 V2000
   -8.1073   -6.1719   12.8070 O   0  0  0  0  0  0  0  0  0  0  0  0
   -7.5631   -5.0713   12.8339 C   0  0  0  0  0  0  0  0  0  0  0  0
   -8.4320   -4.2825   15.4602 O   0  0  0  0  0  0  0  0  0  0  0  0
   -3.9559   -3.7957   16.9754 O   0  0  0  0  0  0  0  0  0  0  0  0
   -6.6029   -4.7444   13.9175 C   0  0  0  0  0  0  0  0  0  0  0  0
   -7.0936   -4.3632   15.1770 C   0  0  0  0  0  0  0  0  0  0  0  0
   -5.2177   -4.7947   13.7100 C   0  0  0  0  0  0  0  0  0  0  0  0
   -6.2218   -4.0520   16.2186 C   0  0  0  0  0  0  0  0  0  0  0  0
   -4.3434   -4.4666   14.7492 C   0  0  0  0  0  0  0  0  0  0  0  0
   -4.8501   -4.1034   15.9928 C   0  0  0  0  0  0  0  0  0  0  0  0
   -9.0640   -4.4808   14.7973 H   0  0  0  0  0  0  0  0  0  0  0  0
   -4.2613   -3.5467   17.8256 H   0  0  0  0  0  0  0  0  0  0  0  0
   -6.6757   -5.5477   10.2200 O   0  0  0  0  0  0  0  0  0  0  0  0
   -8.5829   -1.4127    8.7126 O   0  0  0  0  0  0  0  0  0  0  0  0
   -7.8212   -4.1117   11.7471 C   0  0  0  0  0  0  0  0  0  0  0  0
   -7.3729   -4.3961   10.4540 C   0  0  0  0  0  0  0  0  0  0  0  0
   -8.5320   -2.9388   12.0142 C   0  0  0  0  0  0  0  0  0  0  0  0
   -7.6266   -3.5041    9.4135 C   0  0  0  0  0  0  0  0  0  0  0  0
   -8.7683   -2.0358   10.9777 C   0  0  0  0  0  0  0  0  0  0  0  0
   -8.3191   -2.3262    9.6903 C   0  0  0  0  0  0  0  0  0  0  0  0
   -6.5075   -6.1444   10.9227 H   0  0  0  0  0  0  0  0  0  0  0  0
   -8.2977   -1.5710    7.8343 H   0  0  0  0  0  0  0  0  0  0  0  0
  3  6  1  0
  3 11  1  0
 13 16  1  0
 13 21  1  0
  1  2  2  0
  4 10  1  0
  4 12  1  0
 14 20  1  0
 14 22  1  0
  5  2  1  0
  5  6  2  0
  5  7  1  0
 15  2  1  0
 15 16  2  0
 15 17  1  0
  6  8  1  0
 16 18  1  0
  7  9  2  0
 17 19  2  0
  8 10  2  0
 18 20  2  0
  9 10  1  0
 19 20  1  0
M  END
> <PUBCHEM_COMPOUND_CID>
8571

> <PUBCHEM_CONFORMER_RMSD>
0.6

> <PUBCHEM_CONFORMER_DIVERSEORDER>
3
14
8
5
6
10
13
11
12
7
2
4
9
1

> <PUBCHEM_MMFF94_PARTIAL_CHARGES>
28
1 -0.53
10 0.08
11 -0.15
12 -0.15
13 -0.15
14 -0.15
15 -0.15
16 -0.15
17 0.08
18 0.08
19 0.15
2 -0.53
20 0.15
21 0.15
22 0.15
23 0.15
24 0.15
25 0.45
26 0.45
27 0.45
28 0.45
3 -0.57
4 -0.53
5 -0.53
6 0.09
7 0.09
8 0.4
9 0.08

> <PUBCHEM_EFFECTIVE_ROTOR_COUNT>
2

> <PUBCHEM_PHARMACOPHORE_FEATURES>
7
1 1 donor
1 2 donor
1 3 acceptor
1 4 donor
1 5 donor
6 6 9 11 13 15 17 rings
6 7 10 12 14 16 18 rings

> <PUBCHEM_HEAVY_ATOM_COUNT>
18

> <PUBCHEM_ATOM_DEF_STEREO_COUNT>
0

> <PUBCHEM_ATOM_UDEF_STEREO_COUNT>
0

> <PUBCHEM_BOND_DEF_STEREO_COUNT>
0

> <PUBCHEM_BOND_UDEF_STEREO_COUNT>
0

> <PUBCHEM_ISOTOPIC_ATOM_COUNT>
0

> <PUBCHEM_COMPONENT_COUNT>
1

> <PUBCHEM_CACTVS_TAUTO_COUNT>
72

> <PUBCHEM_CONFORMER_ID>
0000217B00000003

> <PUBCHEM_MMFF94_ENERGY>
59.7646

> <PUBCHEM_FEATURE_SELFOVERLAP>
35.523

> <PUBCHEM_SHAPE_FINGERPRINT>
11471102 20 18409169892103070408
11543360 7 16558473084182650672
11578080 2 11531614863815746903
12236239 1 18131065996288699443
12730499 353 18260275135465842107
13764800 53 16298659508524951853
14115302 16 17274813641062312855
14993402 34 17846215540487606185
15309172 13 17603583049510828995
15342168 16 17968104165179409005
15775835 57 18412826888988243309
16752209 62 16702019734536568467
16945 1 18338804403115108058
1813 80 17908702826610089778
18186145 218 18334579027342918966
19784866 34 18334295413878624880
19862831 5 17703791439638752137
19868273 293 17846494850753190559
20612939 158 18410015399459763708
20645476 183 18131345336920073351
20645477 70 18339644438557177238
20871999 31 17703499013054573895
21486144 27 18040157318289672158
22079108 93 18187935001610251691
22854114 59 17458065950124340569
231179 274 17822006519258234448
23402539 116 18409442626948148612
23402655 69 18343585139818180612
23559900 14 18270131244514800908
23598291 2 17916313731579383754
25 1 18335137605093349618
2748010 2 18049736405846724776
2838139 119 17898835865392311757
3082319 5 17846778520178562597
350125 39 17829344823007393920
4028521 119 18341894112446576825
474 4 18335984259027423912
5374978 207 12973890299285696421
633830 44 18335985259854816367
74978 22 17775280611934871745
76465 3 11743574149888780620
77492 1 18131067091542367739
81228 2 16880770831219455195
8272917 22 18265617572439684195
9981440 41 17624393673978878472

> <PUBCHEM_SHAPE_MULTIPOLES>
341.08
8.1
1.9
1.16
0.73
0.35
-0.07
-4.23
-1.78
-1.35
0.05
0.84
0.24
-0.62

> <PUBCHEM_SHAPE_SELFOVERLAP>
750.848

> <PUBCHEM_SHAPE_VOLUME>
184

> <PUBCHEM_COORDINATE_TYPE>
2
5
10

> <Energy>
46.2868

> <minimizedAffinity>
-8.42264

> <CNNscore>
0.7554079294

> <CNNaffinity>
6.0587272644

> <CNN_VS>
4.5768108368

> <CNNaffinity_variance>
0.6608943939

$$$$
