5284645


 26 27  0  0  0  0  0  0  0  0999 V2000
   -8.3810   -2.6123   24.6732 O   0  0  0  0  0  0  0  0  0  0  0  0
   -3.9501   -5.1004   21.4619 O   0  0  0  0  0  0  0  0  0  0  0  0
   -4.3778   -4.1159   19.4237 O   0  0  0  0  0  0  0  0  0  0  0  0
   -1.6720   -4.1839   18.5396 O   0  0  0  0  0  0  0  0  0  0  0  0
    1.0901   -1.4373   21.1858 O   0  0  0  0  0  0  0  0  0  0  0  0
   -7.9948   -3.7533   22.5903 C   0  0  0  0  0  0  0  0  0  0  0  0
   -7.3736   -2.8846   23.6976 C   0  0  0  0  0  0  0  0  0  0  0  0
   -6.9758   -4.3577   21.6206 C   0  0  0  0  0  0  0  0  0  0  0  0
   -6.8292   -1.5480   23.1705 C   0  0  0  0  0  0  0  0  0  0  0  0
   -6.1954   -5.5252   22.2337 C   0  0  0  0  0  0  0  0  0  0  0  0
   -6.0368   -0.7510   24.2177 C   0  0  0  0  0  0  0  0  0  0  0  0
   -5.0615   -6.0104   21.3245 C   0  0  0  0  0  0  0  0  0  0  0  0
   -4.6988   -1.3813   24.6220 C   0  0  0  0  0  0  0  0  0  0  0  0
   -4.5542   -7.3780   21.7723 C   0  0  0  0  0  0  0  0  0  0  0  0
   -3.7282   -1.4885   23.4774 C   0  0  0  0  0  0  0  0  0  0  0  0
   -2.5026   -3.4648   20.7221 C   0  0  0  0  0  0  0  0  0  0  0  0
   -2.2813   -2.7344   21.9067 C   0  0  0  0  0  0  0  0  0  0  0  0
   -3.7516   -4.2125   20.4682 C   0  0  0  0  0  0  0  0  0  0  0  0
   -3.2547   -2.6539   23.0076 C   0  0  0  0  0  0  0  0  0  0  0  0
   -1.5267   -3.4843   19.7126 C   0  0  0  0  0  0  0  0  0  0  0  0
   -1.0550   -2.0576   22.0587 C   0  0  0  0  0  0  0  0  0  0  0  0
   -0.0973   -2.0924   21.0478 C   0  0  0  0  0  0  0  0  0  0  0  0
   -0.3261   -2.7984   19.8727 C   0  0  0  0  0  0  0  0  0  0  0  0
   -8.7343   -3.4483   25.0152 H   0  0  0  0  0  0  0  0  0  0  0  0
   -2.4591   -4.6651   18.3755 H   0  0  0  0  0  0  0  0  0  0  0  0
    1.2702   -0.9537   21.9679 H   0  0  0  0  0  0  0  0  0  0  0  0
  1  7  1  0
  1 24  1  0
  2 12  1  0
  2 18  1  0
  3 18  2  0
  4 20  1  0
  4 25  1  0
  5 22  1  0
  5 26  1  0
  6  7  1  0
  6  8  1  0
  7  9  1  0
  8 10  1  0
  9 11  1  0
 10 12  1  0
 11 13  1  0
 12 14  1  0
 13 15  1  0
 15 19  2  0
 16 17  2  0
 16 18  1  0
 16 20  1  0
 17 19  1  0
 17 21  1  0
 20 23  2  0
 21 22  2  0
 22 23  1  0
M  END
> <PUBCHEM_COMPOUND_CID>
5284645

> <PUBCHEM_CONFORMER_RMSD>
0.6

> <PUBCHEM_CONFORMER_DIVERSEORDER>
1

> <PUBCHEM_MMFF94_PARTIAL_CHARGES>
24
1 -0.68
12 0.28
13 0.14
15 -0.29
16 0.09
17 0.03
18 0.63
19 -0.18
2 -0.43
20 0.08
21 -0.15
22 0.08
23 -0.15
3 -0.57
4 -0.53
41 0.4
42 0.15
43 0.15
44 0.15
45 0.15
46 0.45
47 0.45
5 -0.53
7 0.28

> <PUBCHEM_EFFECTIVE_ROTOR_COUNT>
1.8

> <PUBCHEM_PHARMACOPHORE_FEATURES>
6
1 1 acceptor
1 1 donor
1 3 acceptor
1 4 donor
1 5 donor
6 16 17 20 21 22 23 rings

> <PUBCHEM_HEAVY_ATOM_COUNT>
23

> <PUBCHEM_ATOM_DEF_STEREO_COUNT>
2

> <PUBCHEM_ATOM_UDEF_STEREO_COUNT>
0

> <PUBCHEM_BOND_DEF_STEREO_COUNT>
1

> <PUBCHEM_BOND_UDEF_STEREO_COUNT>
0

> <PUBCHEM_ISOTOPIC_ATOM_COUNT>
0

> <PUBCHEM_COMPONENT_COUNT>
1

> <PUBCHEM_CACTVS_TAUTO_COUNT>
12

> <PUBCHEM_CONFORMER_ID>
0050A32500000001

> <PUBCHEM_MMFF94_ENERGY>
56.9454

> <PUBCHEM_FEATURE_SELFOVERLAP>
30.446

> <PUBCHEM_SHAPE_FINGERPRINT>
1100329 8 17836085568009856625
11112241 14 16986289841619931392
11578080 2 16734366241365874279
12166972 35 17967822613537111974
12403259 226 18337670931286267939
12506688 2 18412827975731104564
12596599 1 17914633677902020662
12788726 201 17627507133988941776
13140716 1 18267582403486064363
13402501 40 18336828697047978282
13533116 47 18056766653224983451
14251757 17 18262232209996353437
14787075 74 18336834185758012246
14790565 3 17545883724776523813
14866123 147 17767415573386001256
14931854 50 18336551491284682350
15196674 1 18334859415888043750
15322687 12 17104511174142344237
19591789 44 18337109089556020683
19930381 70 18413393137471364090
20028762 73 17044582808783771111
20691752 17 17022900138402631537
20715895 44 17609482839964013085
20832881 197 18343306989256920753
20905425 154 18409167675446349782
22182313 1 18041826412212926463
23227448 37 18189331260828617463
23352939 185 18342462530415398027
23557571 272 17910374109985112994
23559900 14 18335978778501818797
238 59 18196346307921625956
2748010 2 18117544331403189953
3323516 105 18411138077713944259
350125 39 18336268960321048513
3524813 1 18334011700965522918
3680242 22 18116995477305685354
463206 1 18269557311053435927
5265222 85 17471861776259798556
57527585 103 17390829632986241626
59755656 215 18188762977069237031
6443956 14 18340493347406701473
81228 2 17476913559209296171

> <PUBCHEM_SHAPE_MULTIPOLES>
443.98
8.21
4.09
1.18
1.54
0.84
-0.09
-3.84
1.51
-1.8
-1.33
-0.11
0.8
1.1

> <PUBCHEM_SHAPE_SELFOVERLAP>
916.908

> <PUBCHEM_SHAPE_VOLUME>
252.3

> <PUBCHEM_COORDINATE_TYPE>
2
5
10

> <Energy>
40.5071

> <minimizedAffinity>
-8.92026

> <CNNscore>
0.7975642085

> <CNNaffinity>
6.5669341087

> <CNN_VS>
5.2375516891

> <CNNaffinity_variance>
0.2080940753

$$$$
5284645


 26 27  0  0  0  0  0  0  0  0999 V2000
   -9.3612   -5.0486   22.7626 O   0  0  0  0  0  0  0  0  0  0  0  0
   -4.5737   -1.4131   22.7808 O   0  0  0  0  0  0  0  0  0  0  0  0
   -3.2078   -2.6136   24.1948 O   0  0  0  0  0  0  0  0  0  0  0  0
   -0.7754   -1.6857   23.0417 O   0  0  0  0  0  0  0  0  0  0  0  0
   -0.2916   -3.1514   18.5927 O   0  0  0  0  0  0  0  0  0  0  0  0
   -7.8301   -3.9809   24.2809 C   0  0  0  0  0  0  0  0  0  0  0  0
   -8.0398   -4.5130   22.8528 C   0  0  0  0  0  0  0  0  0  0  0  0
   -6.5695   -3.1296   24.4548 C   0  0  0  0  0  0  0  0  0  0  0  0
   -7.0385   -5.6155   22.4753 C   0  0  0  0  0  0  0  0  0  0  0  0
   -6.7127   -1.7293   23.8495 C   0  0  0  0  0  0  0  0  0  0  0  0
   -7.1044   -6.0259   20.9965 C   0  0  0  0  0  0  0  0  0  0  0  0
   -5.3956   -0.9467   23.8713 C   0  0  0  0  0  0  0  0  0  0  0  0
   -6.6207   -4.9531   20.0136 C   0  0  0  0  0  0  0  0  0  0  0  0
   -5.6420    0.5378   23.6184 C   0  0  0  0  0  0  0  0  0  0  0  0
   -5.1708   -4.5959   20.1980 C   0  0  0  0  0  0  0  0  0  0  0  0
   -2.7572   -2.5024   21.8688 C   0  0  0  0  0  0  0  0  0  0  0  0
   -3.3170   -3.0359   20.6907 C   0  0  0  0  0  0  0  0  0  0  0  0
   -3.5563   -2.2426   23.0843 C   0  0  0  0  0  0  0  0  0  0  0  0
   -4.7426   -3.3718   20.5462 C   0  0  0  0  0  0  0  0  0  0  0  0
   -1.3837   -2.2169   21.9308 C   0  0  0  0  0  0  0  0  0  0  0  0
   -2.4739   -3.2435   19.5813 C   0  0  0  0  0  0  0  0  0  0  0  0
   -1.1145   -2.9500   19.6606 C   0  0  0  0  0  0  0  0  0  0  0  0
   -0.5618   -2.4413   20.8300 C   0  0  0  0  0  0  0  0  0  0  0  0
  -10.0049   -4.3625   22.9986 H   0  0  0  0  0  0  0  0  0  0  0  0
   -1.2779   -1.5128   23.8134 H   0  0  0  0  0  0  0  0  0  0  0  0
   -0.6381   -3.4933   17.7921 H   0  0  0  0  0  0  0  0  0  0  0  0
  1  7  1  0
  1 24  1  0
  2 12  1  0
  2 18  1  0
  3 18  2  0
  4 20  1  0
  4 25  1  0
  5 22  1  0
  5 26  1  0
  6  7  1  0
  6  8  1  0
  7  9  1  0
  8 10  1  0
  9 11  1  0
 10 12  1  0
 11 13  1  0
 12 14  1  0
 13 15  1  0
 15 19  2  0
 16 17  2  0
 16 18  1  0
 16 20  1  0
 17 19  1  0
 17 21  1  0
 20 23  2  0
 21 22  2  0
 22 23  1  0
M  END
> <PUBCHEM_COMPOUND_CID>
5284645

> <PUBCHEM_CONFORMER_RMSD>
0.6

> <PUBCHEM_CONFORMER_DIVERSEORDER>
1

> <PUBCHEM_MMFF94_PARTIAL_CHARGES>
24
1 -0.68
12 0.28
13 0.14
15 -0.29
16 0.09
17 0.03
18 0.63
19 -0.18
2 -0.43
20 0.08
21 -0.15
22 0.08
23 -0.15
3 -0.57
4 -0.53
41 0.4
42 0.15
43 0.15
44 0.15
45 0.15
46 0.45
47 0.45
5 -0.53
7 0.28

> <PUBCHEM_EFFECTIVE_ROTOR_COUNT>
1.8

> <PUBCHEM_PHARMACOPHORE_FEATURES>
6
1 1 acceptor
1 1 donor
1 3 acceptor
1 4 donor
1 5 donor
6 16 17 20 21 22 23 rings

> <PUBCHEM_HEAVY_ATOM_COUNT>
23

> <PUBCHEM_ATOM_DEF_STEREO_COUNT>
2

> <PUBCHEM_ATOM_UDEF_STEREO_COUNT>
0

> <PUBCHEM_BOND_DEF_STEREO_COUNT>
1

> <PUBCHEM_BOND_UDEF_STEREO_COUNT>
0

> <PUBCHEM_ISOTOPIC_ATOM_COUNT>
0

> <PUBCHEM_COMPONENT_COUNT>
1

> <PUBCHEM_CACTVS_TAUTO_COUNT>
12

> <PUBCHEM_CONFORMER_ID>
0050A32500000001

> <PUBCHEM_MMFF94_ENERGY>
56.9454

> <PUBCHEM_FEATURE_SELFOVERLAP>
30.446

> <PUBCHEM_SHAPE_FINGERPRINT>
1100329 8 17836085568009856625
11112241 14 16986289841619931392
11578080 2 16734366241365874279
12166972 35 17967822613537111974
12403259 226 18337670931286267939
12506688 2 18412827975731104564
12596599 1 17914633677902020662
12788726 201 17627507133988941776
13140716 1 18267582403486064363
13402501 40 18336828697047978282
13533116 47 18056766653224983451
14251757 17 18262232209996353437
14787075 74 18336834185758012246
14790565 3 17545883724776523813
14866123 147 17767415573386001256
14931854 50 18336551491284682350
15196674 1 18334859415888043750
15322687 12 17104511174142344237
19591789 44 18337109089556020683
19930381 70 18413393137471364090
20028762 73 17044582808783771111
20691752 17 17022900138402631537
20715895 44 17609482839964013085
20832881 197 18343306989256920753
20905425 154 18409167675446349782
22182313 1 18041826412212926463
23227448 37 18189331260828617463
23352939 185 18342462530415398027
23557571 272 17910374109985112994
23559900 14 18335978778501818797
238 59 18196346307921625956
2748010 2 18117544331403189953
3323516 105 18411138077713944259
350125 39 18336268960321048513
3524813 1 18334011700965522918
3680242 22 18116995477305685354
463206 1 18269557311053435927
5265222 85 17471861776259798556
57527585 103 17390829632986241626
59755656 215 18188762977069237031
6443956 14 18340493347406701473
81228 2 17476913559209296171

> <PUBCHEM_SHAPE_MULTIPOLES>
443.98
8.21
4.09
1.18
1.54
0.84
-0.09
-3.84
1.51
-1.8
-1.33
-0.11
0.8
1.1

> <PUBCHEM_SHAPE_SELFOVERLAP>
916.908

> <PUBCHEM_SHAPE_VOLUME>
252.3

> <PUBCHEM_COORDINATE_TYPE>
2
5
10

> <Energy>
40.5071

> <minimizedAffinity>
-8.27004

> <CNNscore>
0.6410360932

> <CNNaffinity>
6.7541580200

> <CNN_VS>
4.3296589851

> <CNNaffinity_variance>
0.3497002125

$$$$
5284645


 26 27  0  0  0  0  0  0  0  0999 V2000
   -7.1790   -1.1858   26.3811 O   0  0  0  0  0  0  0  0  0  0  0  0
   -6.6454   -3.4914   20.8551 O   0  0  0  0  0  0  0  0  0  0  0  0
   -4.4026   -3.0961   20.5085 O   0  0  0  0  0  0  0  0  0  0  0  0
   -4.0267   -5.3060   18.7529 O   0  0  0  0  0  0  0  0  0  0  0  0
   -4.6875   -9.4120   20.9620 O   0  0  0  0  0  0  0  0  0  0  0  0
   -6.2905   -0.6510   24.2099 C   0  0  0  0  0  0  0  0  0  0  0  0
   -6.6853   -1.7788   25.1788 C   0  0  0  0  0  0  0  0  0  0  0  0
   -6.0067   -1.1218   22.7809 C   0  0  0  0  0  0  0  0  0  0  0  0
   -5.5064   -2.6975   25.5350 C   0  0  0  0  0  0  0  0  0  0  0  0
   -7.2829   -1.4712   22.0083 C   0  0  0  0  0  0  0  0  0  0  0  0
   -5.9157   -3.9371   26.3446 C   0  0  0  0  0  0  0  0  0  0  0  0
   -6.9849   -2.1047   20.6453 C   0  0  0  0  0  0  0  0  0  0  0  0
   -6.7549   -4.9588   25.5682 C   0  0  0  0  0  0  0  0  0  0  0  0
   -8.2273   -2.0963   19.7596 C   0  0  0  0  0  0  0  0  0  0  0  0
   -6.0238   -5.5515   24.3944 C   0  0  0  0  0  0  0  0  0  0  0  0
   -5.2077   -5.2940   20.8919 C   0  0  0  0  0  0  0  0  0  0  0  0
   -5.7076   -6.0246   21.9884 C   0  0  0  0  0  0  0  0  0  0  0  0
   -5.3424   -3.8265   20.7840 C   0  0  0  0  0  0  0  0  0  0  0  0
   -6.4207   -5.4098   23.1195 C   0  0  0  0  0  0  0  0  0  0  0  0
   -4.5288   -5.9540   19.8549 C   0  0  0  0  0  0  0  0  0  0  0  0
   -5.5345   -7.4227   21.9982 C   0  0  0  0  0  0  0  0  0  0  0  0
   -4.8621   -8.0601   20.9580 C   0  0  0  0  0  0  0  0  0  0  0  0
   -4.3539   -7.3345   19.8870 C   0  0  0  0  0  0  0  0  0  0  0  0
   -7.9248   -0.6022   26.1711 H   0  0  0  0  0  0  0  0  0  0  0  0
   -4.1146   -4.3763   18.6756 H   0  0  0  0  0  0  0  0  0  0  0  0
   -5.0202   -9.9253   21.6718 H   0  0  0  0  0  0  0  0  0  0  0  0
  1  7  1  0
  1 24  1  0
  2 12  1  0
  2 18  1  0
  3 18  2  0
  4 20  1  0
  4 25  1  0
  5 22  1  0
  5 26  1  0
  6  7  1  0
  6  8  1  0
  7  9  1  0
  8 10  1  0
  9 11  1  0
 10 12  1  0
 11 13  1  0
 12 14  1  0
 13 15  1  0
 15 19  2  0
 16 17  2  0
 16 18  1  0
 16 20  1  0
 17 19  1  0
 17 21  1  0
 20 23  2  0
 21 22  2  0
 22 23  1  0
M  END
> <PUBCHEM_COMPOUND_CID>
5284645

> <PUBCHEM_CONFORMER_RMSD>
0.6

> <PUBCHEM_CONFORMER_DIVERSEORDER>
1

> <PUBCHEM_MMFF94_PARTIAL_CHARGES>
24
1 -0.68
12 0.28
13 0.14
15 -0.29
16 0.09
17 0.03
18 0.63
19 -0.18
2 -0.43
20 0.08
21 -0.15
22 0.08
23 -0.15
3 -0.57
4 -0.53
41 0.4
42 0.15
43 0.15
44 0.15
45 0.15
46 0.45
47 0.45
5 -0.53
7 0.28

> <PUBCHEM_EFFECTIVE_ROTOR_COUNT>
1.8

> <PUBCHEM_PHARMACOPHORE_FEATURES>
6
1 1 acceptor
1 1 donor
1 3 acceptor
1 4 donor
1 5 donor
6 16 17 20 21 22 23 rings

> <PUBCHEM_HEAVY_ATOM_COUNT>
23

> <PUBCHEM_ATOM_DEF_STEREO_COUNT>
2

> <PUBCHEM_ATOM_UDEF_STEREO_COUNT>
0

> <PUBCHEM_BOND_DEF_STEREO_COUNT>
1

> <PUBCHEM_BOND_UDEF_STEREO_COUNT>
0

> <PUBCHEM_ISOTOPIC_ATOM_COUNT>
0

> <PUBCHEM_COMPONENT_COUNT>
1

> <PUBCHEM_CACTVS_TAUTO_COUNT>
12

> <PUBCHEM_CONFORMER_ID>
0050A32500000001

> <PUBCHEM_MMFF94_ENERGY>
56.9454

> <PUBCHEM_FEATURE_SELFOVERLAP>
30.446

> <PUBCHEM_SHAPE_FINGERPRINT>
1100329 8 17836085568009856625
11112241 14 16986289841619931392
11578080 2 16734366241365874279
12166972 35 17967822613537111974
12403259 226 18337670931286267939
12506688 2 18412827975731104564
12596599 1 17914633677902020662
12788726 201 17627507133988941776
13140716 1 18267582403486064363
13402501 40 18336828697047978282
13533116 47 18056766653224983451
14251757 17 18262232209996353437
14787075 74 18336834185758012246
14790565 3 17545883724776523813
14866123 147 17767415573386001256
14931854 50 18336551491284682350
15196674 1 18334859415888043750
15322687 12 17104511174142344237
19591789 44 18337109089556020683
19930381 70 18413393137471364090
20028762 73 17044582808783771111
20691752 17 17022900138402631537
20715895 44 17609482839964013085
20832881 197 18343306989256920753
20905425 154 18409167675446349782
22182313 1 18041826412212926463
23227448 37 18189331260828617463
23352939 185 18342462530415398027
23557571 272 17910374109985112994
23559900 14 18335978778501818797
238 59 18196346307921625956
2748010 2 18117544331403189953
3323516 105 18411138077713944259
350125 39 18336268960321048513
3524813 1 18334011700965522918
3680242 22 18116995477305685354
463206 1 18269557311053435927
5265222 85 17471861776259798556
57527585 103 17390829632986241626
59755656 215 18188762977069237031
6443956 14 18340493347406701473
81228 2 17476913559209296171

> <PUBCHEM_SHAPE_MULTIPOLES>
443.98
8.21
4.09
1.18
1.54
0.84
-0.09
-3.84
1.51
-1.8
-1.33
-0.11
0.8
1.1

> <PUBCHEM_SHAPE_SELFOVERLAP>
916.908

> <PUBCHEM_SHAPE_VOLUME>
252.3

> <PUBCHEM_COORDINATE_TYPE>
2
5
10

> <Energy>
40.5071

> <minimizedAffinity>
18.52437

> <CNNscore>
0.3621138632

> <CNNaffinity>
4.5917530060

> <CNN_VS>
1.6627373695

> <CNNaffinity_variance>
0.1984729767

$$$$
5284645


 26 27  0  0  0  0  0  0  0  0999 V2000
   -9.4572   -0.5212   24.4314 O   0  0  0  0  0  0  0  0  0  0  0  0
   -5.3217   -4.7644   23.4168 O   0  0  0  0  0  0  0  0  0  0  0  0
   -5.5839   -4.9942   21.1398 O   0  0  0  0  0  0  0  0  0  0  0  0
   -2.8933   -5.7908   20.6565 O   0  0  0  0  0  0  0  0  0  0  0  0
    0.1476   -2.3374   21.6576 O   0  0  0  0  0  0  0  0  0  0  0  0
   -9.1819   -2.6345   23.3145 C   0  0  0  0  0  0  0  0  0  0  0  0
   -8.4752   -1.3723   23.8379 C   0  0  0  0  0  0  0  0  0  0  0  0
   -8.2307   -3.7616   22.9034 C   0  0  0  0  0  0  0  0  0  0  0  0
   -7.7559   -0.5895   22.7286 C   0  0  0  0  0  0  0  0  0  0  0  0
   -7.6163   -4.4858   24.1058 C   0  0  0  0  0  0  0  0  0  0  0  0
   -6.8875    0.5636   23.2537 C   0  0  0  0  0  0  0  0  0  0  0  0
   -6.5371   -5.4918   23.6920 C   0  0  0  0  0  0  0  0  0  0  0  0
   -5.6480    0.1226   24.0412 C   0  0  0  0  0  0  0  0  0  0  0  0
   -6.2160   -6.4458   24.8388 C   0  0  0  0  0  0  0  0  0  0  0  0
   -4.6785   -0.6775   23.2143 C   0  0  0  0  0  0  0  0  0  0  0  0
   -3.6649   -3.9338   22.0446 C   0  0  0  0  0  0  0  0  0  0  0  0
   -3.3737   -2.7067   22.6734 C   0  0  0  0  0  0  0  0  0  0  0  0
   -4.9940   -4.5745   22.1239 C   0  0  0  0  0  0  0  0  0  0  0  0
   -4.3487   -1.9523   23.4773 C   0  0  0  0  0  0  0  0  0  0  0  0
   -2.6814   -4.5884   21.2855 C   0  0  0  0  0  0  0  0  0  0  0  0
   -2.0743   -2.1780   22.5441 C   0  0  0  0  0  0  0  0  0  0  0  0
   -1.1108   -2.8443   21.7904 C   0  0  0  0  0  0  0  0  0  0  0  0
   -1.4064   -4.0451   21.1560 C   0  0  0  0  0  0  0  0  0  0  0  0
   -9.9200   -1.0029   25.1346 H   0  0  0  0  0  0  0  0  0  0  0  0
   -3.7322   -6.2052   20.7083 H   0  0  0  0  0  0  0  0  0  0  0  0
    0.3737   -1.5295   22.0748 H   0  0  0  0  0  0  0  0  0  0  0  0
  1  7  1  0
  1 24  1  0
  2 12  1  0
  2 18  1  0
  3 18  2  0
  4 20  1  0
  4 25  1  0
  5 22  1  0
  5 26  1  0
  6  7  1  0
  6  8  1  0
  7  9  1  0
  8 10  1  0
  9 11  1  0
 10 12  1  0
 11 13  1  0
 12 14  1  0
 13 15  1  0
 15 19  2  0
 16 17  2  0
 16 18  1  0
 16 20  1  0
 17 19  1  0
 17 21  1  0
 20 23  2  0
 21 22  2  0
 22 23  1  0
M  END
> <PUBCHEM_COMPOUND_CID>
5284645

> <PUBCHEM_CONFORMER_RMSD>
0.6

> <PUBCHEM_CONFORMER_DIVERSEORDER>
1

> <PUBCHEM_MMFF94_PARTIAL_CHARGES>
24
1 -0.68
12 0.28
13 0.14
15 -0.29
16 0.09
17 0.03
18 0.63
19 -0.18
2 -0.43
20 0.08
21 -0.15
22 0.08
23 -0.15
3 -0.57
4 -0.53
41 0.4
42 0.15
43 0.15
44 0.15
45 0.15
46 0.45
47 0.45
5 -0.53
7 0.28

> <PUBCHEM_EFFECTIVE_ROTOR_COUNT>
1.8

> <PUBCHEM_PHARMACOPHORE_FEATURES>
6
1 1 acceptor
1 1 donor
1 3 acceptor
1 4 donor
1 5 donor
6 16 17 20 21 22 23 rings

> <PUBCHEM_HEAVY_ATOM_COUNT>
23

> <PUBCHEM_ATOM_DEF_STEREO_COUNT>
2

> <PUBCHEM_ATOM_UDEF_STEREO_COUNT>
0

> <PUBCHEM_BOND_DEF_STEREO_COUNT>
1

> <PUBCHEM_BOND_UDEF_STEREO_COUNT>
0

> <PUBCHEM_ISOTOPIC_ATOM_COUNT>
0

> <PUBCHEM_COMPONENT_COUNT>
1

> <PUBCHEM_CACTVS_TAUTO_COUNT>
12

> <PUBCHEM_CONFORMER_ID>
0050A32500000001

> <PUBCHEM_MMFF94_ENERGY>
56.9454

> <PUBCHEM_FEATURE_SELFOVERLAP>
30.446

> <PUBCHEM_SHAPE_FINGERPRINT>
1100329 8 17836085568009856625
11112241 14 16986289841619931392
11578080 2 16734366241365874279
12166972 35 17967822613537111974
12403259 226 18337670931286267939
12506688 2 18412827975731104564
12596599 1 17914633677902020662
12788726 201 17627507133988941776
13140716 1 18267582403486064363
13402501 40 18336828697047978282
13533116 47 18056766653224983451
14251757 17 18262232209996353437
14787075 74 18336834185758012246
14790565 3 17545883724776523813
14866123 147 17767415573386001256
14931854 50 18336551491284682350
15196674 1 18334859415888043750
15322687 12 17104511174142344237
19591789 44 18337109089556020683
19930381 70 18413393137471364090
20028762 73 17044582808783771111
20691752 17 17022900138402631537
20715895 44 17609482839964013085
20832881 197 18343306989256920753
20905425 154 18409167675446349782
22182313 1 18041826412212926463
23227448 37 18189331260828617463
23352939 185 18342462530415398027
23557571 272 17910374109985112994
23559900 14 18335978778501818797
238 59 18196346307921625956
2748010 2 18117544331403189953
3323516 105 18411138077713944259
350125 39 18336268960321048513
3524813 1 18334011700965522918
3680242 22 18116995477305685354
463206 1 18269557311053435927
5265222 85 17471861776259798556
57527585 103 17390829632986241626
59755656 215 18188762977069237031
6443956 14 18340493347406701473
81228 2 17476913559209296171

> <PUBCHEM_SHAPE_MULTIPOLES>
443.98
8.21
4.09
1.18
1.54
0.84
-0.09
-3.84
1.51
-1.8
-1.33
-0.11
0.8
1.1

> <PUBCHEM_SHAPE_SELFOVERLAP>
916.908

> <PUBCHEM_SHAPE_VOLUME>
252.3

> <PUBCHEM_COORDINATE_TYPE>
2
5
10

> <Energy>
40.5071

> <minimizedAffinity>
-6.99940

> <CNNscore>
0.3581950366

> <CNNaffinity>
5.6556525230

> <CNN_VS>
2.0258266926

> <CNNaffinity_variance>
0.1042133346

$$$$
5284645


 26 27  0  0  0  0  0  0  0  0999 V2000
    0.4866   -3.5116   20.7199 O   0  0  0  0  0  0  0  0  0  0  0  0
   -4.2159   -1.8221   24.0620 O   0  0  0  0  0  0  0  0  0  0  0  0
   -5.2350   -0.3972   22.5661 O   0  0  0  0  0  0  0  0  0  0  0  0
   -7.8665   -0.8236   23.5665 O   0  0  0  0  0  0  0  0  0  0  0  0
   -9.2840   -5.2632   22.8908 O   0  0  0  0  0  0  0  0  0  0  0  0
   -0.6910   -1.5361   21.4273 C   0  0  0  0  0  0  0  0  0  0  0  0
   -0.7889   -3.0492   21.1673 C   0  0  0  0  0  0  0  0  0  0  0  0
   -1.8919   -0.9483   22.1733 C   0  0  0  0  0  0  0  0  0  0  0  0
   -1.8385   -3.4034   20.1026 C   0  0  0  0  0  0  0  0  0  0  0  0
   -1.8943   -1.3031   23.6639 C   0  0  0  0  0  0  0  0  0  0  0  0
   -2.0889   -4.9127   19.9643 C   0  0  0  0  0  0  0  0  0  0  0  0
   -3.1826   -0.8620   24.3665 C   0  0  0  0  0  0  0  0  0  0  0  0
   -2.7821   -5.5584   21.1699 C   0  0  0  0  0  0  0  0  0  0  0  0
   -3.0091   -0.8846   25.8823 C   0  0  0  0  0  0  0  0  0  0  0  0
   -4.1614   -5.0112   21.4192 C   0  0  0  0  0  0  0  0  0  0  0  0
   -6.1766   -2.5160   23.0661 C   0  0  0  0  0  0  0  0  0  0  0  0
   -5.8790   -3.8628   22.7771 C   0  0  0  0  0  0  0  0  0  0  0  0
   -5.1369   -1.4689   23.1443 C   0  0  0  0  0  0  0  0  0  0  0  0
   -4.5151   -4.3626   22.5405 C   0  0  0  0  0  0  0  0  0  0  0  0
   -7.5070   -2.1156   23.2702 C   0  0  0  0  0  0  0  0  0  0  0  0
   -6.9393   -4.7891   22.7292 C   0  0  0  0  0  0  0  0  0  0  0  0
   -8.2522   -4.3736   22.9388 C   0  0  0  0  0  0  0  0  0  0  0  0
   -8.5446   -3.0412   23.2054 C   0  0  0  0  0  0  0  0  0  0  0  0
    1.1601   -3.2945   21.3832 H   0  0  0  0  0  0  0  0  0  0  0  0
   -7.2111   -0.1563   23.6238 H   0  0  0  0  0  0  0  0  0  0  0  0
   -9.1150   -6.1675   22.7130 H   0  0  0  0  0  0  0  0  0  0  0  0
  1  7  1  0
  1 24  1  0
  2 12  1  0
  2 18  1  0
  3 18  2  0
  4 20  1  0
  4 25  1  0
  5 22  1  0
  5 26  1  0
  6  7  1  0
  6  8  1  0
  7  9  1  0
  8 10  1  0
  9 11  1  0
 10 12  1  0
 11 13  1  0
 12 14  1  0
 13 15  1  0
 15 19  2  0
 16 17  2  0
 16 18  1  0
 16 20  1  0
 17 19  1  0
 17 21  1  0
 20 23  2  0
 21 22  2  0
 22 23  1  0
M  END
> <PUBCHEM_COMPOUND_CID>
5284645

> <PUBCHEM_CONFORMER_RMSD>
0.6

> <PUBCHEM_CONFORMER_DIVERSEORDER>
1

> <PUBCHEM_MMFF94_PARTIAL_CHARGES>
24
1 -0.68
12 0.28
13 0.14
15 -0.29
16 0.09
17 0.03
18 0.63
19 -0.18
2 -0.43
20 0.08
21 -0.15
22 0.08
23 -0.15
3 -0.57
4 -0.53
41 0.4
42 0.15
43 0.15
44 0.15
45 0.15
46 0.45
47 0.45
5 -0.53
7 0.28

> <PUBCHEM_EFFECTIVE_ROTOR_COUNT>
1.8

> <PUBCHEM_PHARMACOPHORE_FEATURES>
6
1 1 acceptor
1 1 donor
1 3 acceptor
1 4 donor
1 5 donor
6 16 17 20 21 22 23 rings

> <PUBCHEM_HEAVY_ATOM_COUNT>
23

> <PUBCHEM_ATOM_DEF_STEREO_COUNT>
2

> <PUBCHEM_ATOM_UDEF_STEREO_COUNT>
0

> <PUBCHEM_BOND_DEF_STEREO_COUNT>
1

> <PUBCHEM_BOND_UDEF_STEREO_COUNT>
0

> <PUBCHEM_ISOTOPIC_ATOM_COUNT>
0

> <PUBCHEM_COMPONENT_COUNT>
1

> <PUBCHEM_CACTVS_TAUTO_COUNT>
12

> <PUBCHEM_CONFORMER_ID>
0050A32500000001

> <PUBCHEM_MMFF94_ENERGY>
56.9454

> <PUBCHEM_FEATURE_SELFOVERLAP>
30.446

> <PUBCHEM_SHAPE_FINGERPRINT>
1100329 8 17836085568009856625
11112241 14 16986289841619931392
11578080 2 16734366241365874279
12166972 35 17967822613537111974
12403259 226 18337670931286267939
12506688 2 18412827975731104564
12596599 1 17914633677902020662
12788726 201 17627507133988941776
13140716 1 18267582403486064363
13402501 40 18336828697047978282
13533116 47 18056766653224983451
14251757 17 18262232209996353437
14787075 74 18336834185758012246
14790565 3 17545883724776523813
14866123 147 17767415573386001256
14931854 50 18336551491284682350
15196674 1 18334859415888043750
15322687 12 17104511174142344237
19591789 44 18337109089556020683
19930381 70 18413393137471364090
20028762 73 17044582808783771111
20691752 17 17022900138402631537
20715895 44 17609482839964013085
20832881 197 18343306989256920753
20905425 154 18409167675446349782
22182313 1 18041826412212926463
23227448 37 18189331260828617463
23352939 185 18342462530415398027
23557571 272 17910374109985112994
23559900 14 18335978778501818797
238 59 18196346307921625956
2748010 2 18117544331403189953
3323516 105 18411138077713944259
350125 39 18336268960321048513
3524813 1 18334011700965522918
3680242 22 18116995477305685354
463206 1 18269557311053435927
5265222 85 17471861776259798556
57527585 103 17390829632986241626
59755656 215 18188762977069237031
6443956 14 18340493347406701473
81228 2 17476913559209296171

> <PUBCHEM_SHAPE_MULTIPOLES>
443.98
8.21
4.09
1.18
1.54
0.84
-0.09
-3.84
1.51
-1.8
-1.33
-0.11
0.8
1.1

> <PUBCHEM_SHAPE_SELFOVERLAP>
916.908

> <PUBCHEM_SHAPE_VOLUME>
252.3

> <PUBCHEM_COORDINATE_TYPE>
2
5
10

> <Energy>
40.5071

> <minimizedAffinity>
0.56042

> <CNNscore>
0.3184101284

> <CNNaffinity>
5.8491153717

> <CNN_VS>
1.8624175787

> <CNNaffinity_variance>
0.2759666443

$$$$
5284645


 26 27  0  0  0  0  0  0  0  0999 V2000
   -0.4059   -4.5571   20.1341 O   0  0  0  0  0  0  0  0  0  0  0  0
   -4.2402   -2.1023   24.0596 O   0  0  0  0  0  0  0  0  0  0  0  0
   -5.5778   -0.9407   22.5872 O   0  0  0  0  0  0  0  0  0  0  0  0
   -7.9133   -1.0749   24.2105 O   0  0  0  0  0  0  0  0  0  0  0  0
   -9.4249   -5.5060   24.7170 O   0  0  0  0  0  0  0  0  0  0  0  0
   -1.4029   -2.4417   20.7006 C   0  0  0  0  0  0  0  0  0  0  0  0
   -1.5497   -3.9720   20.7590 C   0  0  0  0  0  0  0  0  0  0  0  0
   -2.4072   -1.6812   21.5707 C   0  0  0  0  0  0  0  0  0  0  0  0
   -2.8109   -4.4768   20.0412 C   0  0  0  0  0  0  0  0  0  0  0  0
   -2.0711   -1.7540   23.0639 C   0  0  0  0  0  0  0  0  0  0  0  0
   -3.0786   -5.9751   20.2493 C   0  0  0  0  0  0  0  0  0  0  0  0
   -3.1695   -1.1423   23.9396 C   0  0  0  0  0  0  0  0  0  0  0  0
   -3.4784   -6.3601   21.6786 C   0  0  0  0  0  0  0  0  0  0  0  0
   -2.6581   -0.8909   25.3551 C   0  0  0  0  0  0  0  0  0  0  0  0
   -4.7683   -5.7245   22.1210 C   0  0  0  0  0  0  0  0  0  0  0  0
   -6.3718   -2.8934   23.6746 C   0  0  0  0  0  0  0  0  0  0  0  0
   -6.1405   -4.2807   23.5858 C   0  0  0  0  0  0  0  0  0  0  0  0
   -5.3464   -1.8901   23.3204 C   0  0  0  0  0  0  0  0  0  0  0  0
   -4.8628   -4.8669   23.1499 C   0  0  0  0  0  0  0  0  0  0  0  0
   -7.6236   -2.4121   24.0906 C   0  0  0  0  0  0  0  0  0  0  0  0
   -7.1796   -5.1591   23.9509 C   0  0  0  0  0  0  0  0  0  0  0  0
   -8.4133   -4.6626   24.3654 C   0  0  0  0  0  0  0  0  0  0  0  0
   -8.6445   -3.2938   24.4343 C   0  0  0  0  0  0  0  0  0  0  0  0
    0.3989   -4.2468   20.5776 H   0  0  0  0  0  0  0  0  0  0  0  0
   -7.2652   -0.4339   23.9935 H   0  0  0  0  0  0  0  0  0  0  0  0
   -9.2959   -6.4333   24.6799 H   0  0  0  0  0  0  0  0  0  0  0  0
  1  7  1  0
  1 24  1  0
  2 12  1  0
  2 18  1  0
  3 18  2  0
  4 20  1  0
  4 25  1  0
  5 22  1  0
  5 26  1  0
  6  7  1  0
  6  8  1  0
  7  9  1  0
  8 10  1  0
  9 11  1  0
 10 12  1  0
 11 13  1  0
 12 14  1  0
 13 15  1  0
 15 19  2  0
 16 17  2  0
 16 18  1  0
 16 20  1  0
 17 19  1  0
 17 21  1  0
 20 23  2  0
 21 22  2  0
 22 23  1  0
M  END
> <PUBCHEM_COMPOUND_CID>
5284645

> <PUBCHEM_CONFORMER_RMSD>
0.6

> <PUBCHEM_CONFORMER_DIVERSEORDER>
1

> <PUBCHEM_MMFF94_PARTIAL_CHARGES>
24
1 -0.68
12 0.28
13 0.14
15 -0.29
16 0.09
17 0.03
18 0.63
19 -0.18
2 -0.43
20 0.08
21 -0.15
22 0.08
23 -0.15
3 -0.57
4 -0.53
41 0.4
42 0.15
43 0.15
44 0.15
45 0.15
46 0.45
47 0.45
5 -0.53
7 0.28

> <PUBCHEM_EFFECTIVE_ROTOR_COUNT>
1.8

> <PUBCHEM_PHARMACOPHORE_FEATURES>
6
1 1 acceptor
1 1 donor
1 3 acceptor
1 4 donor
1 5 donor
6 16 17 20 21 22 23 rings

> <PUBCHEM_HEAVY_ATOM_COUNT>
23

> <PUBCHEM_ATOM_DEF_STEREO_COUNT>
2

> <PUBCHEM_ATOM_UDEF_STEREO_COUNT>
0

> <PUBCHEM_BOND_DEF_STEREO_COUNT>
1

> <PUBCHEM_BOND_UDEF_STEREO_COUNT>
0

> <PUBCHEM_ISOTOPIC_ATOM_COUNT>
0

> <PUBCHEM_COMPONENT_COUNT>
1

> <PUBCHEM_CACTVS_TAUTO_COUNT>
12

> <PUBCHEM_CONFORMER_ID>
0050A32500000001

> <PUBCHEM_MMFF94_ENERGY>
56.9454

> <PUBCHEM_FEATURE_SELFOVERLAP>
30.446

> <PUBCHEM_SHAPE_FINGERPRINT>
1100329 8 17836085568009856625
11112241 14 16986289841619931392
11578080 2 16734366241365874279
12166972 35 17967822613537111974
12403259 226 18337670931286267939
12506688 2 18412827975731104564
12596599 1 17914633677902020662
12788726 201 17627507133988941776
13140716 1 18267582403486064363
13402501 40 18336828697047978282
13533116 47 18056766653224983451
14251757 17 18262232209996353437
14787075 74 18336834185758012246
14790565 3 17545883724776523813
14866123 147 17767415573386001256
14931854 50 18336551491284682350
15196674 1 18334859415888043750
15322687 12 17104511174142344237
19591789 44 18337109089556020683
19930381 70 18413393137471364090
20028762 73 17044582808783771111
20691752 17 17022900138402631537
20715895 44 17609482839964013085
20832881 197 18343306989256920753
20905425 154 18409167675446349782
22182313 1 18041826412212926463
23227448 37 18189331260828617463
23352939 185 18342462530415398027
23557571 272 17910374109985112994
23559900 14 18335978778501818797
238 59 18196346307921625956
2748010 2 18117544331403189953
3323516 105 18411138077713944259
350125 39 18336268960321048513
3524813 1 18334011700965522918
3680242 22 18116995477305685354
463206 1 18269557311053435927
5265222 85 17471861776259798556
57527585 103 17390829632986241626
59755656 215 18188762977069237031
6443956 14 18340493347406701473
81228 2 17476913559209296171

> <PUBCHEM_SHAPE_MULTIPOLES>
443.98
8.21
4.09
1.18
1.54
0.84
-0.09
-3.84
1.51
-1.8
-1.33
-0.11
0.8
1.1

> <PUBCHEM_SHAPE_SELFOVERLAP>
916.908

> <PUBCHEM_SHAPE_VOLUME>
252.3

> <PUBCHEM_COORDINATE_TYPE>
2
5
10

> <Energy>
40.5071

> <minimizedAffinity>
-2.96648

> <CNNscore>
0.2148969173

> <CNNaffinity>
5.9155831337

> <CNN_VS>
1.2712405920

> <CNNaffinity_variance>
0.3875678778

$$$$
5284645


 26 27  0  0  0  0  0  0  0  0999 V2000
   -8.2564    0.1966   23.2611 O   0  0  0  0  0  0  0  0  0  0  0  0
   -4.0992   -3.7000   21.3452 O   0  0  0  0  0  0  0  0  0  0  0  0
   -3.5128   -4.6336   23.3678 O   0  0  0  0  0  0  0  0  0  0  0  0
   -2.7741   -7.1568   22.2746 O   0  0  0  0  0  0  0  0  0  0  0  0
   -6.4736   -9.3897   20.4028 O   0  0  0  0  0  0  0  0  0  0  0  0
   -6.0119   -0.5276   23.7379 C   0  0  0  0  0  0  0  0  0  0  0  0
   -7.3699   -0.9157   23.1281 C   0  0  0  0  0  0  0  0  0  0  0  0
   -4.8794   -1.5089   23.4241 C   0  0  0  0  0  0  0  0  0  0  0  0
   -8.0058   -2.1329   23.8173 C   0  0  0  0  0  0  0  0  0  0  0  0
   -4.3758   -1.3901   21.9819 C   0  0  0  0  0  0  0  0  0  0  0  0
   -9.2636   -2.6545   23.1064 C   0  0  0  0  0  0  0  0  0  0  0  0
   -3.3682   -2.4874   21.6235 C   0  0  0  0  0  0  0  0  0  0  0  0
   -9.0044   -3.2958   21.7380 C   0  0  0  0  0  0  0  0  0  0  0  0
   -2.6160   -2.1364   20.3431 C   0  0  0  0  0  0  0  0  0  0  0  0
   -8.1321   -4.5192   21.8165 C   0  0  0  0  0  0  0  0  0  0  0  0
   -4.7845   -5.8578   21.7834 C   0  0  0  0  0  0  0  0  0  0  0  0
   -6.1051   -5.8342   21.2922 C   0  0  0  0  0  0  0  0  0  0  0  0
   -4.1040   -4.6516   22.2989 C   0  0  0  0  0  0  0  0  0  0  0  0
   -6.9286   -4.6161   21.2288 C   0  0  0  0  0  0  0  0  0  0  0  0
   -4.0668   -7.0642   21.8199 C   0  0  0  0  0  0  0  0  0  0  0  0
   -6.6660   -7.0360   20.8171 C   0  0  0  0  0  0  0  0  0  0  0  0
   -5.9367   -8.2221   20.8574 C   0  0  0  0  0  0  0  0  0  0  0  0
   -4.6410   -8.2458   21.3597 C   0  0  0  0  0  0  0  0  0  0  0  0
   -7.8674    0.9734   22.8299 H   0  0  0  0  0  0  0  0  0  0  0  0
   -2.3350   -6.3943   22.5968 H   0  0  0  0  0  0  0  0  0  0  0  0
   -7.3452   -9.4020   20.0590 H   0  0  0  0  0  0  0  0  0  0  0  0
  1  7  1  0
  1 24  1  0
  2 12  1  0
  2 18  1  0
  3 18  2  0
  4 20  1  0
  4 25  1  0
  5 22  1  0
  5 26  1  0
  6  7  1  0
  6  8  1  0
  7  9  1  0
  8 10  1  0
  9 11  1  0
 10 12  1  0
 11 13  1  0
 12 14  1  0
 13 15  1  0
 15 19  2  0
 16 17  2  0
 16 18  1  0
 16 20  1  0
 17 19  1  0
 17 21  1  0
 20 23  2  0
 21 22  2  0
 22 23  1  0
M  END
> <PUBCHEM_COMPOUND_CID>
5284645

> <PUBCHEM_CONFORMER_RMSD>
0.6

> <PUBCHEM_CONFORMER_DIVERSEORDER>
1

> <PUBCHEM_MMFF94_PARTIAL_CHARGES>
24
1 -0.68
12 0.28
13 0.14
15 -0.29
16 0.09
17 0.03
18 0.63
19 -0.18
2 -0.43
20 0.08
21 -0.15
22 0.08
23 -0.15
3 -0.57
4 -0.53
41 0.4
42 0.15
43 0.15
44 0.15
45 0.15
46 0.45
47 0.45
5 -0.53
7 0.28

> <PUBCHEM_EFFECTIVE_ROTOR_COUNT>
1.8

> <PUBCHEM_PHARMACOPHORE_FEATURES>
6
1 1 acceptor
1 1 donor
1 3 acceptor
1 4 donor
1 5 donor
6 16 17 20 21 22 23 rings

> <PUBCHEM_HEAVY_ATOM_COUNT>
23

> <PUBCHEM_ATOM_DEF_STEREO_COUNT>
2

> <PUBCHEM_ATOM_UDEF_STEREO_COUNT>
0

> <PUBCHEM_BOND_DEF_STEREO_COUNT>
1

> <PUBCHEM_BOND_UDEF_STEREO_COUNT>
0

> <PUBCHEM_ISOTOPIC_ATOM_COUNT>
0

> <PUBCHEM_COMPONENT_COUNT>
1

> <PUBCHEM_CACTVS_TAUTO_COUNT>
12

> <PUBCHEM_CONFORMER_ID>
0050A32500000001

> <PUBCHEM_MMFF94_ENERGY>
56.9454

> <PUBCHEM_FEATURE_SELFOVERLAP>
30.446

> <PUBCHEM_SHAPE_FINGERPRINT>
1100329 8 17836085568009856625
11112241 14 16986289841619931392
11578080 2 16734366241365874279
12166972 35 17967822613537111974
12403259 226 18337670931286267939
12506688 2 18412827975731104564
12596599 1 17914633677902020662
12788726 201 17627507133988941776
13140716 1 18267582403486064363
13402501 40 18336828697047978282
13533116 47 18056766653224983451
14251757 17 18262232209996353437
14787075 74 18336834185758012246
14790565 3 17545883724776523813
14866123 147 17767415573386001256
14931854 50 18336551491284682350
15196674 1 18334859415888043750
15322687 12 17104511174142344237
19591789 44 18337109089556020683
19930381 70 18413393137471364090
20028762 73 17044582808783771111
20691752 17 17022900138402631537
20715895 44 17609482839964013085
20832881 197 18343306989256920753
20905425 154 18409167675446349782
22182313 1 18041826412212926463
23227448 37 18189331260828617463
23352939 185 18342462530415398027
23557571 272 17910374109985112994
23559900 14 18335978778501818797
238 59 18196346307921625956
2748010 2 18117544331403189953
3323516 105 18411138077713944259
350125 39 18336268960321048513
3524813 1 18334011700965522918
3680242 22 18116995477305685354
463206 1 18269557311053435927
5265222 85 17471861776259798556
57527585 103 17390829632986241626
59755656 215 18188762977069237031
6443956 14 18340493347406701473
81228 2 17476913559209296171

> <PUBCHEM_SHAPE_MULTIPOLES>
443.98
8.21
4.09
1.18
1.54
0.84
-0.09
-3.84
1.51
-1.8
-1.33
-0.11
0.8
1.1

> <PUBCHEM_SHAPE_SELFOVERLAP>
916.908

> <PUBCHEM_SHAPE_VOLUME>
252.3

> <PUBCHEM_COORDINATE_TYPE>
2
5
10

> <Energy>
40.5071

> <minimizedAffinity>
-0.59075

> <CNNscore>
0.1607597172

> <CNNaffinity>
4.6422095299

> <CNN_VS>
0.7462803125

> <CNNaffinity_variance>
0.7626474500

$$$$
5284645


 26 27  0  0  0  0  0  0  0  0999 V2000
    5.0831   -2.2199   15.7970 O   0  0  0  0  0  0  0  0  0  0  0  0
    2.2962   -3.3655   20.9988 O   0  0  0  0  0  0  0  0  0  0  0  0
    2.0487   -1.2071   21.7646 O   0  0  0  0  0  0  0  0  0  0  0  0
   -0.3108   -1.7425   23.2657 O   0  0  0  0  0  0  0  0  0  0  0  0
   -3.9055   -2.9585   20.4773 O   0  0  0  0  0  0  0  0  0  0  0  0
    5.1900   -1.6679   18.1366 C   0  0  0  0  0  0  0  0  0  0  0  0
    4.2879   -2.1336   16.9808 C   0  0  0  0  0  0  0  0  0  0  0  0
    4.5508   -1.7946   19.5220 C   0  0  0  0  0  0  0  0  0  0  0  0
    3.1178   -1.1739   16.7150 C   0  0  0  0  0  0  0  0  0  0  0  0
    4.4966   -3.2431   20.0187 C   0  0  0  0  0  0  0  0  0  0  0  0
    2.0998   -1.7122   15.6984 C   0  0  0  0  0  0  0  0  0  0  0  0
    3.7025   -3.3839   21.3215 C   0  0  0  0  0  0  0  0  0  0  0  0
    1.2828   -2.9139   16.1875 C   0  0  0  0  0  0  0  0  0  0  0  0
    3.9740   -4.7335   21.9796 C   0  0  0  0  0  0  0  0  0  0  0  0
    0.4266   -2.5967   17.3834 C   0  0  0  0  0  0  0  0  0  0  0  0
    0.1831   -2.4422   20.9773 C   0  0  0  0  0  0  0  0  0  0  0  0
   -0.2995   -2.8841   19.7292 C   0  0  0  0  0  0  0  0  0  0  0  0
    1.6202   -2.2264   21.2452 C   0  0  0  0  0  0  0  0  0  0  0  0
    0.5697   -3.1869   18.5809 C   0  0  0  0  0  0  0  0  0  0  0  0
   -0.7130   -2.1647   22.0222 C   0  0  0  0  0  0  0  0  0  0  0  0
   -1.6878   -3.0653   19.5725 C   0  0  0  0  0  0  0  0  0  0  0  0
   -2.5607   -2.7889   20.6222 C   0  0  0  0  0  0  0  0  0  0  0  0
   -2.0832   -2.3355   21.8462 C   0  0  0  0  0  0  0  0  0  0  0  0
    5.8267   -2.8234   15.9504 H   0  0  0  0  0  0  0  0  0  0  0  0
    0.5995   -1.6098   23.4437 H   0  0  0  0  0  0  0  0  0  0  0  0
   -4.2542   -3.2631   19.6627 H   0  0  0  0  0  0  0  0  0  0  0  0
  1  7  1  0
  1 24  1  0
  2 12  1  0
  2 18  1  0
  3 18  2  0
  4 20  1  0
  4 25  1  0
  5 22  1  0
  5 26  1  0
  6  7  1  0
  6  8  1  0
  7  9  1  0
  8 10  1  0
  9 11  1  0
 10 12  1  0
 11 13  1  0
 12 14  1  0
 13 15  1  0
 15 19  2  0
 16 17  2  0
 16 18  1  0
 16 20  1  0
 17 19  1  0
 17 21  1  0
 20 23  2  0
 21 22  2  0
 22 23  1  0
M  END
> <PUBCHEM_COMPOUND_CID>
5284645

> <PUBCHEM_CONFORMER_RMSD>
0.6

> <PUBCHEM_CONFORMER_DIVERSEORDER>
1

> <PUBCHEM_MMFF94_PARTIAL_CHARGES>
24
1 -0.68
12 0.28
13 0.14
15 -0.29
16 0.09
17 0.03
18 0.63
19 -0.18
2 -0.43
20 0.08
21 -0.15
22 0.08
23 -0.15
3 -0.57
4 -0.53
41 0.4
42 0.15
43 0.15
44 0.15
45 0.15
46 0.45
47 0.45
5 -0.53
7 0.28

> <PUBCHEM_EFFECTIVE_ROTOR_COUNT>
1.8

> <PUBCHEM_PHARMACOPHORE_FEATURES>
6
1 1 acceptor
1 1 donor
1 3 acceptor
1 4 donor
1 5 donor
6 16 17 20 21 22 23 rings

> <PUBCHEM_HEAVY_ATOM_COUNT>
23

> <PUBCHEM_ATOM_DEF_STEREO_COUNT>
2

> <PUBCHEM_ATOM_UDEF_STEREO_COUNT>
0

> <PUBCHEM_BOND_DEF_STEREO_COUNT>
1

> <PUBCHEM_BOND_UDEF_STEREO_COUNT>
0

> <PUBCHEM_ISOTOPIC_ATOM_COUNT>
0

> <PUBCHEM_COMPONENT_COUNT>
1

> <PUBCHEM_CACTVS_TAUTO_COUNT>
12

> <PUBCHEM_CONFORMER_ID>
0050A32500000001

> <PUBCHEM_MMFF94_ENERGY>
56.9454

> <PUBCHEM_FEATURE_SELFOVERLAP>
30.446

> <PUBCHEM_SHAPE_FINGERPRINT>
1100329 8 17836085568009856625
11112241 14 16986289841619931392
11578080 2 16734366241365874279
12166972 35 17967822613537111974
12403259 226 18337670931286267939
12506688 2 18412827975731104564
12596599 1 17914633677902020662
12788726 201 17627507133988941776
13140716 1 18267582403486064363
13402501 40 18336828697047978282
13533116 47 18056766653224983451
14251757 17 18262232209996353437
14787075 74 18336834185758012246
14790565 3 17545883724776523813
14866123 147 17767415573386001256
14931854 50 18336551491284682350
15196674 1 18334859415888043750
15322687 12 17104511174142344237
19591789 44 18337109089556020683
19930381 70 18413393137471364090
20028762 73 17044582808783771111
20691752 17 17022900138402631537
20715895 44 17609482839964013085
20832881 197 18343306989256920753
20905425 154 18409167675446349782
22182313 1 18041826412212926463
23227448 37 18189331260828617463
23352939 185 18342462530415398027
23557571 272 17910374109985112994
23559900 14 18335978778501818797
238 59 18196346307921625956
2748010 2 18117544331403189953
3323516 105 18411138077713944259
350125 39 18336268960321048513
3524813 1 18334011700965522918
3680242 22 18116995477305685354
463206 1 18269557311053435927
5265222 85 17471861776259798556
57527585 103 17390829632986241626
59755656 215 18188762977069237031
6443956 14 18340493347406701473
81228 2 17476913559209296171

> <PUBCHEM_SHAPE_MULTIPOLES>
443.98
8.21
4.09
1.18
1.54
0.84
-0.09
-3.84
1.51
-1.8
-1.33
-0.11
0.8
1.1

> <PUBCHEM_SHAPE_SELFOVERLAP>
916.908

> <PUBCHEM_SHAPE_VOLUME>
252.3

> <PUBCHEM_COORDINATE_TYPE>
2
5
10

> <Energy>
40.5071

> <minimizedAffinity>
49.36296

> <CNNscore>
0.1197592542

> <CNNaffinity>
4.5019087791

> <CNN_VS>
0.5391452312

> <CNNaffinity_variance>
0.1096286774

$$$$
5284645


 26 27  0  0  0  0  0  0  0  0999 V2000
    0.1504   -2.3644   18.9917 O   0  0  0  0  0  0  0  0  0  0  0  0
   -3.2853   -3.7493   23.7261 O   0  0  0  0  0  0  0  0  0  0  0  0
   -4.1654   -1.6656   24.1617 O   0  0  0  0  0  0  0  0  0  0  0  0
   -6.5925   -2.6474   25.2810 O   0  0  0  0  0  0  0  0  0  0  0  0
   -9.1838   -4.9302   22.0795 O   0  0  0  0  0  0  0  0  0  0  0  0
   -0.3413   -1.6203   21.2264 C   0  0  0  0  0  0  0  0  0  0  0  0
   -0.8638   -2.3842   19.9976 C   0  0  0  0  0  0  0  0  0  0  0  0
   -1.1987   -1.7914   22.4833 C   0  0  0  0  0  0  0  0  0  0  0  0
   -2.1441   -1.7675   19.4135 C   0  0  0  0  0  0  0  0  0  0  0  0
   -1.0200   -3.1646   23.1393 C   0  0  0  0  0  0  0  0  0  0  0  0
   -2.7884   -2.6192   18.3093 C   0  0  0  0  0  0  0  0  0  0  0  0
   -2.0054   -3.3940   24.2900 C   0  0  0  0  0  0  0  0  0  0  0  0
   -3.3914   -3.9431   18.7936 C   0  0  0  0  0  0  0  0  0  0  0  0
   -1.5711   -4.5784   25.1485 C   0  0  0  0  0  0  0  0  0  0  0  0
   -4.5188   -3.7541   19.7719 C   0  0  0  0  0  0  0  0  0  0  0  0
   -5.5048   -3.3816   23.2199 C   0  0  0  0  0  0  0  0  0  0  0  0
   -5.6146   -4.0261   21.9714 C   0  0  0  0  0  0  0  0  0  0  0  0
   -4.2380   -2.7969   23.7064 C   0  0  0  0  0  0  0  0  0  0  0  0
   -4.4875   -4.1943   21.0401 C   0  0  0  0  0  0  0  0  0  0  0  0
   -6.6310   -3.2527   24.0487 C   0  0  0  0  0  0  0  0  0  0  0  0
   -6.8650   -4.5566   21.5977 C   0  0  0  0  0  0  0  0  0  0  0  0
   -7.9698   -4.4226   22.4355 C   0  0  0  0  0  0  0  0  0  0  0  0
   -7.8627   -3.7702   23.6580 C   0  0  0  0  0  0  0  0  0  0  0  0
    0.9658   -2.7513   19.3469 H   0  0  0  0  0  0  0  0  0  0  0  0
   -5.7907   -2.2803   25.5978 H   0  0  0  0  0  0  0  0  0  0  0  0
   -9.2838   -5.3748   21.2608 H   0  0  0  0  0  0  0  0  0  0  0  0
  1  7  1  0
  1 24  1  0
  2 12  1  0
  2 18  1  0
  3 18  2  0
  4 20  1  0
  4 25  1  0
  5 22  1  0
  5 26  1  0
  6  7  1  0
  6  8  1  0
  7  9  1  0
  8 10  1  0
  9 11  1  0
 10 12  1  0
 11 13  1  0
 12 14  1  0
 13 15  1  0
 15 19  2  0
 16 17  2  0
 16 18  1  0
 16 20  1  0
 17 19  1  0
 17 21  1  0
 20 23  2  0
 21 22  2  0
 22 23  1  0
M  END
> <PUBCHEM_COMPOUND_CID>
5284645

> <PUBCHEM_CONFORMER_RMSD>
0.6

> <PUBCHEM_CONFORMER_DIVERSEORDER>
1

> <PUBCHEM_MMFF94_PARTIAL_CHARGES>
24
1 -0.68
12 0.28
13 0.14
15 -0.29
16 0.09
17 0.03
18 0.63
19 -0.18
2 -0.43
20 0.08
21 -0.15
22 0.08
23 -0.15
3 -0.57
4 -0.53
41 0.4
42 0.15
43 0.15
44 0.15
45 0.15
46 0.45
47 0.45
5 -0.53
7 0.28

> <PUBCHEM_EFFECTIVE_ROTOR_COUNT>
1.8

> <PUBCHEM_PHARMACOPHORE_FEATURES>
6
1 1 acceptor
1 1 donor
1 3 acceptor
1 4 donor
1 5 donor
6 16 17 20 21 22 23 rings

> <PUBCHEM_HEAVY_ATOM_COUNT>
23

> <PUBCHEM_ATOM_DEF_STEREO_COUNT>
2

> <PUBCHEM_ATOM_UDEF_STEREO_COUNT>
0

> <PUBCHEM_BOND_DEF_STEREO_COUNT>
1

> <PUBCHEM_BOND_UDEF_STEREO_COUNT>
0

> <PUBCHEM_ISOTOPIC_ATOM_COUNT>
0

> <PUBCHEM_COMPONENT_COUNT>
1

> <PUBCHEM_CACTVS_TAUTO_COUNT>
12

> <PUBCHEM_CONFORMER_ID>
0050A32500000001

> <PUBCHEM_MMFF94_ENERGY>
56.9454

> <PUBCHEM_FEATURE_SELFOVERLAP>
30.446

> <PUBCHEM_SHAPE_FINGERPRINT>
1100329 8 17836085568009856625
11112241 14 16986289841619931392
11578080 2 16734366241365874279
12166972 35 17967822613537111974
12403259 226 18337670931286267939
12506688 2 18412827975731104564
12596599 1 17914633677902020662
12788726 201 17627507133988941776
13140716 1 18267582403486064363
13402501 40 18336828697047978282
13533116 47 18056766653224983451
14251757 17 18262232209996353437
14787075 74 18336834185758012246
14790565 3 17545883724776523813
14866123 147 17767415573386001256
14931854 50 18336551491284682350
15196674 1 18334859415888043750
15322687 12 17104511174142344237
19591789 44 18337109089556020683
19930381 70 18413393137471364090
20028762 73 17044582808783771111
20691752 17 17022900138402631537
20715895 44 17609482839964013085
20832881 197 18343306989256920753
20905425 154 18409167675446349782
22182313 1 18041826412212926463
23227448 37 18189331260828617463
23352939 185 18342462530415398027
23557571 272 17910374109985112994
23559900 14 18335978778501818797
238 59 18196346307921625956
2748010 2 18117544331403189953
3323516 105 18411138077713944259
350125 39 18336268960321048513
3524813 1 18334011700965522918
3680242 22 18116995477305685354
463206 1 18269557311053435927
5265222 85 17471861776259798556
57527585 103 17390829632986241626
59755656 215 18188762977069237031
6443956 14 18340493347406701473
81228 2 17476913559209296171

> <PUBCHEM_SHAPE_MULTIPOLES>
443.98
8.21
4.09
1.18
1.54
0.84
-0.09
-3.84
1.51
-1.8
-1.33
-0.11
0.8
1.1

> <PUBCHEM_SHAPE_SELFOVERLAP>
916.908

> <PUBCHEM_SHAPE_VOLUME>
252.3

> <PUBCHEM_COORDINATE_TYPE>
2
5
10

> <Energy>
40.5071

> <minimizedAffinity>
1.96598

> <CNNscore>
0.1059103906

> <CNNaffinity>
5.2014598846

> <CNN_VS>
0.5508886576

> <CNNaffinity_variance>
0.0984594524

$$$$
