5991


 24 27  0  0  0  0  0  0  0  0999 V2000
   -8.2260   -2.0879   24.3084 O   0  0  0  0  0  0  0  0  0  0  0  0
    0.8863   -1.6584   18.1991 O   0  0  0  0  0  0  0  0  0  0  0  0
   -6.2375   -2.3957   22.8713 C   0  0  0  0  0  0  0  0  0  0  0  0
   -5.9273   -3.4893   21.8233 C   0  0  0  0  0  0  0  0  0  0  0  0
   -4.8258   -3.0725   20.8456 C   0  0  0  0  0  0  0  0  0  0  0  0
   -7.4430   -3.0516   23.6146 C   0  0  0  0  0  0  0  0  0  0  0  0
   -3.5156   -2.8059   21.6459 C   0  0  0  0  0  0  0  0  0  0  0  0
   -4.9560   -2.1411   23.6872 C   0  0  0  0  0  0  0  0  0  0  0  0
   -7.3023   -3.8510   21.2675 C   0  0  0  0  0  0  0  0  0  0  0  0
   -3.7543   -1.7856   22.7893 C   0  0  0  0  0  0  0  0  0  0  0  0
   -8.2673   -3.6726   22.4556 C   0  0  0  0  0  0  0  0  0  0  0  0
   -4.5515   -4.1401   19.7837 C   0  0  0  0  0  0  0  0  0  0  0  0
   -6.6903   -1.0428   22.2466 C   0  0  0  0  0  0  0  0  0  0  0  0
   -2.3549   -2.4680   20.7109 C   0  0  0  0  0  0  0  0  0  0  0  0
   -3.5573   -3.6058   18.7577 C   0  0  0  0  0  0  0  0  0  0  0  0
   -2.3747   -2.8917   19.3637 C   0  0  0  0  0  0  0  0  0  0  0  0
   -1.2050   -1.8138   21.1852 C   0  0  0  0  0  0  0  0  0  0  0  0
   -1.2847   -2.6030   18.5204 C   0  0  0  0  0  0  0  0  0  0  0  0
   -0.1223   -1.5415   20.3381 C   0  0  0  0  0  0  0  0  0  0  0  0
   -0.1742   -1.9350   19.0099 C   0  0  0  0  0  0  0  0  0  0  0  0
   -8.4963   -1.3878   23.6938 H   0  0  0  0  0  0  0  0  0  0  0  0
    0.8676   -1.9173   17.2987 H   0  0  0  0  0  0  0  0  0  0  0  0
   -7.0501   -4.0987   24.5765 C   0  0  0  0  0  0  0  0  0  0  0  0
   -6.7150   -4.9517   25.3562 C   0  0  0  0  0  0  0  0  0  0  0  0
  1  6  1  0
  1 21  1  0
  2 20  1  0
  2 22  1  0
  3  4  1  0
  3  6  1  0
  3  8  1  0
  3 13  1  0
  4  5  1  0
  4  9  1  0
  5  7  1  0
  5 12  1  0
  6 11  1  0
  6 23  1  0
  7 10  1  0
  7 14  1  0
  8 10  1  0
  9 11  1  0
 12 15  1  0
 14 16  2  0
 14 17  1  0
 15 16  1  0
 16 18  1  0
 23 24  3  0
 17 19  2  0
 18 20  2  0
 19 20  1  0
M  END
> <PUBCHEM_COMPOUND_CID>
5991

> <PUBCHEM_CONFORMER_RMSD>
0.6

> <PUBCHEM_CONFORMER_DIVERSEORDER>
1

> <PUBCHEM_MMFF94_PARTIAL_CHARGES>
19
1 -0.68
14 -0.14
15 0.14
16 -0.14
17 -0.2
18 -0.15
19 -0.15
2 -0.53
20 -0.15
21 0.08
22 -0.18
41 0.4
42 0.15
43 0.15
44 0.15
45 0.18
46 0.45
6 0.48
7 0.14

> <PUBCHEM_EFFECTIVE_ROTOR_COUNT>
1.4

> <PUBCHEM_PHARMACOPHORE_FEATURES>
8
1 1 acceptor
1 1 donor
1 2 donor
1 22 hydrophobe
5 3 4 6 9 11 rings
6 14 16 18 19 20 21 rings
6 3 4 5 7 8 10 rings
6 5 7 12 14 15 16 rings

> <PUBCHEM_HEAVY_ATOM_COUNT>
22

> <PUBCHEM_ATOM_DEF_STEREO_COUNT>
5

> <PUBCHEM_ATOM_UDEF_STEREO_COUNT>
0

> <PUBCHEM_BOND_DEF_STEREO_COUNT>
0

> <PUBCHEM_BOND_UDEF_STEREO_COUNT>
0

> <PUBCHEM_ISOTOPIC_ATOM_COUNT>
0

> <PUBCHEM_COMPONENT_COUNT>
1

> <PUBCHEM_CACTVS_TAUTO_COUNT>
9

> <PUBCHEM_CONFORMER_ID>
0000176700000001

> <PUBCHEM_MMFF94_ENERGY>
75.3654

> <PUBCHEM_FEATURE_SELFOVERLAP>
40.689

> <PUBCHEM_SHAPE_FINGERPRINT>
10498660 4 18334565854482978588
10616163 171 18412261769892000550
10906281 52 18268729332496851400
10967382 1 18409163299196382730
11132069 177 18260823830106114581
11315181 36 17846777438100329984
11552529 35 18058445585631877095
11578080 2 16952518088400902894
11796584 16 15123796154675551020
12107183 9 17697047933183828707
12236239 1 17917992754997443209
12403259 415 18260540148118003532
12403814 3 17531241756051219503
12633257 1 18411416168188185458
12644460 14 18260827060354363322
12788726 201 17059505002047033793
128620 24 17385724690407290772
13140716 1 18264499557760559337
13224815 77 18408318891198213202
13675066 3 17749393654488776519
14790565 3 18338806709892665688
15163728 17 15481289097577292713
15183329 4 18408605830407435614
15196674 1 18337388339818468438
15209289 33 18341332270467662817
15209294 21 18059584555192331817
15309172 13 18409451371427638915
15536298 74 18341610425830279326
15788980 27 17749105603943632888
16945 1 18265320738190372627
17349148 13 18114176445825312880
1813 80 17530976782159466655
18186145 218 18409161126111612646
19489759 90 15410896249631894657
19591789 44 18193273216009210722
200 152 17918273168974754922
21033648 29 17968079933063946356
21267235 1 18338240469814837151
21623110 236 18263368155990106261
23402539 116 18410566319162361766
23402655 69 18201721773563375622
23559900 14 18341325700027887232
335352 9 18410007719541319564
34934 24 18335695014618288215
350125 39 18408603674022772468
3545911 37 18408602569419241710
3680242 22 18335416829913620042
4214541 1 18412824715549947695
474 4 18408605889666299408
5104073 3 18339077194179428906
542803 24 17561084709247609168
59755656 215 18335983078396721054
633830 44 18202282537272954908
9709674 26 18410014338397756278

> <PUBCHEM_SHAPE_MULTIPOLES>
441.01
10.64
2.03
1.22
7.18
0.55
-0.05
-1.94
-1.01
0.21
-0.15
-1.94
-0.33
-0.49

> <PUBCHEM_SHAPE_SELFOVERLAP>
961.464

> <PUBCHEM_SHAPE_VOLUME>
238.8

> <PUBCHEM_COORDINATE_TYPE>
2
5
10

> <Energy>
61.5647

> <minimizedAffinity>
-7.66493

> <CNNscore>
0.6113775969

> <CNNaffinity>
7.7322616577

> <CNN_VS>
4.7273316383

> <CNNaffinity_variance>
0.4818816483

$$$$
5991


 24 27  0  0  0  0  0  0  0  0999 V2000
   -9.1820   -4.1188   22.4769 O   0  0  0  0  0  0  0  0  0  0  0  0
    1.3862   -2.2764   20.1398 O   0  0  0  0  0  0  0  0  0  0  0  0
   -6.7749   -3.5692   22.3412 C   0  0  0  0  0  0  0  0  0  0  0  0
   -5.7228   -3.4246   23.4649 C   0  0  0  0  0  0  0  0  0  0  0  0
   -4.2873   -3.5319   22.9448 C   0  0  0  0  0  0  0  0  0  0  0  0
   -8.0901   -3.5400   23.1812 C   0  0  0  0  0  0  0  0  0  0  0  0
   -4.0360   -2.3870   21.9180 C   0  0  0  0  0  0  0  0  0  0  0  0
   -6.5536   -2.4268   21.3319 C   0  0  0  0  0  0  0  0  0  0  0  0
   -6.1945   -4.4166   24.5250 C   0  0  0  0  0  0  0  0  0  0  0  0
   -5.1081   -2.3933   20.7973 C   0  0  0  0  0  0  0  0  0  0  0  0
   -7.7315   -4.4100   24.4152 C   0  0  0  0  0  0  0  0  0  0  0  0
   -3.2499   -3.4311   24.0657 C   0  0  0  0  0  0  0  0  0  0  0  0
   -6.6842   -4.9199   21.5710 C   0  0  0  0  0  0  0  0  0  0  0  0
   -2.5887   -2.3916   21.4270 C   0  0  0  0  0  0  0  0  0  0  0  0
   -1.8558   -3.6944   23.5056 C   0  0  0  0  0  0  0  0  0  0  0  0
   -1.5691   -2.9754   22.2109 C   0  0  0  0  0  0  0  0  0  0  0  0
   -2.2216   -1.7391   20.2376 C   0  0  0  0  0  0  0  0  0  0  0  0
   -0.2344   -2.9444   21.7635 C   0  0  0  0  0  0  0  0  0  0  0  0
   -0.8879   -1.7063   19.8085 C   0  0  0  0  0  0  0  0  0  0  0  0
    0.0946   -2.3145   20.5743 C   0  0  0  0  0  0  0  0  0  0  0  0
   -8.9407   -5.0112   22.1831 H   0  0  0  0  0  0  0  0  0  0  0  0
    2.0626   -2.6825   20.6453 H   0  0  0  0  0  0  0  0  0  0  0  0
   -8.4904   -2.1872   23.6122 C   0  0  0  0  0  0  0  0  0  0  0  0
   -8.8039   -1.0826   23.9721 C   0  0  0  0  0  0  0  0  0  0  0  0
  1  6  1  0
  1 21  1  0
  2 20  1  0
  2 22  1  0
  3  4  1  0
  3  6  1  0
  3  8  1  0
  3 13  1  0
  4  5  1  0
  4  9  1  0
  5  7  1  0
  5 12  1  0
  6 11  1  0
  6 23  1  0
  7 10  1  0
  7 14  1  0
  8 10  1  0
  9 11  1  0
 12 15  1  0
 14 16  2  0
 14 17  1  0
 15 16  1  0
 16 18  1  0
 23 24  3  0
 17 19  2  0
 18 20  2  0
 19 20  1  0
M  END
> <PUBCHEM_COMPOUND_CID>
5991

> <PUBCHEM_CONFORMER_RMSD>
0.6

> <PUBCHEM_CONFORMER_DIVERSEORDER>
1

> <PUBCHEM_MMFF94_PARTIAL_CHARGES>
19
1 -0.68
14 -0.14
15 0.14
16 -0.14
17 -0.2
18 -0.15
19 -0.15
2 -0.53
20 -0.15
21 0.08
22 -0.18
41 0.4
42 0.15
43 0.15
44 0.15
45 0.18
46 0.45
6 0.48
7 0.14

> <PUBCHEM_EFFECTIVE_ROTOR_COUNT>
1.4

> <PUBCHEM_PHARMACOPHORE_FEATURES>
8
1 1 acceptor
1 1 donor
1 2 donor
1 22 hydrophobe
5 3 4 6 9 11 rings
6 14 16 18 19 20 21 rings
6 3 4 5 7 8 10 rings
6 5 7 12 14 15 16 rings

> <PUBCHEM_HEAVY_ATOM_COUNT>
22

> <PUBCHEM_ATOM_DEF_STEREO_COUNT>
5

> <PUBCHEM_ATOM_UDEF_STEREO_COUNT>
0

> <PUBCHEM_BOND_DEF_STEREO_COUNT>
0

> <PUBCHEM_BOND_UDEF_STEREO_COUNT>
0

> <PUBCHEM_ISOTOPIC_ATOM_COUNT>
0

> <PUBCHEM_COMPONENT_COUNT>
1

> <PUBCHEM_CACTVS_TAUTO_COUNT>
9

> <PUBCHEM_CONFORMER_ID>
0000176700000001

> <PUBCHEM_MMFF94_ENERGY>
75.3654

> <PUBCHEM_FEATURE_SELFOVERLAP>
40.689

> <PUBCHEM_SHAPE_FINGERPRINT>
10498660 4 18334565854482978588
10616163 171 18412261769892000550
10906281 52 18268729332496851400
10967382 1 18409163299196382730
11132069 177 18260823830106114581
11315181 36 17846777438100329984
11552529 35 18058445585631877095
11578080 2 16952518088400902894
11796584 16 15123796154675551020
12107183 9 17697047933183828707
12236239 1 17917992754997443209
12403259 415 18260540148118003532
12403814 3 17531241756051219503
12633257 1 18411416168188185458
12644460 14 18260827060354363322
12788726 201 17059505002047033793
128620 24 17385724690407290772
13140716 1 18264499557760559337
13224815 77 18408318891198213202
13675066 3 17749393654488776519
14790565 3 18338806709892665688
15163728 17 15481289097577292713
15183329 4 18408605830407435614
15196674 1 18337388339818468438
15209289 33 18341332270467662817
15209294 21 18059584555192331817
15309172 13 18409451371427638915
15536298 74 18341610425830279326
15788980 27 17749105603943632888
16945 1 18265320738190372627
17349148 13 18114176445825312880
1813 80 17530976782159466655
18186145 218 18409161126111612646
19489759 90 15410896249631894657
19591789 44 18193273216009210722
200 152 17918273168974754922
21033648 29 17968079933063946356
21267235 1 18338240469814837151
21623110 236 18263368155990106261
23402539 116 18410566319162361766
23402655 69 18201721773563375622
23559900 14 18341325700027887232
335352 9 18410007719541319564
34934 24 18335695014618288215
350125 39 18408603674022772468
3545911 37 18408602569419241710
3680242 22 18335416829913620042
4214541 1 18412824715549947695
474 4 18408605889666299408
5104073 3 18339077194179428906
542803 24 17561084709247609168
59755656 215 18335983078396721054
633830 44 18202282537272954908
9709674 26 18410014338397756278

> <PUBCHEM_SHAPE_MULTIPOLES>
441.01
10.64
2.03
1.22
7.18
0.55
-0.05
-1.94
-1.01
0.21
-0.15
-1.94
-0.33
-0.49

> <PUBCHEM_SHAPE_SELFOVERLAP>
961.464

> <PUBCHEM_SHAPE_VOLUME>
238.8

> <PUBCHEM_COORDINATE_TYPE>
2
5
10

> <Energy>
61.5647

> <minimizedAffinity>
-5.84621

> <CNNscore>
0.5032625198

> <CNNaffinity>
7.6107726097

> <CNN_VS>
3.8302166462

> <CNNaffinity_variance>
0.5760247111

$$$$
5991


 24 27  0  0  0  0  0  0  0  0999 V2000
   -8.8255   -4.9660   24.4147 O   0  0  0  0  0  0  0  0  0  0  0  0
    1.3062   -2.9985   20.6702 O   0  0  0  0  0  0  0  0  0  0  0  0
   -6.6905   -4.1486   23.4723 C   0  0  0  0  0  0  0  0  0  0  0  0
   -6.1823   -2.7027   23.2678 C   0  0  0  0  0  0  0  0  0  0  0  0
   -4.6636   -2.6319   23.0909 C   0  0  0  0  0  0  0  0  0  0  0  0
   -8.2050   -3.8801   23.7372 C   0  0  0  0  0  0  0  0  0  0  0  0
   -4.2643   -3.4516   21.8272 C   0  0  0  0  0  0  0  0  0  0  0  0
   -6.3246   -4.9637   22.2175 C   0  0  0  0  0  0  0  0  0  0  0  0
   -6.8227   -1.9333   24.4203 C   0  0  0  0  0  0  0  0  0  0  0  0
   -4.8175   -4.8987   21.8993 C   0  0  0  0  0  0  0  0  0  0  0  0
   -8.1791   -2.6268   24.6521 C   0  0  0  0  0  0  0  0  0  0  0  0
   -4.1595   -1.1955   22.9317 C   0  0  0  0  0  0  0  0  0  0  0  0
   -6.0681   -4.8600   24.7102 C   0  0  0  0  0  0  0  0  0  0  0  0
   -2.7650   -3.3467   21.5503 C   0  0  0  0  0  0  0  0  0  0  0  0
   -2.6344   -1.1817   22.9109 C   0  0  0  0  0  0  0  0  0  0  0  0
   -2.0233   -2.2462   22.0339 C   0  0  0  0  0  0  0  0  0  0  0  0
   -2.1079   -4.2848   20.7358 C   0  0  0  0  0  0  0  0  0  0  0  0
   -0.6492   -2.1435   21.7444 C   0  0  0  0  0  0  0  0  0  0  0  0
   -0.7418   -4.1655   20.4465 C   0  0  0  0  0  0  0  0  0  0  0  0
   -0.0227   -3.0967   20.9583 C   0  0  0  0  0  0  0  0  0  0  0  0
   -8.3301   -5.1677   25.2239 H   0  0  0  0  0  0  0  0  0  0  0  0
    1.8072   -2.2824   21.0080 H   0  0  0  0  0  0  0  0  0  0  0  0
   -8.9820   -3.6007   22.5148 C   0  0  0  0  0  0  0  0  0  0  0  0
   -9.6084   -3.3841   21.5104 C   0  0  0  0  0  0  0  0  0  0  0  0
  1  6  1  0
  1 21  1  0
  2 20  1  0
  2 22  1  0
  3  4  1  0
  3  6  1  0
  3  8  1  0
  3 13  1  0
  4  5  1  0
  4  9  1  0
  5  7  1  0
  5 12  1  0
  6 11  1  0
  6 23  1  0
  7 10  1  0
  7 14  1  0
  8 10  1  0
  9 11  1  0
 12 15  1  0
 14 16  2  0
 14 17  1  0
 15 16  1  0
 16 18  1  0
 23 24  3  0
 17 19  2  0
 18 20  2  0
 19 20  1  0
M  END
> <PUBCHEM_COMPOUND_CID>
5991

> <PUBCHEM_CONFORMER_RMSD>
0.6

> <PUBCHEM_CONFORMER_DIVERSEORDER>
1

> <PUBCHEM_MMFF94_PARTIAL_CHARGES>
19
1 -0.68
14 -0.14
15 0.14
16 -0.14
17 -0.2
18 -0.15
19 -0.15
2 -0.53
20 -0.15
21 0.08
22 -0.18
41 0.4
42 0.15
43 0.15
44 0.15
45 0.18
46 0.45
6 0.48
7 0.14

> <PUBCHEM_EFFECTIVE_ROTOR_COUNT>
1.4

> <PUBCHEM_PHARMACOPHORE_FEATURES>
8
1 1 acceptor
1 1 donor
1 2 donor
1 22 hydrophobe
5 3 4 6 9 11 rings
6 14 16 18 19 20 21 rings
6 3 4 5 7 8 10 rings
6 5 7 12 14 15 16 rings

> <PUBCHEM_HEAVY_ATOM_COUNT>
22

> <PUBCHEM_ATOM_DEF_STEREO_COUNT>
5

> <PUBCHEM_ATOM_UDEF_STEREO_COUNT>
0

> <PUBCHEM_BOND_DEF_STEREO_COUNT>
0

> <PUBCHEM_BOND_UDEF_STEREO_COUNT>
0

> <PUBCHEM_ISOTOPIC_ATOM_COUNT>
0

> <PUBCHEM_COMPONENT_COUNT>
1

> <PUBCHEM_CACTVS_TAUTO_COUNT>
9

> <PUBCHEM_CONFORMER_ID>
0000176700000001

> <PUBCHEM_MMFF94_ENERGY>
75.3654

> <PUBCHEM_FEATURE_SELFOVERLAP>
40.689

> <PUBCHEM_SHAPE_FINGERPRINT>
10498660 4 18334565854482978588
10616163 171 18412261769892000550
10906281 52 18268729332496851400
10967382 1 18409163299196382730
11132069 177 18260823830106114581
11315181 36 17846777438100329984
11552529 35 18058445585631877095
11578080 2 16952518088400902894
11796584 16 15123796154675551020
12107183 9 17697047933183828707
12236239 1 17917992754997443209
12403259 415 18260540148118003532
12403814 3 17531241756051219503
12633257 1 18411416168188185458
12644460 14 18260827060354363322
12788726 201 17059505002047033793
128620 24 17385724690407290772
13140716 1 18264499557760559337
13224815 77 18408318891198213202
13675066 3 17749393654488776519
14790565 3 18338806709892665688
15163728 17 15481289097577292713
15183329 4 18408605830407435614
15196674 1 18337388339818468438
15209289 33 18341332270467662817
15209294 21 18059584555192331817
15309172 13 18409451371427638915
15536298 74 18341610425830279326
15788980 27 17749105603943632888
16945 1 18265320738190372627
17349148 13 18114176445825312880
1813 80 17530976782159466655
18186145 218 18409161126111612646
19489759 90 15410896249631894657
19591789 44 18193273216009210722
200 152 17918273168974754922
21033648 29 17968079933063946356
21267235 1 18338240469814837151
21623110 236 18263368155990106261
23402539 116 18410566319162361766
23402655 69 18201721773563375622
23559900 14 18341325700027887232
335352 9 18410007719541319564
34934 24 18335695014618288215
350125 39 18408603674022772468
3545911 37 18408602569419241710
3680242 22 18335416829913620042
4214541 1 18412824715549947695
474 4 18408605889666299408
5104073 3 18339077194179428906
542803 24 17561084709247609168
59755656 215 18335983078396721054
633830 44 18202282537272954908
9709674 26 18410014338397756278

> <PUBCHEM_SHAPE_MULTIPOLES>
441.01
10.64
2.03
1.22
7.18
0.55
-0.05
-1.94
-1.01
0.21
-0.15
-1.94
-0.33
-0.49

> <PUBCHEM_SHAPE_SELFOVERLAP>
961.464

> <PUBCHEM_SHAPE_VOLUME>
238.8

> <PUBCHEM_COORDINATE_TYPE>
2
5
10

> <Energy>
61.5647

> <minimizedAffinity>
-4.96873

> <CNNscore>
0.4113297164

> <CNNaffinity>
7.3981862068

> <CNN_VS>
3.0430939198

> <CNNaffinity_variance>
0.4746466577

$$$$
5991


 24 27  0  0  0  0  0  0  0  0999 V2000
   -2.9169   -6.0535   19.7648 O   0  0  0  0  0  0  0  0  0  0  0  0
  -10.8949   -0.5853   24.9602 O   0  0  0  0  0  0  0  0  0  0  0  0
   -4.4130   -4.6947   21.1895 C   0  0  0  0  0  0  0  0  0  0  0  0
   -4.0880   -3.5061   22.1234 C   0  0  0  0  0  0  0  0  0  0  0  0
   -5.3230   -2.6666   22.4594 C   0  0  0  0  0  0  0  0  0  0  0  0
   -2.9791   -5.2600   20.9437 C   0  0  0  0  0  0  0  0  0  0  0  0
   -6.3613   -3.5679   23.1927 C   0  0  0  0  0  0  0  0  0  0  0  0
   -5.4198   -5.6080   21.9140 C   0  0  0  0  0  0  0  0  0  0  0  0
   -2.9045   -2.8275   21.4385 C   0  0  0  0  0  0  0  0  0  0  0  0
   -6.6786   -4.8428   22.3685 C   0  0  0  0  0  0  0  0  0  0  0  0
   -2.1268   -3.9754   20.7662 C   0  0  0  0  0  0  0  0  0  0  0  0
   -4.9901   -1.4664   23.3492 C   0  0  0  0  0  0  0  0  0  0  0  0
   -5.0394   -4.2668   19.8293 C   0  0  0  0  0  0  0  0  0  0  0  0
   -7.5833   -2.7612   23.6302 C   0  0  0  0  0  0  0  0  0  0  0  0
   -6.2277   -0.5919   23.5226 C   0  0  0  0  0  0  0  0  0  0  0  0
   -7.4880   -1.3651   23.8216 C   0  0  0  0  0  0  0  0  0  0  0  0
   -8.7994   -3.3933   23.9414 C   0  0  0  0  0  0  0  0  0  0  0  0
   -8.6122   -0.6373   24.2567 C   0  0  0  0  0  0  0  0  0  0  0  0
   -9.9080   -2.6589   24.3836 C   0  0  0  0  0  0  0  0  0  0  0  0
   -9.8055   -1.2845   24.5328 C   0  0  0  0  0  0  0  0  0  0  0  0
   -3.2560   -5.5429   19.0131 H   0  0  0  0  0  0  0  0  0  0  0  0
  -10.8429    0.3442   25.0664 H   0  0  0  0  0  0  0  0  0  0  0  0
   -2.4572   -6.0652   22.0641 C   0  0  0  0  0  0  0  0  0  0  0  0
   -2.0178   -6.7226   22.9712 C   0  0  0  0  0  0  0  0  0  0  0  0
  1  6  1  0
  1 21  1  0
  2 20  1  0
  2 22  1  0
  3  4  1  0
  3  6  1  0
  3  8  1  0
  3 13  1  0
  4  5  1  0
  4  9  1  0
  5  7  1  0
  5 12  1  0
  6 11  1  0
  6 23  1  0
  7 10  1  0
  7 14  1  0
  8 10  1  0
  9 11  1  0
 12 15  1  0
 14 16  2  0
 14 17  1  0
 15 16  1  0
 16 18  1  0
 23 24  3  0
 17 19  2  0
 18 20  2  0
 19 20  1  0
M  END
> <PUBCHEM_COMPOUND_CID>
5991

> <PUBCHEM_CONFORMER_RMSD>
0.6

> <PUBCHEM_CONFORMER_DIVERSEORDER>
1

> <PUBCHEM_MMFF94_PARTIAL_CHARGES>
19
1 -0.68
14 -0.14
15 0.14
16 -0.14
17 -0.2
18 -0.15
19 -0.15
2 -0.53
20 -0.15
21 0.08
22 -0.18
41 0.4
42 0.15
43 0.15
44 0.15
45 0.18
46 0.45
6 0.48
7 0.14

> <PUBCHEM_EFFECTIVE_ROTOR_COUNT>
1.4

> <PUBCHEM_PHARMACOPHORE_FEATURES>
8
1 1 acceptor
1 1 donor
1 2 donor
1 22 hydrophobe
5 3 4 6 9 11 rings
6 14 16 18 19 20 21 rings
6 3 4 5 7 8 10 rings
6 5 7 12 14 15 16 rings

> <PUBCHEM_HEAVY_ATOM_COUNT>
22

> <PUBCHEM_ATOM_DEF_STEREO_COUNT>
5

> <PUBCHEM_ATOM_UDEF_STEREO_COUNT>
0

> <PUBCHEM_BOND_DEF_STEREO_COUNT>
0

> <PUBCHEM_BOND_UDEF_STEREO_COUNT>
0

> <PUBCHEM_ISOTOPIC_ATOM_COUNT>
0

> <PUBCHEM_COMPONENT_COUNT>
1

> <PUBCHEM_CACTVS_TAUTO_COUNT>
9

> <PUBCHEM_CONFORMER_ID>
0000176700000001

> <PUBCHEM_MMFF94_ENERGY>
75.3654

> <PUBCHEM_FEATURE_SELFOVERLAP>
40.689

> <PUBCHEM_SHAPE_FINGERPRINT>
10498660 4 18334565854482978588
10616163 171 18412261769892000550
10906281 52 18268729332496851400
10967382 1 18409163299196382730
11132069 177 18260823830106114581
11315181 36 17846777438100329984
11552529 35 18058445585631877095
11578080 2 16952518088400902894
11796584 16 15123796154675551020
12107183 9 17697047933183828707
12236239 1 17917992754997443209
12403259 415 18260540148118003532
12403814 3 17531241756051219503
12633257 1 18411416168188185458
12644460 14 18260827060354363322
12788726 201 17059505002047033793
128620 24 17385724690407290772
13140716 1 18264499557760559337
13224815 77 18408318891198213202
13675066 3 17749393654488776519
14790565 3 18338806709892665688
15163728 17 15481289097577292713
15183329 4 18408605830407435614
15196674 1 18337388339818468438
15209289 33 18341332270467662817
15209294 21 18059584555192331817
15309172 13 18409451371427638915
15536298 74 18341610425830279326
15788980 27 17749105603943632888
16945 1 18265320738190372627
17349148 13 18114176445825312880
1813 80 17530976782159466655
18186145 218 18409161126111612646
19489759 90 15410896249631894657
19591789 44 18193273216009210722
200 152 17918273168974754922
21033648 29 17968079933063946356
21267235 1 18338240469814837151
21623110 236 18263368155990106261
23402539 116 18410566319162361766
23402655 69 18201721773563375622
23559900 14 18341325700027887232
335352 9 18410007719541319564
34934 24 18335695014618288215
350125 39 18408603674022772468
3545911 37 18408602569419241710
3680242 22 18335416829913620042
4214541 1 18412824715549947695
474 4 18408605889666299408
5104073 3 18339077194179428906
542803 24 17561084709247609168
59755656 215 18335983078396721054
633830 44 18202282537272954908
9709674 26 18410014338397756278

> <PUBCHEM_SHAPE_MULTIPOLES>
441.01
10.64
2.03
1.22
7.18
0.55
-0.05
-1.94
-1.01
0.21
-0.15
-1.94
-0.33
-0.49

> <PUBCHEM_SHAPE_SELFOVERLAP>
961.464

> <PUBCHEM_SHAPE_VOLUME>
238.8

> <PUBCHEM_COORDINATE_TYPE>
2
5
10

> <Energy>
61.5647

> <minimizedAffinity>
6.18760

> <CNNscore>
0.3045767844

> <CNNaffinity>
6.9787688255

> <CNN_VS>
2.1255710125

> <CNNaffinity_variance>
0.7564141154

$$$$
5991


 24 27  0  0  0  0  0  0  0  0999 V2000
   -2.8806   -4.0456   20.7855 O   0  0  0  0  0  0  0  0  0  0  0  0
  -11.9323  -10.1915   19.8703 O   0  0  0  0  0  0  0  0  0  0  0  0
   -5.0698   -5.1911   20.8824 C   0  0  0  0  0  0  0  0  0  0  0  0
   -6.4312   -4.6910   21.4182 C   0  0  0  0  0  0  0  0  0  0  0  0
   -7.6100   -5.5098   20.8863 C   0  0  0  0  0  0  0  0  0  0  0  0
   -4.1161   -4.1136   21.4869 C   0  0  0  0  0  0  0  0  0  0  0  0
   -7.4425   -6.9903   21.3428 C   0  0  0  0  0  0  0  0  0  0  0  0
   -4.8802   -6.6468   21.3493 C   0  0  0  0  0  0  0  0  0  0  0  0
   -6.3953   -3.1908   21.1384 C   0  0  0  0  0  0  0  0  0  0  0  0
   -6.0565   -7.5510   20.9307 C   0  0  0  0  0  0  0  0  0  0  0  0
   -4.9132   -2.7968   21.2898 C   0  0  0  0  0  0  0  0  0  0  0  0
   -8.9588   -4.9853   21.3847 C   0  0  0  0  0  0  0  0  0  0  0  0
   -4.9617   -5.1630   19.3290 C   0  0  0  0  0  0  0  0  0  0  0  0
   -8.6370   -7.8408   20.9124 C   0  0  0  0  0  0  0  0  0  0  0  0
  -10.0928   -5.7450   20.7039 C   0  0  0  0  0  0  0  0  0  0  0  0
   -9.8892   -7.2389   20.6576 C   0  0  0  0  0  0  0  0  0  0  0  0
   -8.5479   -9.2420   20.8494 C   0  0  0  0  0  0  0  0  0  0  0  0
  -10.9909   -8.0366   20.2937 C   0  0  0  0  0  0  0  0  0  0  0  0
   -9.6548  -10.0255   20.4961 C   0  0  0  0  0  0  0  0  0  0  0  0
  -10.8670   -9.4143   20.2163 C   0  0  0  0  0  0  0  0  0  0  0  0
   -3.0522   -3.9111   19.8404 H   0  0  0  0  0  0  0  0  0  0  0  0
  -12.7590   -9.7945   19.6780 H   0  0  0  0  0  0  0  0  0  0  0  0
   -3.8186   -4.3181   22.9172 C   0  0  0  0  0  0  0  0  0  0  0  0
   -3.5720   -4.4994   24.0809 C   0  0  0  0  0  0  0  0  0  0  0  0
  1  6  1  0
  1 21  1  0
  2 20  1  0
  2 22  1  0
  3  4  1  0
  3  6  1  0
  3  8  1  0
  3 13  1  0
  4  5  1  0
  4  9  1  0
  5  7  1  0
  5 12  1  0
  6 11  1  0
  6 23  1  0
  7 10  1  0
  7 14  1  0
  8 10  1  0
  9 11  1  0
 12 15  1  0
 14 16  2  0
 14 17  1  0
 15 16  1  0
 16 18  1  0
 23 24  3  0
 17 19  2  0
 18 20  2  0
 19 20  1  0
M  END
> <PUBCHEM_COMPOUND_CID>
5991

> <PUBCHEM_CONFORMER_RMSD>
0.6

> <PUBCHEM_CONFORMER_DIVERSEORDER>
1

> <PUBCHEM_MMFF94_PARTIAL_CHARGES>
19
1 -0.68
14 -0.14
15 0.14
16 -0.14
17 -0.2
18 -0.15
19 -0.15
2 -0.53
20 -0.15
21 0.08
22 -0.18
41 0.4
42 0.15
43 0.15
44 0.15
45 0.18
46 0.45
6 0.48
7 0.14

> <PUBCHEM_EFFECTIVE_ROTOR_COUNT>
1.4

> <PUBCHEM_PHARMACOPHORE_FEATURES>
8
1 1 acceptor
1 1 donor
1 2 donor
1 22 hydrophobe
5 3 4 6 9 11 rings
6 14 16 18 19 20 21 rings
6 3 4 5 7 8 10 rings
6 5 7 12 14 15 16 rings

> <PUBCHEM_HEAVY_ATOM_COUNT>
22

> <PUBCHEM_ATOM_DEF_STEREO_COUNT>
5

> <PUBCHEM_ATOM_UDEF_STEREO_COUNT>
0

> <PUBCHEM_BOND_DEF_STEREO_COUNT>
0

> <PUBCHEM_BOND_UDEF_STEREO_COUNT>
0

> <PUBCHEM_ISOTOPIC_ATOM_COUNT>
0

> <PUBCHEM_COMPONENT_COUNT>
1

> <PUBCHEM_CACTVS_TAUTO_COUNT>
9

> <PUBCHEM_CONFORMER_ID>
0000176700000001

> <PUBCHEM_MMFF94_ENERGY>
75.3654

> <PUBCHEM_FEATURE_SELFOVERLAP>
40.689

> <PUBCHEM_SHAPE_FINGERPRINT>
10498660 4 18334565854482978588
10616163 171 18412261769892000550
10906281 52 18268729332496851400
10967382 1 18409163299196382730
11132069 177 18260823830106114581
11315181 36 17846777438100329984
11552529 35 18058445585631877095
11578080 2 16952518088400902894
11796584 16 15123796154675551020
12107183 9 17697047933183828707
12236239 1 17917992754997443209
12403259 415 18260540148118003532
12403814 3 17531241756051219503
12633257 1 18411416168188185458
12644460 14 18260827060354363322
12788726 201 17059505002047033793
128620 24 17385724690407290772
13140716 1 18264499557760559337
13224815 77 18408318891198213202
13675066 3 17749393654488776519
14790565 3 18338806709892665688
15163728 17 15481289097577292713
15183329 4 18408605830407435614
15196674 1 18337388339818468438
15209289 33 18341332270467662817
15209294 21 18059584555192331817
15309172 13 18409451371427638915
15536298 74 18341610425830279326
15788980 27 17749105603943632888
16945 1 18265320738190372627
17349148 13 18114176445825312880
1813 80 17530976782159466655
18186145 218 18409161126111612646
19489759 90 15410896249631894657
19591789 44 18193273216009210722
200 152 17918273168974754922
21033648 29 17968079933063946356
21267235 1 18338240469814837151
21623110 236 18263368155990106261
23402539 116 18410566319162361766
23402655 69 18201721773563375622
23559900 14 18341325700027887232
335352 9 18410007719541319564
34934 24 18335695014618288215
350125 39 18408603674022772468
3545911 37 18408602569419241710
3680242 22 18335416829913620042
4214541 1 18412824715549947695
474 4 18408605889666299408
5104073 3 18339077194179428906
542803 24 17561084709247609168
59755656 215 18335983078396721054
633830 44 18202282537272954908
9709674 26 18410014338397756278

> <PUBCHEM_SHAPE_MULTIPOLES>
441.01
10.64
2.03
1.22
7.18
0.55
-0.05
-1.94
-1.01
0.21
-0.15
-1.94
-0.33
-0.49

> <PUBCHEM_SHAPE_SELFOVERLAP>
961.464

> <PUBCHEM_SHAPE_VOLUME>
238.8

> <PUBCHEM_COORDINATE_TYPE>
2
5
10

> <Energy>
61.5647

> <minimizedAffinity>
13.21102

> <CNNscore>
0.2645221949

> <CNNaffinity>
6.0687603951

> <CNN_VS>
1.6053217649

> <CNNaffinity_variance>
0.2032746822

$$$$
5991


 24 27  0  0  0  0  0  0  0  0999 V2000
   -8.1338   -5.3338   22.2028 O   0  0  0  0  0  0  0  0  0  0  0  0
    2.1093   -1.7761   20.4815 O   0  0  0  0  0  0  0  0  0  0  0  0
   -5.8890   -4.6503   21.4231 C   0  0  0  0  0  0  0  0  0  0  0  0
   -5.3924   -4.3070   19.9997 C   0  0  0  0  0  0  0  0  0  0  0  0
   -4.0893   -3.5040   20.0085 C   0  0  0  0  0  0  0  0  0  0  0  0
   -7.2499   -5.3376   21.0885 C   0  0  0  0  0  0  0  0  0  0  0  0
   -2.9794   -4.3514   20.7000 C   0  0  0  0  0  0  0  0  0  0  0  0
   -4.8109   -5.5106   22.1089 C   0  0  0  0  0  0  0  0  0  0  0  0
   -6.6225   -3.7008   19.3292 C   0  0  0  0  0  0  0  0  0  0  0  0
   -3.4298   -4.8256   22.1062 C   0  0  0  0  0  0  0  0  0  0  0  0
   -7.8189   -4.4438   19.9547 C   0  0  0  0  0  0  0  0  0  0  0  0
   -3.6236   -3.1292   18.5995 C   0  0  0  0  0  0  0  0  0  0  0  0
   -6.1478   -3.3986   22.3129 C   0  0  0  0  0  0  0  0  0  0  0  0
   -1.6307   -3.6336   20.6620 C   0  0  0  0  0  0  0  0  0  0  0  0
   -2.4106   -2.2082   18.6834 C   0  0  0  0  0  0  0  0  0  0  0  0
   -1.3674   -2.6569   19.6763 C   0  0  0  0  0  0  0  0  0  0  0  0
   -0.5922   -3.9886   21.5401 C   0  0  0  0  0  0  0  0  0  0  0  0
   -0.1094   -2.0259   19.6309 C   0  0  0  0  0  0  0  0  0  0  0  0
    0.6589   -3.3604   21.4778 C   0  0  0  0  0  0  0  0  0  0  0  0
    0.8877   -2.3796   20.5252 C   0  0  0  0  0  0  0  0  0  0  0  0
   -8.2386   -4.4265   22.5294 H   0  0  0  0  0  0  0  0  0  0  0  0
    2.2808   -1.1112   19.8439 H   0  0  0  0  0  0  0  0  0  0  0  0
   -7.1135   -6.7291   20.6185 C   0  0  0  0  0  0  0  0  0  0  0  0
   -7.0133   -7.8686   20.2449 C   0  0  0  0  0  0  0  0  0  0  0  0
  1  6  1  0
  1 21  1  0
  2 20  1  0
  2 22  1  0
  3  4  1  0
  3  6  1  0
  3  8  1  0
  3 13  1  0
  4  5  1  0
  4  9  1  0
  5  7  1  0
  5 12  1  0
  6 11  1  0
  6 23  1  0
  7 10  1  0
  7 14  1  0
  8 10  1  0
  9 11  1  0
 12 15  1  0
 14 16  2  0
 14 17  1  0
 15 16  1  0
 16 18  1  0
 23 24  3  0
 17 19  2  0
 18 20  2  0
 19 20  1  0
M  END
> <PUBCHEM_COMPOUND_CID>
5991

> <PUBCHEM_CONFORMER_RMSD>
0.6

> <PUBCHEM_CONFORMER_DIVERSEORDER>
1

> <PUBCHEM_MMFF94_PARTIAL_CHARGES>
19
1 -0.68
14 -0.14
15 0.14
16 -0.14
17 -0.2
18 -0.15
19 -0.15
2 -0.53
20 -0.15
21 0.08
22 -0.18
41 0.4
42 0.15
43 0.15
44 0.15
45 0.18
46 0.45
6 0.48
7 0.14

> <PUBCHEM_EFFECTIVE_ROTOR_COUNT>
1.4

> <PUBCHEM_PHARMACOPHORE_FEATURES>
8
1 1 acceptor
1 1 donor
1 2 donor
1 22 hydrophobe
5 3 4 6 9 11 rings
6 14 16 18 19 20 21 rings
6 3 4 5 7 8 10 rings
6 5 7 12 14 15 16 rings

> <PUBCHEM_HEAVY_ATOM_COUNT>
22

> <PUBCHEM_ATOM_DEF_STEREO_COUNT>
5

> <PUBCHEM_ATOM_UDEF_STEREO_COUNT>
0

> <PUBCHEM_BOND_DEF_STEREO_COUNT>
0

> <PUBCHEM_BOND_UDEF_STEREO_COUNT>
0

> <PUBCHEM_ISOTOPIC_ATOM_COUNT>
0

> <PUBCHEM_COMPONENT_COUNT>
1

> <PUBCHEM_CACTVS_TAUTO_COUNT>
9

> <PUBCHEM_CONFORMER_ID>
0000176700000001

> <PUBCHEM_MMFF94_ENERGY>
75.3654

> <PUBCHEM_FEATURE_SELFOVERLAP>
40.689

> <PUBCHEM_SHAPE_FINGERPRINT>
10498660 4 18334565854482978588
10616163 171 18412261769892000550
10906281 52 18268729332496851400
10967382 1 18409163299196382730
11132069 177 18260823830106114581
11315181 36 17846777438100329984
11552529 35 18058445585631877095
11578080 2 16952518088400902894
11796584 16 15123796154675551020
12107183 9 17697047933183828707
12236239 1 17917992754997443209
12403259 415 18260540148118003532
12403814 3 17531241756051219503
12633257 1 18411416168188185458
12644460 14 18260827060354363322
12788726 201 17059505002047033793
128620 24 17385724690407290772
13140716 1 18264499557760559337
13224815 77 18408318891198213202
13675066 3 17749393654488776519
14790565 3 18338806709892665688
15163728 17 15481289097577292713
15183329 4 18408605830407435614
15196674 1 18337388339818468438
15209289 33 18341332270467662817
15209294 21 18059584555192331817
15309172 13 18409451371427638915
15536298 74 18341610425830279326
15788980 27 17749105603943632888
16945 1 18265320738190372627
17349148 13 18114176445825312880
1813 80 17530976782159466655
18186145 218 18409161126111612646
19489759 90 15410896249631894657
19591789 44 18193273216009210722
200 152 17918273168974754922
21033648 29 17968079933063946356
21267235 1 18338240469814837151
21623110 236 18263368155990106261
23402539 116 18410566319162361766
23402655 69 18201721773563375622
23559900 14 18341325700027887232
335352 9 18410007719541319564
34934 24 18335695014618288215
350125 39 18408603674022772468
3545911 37 18408602569419241710
3680242 22 18335416829913620042
4214541 1 18412824715549947695
474 4 18408605889666299408
5104073 3 18339077194179428906
542803 24 17561084709247609168
59755656 215 18335983078396721054
633830 44 18202282537272954908
9709674 26 18410014338397756278

> <PUBCHEM_SHAPE_MULTIPOLES>
441.01
10.64
2.03
1.22
7.18
0.55
-0.05
-1.94
-1.01
0.21
-0.15
-1.94
-0.33
-0.49

> <PUBCHEM_SHAPE_SELFOVERLAP>
961.464

> <PUBCHEM_SHAPE_VOLUME>
238.8

> <PUBCHEM_COORDINATE_TYPE>
2
5
10

> <Energy>
61.5647

> <minimizedAffinity>
-0.90598

> <CNNscore>
0.1947782487

> <CNNaffinity>
6.9760851860

> <CNN_VS>
1.3587896824

> <CNNaffinity_variance>
0.4138137400

$$$$
5991


 24 27  0  0  0  0  0  0  0  0999 V2000
   -2.4625   -5.6468   19.0412 O   0  0  0  0  0  0  0  0  0  0  0  0
   -5.4931   -0.1905   28.0737 O   0  0  0  0  0  0  0  0  0  0  0  0
   -3.4101   -4.2213   20.8256 C   0  0  0  0  0  0  0  0  0  0  0  0
   -4.7702   -3.4894   20.8968 C   0  0  0  0  0  0  0  0  0  0  0  0
   -5.1577   -3.1048   22.3268 C   0  0  0  0  0  0  0  0  0  0  0  0
   -3.3604   -4.5761   19.3064 C   0  0  0  0  0  0  0  0  0  0  0  0
   -4.0764   -2.1402   22.9001 C   0  0  0  0  0  0  0  0  0  0  0  0
   -2.3276   -3.2679   21.3659 C   0  0  0  0  0  0  0  0  0  0  0  0
   -5.7059   -4.3974   20.1029 C   0  0  0  0  0  0  0  0  0  0  0  0
   -2.6572   -2.7544   22.7817 C   0  0  0  0  0  0  0  0  0  0  0  0
   -4.8178   -5.0170   19.0066 C   0  0  0  0  0  0  0  0  0  0  0  0
   -6.5241   -2.4188   22.3982 C   0  0  0  0  0  0  0  0  0  0  0  0
   -3.3623   -5.5329   21.6639 C   0  0  0  0  0  0  0  0  0  0  0  0
   -4.4545   -1.6533   24.2985 C   0  0  0  0  0  0  0  0  0  0  0  0
   -6.9167   -2.1982   23.8556 C   0  0  0  0  0  0  0  0  0  0  0  0
   -5.8045   -1.6486   24.7138 C   0  0  0  0  0  0  0  0  0  0  0  0
   -3.4899   -1.1147   25.1673 C   0  0  0  0  0  0  0  0  0  0  0  0
   -6.1444   -1.1668   25.9925 C   0  0  0  0  0  0  0  0  0  0  0  0
   -3.8427   -0.6287   26.4335 C   0  0  0  0  0  0  0  0  0  0  0  0
   -5.1684   -0.6637   26.8371 C   0  0  0  0  0  0  0  0  0  0  0  0
   -2.6909   -6.4063   19.5996 H   0  0  0  0  0  0  0  0  0  0  0  0
   -6.3844   -0.2067   28.3623 H   0  0  0  0  0  0  0  0  0  0  0  0
   -2.9852   -3.4408   18.4426 C   0  0  0  0  0  0  0  0  0  0  0  0
   -2.6898   -2.5060   17.7448 C   0  0  0  0  0  0  0  0  0  0  0  0
  1  6  1  0
  1 21  1  0
  2 20  1  0
  2 22  1  0
  3  4  1  0
  3  6  1  0
  3  8  1  0
  3 13  1  0
  4  5  1  0
  4  9  1  0
  5  7  1  0
  5 12  1  0
  6 11  1  0
  6 23  1  0
  7 10  1  0
  7 14  1  0
  8 10  1  0
  9 11  1  0
 12 15  1  0
 14 16  2  0
 14 17  1  0
 15 16  1  0
 16 18  1  0
 23 24  3  0
 17 19  2  0
 18 20  2  0
 19 20  1  0
M  END
> <PUBCHEM_COMPOUND_CID>
5991

> <PUBCHEM_CONFORMER_RMSD>
0.6

> <PUBCHEM_CONFORMER_DIVERSEORDER>
1

> <PUBCHEM_MMFF94_PARTIAL_CHARGES>
19
1 -0.68
14 -0.14
15 0.14
16 -0.14
17 -0.2
18 -0.15
19 -0.15
2 -0.53
20 -0.15
21 0.08
22 -0.18
41 0.4
42 0.15
43 0.15
44 0.15
45 0.18
46 0.45
6 0.48
7 0.14

> <PUBCHEM_EFFECTIVE_ROTOR_COUNT>
1.4

> <PUBCHEM_PHARMACOPHORE_FEATURES>
8
1 1 acceptor
1 1 donor
1 2 donor
1 22 hydrophobe
5 3 4 6 9 11 rings
6 14 16 18 19 20 21 rings
6 3 4 5 7 8 10 rings
6 5 7 12 14 15 16 rings

> <PUBCHEM_HEAVY_ATOM_COUNT>
22

> <PUBCHEM_ATOM_DEF_STEREO_COUNT>
5

> <PUBCHEM_ATOM_UDEF_STEREO_COUNT>
0

> <PUBCHEM_BOND_DEF_STEREO_COUNT>
0

> <PUBCHEM_BOND_UDEF_STEREO_COUNT>
0

> <PUBCHEM_ISOTOPIC_ATOM_COUNT>
0

> <PUBCHEM_COMPONENT_COUNT>
1

> <PUBCHEM_CACTVS_TAUTO_COUNT>
9

> <PUBCHEM_CONFORMER_ID>
0000176700000001

> <PUBCHEM_MMFF94_ENERGY>
75.3654

> <PUBCHEM_FEATURE_SELFOVERLAP>
40.689

> <PUBCHEM_SHAPE_FINGERPRINT>
10498660 4 18334565854482978588
10616163 171 18412261769892000550
10906281 52 18268729332496851400
10967382 1 18409163299196382730
11132069 177 18260823830106114581
11315181 36 17846777438100329984
11552529 35 18058445585631877095
11578080 2 16952518088400902894
11796584 16 15123796154675551020
12107183 9 17697047933183828707
12236239 1 17917992754997443209
12403259 415 18260540148118003532
12403814 3 17531241756051219503
12633257 1 18411416168188185458
12644460 14 18260827060354363322
12788726 201 17059505002047033793
128620 24 17385724690407290772
13140716 1 18264499557760559337
13224815 77 18408318891198213202
13675066 3 17749393654488776519
14790565 3 18338806709892665688
15163728 17 15481289097577292713
15183329 4 18408605830407435614
15196674 1 18337388339818468438
15209289 33 18341332270467662817
15209294 21 18059584555192331817
15309172 13 18409451371427638915
15536298 74 18341610425830279326
15788980 27 17749105603943632888
16945 1 18265320738190372627
17349148 13 18114176445825312880
1813 80 17530976782159466655
18186145 218 18409161126111612646
19489759 90 15410896249631894657
19591789 44 18193273216009210722
200 152 17918273168974754922
21033648 29 17968079933063946356
21267235 1 18338240469814837151
21623110 236 18263368155990106261
23402539 116 18410566319162361766
23402655 69 18201721773563375622
23559900 14 18341325700027887232
335352 9 18410007719541319564
34934 24 18335695014618288215
350125 39 18408603674022772468
3545911 37 18408602569419241710
3680242 22 18335416829913620042
4214541 1 18412824715549947695
474 4 18408605889666299408
5104073 3 18339077194179428906
542803 24 17561084709247609168
59755656 215 18335983078396721054
633830 44 18202282537272954908
9709674 26 18410014338397756278

> <PUBCHEM_SHAPE_MULTIPOLES>
441.01
10.64
2.03
1.22
7.18
0.55
-0.05
-1.94
-1.01
0.21
-0.15
-1.94
-0.33
-0.49

> <PUBCHEM_SHAPE_SELFOVERLAP>
961.464

> <PUBCHEM_SHAPE_VOLUME>
238.8

> <PUBCHEM_COORDINATE_TYPE>
2
5
10

> <Energy>
61.5647

> <minimizedAffinity>
16.95291

> <CNNscore>
0.1728632748

> <CNNaffinity>
6.5118966103

> <CNN_VS>
1.1256678104

> <CNNaffinity_variance>
0.2775144875

$$$$
5991


 24 27  0  0  0  0  0  0  0  0999 V2000
    0.5002   -3.2029   21.2991 O   0  0  0  0  0  0  0  0  0  0  0  0
   -9.9538   -2.1033   24.4687 O   0  0  0  0  0  0  0  0  0  0  0  0
   -1.9451   -3.0131   21.6132 C   0  0  0  0  0  0  0  0  0  0  0  0
   -3.1044   -3.5382   20.7352 C   0  0  0  0  0  0  0  0  0  0  0  0
   -4.4306   -3.6154   21.4955 C   0  0  0  0  0  0  0  0  0  0  0  0
   -0.7496   -3.1643   20.6212 C   0  0  0  0  0  0  0  0  0  0  0  0
   -4.8192   -2.1856   21.9780 C   0  0  0  0  0  0  0  0  0  0  0  0
   -2.3057   -1.5888   22.0758 C   0  0  0  0  0  0  0  0  0  0  0  0
   -2.5364   -4.8149   20.1206 C   0  0  0  0  0  0  0  0  0  0  0  0
   -3.6698   -1.5365   22.7922 C   0  0  0  0  0  0  0  0  0  0  0  0
   -1.0315   -4.5330   19.9462 C   0  0  0  0  0  0  0  0  0  0  0  0
   -5.5661   -4.1759   20.6358 C   0  0  0  0  0  0  0  0  0  0  0  0
   -1.6784   -3.8802   22.8791 C   0  0  0  0  0  0  0  0  0  0  0  0
   -6.1810   -2.1866   22.6716 C   0  0  0  0  0  0  0  0  0  0  0  0
   -6.8155   -4.3672   21.4896 C   0  0  0  0  0  0  0  0  0  0  0  0
   -7.1243   -3.2007   22.3947 C   0  0  0  0  0  0  0  0  0  0  0  0
   -6.5641   -1.1374   23.5247 C   0  0  0  0  0  0  0  0  0  0  0  0
   -8.3882   -3.1729   23.0149 C   0  0  0  0  0  0  0  0  0  0  0  0
   -7.8290   -1.1159   24.1276 C   0  0  0  0  0  0  0  0  0  0  0  0
   -8.7293   -2.1381   23.8705 C   0  0  0  0  0  0  0  0  0  0  0  0
    0.4799   -3.8979   21.9755 H   0  0  0  0  0  0  0  0  0  0  0  0
  -10.5743   -2.7863   24.3058 H   0  0  0  0  0  0  0  0  0  0  0  0
   -0.6839   -2.0994   19.6025 C   0  0  0  0  0  0  0  0  0  0  0  0
   -0.6220   -1.2401   18.7625 C   0  0  0  0  0  0  0  0  0  0  0  0
  1  6  1  0
  1 21  1  0
  2 20  1  0
  2 22  1  0
  3  4  1  0
  3  6  1  0
  3  8  1  0
  3 13  1  0
  4  5  1  0
  4  9  1  0
  5  7  1  0
  5 12  1  0
  6 11  1  0
  6 23  1  0
  7 10  1  0
  7 14  1  0
  8 10  1  0
  9 11  1  0
 12 15  1  0
 14 16  2  0
 14 17  1  0
 15 16  1  0
 16 18  1  0
 23 24  3  0
 17 19  2  0
 18 20  2  0
 19 20  1  0
M  END
> <PUBCHEM_COMPOUND_CID>
5991

> <PUBCHEM_CONFORMER_RMSD>
0.6

> <PUBCHEM_CONFORMER_DIVERSEORDER>
1

> <PUBCHEM_MMFF94_PARTIAL_CHARGES>
19
1 -0.68
14 -0.14
15 0.14
16 -0.14
17 -0.2
18 -0.15
19 -0.15
2 -0.53
20 -0.15
21 0.08
22 -0.18
41 0.4
42 0.15
43 0.15
44 0.15
45 0.18
46 0.45
6 0.48
7 0.14

> <PUBCHEM_EFFECTIVE_ROTOR_COUNT>
1.4

> <PUBCHEM_PHARMACOPHORE_FEATURES>
8
1 1 acceptor
1 1 donor
1 2 donor
1 22 hydrophobe
5 3 4 6 9 11 rings
6 14 16 18 19 20 21 rings
6 3 4 5 7 8 10 rings
6 5 7 12 14 15 16 rings

> <PUBCHEM_HEAVY_ATOM_COUNT>
22

> <PUBCHEM_ATOM_DEF_STEREO_COUNT>
5

> <PUBCHEM_ATOM_UDEF_STEREO_COUNT>
0

> <PUBCHEM_BOND_DEF_STEREO_COUNT>
0

> <PUBCHEM_BOND_UDEF_STEREO_COUNT>
0

> <PUBCHEM_ISOTOPIC_ATOM_COUNT>
0

> <PUBCHEM_COMPONENT_COUNT>
1

> <PUBCHEM_CACTVS_TAUTO_COUNT>
9

> <PUBCHEM_CONFORMER_ID>
0000176700000001

> <PUBCHEM_MMFF94_ENERGY>
75.3654

> <PUBCHEM_FEATURE_SELFOVERLAP>
40.689

> <PUBCHEM_SHAPE_FINGERPRINT>
10498660 4 18334565854482978588
10616163 171 18412261769892000550
10906281 52 18268729332496851400
10967382 1 18409163299196382730
11132069 177 18260823830106114581
11315181 36 17846777438100329984
11552529 35 18058445585631877095
11578080 2 16952518088400902894
11796584 16 15123796154675551020
12107183 9 17697047933183828707
12236239 1 17917992754997443209
12403259 415 18260540148118003532
12403814 3 17531241756051219503
12633257 1 18411416168188185458
12644460 14 18260827060354363322
12788726 201 17059505002047033793
128620 24 17385724690407290772
13140716 1 18264499557760559337
13224815 77 18408318891198213202
13675066 3 17749393654488776519
14790565 3 18338806709892665688
15163728 17 15481289097577292713
15183329 4 18408605830407435614
15196674 1 18337388339818468438
15209289 33 18341332270467662817
15209294 21 18059584555192331817
15309172 13 18409451371427638915
15536298 74 18341610425830279326
15788980 27 17749105603943632888
16945 1 18265320738190372627
17349148 13 18114176445825312880
1813 80 17530976782159466655
18186145 218 18409161126111612646
19489759 90 15410896249631894657
19591789 44 18193273216009210722
200 152 17918273168974754922
21033648 29 17968079933063946356
21267235 1 18338240469814837151
21623110 236 18263368155990106261
23402539 116 18410566319162361766
23402655 69 18201721773563375622
23559900 14 18341325700027887232
335352 9 18410007719541319564
34934 24 18335695014618288215
350125 39 18408603674022772468
3545911 37 18408602569419241710
3680242 22 18335416829913620042
4214541 1 18412824715549947695
474 4 18408605889666299408
5104073 3 18339077194179428906
542803 24 17561084709247609168
59755656 215 18335983078396721054
633830 44 18202282537272954908
9709674 26 18410014338397756278

> <PUBCHEM_SHAPE_MULTIPOLES>
441.01
10.64
2.03
1.22
7.18
0.55
-0.05
-1.94
-1.01
0.21
-0.15
-1.94
-0.33
-0.49

> <PUBCHEM_SHAPE_SELFOVERLAP>
961.464

> <PUBCHEM_SHAPE_VOLUME>
238.8

> <PUBCHEM_COORDINATE_TYPE>
2
5
10

> <Energy>
61.5647

> <minimizedAffinity>
-6.15135

> <CNNscore>
0.1588820666

> <CNNaffinity>
6.8568592072

> <CNN_VS>
1.0894320011

> <CNNaffinity_variance>
0.1216218248

$$$$
5991


 24 27  0  0  0  0  0  0  0  0999 V2000
   -2.4288   -3.3002   23.3664 O   0  0  0  0  0  0  0  0  0  0  0  0
  -11.3670   -8.9379   20.3887 O   0  0  0  0  0  0  0  0  0  0  0  0
   -4.2101   -4.7026   22.3793 C   0  0  0  0  0  0  0  0  0  0  0  0
   -4.1078   -5.9139   21.4239 C   0  0  0  0  0  0  0  0  0  0  0  0
   -5.3784   -6.7674   21.4170 C   0  0  0  0  0  0  0  0  0  0  0  0
   -2.7654   -4.1247   22.2574 C   0  0  0  0  0  0  0  0  0  0  0  0
   -6.5725   -5.8901   20.9345 C   0  0  0  0  0  0  0  0  0  0  0  0
   -5.3717   -3.8130   21.8973 C   0  0  0  0  0  0  0  0  0  0  0  0
   -2.7868   -6.5691   21.8190 C   0  0  0  0  0  0  0  0  0  0  0  0
   -6.6948   -4.5953   21.7794 C   0  0  0  0  0  0  0  0  0  0  0  0
   -1.8819   -5.4006   22.2551 C   0  0  0  0  0  0  0  0  0  0  0  0
   -5.2575   -7.9891   20.5029 C   0  0  0  0  0  0  0  0  0  0  0  0
   -4.4850   -5.0972   23.8606 C   0  0  0  0  0  0  0  0  0  0  0  0
   -7.8554   -6.7134   20.8252 C   0  0  0  0  0  0  0  0  0  0  0  0
   -6.4911   -8.8732   20.6552 C   0  0  0  0  0  0  0  0  0  0  0  0
   -7.7944   -8.1137   20.6507 C   0  0  0  0  0  0  0  0  0  0  0  0
   -9.1173   -6.0949   20.8017 C   0  0  0  0  0  0  0  0  0  0  0  0
   -8.9826   -8.8575   20.5182 C   0  0  0  0  0  0  0  0  0  0  0  0
  -10.2920   -6.8456   20.6586 C   0  0  0  0  0  0  0  0  0  0  0  0
  -10.2141   -8.2229   20.5228 C   0  0  0  0  0  0  0  0  0  0  0  0
   -2.5709   -3.7923   24.1901 H   0  0  0  0  0  0  0  0  0  0  0  0
  -11.3323   -9.8696   20.2959 H   0  0  0  0  0  0  0  0  0  0  0  0
   -2.5380   -3.3471   21.0246 C   0  0  0  0  0  0  0  0  0  0  0  0
   -2.3377   -2.7118   20.0225 C   0  0  0  0  0  0  0  0  0  0  0  0
  1  6  1  0
  1 21  1  0
  2 20  1  0
  2 22  1  0
  3  4  1  0
  3  6  1  0
  3  8  1  0
  3 13  1  0
  4  5  1  0
  4  9  1  0
  5  7  1  0
  5 12  1  0
  6 11  1  0
  6 23  1  0
  7 10  1  0
  7 14  1  0
  8 10  1  0
  9 11  1  0
 12 15  1  0
 14 16  2  0
 14 17  1  0
 15 16  1  0
 16 18  1  0
 23 24  3  0
 17 19  2  0
 18 20  2  0
 19 20  1  0
M  END
> <PUBCHEM_COMPOUND_CID>
5991

> <PUBCHEM_CONFORMER_RMSD>
0.6

> <PUBCHEM_CONFORMER_DIVERSEORDER>
1

> <PUBCHEM_MMFF94_PARTIAL_CHARGES>
19
1 -0.68
14 -0.14
15 0.14
16 -0.14
17 -0.2
18 -0.15
19 -0.15
2 -0.53
20 -0.15
21 0.08
22 -0.18
41 0.4
42 0.15
43 0.15
44 0.15
45 0.18
46 0.45
6 0.48
7 0.14

> <PUBCHEM_EFFECTIVE_ROTOR_COUNT>
1.4

> <PUBCHEM_PHARMACOPHORE_FEATURES>
8
1 1 acceptor
1 1 donor
1 2 donor
1 22 hydrophobe
5 3 4 6 9 11 rings
6 14 16 18 19 20 21 rings
6 3 4 5 7 8 10 rings
6 5 7 12 14 15 16 rings

> <PUBCHEM_HEAVY_ATOM_COUNT>
22

> <PUBCHEM_ATOM_DEF_STEREO_COUNT>
5

> <PUBCHEM_ATOM_UDEF_STEREO_COUNT>
0

> <PUBCHEM_BOND_DEF_STEREO_COUNT>
0

> <PUBCHEM_BOND_UDEF_STEREO_COUNT>
0

> <PUBCHEM_ISOTOPIC_ATOM_COUNT>
0

> <PUBCHEM_COMPONENT_COUNT>
1

> <PUBCHEM_CACTVS_TAUTO_COUNT>
9

> <PUBCHEM_CONFORMER_ID>
0000176700000001

> <PUBCHEM_MMFF94_ENERGY>
75.3654

> <PUBCHEM_FEATURE_SELFOVERLAP>
40.689

> <PUBCHEM_SHAPE_FINGERPRINT>
10498660 4 18334565854482978588
10616163 171 18412261769892000550
10906281 52 18268729332496851400
10967382 1 18409163299196382730
11132069 177 18260823830106114581
11315181 36 17846777438100329984
11552529 35 18058445585631877095
11578080 2 16952518088400902894
11796584 16 15123796154675551020
12107183 9 17697047933183828707
12236239 1 17917992754997443209
12403259 415 18260540148118003532
12403814 3 17531241756051219503
12633257 1 18411416168188185458
12644460 14 18260827060354363322
12788726 201 17059505002047033793
128620 24 17385724690407290772
13140716 1 18264499557760559337
13224815 77 18408318891198213202
13675066 3 17749393654488776519
14790565 3 18338806709892665688
15163728 17 15481289097577292713
15183329 4 18408605830407435614
15196674 1 18337388339818468438
15209289 33 18341332270467662817
15209294 21 18059584555192331817
15309172 13 18409451371427638915
15536298 74 18341610425830279326
15788980 27 17749105603943632888
16945 1 18265320738190372627
17349148 13 18114176445825312880
1813 80 17530976782159466655
18186145 218 18409161126111612646
19489759 90 15410896249631894657
19591789 44 18193273216009210722
200 152 17918273168974754922
21033648 29 17968079933063946356
21267235 1 18338240469814837151
21623110 236 18263368155990106261
23402539 116 18410566319162361766
23402655 69 18201721773563375622
23559900 14 18341325700027887232
335352 9 18410007719541319564
34934 24 18335695014618288215
350125 39 18408603674022772468
3545911 37 18408602569419241710
3680242 22 18335416829913620042
4214541 1 18412824715549947695
474 4 18408605889666299408
5104073 3 18339077194179428906
542803 24 17561084709247609168
59755656 215 18335983078396721054
633830 44 18202282537272954908
9709674 26 18410014338397756278

> <PUBCHEM_SHAPE_MULTIPOLES>
441.01
10.64
2.03
1.22
7.18
0.55
-0.05
-1.94
-1.01
0.21
-0.15
-1.94
-0.33
-0.49

> <PUBCHEM_SHAPE_SELFOVERLAP>
961.464

> <PUBCHEM_SHAPE_VOLUME>
238.8

> <PUBCHEM_COORDINATE_TYPE>
2
5
10

> <Energy>
61.5647

> <minimizedAffinity>
4.48694

> <CNNscore>
0.1554882377

> <CNNaffinity>
5.1353077888

> <CNN_VS>
0.7984799743

> <CNNaffinity_variance>
0.7151672840

$$$$
