5757


 22 25  0  0  0  0  0  0  0  0999 V2000
   27.0844   -2.5472   11.2936 O   0  0  0  0  0  0  0  0  0  0  0  0
   20.4055   -2.1217    2.6099 O   0  0  0  0  0  0  0  0  0  0  0  0
   25.4097   -2.7496    9.4953 C   0  0  0  0  0  0  0  0  0  0  0  0
   24.2502   -3.7547    9.3436 C   0  0  0  0  0  0  0  0  0  0  0  0
   23.2528   -3.3269    8.2671 C   0  0  0  0  0  0  0  0  0  0  0  0
   23.9941   -3.2625    6.8971 C   0  0  0  0  0  0  0  0  0  0  0  0
   26.1660   -3.4164   10.6604 C   0  0  0  0  0  0  0  0  0  0  0  0
   26.1785   -2.7043    8.1692 C   0  0  0  0  0  0  0  0  0  0  0  0
   23.7641   -3.9551   10.7761 C   0  0  0  0  0  0  0  0  0  0  0  0
   25.2559   -2.3618    6.9832 C   0  0  0  0  0  0  0  0  0  0  0  0
   25.0482   -3.8666   11.6211 C   0  0  0  0  0  0  0  0  0  0  0  0
   22.0684   -4.2879    8.1467 C   0  0  0  0  0  0  0  0  0  0  0  0
   24.9777   -1.3129    9.8856 C   0  0  0  0  0  0  0  0  0  0  0  0
   23.0300   -2.9214    5.7619 C   0  0  0  0  0  0  0  0  0  0  0  0
   21.0442   -3.7301    7.1613 C   0  0  0  0  0  0  0  0  0  0  0  0
   21.6486   -3.1884    5.8865 C   0  0  0  0  0  0  0  0  0  0  0  0
   23.5025   -2.4200    4.5356 C   0  0  0  0  0  0  0  0  0  0  0  0
   20.7798   -2.8999    4.8176 C   0  0  0  0  0  0  0  0  0  0  0  0
   22.6323   -2.1470    3.4776 C   0  0  0  0  0  0  0  0  0  0  0  0
   21.2761   -2.3841    3.6274 C   0  0  0  0  0  0  0  0  0  0  0  0
   27.7712   -2.2856   10.6605 H   0  0  0  0  0  0  0  0  0  0  0  0
   19.4900   -2.2860    2.7225 H   0  0  0  0  0  0  0  0  0  0  0  0
  1  7  1  0
  1 21  1  0
  2 20  1  0
  2 22  1  0
  3  4  1  0
  3  7  1  0
  3  8  1  0
  3 13  1  0
  4  5  1  0
  4  9  1  0
  5  6  1  0
  5 12  1  0
  6 10  1  0
  6 14  1  0
  7 11  1  0
  8 10  1  0
  9 11  1  0
 12 15  1  0
 14 16  2  0
 14 17  1  0
 15 16  1  0
 16 18  1  0
 17 19  2  0
 18 20  2  0
 19 20  1  0
M  END
> <PUBCHEM_COMPOUND_CID>
5757

> <PUBCHEM_CONFORMER_RMSD>
0.6

> <PUBCHEM_CONFORMER_DIVERSEORDER>
1

> <PUBCHEM_MMFF94_PARTIAL_CHARGES>
16
1 -0.68
14 -0.14
15 0.14
16 -0.14
17 -0.15
18 -0.15
19 -0.15
2 -0.53
20 0.08
40 0.4
41 0.15
42 0.15
43 0.15
44 0.45
6 0.14
7 0.28

> <PUBCHEM_EFFECTIVE_ROTOR_COUNT>
1.4

> <PUBCHEM_PHARMACOPHORE_FEATURES>
7
1 1 acceptor
1 1 donor
1 2 donor
5 3 4 7 9 11 rings
6 14 16 17 18 19 20 rings
6 3 4 5 6 8 10 rings
6 5 6 12 14 15 16 rings

> <PUBCHEM_HEAVY_ATOM_COUNT>
20

> <PUBCHEM_ATOM_DEF_STEREO_COUNT>
5

> <PUBCHEM_ATOM_UDEF_STEREO_COUNT>
0

> <PUBCHEM_BOND_DEF_STEREO_COUNT>
0

> <PUBCHEM_BOND_UDEF_STEREO_COUNT>
0

> <PUBCHEM_ISOTOPIC_ATOM_COUNT>
0

> <PUBCHEM_COMPONENT_COUNT>
1

> <PUBCHEM_CACTVS_TAUTO_COUNT>
9

> <PUBCHEM_CONFORMER_ID>
0000167D00000001

> <PUBCHEM_MMFF94_ENERGY>
68.4596

> <PUBCHEM_FEATURE_SELFOVERLAP>
35.62

> <PUBCHEM_SHAPE_FINGERPRINT>
10 15 18262512710780645640
10411042 1 16969703283687688743
10616163 171 18338239395883154686
10967382 1 18410012100429229070
11132069 177 18409162216832884669
11578080 2 17201347718505248258
12011746 2 18410859841042374310
12107183 9 17690845558000159065
12236239 1 13470690338792453460
12251169 10 18335139816864396069
12403259 415 18410852127603240605
12403814 3 17530960289353343621
12500047 106 18271238421624861530
12592029 89 18334859377112304987
12788726 201 17703518696578858128
128620 24 11818992989152349105
13140716 1 18192429898953651512
13533116 47 17846218813073552003
13544592 145 18272379637759764926
13675066 3 18341893012844745609
14178342 30 18123731313450613666
14341114 176 18409738343777605753
14866123 147 17046555868986690930
15042514 8 18263932206156989787
15196674 1 18410012108982090935
15256400 18 18410857620686823693
15295992 7 17845930826899781123
15536298 74 18413671296627645270
1601671 61 18409168826940819996
16945 1 18266170819592368622
17349148 13 18412820287929204701
17804303 29 18410296916890392117
1813 80 16950285091842931756
18186145 218 17417805158171412875
19141452 34 18413108389914235807
192875 21 13830133918406568194
19591789 44 18192993725128068838
200 152 18131627885965453901
20028762 73 18272929458099065015
20261772 1 18410856577167961319
20510252 161 18341895147623301209
20645477 70 18200878374956666302
21033648 29 18271512131406579929
21267235 1 18337399244825179854
21279426 13 18124035632930519374
21421861 104 17895744090149736410
22854114 59 18412546505207311417
22892500 29 17274814788166584896
23184049 59 18410576175690384255
23402539 116 18342170081765240151
23557571 272 17773880972535682807
23558518 356 17682680979747269074
23559900 14 18413389822146813342
2748010 2 18337666399911122230
3004659 81 18260835844047909814
335352 9 18410013195572088855
34934 24 18411133675799850702
350125 39 18409735045496469133
351380 180 18409730664571278687
3545911 37 18411703192367818988
4214541 1 18409167684326479901
465052 167 17967541176940287083
495365 180 17346587600050392546
5104073 3 18409449150412323065
542803 24 17346883342628774985
59755656 215 18335983048405458773
69090 78 18341891905091661271
77779 3 18409450271409361990
7832392 63 18341046427736201710
9709674 26 18410862087368844367
9999458 23 17967819357476725574

> <PUBCHEM_SHAPE_MULTIPOLES>
399.85
9.72
2.11
0.84
3.73
0.39
0.22
-1.2
1.2
-0.24
-0.15
-0.38
-0.13
0.32

> <PUBCHEM_SHAPE_SELFOVERLAP>
871.414

> <PUBCHEM_SHAPE_VOLUME>
217.1

> <PUBCHEM_COORDINATE_TYPE>
2
5
10

> <Energy>
58.4396

> <minimizedAffinity>
-11.47085

> <CNNscore>
0.9827706218

> <CNNaffinity>
8.4197750092

> <CNN_VS>
8.2747077942

> <CNNaffinity_variance>
1.1910705566

$$$$
5757


 22 25  0  0  0  0  0  0  0  0999 V2000
   25.5802   -4.6481   11.8063 O   0  0  0  0  0  0  0  0  0  0  0  0
   20.8199   -2.2107    2.2358 O   0  0  0  0  0  0  0  0  0  0  0  0
   24.6472   -3.7523    9.7071 C   0  0  0  0  0  0  0  0  0  0  0  0
   24.7590   -2.3350    9.1103 C   0  0  0  0  0  0  0  0  0  0  0  0
   24.3274   -2.2902    7.6447 C   0  0  0  0  0  0  0  0  0  0  0  0
   22.8306   -2.7166    7.5518 C   0  0  0  0  0  0  0  0  0  0  0  0
   25.2006   -3.4727   11.1176 C   0  0  0  0  0  0  0  0  0  0  0  0
   23.1731   -4.1731    9.6644 C   0  0  0  0  0  0  0  0  0  0  0  0
   26.1729   -1.9015    9.4870 C   0  0  0  0  0  0  0  0  0  0  0  0
   22.5941   -4.0889    8.2387 C   0  0  0  0  0  0  0  0  0  0  0  0
   26.4034   -2.5419   10.8681 C   0  0  0  0  0  0  0  0  0  0  0  0
   24.4874   -0.9002    7.0260 C   0  0  0  0  0  0  0  0  0  0  0  0
   25.5069   -4.8275    8.9945 C   0  0  0  0  0  0  0  0  0  0  0  0
   22.3132   -2.6112    6.1181 C   0  0  0  0  0  0  0  0  0  0  0  0
   24.1775   -0.9569    5.5321 C   0  0  0  0  0  0  0  0  0  0  0  0
   22.9334   -1.7443    5.1914 C   0  0  0  0  0  0  0  0  0  0  0  0
   21.1570   -3.3016    5.7122 C   0  0  0  0  0  0  0  0  0  0  0  0
   22.4223   -1.6335    3.8848 C   0  0  0  0  0  0  0  0  0  0  0  0
   20.6523   -3.1762    4.4156 C   0  0  0  0  0  0  0  0  0  0  0  0
   21.2913   -2.3468    3.5091 C   0  0  0  0  0  0  0  0  0  0  0  0
   24.8001   -5.2077   11.9451 H   0  0  0  0  0  0  0  0  0  0  0  0
   21.2604   -1.6467    1.6310 H   0  0  0  0  0  0  0  0  0  0  0  0
  1  7  1  0
  1 21  1  0
  2 20  1  0
  2 22  1  0
  3  4  1  0
  3  7  1  0
  3  8  1  0
  3 13  1  0
  4  5  1  0
  4  9  1  0
  5  6  1  0
  5 12  1  0
  6 10  1  0
  6 14  1  0
  7 11  1  0
  8 10  1  0
  9 11  1  0
 12 15  1  0
 14 16  2  0
 14 17  1  0
 15 16  1  0
 16 18  1  0
 17 19  2  0
 18 20  2  0
 19 20  1  0
M  END
> <PUBCHEM_COMPOUND_CID>
5757

> <PUBCHEM_CONFORMER_RMSD>
0.6

> <PUBCHEM_CONFORMER_DIVERSEORDER>
1

> <PUBCHEM_MMFF94_PARTIAL_CHARGES>
16
1 -0.68
14 -0.14
15 0.14
16 -0.14
17 -0.15
18 -0.15
19 -0.15
2 -0.53
20 0.08
40 0.4
41 0.15
42 0.15
43 0.15
44 0.45
6 0.14
7 0.28

> <PUBCHEM_EFFECTIVE_ROTOR_COUNT>
1.4

> <PUBCHEM_PHARMACOPHORE_FEATURES>
7
1 1 acceptor
1 1 donor
1 2 donor
5 3 4 7 9 11 rings
6 14 16 17 18 19 20 rings
6 3 4 5 6 8 10 rings
6 5 6 12 14 15 16 rings

> <PUBCHEM_HEAVY_ATOM_COUNT>
20

> <PUBCHEM_ATOM_DEF_STEREO_COUNT>
5

> <PUBCHEM_ATOM_UDEF_STEREO_COUNT>
0

> <PUBCHEM_BOND_DEF_STEREO_COUNT>
0

> <PUBCHEM_BOND_UDEF_STEREO_COUNT>
0

> <PUBCHEM_ISOTOPIC_ATOM_COUNT>
0

> <PUBCHEM_COMPONENT_COUNT>
1

> <PUBCHEM_CACTVS_TAUTO_COUNT>
9

> <PUBCHEM_CONFORMER_ID>
0000167D00000001

> <PUBCHEM_MMFF94_ENERGY>
68.4596

> <PUBCHEM_FEATURE_SELFOVERLAP>
35.62

> <PUBCHEM_SHAPE_FINGERPRINT>
10 15 18262512710780645640
10411042 1 16969703283687688743
10616163 171 18338239395883154686
10967382 1 18410012100429229070
11132069 177 18409162216832884669
11578080 2 17201347718505248258
12011746 2 18410859841042374310
12107183 9 17690845558000159065
12236239 1 13470690338792453460
12251169 10 18335139816864396069
12403259 415 18410852127603240605
12403814 3 17530960289353343621
12500047 106 18271238421624861530
12592029 89 18334859377112304987
12788726 201 17703518696578858128
128620 24 11818992989152349105
13140716 1 18192429898953651512
13533116 47 17846218813073552003
13544592 145 18272379637759764926
13675066 3 18341893012844745609
14178342 30 18123731313450613666
14341114 176 18409738343777605753
14866123 147 17046555868986690930
15042514 8 18263932206156989787
15196674 1 18410012108982090935
15256400 18 18410857620686823693
15295992 7 17845930826899781123
15536298 74 18413671296627645270
1601671 61 18409168826940819996
16945 1 18266170819592368622
17349148 13 18412820287929204701
17804303 29 18410296916890392117
1813 80 16950285091842931756
18186145 218 17417805158171412875
19141452 34 18413108389914235807
192875 21 13830133918406568194
19591789 44 18192993725128068838
200 152 18131627885965453901
20028762 73 18272929458099065015
20261772 1 18410856577167961319
20510252 161 18341895147623301209
20645477 70 18200878374956666302
21033648 29 18271512131406579929
21267235 1 18337399244825179854
21279426 13 18124035632930519374
21421861 104 17895744090149736410
22854114 59 18412546505207311417
22892500 29 17274814788166584896
23184049 59 18410576175690384255
23402539 116 18342170081765240151
23557571 272 17773880972535682807
23558518 356 17682680979747269074
23559900 14 18413389822146813342
2748010 2 18337666399911122230
3004659 81 18260835844047909814
335352 9 18410013195572088855
34934 24 18411133675799850702
350125 39 18409735045496469133
351380 180 18409730664571278687
3545911 37 18411703192367818988
4214541 1 18409167684326479901
465052 167 17967541176940287083
495365 180 17346587600050392546
5104073 3 18409449150412323065
542803 24 17346883342628774985
59755656 215 18335983048405458773
69090 78 18341891905091661271
77779 3 18409450271409361990
7832392 63 18341046427736201710
9709674 26 18410862087368844367
9999458 23 17967819357476725574

> <PUBCHEM_SHAPE_MULTIPOLES>
399.85
9.72
2.11
0.84
3.73
0.39
0.22
-1.2
1.2
-0.24
-0.15
-0.38
-0.13
0.32

> <PUBCHEM_SHAPE_SELFOVERLAP>
871.414

> <PUBCHEM_SHAPE_VOLUME>
217.1

> <PUBCHEM_COORDINATE_TYPE>
2
5
10

> <Energy>
58.4396

> <minimizedAffinity>
-10.76329

> <CNNscore>
0.9509155750

> <CNNaffinity>
8.0828561783

> <CNN_VS>
7.6861138344

> <CNNaffinity_variance>
0.8377509117

$$$$
5757


 22 25  0  0  0  0  0  0  0  0999 V2000
   28.5124   -1.7540   10.0934 O   0  0  0  0  0  0  0  0  0  0  0  0
   20.0290   -2.7587    3.2217 O   0  0  0  0  0  0  0  0  0  0  0  0
   26.4715   -2.2326    8.7951 C   0  0  0  0  0  0  0  0  0  0  0  0
   25.3075   -3.1916    9.1159 C   0  0  0  0  0  0  0  0  0  0  0  0
   24.0911   -2.9411    8.2248 C   0  0  0  0  0  0  0  0  0  0  0  0
   24.5003   -3.1873    6.7407 C   0  0  0  0  0  0  0  0  0  0  0  0
   27.4733   -2.6878    9.8736 C   0  0  0  0  0  0  0  0  0  0  0  0
   26.9176   -2.4901    7.3507 C   0  0  0  0  0  0  0  0  0  0  0  0
   25.1608   -3.0780   10.6307 C   0  0  0  0  0  0  0  0  0  0  0  0
   25.7490   -2.3485    6.3560 C   0  0  0  0  0  0  0  0  0  0  0  0
   26.6039   -2.8831   11.1311 C   0  0  0  0  0  0  0  0  0  0  0  0
   22.9100   -3.8494    8.5719 C   0  0  0  0  0  0  0  0  0  0  0  0
   26.1408   -0.7280    8.9679 C   0  0  0  0  0  0  0  0  0  0  0  0
   23.3029   -3.0349    5.8040 C   0  0  0  0  0  0  0  0  0  0  0  0
   21.6883   -3.4522    7.7468 C   0  0  0  0  0  0  0  0  0  0  0  0
   21.9862   -3.2058    6.2859 C   0  0  0  0  0  0  0  0  0  0  0  0
   23.4835   -2.8121    4.4270 C   0  0  0  0  0  0  0  0  0  0  0  0
   20.8967   -3.0962    5.4019 C   0  0  0  0  0  0  0  0  0  0  0  0
   22.3950   -2.7154    3.5569 C   0  0  0  0  0  0  0  0  0  0  0  0
   21.1086   -2.8531    4.0510 C   0  0  0  0  0  0  0  0  0  0  0  0
   29.0368   -1.6573    9.2831 H   0  0  0  0  0  0  0  0  0  0  0  0
   19.1632   -2.8536    3.5672 H   0  0  0  0  0  0  0  0  0  0  0  0
  1  7  1  0
  1 21  1  0
  2 20  1  0
  2 22  1  0
  3  4  1  0
  3  7  1  0
  3  8  1  0
  3 13  1  0
  4  5  1  0
  4  9  1  0
  5  6  1  0
  5 12  1  0
  6 10  1  0
  6 14  1  0
  7 11  1  0
  8 10  1  0
  9 11  1  0
 12 15  1  0
 14 16  2  0
 14 17  1  0
 15 16  1  0
 16 18  1  0
 17 19  2  0
 18 20  2  0
 19 20  1  0
M  END
> <PUBCHEM_COMPOUND_CID>
5757

> <PUBCHEM_CONFORMER_RMSD>
0.6

> <PUBCHEM_CONFORMER_DIVERSEORDER>
1

> <PUBCHEM_MMFF94_PARTIAL_CHARGES>
16
1 -0.68
14 -0.14
15 0.14
16 -0.14
17 -0.15
18 -0.15
19 -0.15
2 -0.53
20 0.08
40 0.4
41 0.15
42 0.15
43 0.15
44 0.45
6 0.14
7 0.28

> <PUBCHEM_EFFECTIVE_ROTOR_COUNT>
1.4

> <PUBCHEM_PHARMACOPHORE_FEATURES>
7
1 1 acceptor
1 1 donor
1 2 donor
5 3 4 7 9 11 rings
6 14 16 17 18 19 20 rings
6 3 4 5 6 8 10 rings
6 5 6 12 14 15 16 rings

> <PUBCHEM_HEAVY_ATOM_COUNT>
20

> <PUBCHEM_ATOM_DEF_STEREO_COUNT>
5

> <PUBCHEM_ATOM_UDEF_STEREO_COUNT>
0

> <PUBCHEM_BOND_DEF_STEREO_COUNT>
0

> <PUBCHEM_BOND_UDEF_STEREO_COUNT>
0

> <PUBCHEM_ISOTOPIC_ATOM_COUNT>
0

> <PUBCHEM_COMPONENT_COUNT>
1

> <PUBCHEM_CACTVS_TAUTO_COUNT>
9

> <PUBCHEM_CONFORMER_ID>
0000167D00000001

> <PUBCHEM_MMFF94_ENERGY>
68.4596

> <PUBCHEM_FEATURE_SELFOVERLAP>
35.62

> <PUBCHEM_SHAPE_FINGERPRINT>
10 15 18262512710780645640
10411042 1 16969703283687688743
10616163 171 18338239395883154686
10967382 1 18410012100429229070
11132069 177 18409162216832884669
11578080 2 17201347718505248258
12011746 2 18410859841042374310
12107183 9 17690845558000159065
12236239 1 13470690338792453460
12251169 10 18335139816864396069
12403259 415 18410852127603240605
12403814 3 17530960289353343621
12500047 106 18271238421624861530
12592029 89 18334859377112304987
12788726 201 17703518696578858128
128620 24 11818992989152349105
13140716 1 18192429898953651512
13533116 47 17846218813073552003
13544592 145 18272379637759764926
13675066 3 18341893012844745609
14178342 30 18123731313450613666
14341114 176 18409738343777605753
14866123 147 17046555868986690930
15042514 8 18263932206156989787
15196674 1 18410012108982090935
15256400 18 18410857620686823693
15295992 7 17845930826899781123
15536298 74 18413671296627645270
1601671 61 18409168826940819996
16945 1 18266170819592368622
17349148 13 18412820287929204701
17804303 29 18410296916890392117
1813 80 16950285091842931756
18186145 218 17417805158171412875
19141452 34 18413108389914235807
192875 21 13830133918406568194
19591789 44 18192993725128068838
200 152 18131627885965453901
20028762 73 18272929458099065015
20261772 1 18410856577167961319
20510252 161 18341895147623301209
20645477 70 18200878374956666302
21033648 29 18271512131406579929
21267235 1 18337399244825179854
21279426 13 18124035632930519374
21421861 104 17895744090149736410
22854114 59 18412546505207311417
22892500 29 17274814788166584896
23184049 59 18410576175690384255
23402539 116 18342170081765240151
23557571 272 17773880972535682807
23558518 356 17682680979747269074
23559900 14 18413389822146813342
2748010 2 18337666399911122230
3004659 81 18260835844047909814
335352 9 18410013195572088855
34934 24 18411133675799850702
350125 39 18409735045496469133
351380 180 18409730664571278687
3545911 37 18411703192367818988
4214541 1 18409167684326479901
465052 167 17967541176940287083
495365 180 17346587600050392546
5104073 3 18409449150412323065
542803 24 17346883342628774985
59755656 215 18335983048405458773
69090 78 18341891905091661271
77779 3 18409450271409361990
7832392 63 18341046427736201710
9709674 26 18410862087368844367
9999458 23 17967819357476725574

> <PUBCHEM_SHAPE_MULTIPOLES>
399.85
9.72
2.11
0.84
3.73
0.39
0.22
-1.2
1.2
-0.24
-0.15
-0.38
-0.13
0.32

> <PUBCHEM_SHAPE_SELFOVERLAP>
871.414

> <PUBCHEM_SHAPE_VOLUME>
217.1

> <PUBCHEM_COORDINATE_TYPE>
2
5
10

> <Energy>
58.4396

> <minimizedAffinity>
-8.44108

> <CNNscore>
0.8290131688

> <CNNaffinity>
7.9213185310

> <CNN_VS>
6.5668773651

> <CNNaffinity_variance>
1.2256056070

$$$$
5757


 22 25  0  0  0  0  0  0  0  0999 V2000
   22.1079   -2.3583    2.0398 O   0  0  0  0  0  0  0  0  0  0  0  0
   26.6802   -2.4422   12.0038 O   0  0  0  0  0  0  0  0  0  0  0  0
   22.7893   -2.4560    4.4074 C   0  0  0  0  0  0  0  0  0  0  0  0
   21.9420   -2.7560    5.6602 C   0  0  0  0  0  0  0  0  0  0  0  0
   22.8074   -3.0494    6.8856 C   0  0  0  0  0  0  0  0  0  0  0  0
   23.6713   -1.7902    7.1996 C   0  0  0  0  0  0  0  0  0  0  0  0
   21.6569   -2.2788    3.3778 C   0  0  0  0  0  0  0  0  0  0  0  0
   23.6154   -1.1933    4.6813 C   0  0  0  0  0  0  0  0  0  0  0  0
   20.9512   -3.8103    5.1748 C   0  0  0  0  0  0  0  0  0  0  0  0
   24.4759   -1.3357    5.9518 C   0  0  0  0  0  0  0  0  0  0  0  0
   20.6656   -3.4094    3.7159 C   0  0  0  0  0  0  0  0  0  0  0  0
   21.9777   -3.4037    8.1212 C   0  0  0  0  0  0  0  0  0  0  0  0
   23.7372   -3.6034    3.9736 C   0  0  0  0  0  0  0  0  0  0  0  0
   24.4994   -1.9896    8.4680 C   0  0  0  0  0  0  0  0  0  0  0  0
   22.8993   -3.8232    9.2638 C   0  0  0  0  0  0  0  0  0  0  0  0
   24.0974   -2.9213    9.4506 C   0  0  0  0  0  0  0  0  0  0  0  0
   25.6267   -1.1906    8.7309 C   0  0  0  0  0  0  0  0  0  0  0  0
   24.8531   -3.0673   10.6288 C   0  0  0  0  0  0  0  0  0  0  0  0
   26.3635   -1.3369    9.9086 C   0  0  0  0  0  0  0  0  0  0  0  0
   25.9746   -2.2777   10.8475 C   0  0  0  0  0  0  0  0  0  0  0  0
   22.7279   -1.6334    1.8639 H   0  0  0  0  0  0  0  0  0  0  0  0
   26.4079   -3.0819   12.6319 H   0  0  0  0  0  0  0  0  0  0  0  0
  1  7  1  0
  1 21  1  0
  2 20  1  0
  2 22  1  0
  3  4  1  0
  3  7  1  0
  3  8  1  0
  3 13  1  0
  4  5  1  0
  4  9  1  0
  5  6  1  0
  5 12  1  0
  6 10  1  0
  6 14  1  0
  7 11  1  0
  8 10  1  0
  9 11  1  0
 12 15  1  0
 14 16  2  0
 14 17  1  0
 15 16  1  0
 16 18  1  0
 17 19  2  0
 18 20  2  0
 19 20  1  0
M  END
> <PUBCHEM_COMPOUND_CID>
5757

> <PUBCHEM_CONFORMER_RMSD>
0.6

> <PUBCHEM_CONFORMER_DIVERSEORDER>
1

> <PUBCHEM_MMFF94_PARTIAL_CHARGES>
16
1 -0.68
14 -0.14
15 0.14
16 -0.14
17 -0.15
18 -0.15
19 -0.15
2 -0.53
20 0.08
40 0.4
41 0.15
42 0.15
43 0.15
44 0.45
6 0.14
7 0.28

> <PUBCHEM_EFFECTIVE_ROTOR_COUNT>
1.4

> <PUBCHEM_PHARMACOPHORE_FEATURES>
7
1 1 acceptor
1 1 donor
1 2 donor
5 3 4 7 9 11 rings
6 14 16 17 18 19 20 rings
6 3 4 5 6 8 10 rings
6 5 6 12 14 15 16 rings

> <PUBCHEM_HEAVY_ATOM_COUNT>
20

> <PUBCHEM_ATOM_DEF_STEREO_COUNT>
5

> <PUBCHEM_ATOM_UDEF_STEREO_COUNT>
0

> <PUBCHEM_BOND_DEF_STEREO_COUNT>
0

> <PUBCHEM_BOND_UDEF_STEREO_COUNT>
0

> <PUBCHEM_ISOTOPIC_ATOM_COUNT>
0

> <PUBCHEM_COMPONENT_COUNT>
1

> <PUBCHEM_CACTVS_TAUTO_COUNT>
9

> <PUBCHEM_CONFORMER_ID>
0000167D00000001

> <PUBCHEM_MMFF94_ENERGY>
68.4596

> <PUBCHEM_FEATURE_SELFOVERLAP>
35.62

> <PUBCHEM_SHAPE_FINGERPRINT>
10 15 18262512710780645640
10411042 1 16969703283687688743
10616163 171 18338239395883154686
10967382 1 18410012100429229070
11132069 177 18409162216832884669
11578080 2 17201347718505248258
12011746 2 18410859841042374310
12107183 9 17690845558000159065
12236239 1 13470690338792453460
12251169 10 18335139816864396069
12403259 415 18410852127603240605
12403814 3 17530960289353343621
12500047 106 18271238421624861530
12592029 89 18334859377112304987
12788726 201 17703518696578858128
128620 24 11818992989152349105
13140716 1 18192429898953651512
13533116 47 17846218813073552003
13544592 145 18272379637759764926
13675066 3 18341893012844745609
14178342 30 18123731313450613666
14341114 176 18409738343777605753
14866123 147 17046555868986690930
15042514 8 18263932206156989787
15196674 1 18410012108982090935
15256400 18 18410857620686823693
15295992 7 17845930826899781123
15536298 74 18413671296627645270
1601671 61 18409168826940819996
16945 1 18266170819592368622
17349148 13 18412820287929204701
17804303 29 18410296916890392117
1813 80 16950285091842931756
18186145 218 17417805158171412875
19141452 34 18413108389914235807
192875 21 13830133918406568194
19591789 44 18192993725128068838
200 152 18131627885965453901
20028762 73 18272929458099065015
20261772 1 18410856577167961319
20510252 161 18341895147623301209
20645477 70 18200878374956666302
21033648 29 18271512131406579929
21267235 1 18337399244825179854
21279426 13 18124035632930519374
21421861 104 17895744090149736410
22854114 59 18412546505207311417
22892500 29 17274814788166584896
23184049 59 18410576175690384255
23402539 116 18342170081765240151
23557571 272 17773880972535682807
23558518 356 17682680979747269074
23559900 14 18413389822146813342
2748010 2 18337666399911122230
3004659 81 18260835844047909814
335352 9 18410013195572088855
34934 24 18411133675799850702
350125 39 18409735045496469133
351380 180 18409730664571278687
3545911 37 18411703192367818988
4214541 1 18409167684326479901
465052 167 17967541176940287083
495365 180 17346587600050392546
5104073 3 18409449150412323065
542803 24 17346883342628774985
59755656 215 18335983048405458773
69090 78 18341891905091661271
77779 3 18409450271409361990
7832392 63 18341046427736201710
9709674 26 18410862087368844367
9999458 23 17967819357476725574

> <PUBCHEM_SHAPE_MULTIPOLES>
399.85
9.72
2.11
0.84
3.73
0.39
0.22
-1.2
1.2
-0.24
-0.15
-0.38
-0.13
0.32

> <PUBCHEM_SHAPE_SELFOVERLAP>
871.414

> <PUBCHEM_SHAPE_VOLUME>
217.1

> <PUBCHEM_COORDINATE_TYPE>
2
5
10

> <Energy>
58.4396

> <minimizedAffinity>
-8.60880

> <CNNscore>
0.6388331056

> <CNNaffinity>
7.4851779938

> <CNN_VS>
4.7817792892

> <CNNaffinity_variance>
0.6971130371

$$$$
5757


 22 25  0  0  0  0  0  0  0  0999 V2000
   23.3370   -1.1250    2.6474 O   0  0  0  0  0  0  0  0  0  0  0  0
   25.5701   -5.6096   12.3991 O   0  0  0  0  0  0  0  0  0  0  0  0
   23.4664   -2.1865    4.8691 C   0  0  0  0  0  0  0  0  0  0  0  0
   22.3366   -2.7513    5.7534 C   0  0  0  0  0  0  0  0  0  0  0  0
   22.8736   -3.6182    6.8921 C   0  0  0  0  0  0  0  0  0  0  0  0
   23.7816   -2.7381    7.8040 C   0  0  0  0  0  0  0  0  0  0  0  0
   22.6147   -1.4462    3.8200 C   0  0  0  0  0  0  0  0  0  0  0  0
   24.3470   -1.2820    5.7397 C   0  0  0  0  0  0  0  0  0  0  0  0
   21.3660   -3.3589    4.7448 C   0  0  0  0  0  0  0  0  0  0  0  0
   24.8860   -2.0259    6.9771 C   0  0  0  0  0  0  0  0  0  0  0  0
   21.4542   -2.4179    3.5293 C   0  0  0  0  0  0  0  0  0  0  0  0
   21.7586   -4.2297    7.7427 C   0  0  0  0  0  0  0  0  0  0  0  0
   24.3531   -3.2579    4.1843 C   0  0  0  0  0  0  0  0  0  0  0  0
   24.2834   -3.5275    9.0121 C   0  0  0  0  0  0  0  0  0  0  0  0
   22.3543   -5.1930    8.7665 C   0  0  0  0  0  0  0  0  0  0  0  0
   23.5745   -4.6566    9.4786 C   0  0  0  0  0  0  0  0  0  0  0  0
   25.4069   -3.0993    9.7420 C   0  0  0  0  0  0  0  0  0  0  0  0
   24.0319   -5.3514   10.6138 C   0  0  0  0  0  0  0  0  0  0  0  0
   25.8460   -3.7907   10.8736 C   0  0  0  0  0  0  0  0  0  0  0  0
   25.1584   -4.9150   11.2991 C   0  0  0  0  0  0  0  0  0  0  0  0
   24.0569   -0.5137    2.8684 H   0  0  0  0  0  0  0  0  0  0  0  0
   25.0971   -6.3690   12.6778 H   0  0  0  0  0  0  0  0  0  0  0  0
  1  7  1  0
  1 21  1  0
  2 20  1  0
  2 22  1  0
  3  4  1  0
  3  7  1  0
  3  8  1  0
  3 13  1  0
  4  5  1  0
  4  9  1  0
  5  6  1  0
  5 12  1  0
  6 10  1  0
  6 14  1  0
  7 11  1  0
  8 10  1  0
  9 11  1  0
 12 15  1  0
 14 16  2  0
 14 17  1  0
 15 16  1  0
 16 18  1  0
 17 19  2  0
 18 20  2  0
 19 20  1  0
M  END
> <PUBCHEM_COMPOUND_CID>
5757

> <PUBCHEM_CONFORMER_RMSD>
0.6

> <PUBCHEM_CONFORMER_DIVERSEORDER>
1

> <PUBCHEM_MMFF94_PARTIAL_CHARGES>
16
1 -0.68
14 -0.14
15 0.14
16 -0.14
17 -0.15
18 -0.15
19 -0.15
2 -0.53
20 0.08
40 0.4
41 0.15
42 0.15
43 0.15
44 0.45
6 0.14
7 0.28

> <PUBCHEM_EFFECTIVE_ROTOR_COUNT>
1.4

> <PUBCHEM_PHARMACOPHORE_FEATURES>
7
1 1 acceptor
1 1 donor
1 2 donor
5 3 4 7 9 11 rings
6 14 16 17 18 19 20 rings
6 3 4 5 6 8 10 rings
6 5 6 12 14 15 16 rings

> <PUBCHEM_HEAVY_ATOM_COUNT>
20

> <PUBCHEM_ATOM_DEF_STEREO_COUNT>
5

> <PUBCHEM_ATOM_UDEF_STEREO_COUNT>
0

> <PUBCHEM_BOND_DEF_STEREO_COUNT>
0

> <PUBCHEM_BOND_UDEF_STEREO_COUNT>
0

> <PUBCHEM_ISOTOPIC_ATOM_COUNT>
0

> <PUBCHEM_COMPONENT_COUNT>
1

> <PUBCHEM_CACTVS_TAUTO_COUNT>
9

> <PUBCHEM_CONFORMER_ID>
0000167D00000001

> <PUBCHEM_MMFF94_ENERGY>
68.4596

> <PUBCHEM_FEATURE_SELFOVERLAP>
35.62

> <PUBCHEM_SHAPE_FINGERPRINT>
10 15 18262512710780645640
10411042 1 16969703283687688743
10616163 171 18338239395883154686
10967382 1 18410012100429229070
11132069 177 18409162216832884669
11578080 2 17201347718505248258
12011746 2 18410859841042374310
12107183 9 17690845558000159065
12236239 1 13470690338792453460
12251169 10 18335139816864396069
12403259 415 18410852127603240605
12403814 3 17530960289353343621
12500047 106 18271238421624861530
12592029 89 18334859377112304987
12788726 201 17703518696578858128
128620 24 11818992989152349105
13140716 1 18192429898953651512
13533116 47 17846218813073552003
13544592 145 18272379637759764926
13675066 3 18341893012844745609
14178342 30 18123731313450613666
14341114 176 18409738343777605753
14866123 147 17046555868986690930
15042514 8 18263932206156989787
15196674 1 18410012108982090935
15256400 18 18410857620686823693
15295992 7 17845930826899781123
15536298 74 18413671296627645270
1601671 61 18409168826940819996
16945 1 18266170819592368622
17349148 13 18412820287929204701
17804303 29 18410296916890392117
1813 80 16950285091842931756
18186145 218 17417805158171412875
19141452 34 18413108389914235807
192875 21 13830133918406568194
19591789 44 18192993725128068838
200 152 18131627885965453901
20028762 73 18272929458099065015
20261772 1 18410856577167961319
20510252 161 18341895147623301209
20645477 70 18200878374956666302
21033648 29 18271512131406579929
21267235 1 18337399244825179854
21279426 13 18124035632930519374
21421861 104 17895744090149736410
22854114 59 18412546505207311417
22892500 29 17274814788166584896
23184049 59 18410576175690384255
23402539 116 18342170081765240151
23557571 272 17773880972535682807
23558518 356 17682680979747269074
23559900 14 18413389822146813342
2748010 2 18337666399911122230
3004659 81 18260835844047909814
335352 9 18410013195572088855
34934 24 18411133675799850702
350125 39 18409735045496469133
351380 180 18409730664571278687
3545911 37 18411703192367818988
4214541 1 18409167684326479901
465052 167 17967541176940287083
495365 180 17346587600050392546
5104073 3 18409449150412323065
542803 24 17346883342628774985
59755656 215 18335983048405458773
69090 78 18341891905091661271
77779 3 18409450271409361990
7832392 63 18341046427736201710
9709674 26 18410862087368844367
9999458 23 17967819357476725574

> <PUBCHEM_SHAPE_MULTIPOLES>
399.85
9.72
2.11
0.84
3.73
0.39
0.22
-1.2
1.2
-0.24
-0.15
-0.38
-0.13
0.32

> <PUBCHEM_SHAPE_SELFOVERLAP>
871.414

> <PUBCHEM_SHAPE_VOLUME>
217.1

> <PUBCHEM_COORDINATE_TYPE>
2
5
10

> <Energy>
58.4396

> <minimizedAffinity>
-8.89331

> <CNNscore>
0.5973392129

> <CNNaffinity>
7.4354510307

> <CNN_VS>
4.4414863586

> <CNNaffinity_variance>
0.5918083787

$$$$
5757


 22 25  0  0  0  0  0  0  0  0999 V2000
   19.9910   -2.9359    3.2807 O   0  0  0  0  0  0  0  0  0  0  0  0
   26.4704   -2.5451   12.1159 O   0  0  0  0  0  0  0  0  0  0  0  0
   21.7287   -2.9340    5.0300 C   0  0  0  0  0  0  0  0  0  0  0  0
   23.2444   -3.1893    4.9070 C   0  0  0  0  0  0  0  0  0  0  0  0
   24.0050   -2.7644    6.1630 C   0  0  0  0  0  0  0  0  0  0  0  0
   23.4883   -3.6072    7.3685 C   0  0  0  0  0  0  0  0  0  0  0  0
   21.2850   -3.3897    3.6266 C   0  0  0  0  0  0  0  0  0  0  0  0
   21.1931   -3.7888    6.1850 C   0  0  0  0  0  0  0  0  0  0  0  0
   23.6035   -2.5566    3.5655 C   0  0  0  0  0  0  0  0  0  0  0  0
   21.9443   -3.5093    7.5013 C   0  0  0  0  0  0  0  0  0  0  0  0
   22.3636   -2.8125    2.6891 C   0  0  0  0  0  0  0  0  0  0  0  0
   25.5164   -2.9610    6.0306 C   0  0  0  0  0  0  0  0  0  0  0  0
   21.3359   -1.4529    5.2647 C   0  0  0  0  0  0  0  0  0  0  0  0
   24.2702   -3.2886    8.6419 C   0  0  0  0  0  0  0  0  0  0  0  0
   26.2248   -2.3871    7.2553 C   0  0  0  0  0  0  0  0  0  0  0  0
   25.5757   -2.7543    8.5697 C   0  0  0  0  0  0  0  0  0  0  0  0
   23.7492   -3.6024    9.9101 C   0  0  0  0  0  0  0  0  0  0  0  0
   26.2950   -2.4993    9.7522 C   0  0  0  0  0  0  0  0  0  0  0  0
   24.4762   -3.3547   11.0769 C   0  0  0  0  0  0  0  0  0  0  0  0
   25.7423   -2.8001   10.9904 C   0  0  0  0  0  0  0  0  0  0  0  0
   19.3406   -3.3184    3.8903 H   0  0  0  0  0  0  0  0  0  0  0  0
   27.3260   -2.1697   12.0453 H   0  0  0  0  0  0  0  0  0  0  0  0
  1  7  1  0
  1 21  1  0
  2 20  1  0
  2 22  1  0
  3  4  1  0
  3  7  1  0
  3  8  1  0
  3 13  1  0
  4  5  1  0
  4  9  1  0
  5  6  1  0
  5 12  1  0
  6 10  1  0
  6 14  1  0
  7 11  1  0
  8 10  1  0
  9 11  1  0
 12 15  1  0
 14 16  2  0
 14 17  1  0
 15 16  1  0
 16 18  1  0
 17 19  2  0
 18 20  2  0
 19 20  1  0
M  END
> <PUBCHEM_COMPOUND_CID>
5757

> <PUBCHEM_CONFORMER_RMSD>
0.6

> <PUBCHEM_CONFORMER_DIVERSEORDER>
1

> <PUBCHEM_MMFF94_PARTIAL_CHARGES>
16
1 -0.68
14 -0.14
15 0.14
16 -0.14
17 -0.15
18 -0.15
19 -0.15
2 -0.53
20 0.08
40 0.4
41 0.15
42 0.15
43 0.15
44 0.45
6 0.14
7 0.28

> <PUBCHEM_EFFECTIVE_ROTOR_COUNT>
1.4

> <PUBCHEM_PHARMACOPHORE_FEATURES>
7
1 1 acceptor
1 1 donor
1 2 donor
5 3 4 7 9 11 rings
6 14 16 17 18 19 20 rings
6 3 4 5 6 8 10 rings
6 5 6 12 14 15 16 rings

> <PUBCHEM_HEAVY_ATOM_COUNT>
20

> <PUBCHEM_ATOM_DEF_STEREO_COUNT>
5

> <PUBCHEM_ATOM_UDEF_STEREO_COUNT>
0

> <PUBCHEM_BOND_DEF_STEREO_COUNT>
0

> <PUBCHEM_BOND_UDEF_STEREO_COUNT>
0

> <PUBCHEM_ISOTOPIC_ATOM_COUNT>
0

> <PUBCHEM_COMPONENT_COUNT>
1

> <PUBCHEM_CACTVS_TAUTO_COUNT>
9

> <PUBCHEM_CONFORMER_ID>
0000167D00000001

> <PUBCHEM_MMFF94_ENERGY>
68.4596

> <PUBCHEM_FEATURE_SELFOVERLAP>
35.62

> <PUBCHEM_SHAPE_FINGERPRINT>
10 15 18262512710780645640
10411042 1 16969703283687688743
10616163 171 18338239395883154686
10967382 1 18410012100429229070
11132069 177 18409162216832884669
11578080 2 17201347718505248258
12011746 2 18410859841042374310
12107183 9 17690845558000159065
12236239 1 13470690338792453460
12251169 10 18335139816864396069
12403259 415 18410852127603240605
12403814 3 17530960289353343621
12500047 106 18271238421624861530
12592029 89 18334859377112304987
12788726 201 17703518696578858128
128620 24 11818992989152349105
13140716 1 18192429898953651512
13533116 47 17846218813073552003
13544592 145 18272379637759764926
13675066 3 18341893012844745609
14178342 30 18123731313450613666
14341114 176 18409738343777605753
14866123 147 17046555868986690930
15042514 8 18263932206156989787
15196674 1 18410012108982090935
15256400 18 18410857620686823693
15295992 7 17845930826899781123
15536298 74 18413671296627645270
1601671 61 18409168826940819996
16945 1 18266170819592368622
17349148 13 18412820287929204701
17804303 29 18410296916890392117
1813 80 16950285091842931756
18186145 218 17417805158171412875
19141452 34 18413108389914235807
192875 21 13830133918406568194
19591789 44 18192993725128068838
200 152 18131627885965453901
20028762 73 18272929458099065015
20261772 1 18410856577167961319
20510252 161 18341895147623301209
20645477 70 18200878374956666302
21033648 29 18271512131406579929
21267235 1 18337399244825179854
21279426 13 18124035632930519374
21421861 104 17895744090149736410
22854114 59 18412546505207311417
22892500 29 17274814788166584896
23184049 59 18410576175690384255
23402539 116 18342170081765240151
23557571 272 17773880972535682807
23558518 356 17682680979747269074
23559900 14 18413389822146813342
2748010 2 18337666399911122230
3004659 81 18260835844047909814
335352 9 18410013195572088855
34934 24 18411133675799850702
350125 39 18409735045496469133
351380 180 18409730664571278687
3545911 37 18411703192367818988
4214541 1 18409167684326479901
465052 167 17967541176940287083
495365 180 17346587600050392546
5104073 3 18409449150412323065
542803 24 17346883342628774985
59755656 215 18335983048405458773
69090 78 18341891905091661271
77779 3 18409450271409361990
7832392 63 18341046427736201710
9709674 26 18410862087368844367
9999458 23 17967819357476725574

> <PUBCHEM_SHAPE_MULTIPOLES>
399.85
9.72
2.11
0.84
3.73
0.39
0.22
-1.2
1.2
-0.24
-0.15
-0.38
-0.13
0.32

> <PUBCHEM_SHAPE_SELFOVERLAP>
871.414

> <PUBCHEM_SHAPE_VOLUME>
217.1

> <PUBCHEM_COORDINATE_TYPE>
2
5
10

> <Energy>
58.4396

> <minimizedAffinity>
-9.36428

> <CNNscore>
0.5318674445

> <CNNaffinity>
7.3716678619

> <CNN_VS>
3.9207501411

> <CNNaffinity_variance>
0.5933012366

$$$$
5757


 22 25  0  0  0  0  0  0  0  0999 V2000
   25.4285   -4.6183   11.0126 O   0  0  0  0  0  0  0  0  0  0  0  0
   20.2529   -2.4492    1.5943 O   0  0  0  0  0  0  0  0  0  0  0  0
   24.5581   -3.9055    8.8186 C   0  0  0  0  0  0  0  0  0  0  0  0
   25.1796   -2.9497    7.7804 C   0  0  0  0  0  0  0  0  0  0  0  0
   24.4842   -3.0415    6.4224 C   0  0  0  0  0  0  0  0  0  0  0  0
   22.9907   -2.6297    6.5974 C   0  0  0  0  0  0  0  0  0  0  0  0
   25.4969   -3.6255   10.0079 C   0  0  0  0  0  0  0  0  0  0  0  0
   23.0985   -3.4888    9.0371 C   0  0  0  0  0  0  0  0  0  0  0  0
   26.6739   -3.2438    7.8767 C   0  0  0  0  0  0  0  0  0  0  0  0
   22.3062   -3.4617    7.7155 C   0  0  0  0  0  0  0  0  0  0  0  0
   26.8973   -3.5539    9.3683 C   0  0  0  0  0  0  0  0  0  0  0  0
   25.1285   -2.1385    5.3688 C   0  0  0  0  0  0  0  0  0  0  0  0
   24.6095   -5.4062    8.4333 C   0  0  0  0  0  0  0  0  0  0  0  0
   22.2588   -2.6194    5.2564 C   0  0  0  0  0  0  0  0  0  0  0  0
   24.4816   -2.3838    4.0077 C   0  0  0  0  0  0  0  0  0  0  0  0
   22.9728   -2.4591    4.0482 C   0  0  0  0  0  0  0  0  0  0  0  0
   20.8547   -2.6771    5.1964 C   0  0  0  0  0  0  0  0  0  0  0  0
   22.2792   -2.4170    2.8244 C   0  0  0  0  0  0  0  0  0  0  0  0
   20.1759   -2.6240    3.9766 C   0  0  0  0  0  0  0  0  0  0  0  0
   20.8930   -2.4993    2.7984 C   0  0  0  0  0  0  0  0  0  0  0  0
   24.5355   -4.6342   11.3912 H   0  0  0  0  0  0  0  0  0  0  0  0
   20.7484   -2.3647    0.8036 H   0  0  0  0  0  0  0  0  0  0  0  0
  1  7  1  0
  1 21  1  0
  2 20  1  0
  2 22  1  0
  3  4  1  0
  3  7  1  0
  3  8  1  0
  3 13  1  0
  4  5  1  0
  4  9  1  0
  5  6  1  0
  5 12  1  0
  6 10  1  0
  6 14  1  0
  7 11  1  0
  8 10  1  0
  9 11  1  0
 12 15  1  0
 14 16  2  0
 14 17  1  0
 15 16  1  0
 16 18  1  0
 17 19  2  0
 18 20  2  0
 19 20  1  0
M  END
> <PUBCHEM_COMPOUND_CID>
5757

> <PUBCHEM_CONFORMER_RMSD>
0.6

> <PUBCHEM_CONFORMER_DIVERSEORDER>
1

> <PUBCHEM_MMFF94_PARTIAL_CHARGES>
16
1 -0.68
14 -0.14
15 0.14
16 -0.14
17 -0.15
18 -0.15
19 -0.15
2 -0.53
20 0.08
40 0.4
41 0.15
42 0.15
43 0.15
44 0.45
6 0.14
7 0.28

> <PUBCHEM_EFFECTIVE_ROTOR_COUNT>
1.4

> <PUBCHEM_PHARMACOPHORE_FEATURES>
7
1 1 acceptor
1 1 donor
1 2 donor
5 3 4 7 9 11 rings
6 14 16 17 18 19 20 rings
6 3 4 5 6 8 10 rings
6 5 6 12 14 15 16 rings

> <PUBCHEM_HEAVY_ATOM_COUNT>
20

> <PUBCHEM_ATOM_DEF_STEREO_COUNT>
5

> <PUBCHEM_ATOM_UDEF_STEREO_COUNT>
0

> <PUBCHEM_BOND_DEF_STEREO_COUNT>
0

> <PUBCHEM_BOND_UDEF_STEREO_COUNT>
0

> <PUBCHEM_ISOTOPIC_ATOM_COUNT>
0

> <PUBCHEM_COMPONENT_COUNT>
1

> <PUBCHEM_CACTVS_TAUTO_COUNT>
9

> <PUBCHEM_CONFORMER_ID>
0000167D00000001

> <PUBCHEM_MMFF94_ENERGY>
68.4596

> <PUBCHEM_FEATURE_SELFOVERLAP>
35.62

> <PUBCHEM_SHAPE_FINGERPRINT>
10 15 18262512710780645640
10411042 1 16969703283687688743
10616163 171 18338239395883154686
10967382 1 18410012100429229070
11132069 177 18409162216832884669
11578080 2 17201347718505248258
12011746 2 18410859841042374310
12107183 9 17690845558000159065
12236239 1 13470690338792453460
12251169 10 18335139816864396069
12403259 415 18410852127603240605
12403814 3 17530960289353343621
12500047 106 18271238421624861530
12592029 89 18334859377112304987
12788726 201 17703518696578858128
128620 24 11818992989152349105
13140716 1 18192429898953651512
13533116 47 17846218813073552003
13544592 145 18272379637759764926
13675066 3 18341893012844745609
14178342 30 18123731313450613666
14341114 176 18409738343777605753
14866123 147 17046555868986690930
15042514 8 18263932206156989787
15196674 1 18410012108982090935
15256400 18 18410857620686823693
15295992 7 17845930826899781123
15536298 74 18413671296627645270
1601671 61 18409168826940819996
16945 1 18266170819592368622
17349148 13 18412820287929204701
17804303 29 18410296916890392117
1813 80 16950285091842931756
18186145 218 17417805158171412875
19141452 34 18413108389914235807
192875 21 13830133918406568194
19591789 44 18192993725128068838
200 152 18131627885965453901
20028762 73 18272929458099065015
20261772 1 18410856577167961319
20510252 161 18341895147623301209
20645477 70 18200878374956666302
21033648 29 18271512131406579929
21267235 1 18337399244825179854
21279426 13 18124035632930519374
21421861 104 17895744090149736410
22854114 59 18412546505207311417
22892500 29 17274814788166584896
23184049 59 18410576175690384255
23402539 116 18342170081765240151
23557571 272 17773880972535682807
23558518 356 17682680979747269074
23559900 14 18413389822146813342
2748010 2 18337666399911122230
3004659 81 18260835844047909814
335352 9 18410013195572088855
34934 24 18411133675799850702
350125 39 18409735045496469133
351380 180 18409730664571278687
3545911 37 18411703192367818988
4214541 1 18409167684326479901
465052 167 17967541176940287083
495365 180 17346587600050392546
5104073 3 18409449150412323065
542803 24 17346883342628774985
59755656 215 18335983048405458773
69090 78 18341891905091661271
77779 3 18409450271409361990
7832392 63 18341046427736201710
9709674 26 18410862087368844367
9999458 23 17967819357476725574

> <PUBCHEM_SHAPE_MULTIPOLES>
399.85
9.72
2.11
0.84
3.73
0.39
0.22
-1.2
1.2
-0.24
-0.15
-0.38
-0.13
0.32

> <PUBCHEM_SHAPE_SELFOVERLAP>
871.414

> <PUBCHEM_SHAPE_VOLUME>
217.1

> <PUBCHEM_COORDINATE_TYPE>
2
5
10

> <Energy>
58.4396

> <minimizedAffinity>
-7.80512

> <CNNscore>
0.4739429951

> <CNNaffinity>
7.4830822945

> <CNN_VS>
3.5465543270

> <CNNaffinity_variance>
0.6004021764

$$$$
5757


 22 25  0  0  0  0  0  0  0  0999 V2000
   22.4491   -1.0138    3.8198 O   0  0  0  0  0  0  0  0  0  0  0  0
   25.2656   -6.2970   13.0041 O   0  0  0  0  0  0  0  0  0  0  0  0
   23.4049   -2.0065    5.8645 C   0  0  0  0  0  0  0  0  0  0  0  0
   24.7617   -1.7348    6.5448 C   0  0  0  0  0  0  0  0  0  0  0  0
   24.8208   -2.3038    7.9622 C   0  0  0  0  0  0  0  0  0  0  0  0
   24.6402   -3.8505    7.8872 C   0  0  0  0  0  0  0  0  0  0  0  0
   23.6438   -1.2724    4.5310 C   0  0  0  0  0  0  0  0  0  0  0  0
   23.2280   -3.5249    5.7422 C   0  0  0  0  0  0  0  0  0  0  0  0
   24.9736   -0.2389    6.3301 C   0  0  0  0  0  0  0  0  0  0  0  0
   23.3514   -4.2282    7.1079 C   0  0  0  0  0  0  0  0  0  0  0  0
   24.3568    0.0297    4.9451 C   0  0  0  0  0  0  0  0  0  0  0  0
   26.1421   -1.9914    8.6674 C   0  0  0  0  0  0  0  0  0  0  0  0
   22.1782   -1.4060    6.5978 C   0  0  0  0  0  0  0  0  0  0  0  0
   24.7742   -4.4909    9.2679 C   0  0  0  0  0  0  0  0  0  0  0  0
   26.0803   -2.4598   10.1192 C   0  0  0  0  0  0  0  0  0  0  0  0
   25.4933   -3.8412   10.2955 C   0  0  0  0  0  0  0  0  0  0  0  0
   24.2661   -5.7774    9.5228 C   0  0  0  0  0  0  0  0  0  0  0  0
   25.6364   -4.4612   11.5508 C   0  0  0  0  0  0  0  0  0  0  0  0
   24.4229   -6.3877   10.7695 C   0  0  0  0  0  0  0  0  0  0  0  0
   25.1028   -5.7234   11.7767 C   0  0  0  0  0  0  0  0  0  0  0  0
   22.0293   -1.8538    3.5766 H   0  0  0  0  0  0  0  0  0  0  0  0
   25.7273   -5.8382   13.6781 H   0  0  0  0  0  0  0  0  0  0  0  0
  1  7  1  0
  1 21  1  0
  2 20  1  0
  2 22  1  0
  3  4  1  0
  3  7  1  0
  3  8  1  0
  3 13  1  0
  4  5  1  0
  4  9  1  0
  5  6  1  0
  5 12  1  0
  6 10  1  0
  6 14  1  0
  7 11  1  0
  8 10  1  0
  9 11  1  0
 12 15  1  0
 14 16  2  0
 14 17  1  0
 15 16  1  0
 16 18  1  0
 17 19  2  0
 18 20  2  0
 19 20  1  0
M  END
> <PUBCHEM_COMPOUND_CID>
5757

> <PUBCHEM_CONFORMER_RMSD>
0.6

> <PUBCHEM_CONFORMER_DIVERSEORDER>
1

> <PUBCHEM_MMFF94_PARTIAL_CHARGES>
16
1 -0.68
14 -0.14
15 0.14
16 -0.14
17 -0.15
18 -0.15
19 -0.15
2 -0.53
20 0.08
40 0.4
41 0.15
42 0.15
43 0.15
44 0.45
6 0.14
7 0.28

> <PUBCHEM_EFFECTIVE_ROTOR_COUNT>
1.4

> <PUBCHEM_PHARMACOPHORE_FEATURES>
7
1 1 acceptor
1 1 donor
1 2 donor
5 3 4 7 9 11 rings
6 14 16 17 18 19 20 rings
6 3 4 5 6 8 10 rings
6 5 6 12 14 15 16 rings

> <PUBCHEM_HEAVY_ATOM_COUNT>
20

> <PUBCHEM_ATOM_DEF_STEREO_COUNT>
5

> <PUBCHEM_ATOM_UDEF_STEREO_COUNT>
0

> <PUBCHEM_BOND_DEF_STEREO_COUNT>
0

> <PUBCHEM_BOND_UDEF_STEREO_COUNT>
0

> <PUBCHEM_ISOTOPIC_ATOM_COUNT>
0

> <PUBCHEM_COMPONENT_COUNT>
1

> <PUBCHEM_CACTVS_TAUTO_COUNT>
9

> <PUBCHEM_CONFORMER_ID>
0000167D00000001

> <PUBCHEM_MMFF94_ENERGY>
68.4596

> <PUBCHEM_FEATURE_SELFOVERLAP>
35.62

> <PUBCHEM_SHAPE_FINGERPRINT>
10 15 18262512710780645640
10411042 1 16969703283687688743
10616163 171 18338239395883154686
10967382 1 18410012100429229070
11132069 177 18409162216832884669
11578080 2 17201347718505248258
12011746 2 18410859841042374310
12107183 9 17690845558000159065
12236239 1 13470690338792453460
12251169 10 18335139816864396069
12403259 415 18410852127603240605
12403814 3 17530960289353343621
12500047 106 18271238421624861530
12592029 89 18334859377112304987
12788726 201 17703518696578858128
128620 24 11818992989152349105
13140716 1 18192429898953651512
13533116 47 17846218813073552003
13544592 145 18272379637759764926
13675066 3 18341893012844745609
14178342 30 18123731313450613666
14341114 176 18409738343777605753
14866123 147 17046555868986690930
15042514 8 18263932206156989787
15196674 1 18410012108982090935
15256400 18 18410857620686823693
15295992 7 17845930826899781123
15536298 74 18413671296627645270
1601671 61 18409168826940819996
16945 1 18266170819592368622
17349148 13 18412820287929204701
17804303 29 18410296916890392117
1813 80 16950285091842931756
18186145 218 17417805158171412875
19141452 34 18413108389914235807
192875 21 13830133918406568194
19591789 44 18192993725128068838
200 152 18131627885965453901
20028762 73 18272929458099065015
20261772 1 18410856577167961319
20510252 161 18341895147623301209
20645477 70 18200878374956666302
21033648 29 18271512131406579929
21267235 1 18337399244825179854
21279426 13 18124035632930519374
21421861 104 17895744090149736410
22854114 59 18412546505207311417
22892500 29 17274814788166584896
23184049 59 18410576175690384255
23402539 116 18342170081765240151
23557571 272 17773880972535682807
23558518 356 17682680979747269074
23559900 14 18413389822146813342
2748010 2 18337666399911122230
3004659 81 18260835844047909814
335352 9 18410013195572088855
34934 24 18411133675799850702
350125 39 18409735045496469133
351380 180 18409730664571278687
3545911 37 18411703192367818988
4214541 1 18409167684326479901
465052 167 17967541176940287083
495365 180 17346587600050392546
5104073 3 18409449150412323065
542803 24 17346883342628774985
59755656 215 18335983048405458773
69090 78 18341891905091661271
77779 3 18409450271409361990
7832392 63 18341046427736201710
9709674 26 18410862087368844367
9999458 23 17967819357476725574

> <PUBCHEM_SHAPE_MULTIPOLES>
399.85
9.72
2.11
0.84
3.73
0.39
0.22
-1.2
1.2
-0.24
-0.15
-0.38
-0.13
0.32

> <PUBCHEM_SHAPE_SELFOVERLAP>
871.414

> <PUBCHEM_SHAPE_VOLUME>
217.1

> <PUBCHEM_COORDINATE_TYPE>
2
5
10

> <Energy>
58.4396

> <minimizedAffinity>
-0.29067

> <CNNscore>
0.3574876785

> <CNNaffinity>
6.6538505554

> <CNN_VS>
2.3786695004

> <CNNaffinity_variance>
0.4945081770

$$$$
5757


 22 25  0  0  0  0  0  0  0  0999 V2000
   16.9570    1.8213   -0.5835 O   0  0  0  0  0  0  0  0  0  0  0  0
   24.3605   -3.6534    5.3673 O   0  0  0  0  0  0  0  0  0  0  0  0
   18.5731    0.3107    0.5056 C   0  0  0  0  0  0  0  0  0  0  0  0
   19.0131   -1.1108    0.1013 C   0  0  0  0  0  0  0  0  0  0  0  0
   20.2715   -1.5586    0.8445 C   0  0  0  0  0  0  0  0  0  0  0  0
   19.9660   -1.5839    2.3731 C   0  0  0  0  0  0  0  0  0  0  0  0
   17.3664    0.4755   -0.4384 C   0  0  0  0  0  0  0  0  0  0  0  0
   18.2261    0.2961    1.9993 C   0  0  0  0  0  0  0  0  0  0  0  0
   19.0239   -1.0590   -1.4238 C   0  0  0  0  0  0  0  0  0  0  0  0
   19.3988   -0.2212    2.8550 C   0  0  0  0  0  0  0  0  0  0  0  0
   17.8533   -0.1218   -1.7731 C   0  0  0  0  0  0  0  0  0  0  0  0
   20.7495   -2.9455    0.4102 C   0  0  0  0  0  0  0  0  0  0  0  0
   19.6237    1.4180    0.2351 C   0  0  0  0  0  0  0  0  0  0  0  0
   21.1620   -2.1060    3.1678 C   0  0  0  0  0  0  0  0  0  0  0  0
   22.0820   -3.2701    1.0811 C   0  0  0  0  0  0  0  0  0  0  0  0
   22.1269   -2.9351    2.5540 C   0  0  0  0  0  0  0  0  0  0  0  0
   21.2838   -1.8512    4.5456 C   0  0  0  0  0  0  0  0  0  0  0  0
   23.2035   -3.4356    3.3097 C   0  0  0  0  0  0  0  0  0  0  0  0
   22.3512   -2.3617    5.2883 C   0  0  0  0  0  0  0  0  0  0  0  0
   23.3065   -3.1464    4.6643 C   0  0  0  0  0  0  0  0  0  0  0  0
   16.6582    2.1626    0.2739 H   0  0  0  0  0  0  0  0  0  0  0  0
   25.0009   -4.1830    4.9347 H   0  0  0  0  0  0  0  0  0  0  0  0
  1  7  1  0
  1 21  1  0
  2 20  1  0
  2 22  1  0
  3  4  1  0
  3  7  1  0
  3  8  1  0
  3 13  1  0
  4  5  1  0
  4  9  1  0
  5  6  1  0
  5 12  1  0
  6 10  1  0
  6 14  1  0
  7 11  1  0
  8 10  1  0
  9 11  1  0
 12 15  1  0
 14 16  2  0
 14 17  1  0
 15 16  1  0
 16 18  1  0
 17 19  2  0
 18 20  2  0
 19 20  1  0
M  END
> <PUBCHEM_COMPOUND_CID>
5757

> <PUBCHEM_CONFORMER_RMSD>
0.6

> <PUBCHEM_CONFORMER_DIVERSEORDER>
1

> <PUBCHEM_MMFF94_PARTIAL_CHARGES>
16
1 -0.68
14 -0.14
15 0.14
16 -0.14
17 -0.15
18 -0.15
19 -0.15
2 -0.53
20 0.08
40 0.4
41 0.15
42 0.15
43 0.15
44 0.45
6 0.14
7 0.28

> <PUBCHEM_EFFECTIVE_ROTOR_COUNT>
1.4

> <PUBCHEM_PHARMACOPHORE_FEATURES>
7
1 1 acceptor
1 1 donor
1 2 donor
5 3 4 7 9 11 rings
6 14 16 17 18 19 20 rings
6 3 4 5 6 8 10 rings
6 5 6 12 14 15 16 rings

> <PUBCHEM_HEAVY_ATOM_COUNT>
20

> <PUBCHEM_ATOM_DEF_STEREO_COUNT>
5

> <PUBCHEM_ATOM_UDEF_STEREO_COUNT>
0

> <PUBCHEM_BOND_DEF_STEREO_COUNT>
0

> <PUBCHEM_BOND_UDEF_STEREO_COUNT>
0

> <PUBCHEM_ISOTOPIC_ATOM_COUNT>
0

> <PUBCHEM_COMPONENT_COUNT>
1

> <PUBCHEM_CACTVS_TAUTO_COUNT>
9

> <PUBCHEM_CONFORMER_ID>
0000167D00000001

> <PUBCHEM_MMFF94_ENERGY>
68.4596

> <PUBCHEM_FEATURE_SELFOVERLAP>
35.62

> <PUBCHEM_SHAPE_FINGERPRINT>
10 15 18262512710780645640
10411042 1 16969703283687688743
10616163 171 18338239395883154686
10967382 1 18410012100429229070
11132069 177 18409162216832884669
11578080 2 17201347718505248258
12011746 2 18410859841042374310
12107183 9 17690845558000159065
12236239 1 13470690338792453460
12251169 10 18335139816864396069
12403259 415 18410852127603240605
12403814 3 17530960289353343621
12500047 106 18271238421624861530
12592029 89 18334859377112304987
12788726 201 17703518696578858128
128620 24 11818992989152349105
13140716 1 18192429898953651512
13533116 47 17846218813073552003
13544592 145 18272379637759764926
13675066 3 18341893012844745609
14178342 30 18123731313450613666
14341114 176 18409738343777605753
14866123 147 17046555868986690930
15042514 8 18263932206156989787
15196674 1 18410012108982090935
15256400 18 18410857620686823693
15295992 7 17845930826899781123
15536298 74 18413671296627645270
1601671 61 18409168826940819996
16945 1 18266170819592368622
17349148 13 18412820287929204701
17804303 29 18410296916890392117
1813 80 16950285091842931756
18186145 218 17417805158171412875
19141452 34 18413108389914235807
192875 21 13830133918406568194
19591789 44 18192993725128068838
200 152 18131627885965453901
20028762 73 18272929458099065015
20261772 1 18410856577167961319
20510252 161 18341895147623301209
20645477 70 18200878374956666302
21033648 29 18271512131406579929
21267235 1 18337399244825179854
21279426 13 18124035632930519374
21421861 104 17895744090149736410
22854114 59 18412546505207311417
22892500 29 17274814788166584896
23184049 59 18410576175690384255
23402539 116 18342170081765240151
23557571 272 17773880972535682807
23558518 356 17682680979747269074
23559900 14 18413389822146813342
2748010 2 18337666399911122230
3004659 81 18260835844047909814
335352 9 18410013195572088855
34934 24 18411133675799850702
350125 39 18409735045496469133
351380 180 18409730664571278687
3545911 37 18411703192367818988
4214541 1 18409167684326479901
465052 167 17967541176940287083
495365 180 17346587600050392546
5104073 3 18409449150412323065
542803 24 17346883342628774985
59755656 215 18335983048405458773
69090 78 18341891905091661271
77779 3 18409450271409361990
7832392 63 18341046427736201710
9709674 26 18410862087368844367
9999458 23 17967819357476725574

> <PUBCHEM_SHAPE_MULTIPOLES>
399.85
9.72
2.11
0.84
3.73
0.39
0.22
-1.2
1.2
-0.24
-0.15
-0.38
-0.13
0.32

> <PUBCHEM_SHAPE_SELFOVERLAP>
871.414

> <PUBCHEM_SHAPE_VOLUME>
217.1

> <PUBCHEM_COORDINATE_TYPE>
2
5
10

> <Energy>
58.4396

> <minimizedAffinity>
31.37363

> <CNNscore>
0.2639956772

> <CNNaffinity>
4.3342990875

> <CNN_VS>
1.1442362070

> <CNNaffinity_variance>
0.0696484894

$$$$
