6013


 22 25  0  0  0  0  0  0  0  0999 V2000
  -10.6506   -4.4084    8.3782 O   0  0  0  0  0  0  0  0  0  0  0  0
   -4.5873   -5.6683   17.2940 O   0  0  0  0  0  0  0  0  0  0  0  0
   -7.6052   -4.9933   10.3103 C   0  0  0  0  0  0  0  0  0  0  0  0
   -8.9747   -4.2956   10.1981 C   0  0  0  0  0  0  0  0  0  0  0  0
   -6.7354   -4.4073   11.4264 C   0  0  0  0  0  0  0  0  0  0  0  0
   -7.4833   -4.5748   12.7867 C   0  0  0  0  0  0  0  0  0  0  0  0
   -6.6498   -4.0388   14.0130 C   0  0  0  0  0  0  0  0  0  0  0  0
   -9.7344   -4.5306   11.5101 C   0  0  0  0  0  0  0  0  0  0  0  0
   -8.9344   -4.0223   12.7232 C   0  0  0  0  0  0  0  0  0  0  0  0
   -9.5431   -5.0516    8.9800 C   0  0  0  0  0  0  0  0  0  0  0  0
   -7.0815   -4.9827    8.8763 C   0  0  0  0  0  0  0  0  0  0  0  0
   -5.3661   -5.0958   11.4888 C   0  0  0  0  0  0  0  0  0  0  0  0
   -8.3446   -5.1642    8.0155 C   0  0  0  0  0  0  0  0  0  0  0  0
   -5.2264   -4.6106   13.9524 C   0  0  0  0  0  0  0  0  0  0  0  0
   -4.5172   -4.5321   12.6208 C   0  0  0  0  0  0  0  0  0  0  0  0
   -8.9050   -2.7762    9.9052 C   0  0  0  0  0  0  0  0  0  0  0  0
   -7.3531   -4.5016   15.3231 C   0  0  0  0  0  0  0  0  0  0  0  0
   -6.5488   -2.4971   14.0170 C   0  0  0  0  0  0  0  0  0  0  0  0
   -6.4778   -4.3862   16.5624 C   0  0  0  0  0  0  0  0  0  0  0  0
   -4.5897   -5.1442   15.0089 C   0  0  0  0  0  0  0  0  0  0  0  0
   -5.1884   -5.1383   16.3644 C   0  0  0  0  0  0  0  0  0  0  0  0
  -11.3804   -4.3577    9.0151 H   0  0  0  0  0  0  0  0  0  0  0  0
  1 10  1  0
  1 22  1  0
  2 21  2  0
  3  4  1  0
  3  5  1  0
  3 11  1  0
  4  8  1  0
  4 10  1  0
  4 16  1  0
  5  6  1  0
  5 12  1  0
  6  7  1  0
  6  9  1  0
  7 14  1  0
  7 17  1  0
  7 18  1  0
  8  9  1  0
 10 13  1  0
 11 13  1  0
 12 15  1  0
 14 15  1  0
 14 20  2  0
 17 19  1  0
 19 21  1  0
 20 21  1  0
M  END
> <PUBCHEM_COMPOUND_CID>
6013

> <PUBCHEM_CONFORMER_RMSD>
0.6

> <PUBCHEM_CONFORMER_DIVERSEORDER>
1

> <PUBCHEM_MMFF94_PARTIAL_CHARGES>
11
1 -0.68
10 0.28
14 -0.28
15 0.14
19 0.06
2 -0.57
20 -0.14
21 0.49
48 0.15
49 0.4
7 0.14

> <PUBCHEM_EFFECTIVE_ROTOR_COUNT>
1.8

> <PUBCHEM_PHARMACOPHORE_FEATURES>
7
1 1 acceptor
1 1 donor
1 2 acceptor
5 3 4 10 11 13 rings
6 3 4 5 6 8 9 rings
6 5 6 7 12 14 15 rings
6 7 14 17 19 20 21 rings

> <PUBCHEM_HEAVY_ATOM_COUNT>
21

> <PUBCHEM_ATOM_DEF_STEREO_COUNT>
6

> <PUBCHEM_ATOM_UDEF_STEREO_COUNT>
0

> <PUBCHEM_BOND_DEF_STEREO_COUNT>
0

> <PUBCHEM_BOND_UDEF_STEREO_COUNT>
0

> <PUBCHEM_ISOTOPIC_ATOM_COUNT>
0

> <PUBCHEM_COMPONENT_COUNT>
1

> <PUBCHEM_CACTVS_TAUTO_COUNT>
5

> <PUBCHEM_CONFORMER_ID>
0000177D00000001

> <PUBCHEM_MMFF94_ENERGY>
67.5416

> <PUBCHEM_FEATURE_SELFOVERLAP>
35.618

> <PUBCHEM_SHAPE_FINGERPRINT>
10062212 137 18336825385559829163
10759866 29 17897457309511876188
10967382 1 18412548682291571786
11132069 177 18410018732180467827
11370993 70 18410569557056084199
11578080 2 16735503067342509174
12011746 2 18412547592124142406
12236239 1 18040155136873436768
12251169 10 18410008845387181634
12403259 226 18410006624652160988
12403259 415 18408880746209696412
12403260 363 18340481291412090749
12403814 3 17894914044785590877
12507557 5 18408881845467772304
12633257 1 18341888602346167976
12839892 36 18340758291450253690
13140716 1 18339643467883616216
13214271 11 18272369780793716703
13224815 77 18411987974316295335
13675066 3 18187087269080573787
14178342 30 18338527339117458393
14223421 5 18341052895787930134
14341114 176 18411985737129035682
14787075 74 18339640165090922602
14790565 3 18050014594947639924
15163728 17 14691189929019880809
15196674 1 18411420639180230811
15375358 24 18413110541697833299
15536298 74 18272376330249831326
15788980 27 17167859768361771669
16945 1 18267308633664624303
17349148 13 18260547844245275310
17492 89 18410012108956776131
1813 80 17168144512515476742
18186145 218 18411423903503023558
18522853 276 18412546492037592553
19050596 39 18410858775858764633
19784866 9 18412265021155473810
200 152 18202274819337965375
20715895 44 18116989984517715477
21033648 29 18262779827106925672
21267235 1 18410302427354843602
21421861 104 18042966467372004754
21637258 2 15647319828885568714
22182313 1 18189614934485510503
22854114 111 18409735070690792279
22854114 59 18343022189864506130
23402539 116 18272925046486162621
23557571 272 18059303161493107767
23559900 14 18343023255612643838
26918003 58 18409728456589012017
2748010 2 18410304609229794207
2838139 119 14835541671104639250
296302 2 16343984710473737934
335352 9 18411702045432157758
34934 24 18341610383102269379
350125 39 18410857681354741304
351380 180 18413386540454065762
3545911 37 18411703166439727155
42 15 18260548935156425576
5104073 3 18410294747868572393
59755656 215 18339930311854621398
633830 44 17988931080225984300
69090 78 18413386557386229218
7364860 26 18200601276388112774
9709674 26 18341058445033876271

> <PUBCHEM_SHAPE_MULTIPOLES>
420.43
9.43
2.1
1.06
1.16
0.42
0.43
-0.59
-2.56
-0.22
0.02
0.09
-0.22
0.11

> <PUBCHEM_SHAPE_SELFOVERLAP>
902.625

> <PUBCHEM_SHAPE_VOLUME>
230.1

> <PUBCHEM_COORDINATE_TYPE>
2
5
10

> <Energy>
71.9966

> <minimizedAffinity>
-10.56026

> <CNNscore>
0.8737081289

> <CNNaffinity>
7.7952103615

> <CNN_VS>
6.8107385635

> <CNNaffinity_variance>
0.4993421733

$$$$
6013


 22 25  0  0  0  0  0  0  0  0999 V2000
   -5.6825   -2.9934   16.8836 O   0  0  0  0  0  0  0  0  0  0  0  0
   -8.6396   -5.1042    6.6541 O   0  0  0  0  0  0  0  0  0  0  0  0
   -5.7112   -4.7879   13.7011 C   0  0  0  0  0  0  0  0  0  0  0  0
   -6.4819   -3.9613   14.7488 C   0  0  0  0  0  0  0  0  0  0  0  0
   -6.6388   -5.4756   12.6950 C   0  0  0  0  0  0  0  0  0  0  0  0
   -7.4654   -4.3833   11.9457 C   0  0  0  0  0  0  0  0  0  0  0  0
   -8.4263   -4.9870   10.8511 C   0  0  0  0  0  0  0  0  0  0  0  0
   -7.2299   -2.8426   14.0121 C   0  0  0  0  0  0  0  0  0  0  0  0
   -8.1686   -3.4093   12.9315 C   0  0  0  0  0  0  0  0  0  0  0  0
   -5.2975   -3.4837   15.6133 C   0  0  0  0  0  0  0  0  0  0  0  0
   -4.7665   -5.6403   14.5447 C   0  0  0  0  0  0  0  0  0  0  0  0
   -5.8461   -6.3199   11.6892 C   0  0  0  0  0  0  0  0  0  0  0  0
   -4.3884   -4.7251   15.7231 C   0  0  0  0  0  0  0  0  0  0  0  0
   -7.6411   -5.9637    9.9644 C   0  0  0  0  0  0  0  0  0  0  0  0
   -6.7701   -6.9755   10.6713 C   0  0  0  0  0  0  0  0  0  0  0  0
   -7.4822   -4.7750   15.6070 C   0  0  0  0  0  0  0  0  0  0  0  0
   -8.9832   -3.8161    9.9886 C   0  0  0  0  0  0  0  0  0  0  0  0
   -9.6116   -5.7541   11.4786 C   0  0  0  0  0  0  0  0  0  0  0  0
   -9.6143   -4.2658    8.6790 C   0  0  0  0  0  0  0  0  0  0  0  0
   -7.7087   -5.9741    8.6221 C   0  0  0  0  0  0  0  0  0  0  0  0
   -8.6361   -5.0869    7.8814 C   0  0  0  0  0  0  0  0  0  0  0  0
   -6.2512   -2.2157   16.7714 H   0  0  0  0  0  0  0  0  0  0  0  0
  1 10  1  0
  1 22  1  0
  2 21  2  0
  3  4  1  0
  3  5  1  0
  3 11  1  0
  4  8  1  0
  4 10  1  0
  4 16  1  0
  5  6  1  0
  5 12  1  0
  6  7  1  0
  6  9  1  0
  7 14  1  0
  7 17  1  0
  7 18  1  0
  8  9  1  0
 10 13  1  0
 11 13  1  0
 12 15  1  0
 14 15  1  0
 14 20  2  0
 17 19  1  0
 19 21  1  0
 20 21  1  0
M  END
> <PUBCHEM_COMPOUND_CID>
6013

> <PUBCHEM_CONFORMER_RMSD>
0.6

> <PUBCHEM_CONFORMER_DIVERSEORDER>
1

> <PUBCHEM_MMFF94_PARTIAL_CHARGES>
11
1 -0.68
10 0.28
14 -0.28
15 0.14
19 0.06
2 -0.57
20 -0.14
21 0.49
48 0.15
49 0.4
7 0.14

> <PUBCHEM_EFFECTIVE_ROTOR_COUNT>
1.8

> <PUBCHEM_PHARMACOPHORE_FEATURES>
7
1 1 acceptor
1 1 donor
1 2 acceptor
5 3 4 10 11 13 rings
6 3 4 5 6 8 9 rings
6 5 6 7 12 14 15 rings
6 7 14 17 19 20 21 rings

> <PUBCHEM_HEAVY_ATOM_COUNT>
21

> <PUBCHEM_ATOM_DEF_STEREO_COUNT>
6

> <PUBCHEM_ATOM_UDEF_STEREO_COUNT>
0

> <PUBCHEM_BOND_DEF_STEREO_COUNT>
0

> <PUBCHEM_BOND_UDEF_STEREO_COUNT>
0

> <PUBCHEM_ISOTOPIC_ATOM_COUNT>
0

> <PUBCHEM_COMPONENT_COUNT>
1

> <PUBCHEM_CACTVS_TAUTO_COUNT>
5

> <PUBCHEM_CONFORMER_ID>
0000177D00000001

> <PUBCHEM_MMFF94_ENERGY>
67.5416

> <PUBCHEM_FEATURE_SELFOVERLAP>
35.618

> <PUBCHEM_SHAPE_FINGERPRINT>
10062212 137 18336825385559829163
10759866 29 17897457309511876188
10967382 1 18412548682291571786
11132069 177 18410018732180467827
11370993 70 18410569557056084199
11578080 2 16735503067342509174
12011746 2 18412547592124142406
12236239 1 18040155136873436768
12251169 10 18410008845387181634
12403259 226 18410006624652160988
12403259 415 18408880746209696412
12403260 363 18340481291412090749
12403814 3 17894914044785590877
12507557 5 18408881845467772304
12633257 1 18341888602346167976
12839892 36 18340758291450253690
13140716 1 18339643467883616216
13214271 11 18272369780793716703
13224815 77 18411987974316295335
13675066 3 18187087269080573787
14178342 30 18338527339117458393
14223421 5 18341052895787930134
14341114 176 18411985737129035682
14787075 74 18339640165090922602
14790565 3 18050014594947639924
15163728 17 14691189929019880809
15196674 1 18411420639180230811
15375358 24 18413110541697833299
15536298 74 18272376330249831326
15788980 27 17167859768361771669
16945 1 18267308633664624303
17349148 13 18260547844245275310
17492 89 18410012108956776131
1813 80 17168144512515476742
18186145 218 18411423903503023558
18522853 276 18412546492037592553
19050596 39 18410858775858764633
19784866 9 18412265021155473810
200 152 18202274819337965375
20715895 44 18116989984517715477
21033648 29 18262779827106925672
21267235 1 18410302427354843602
21421861 104 18042966467372004754
21637258 2 15647319828885568714
22182313 1 18189614934485510503
22854114 111 18409735070690792279
22854114 59 18343022189864506130
23402539 116 18272925046486162621
23557571 272 18059303161493107767
23559900 14 18343023255612643838
26918003 58 18409728456589012017
2748010 2 18410304609229794207
2838139 119 14835541671104639250
296302 2 16343984710473737934
335352 9 18411702045432157758
34934 24 18341610383102269379
350125 39 18410857681354741304
351380 180 18413386540454065762
3545911 37 18411703166439727155
42 15 18260548935156425576
5104073 3 18410294747868572393
59755656 215 18339930311854621398
633830 44 17988931080225984300
69090 78 18413386557386229218
7364860 26 18200601276388112774
9709674 26 18341058445033876271

> <PUBCHEM_SHAPE_MULTIPOLES>
420.43
9.43
2.1
1.06
1.16
0.42
0.43
-0.59
-2.56
-0.22
0.02
0.09
-0.22
0.11

> <PUBCHEM_SHAPE_SELFOVERLAP>
902.625

> <PUBCHEM_SHAPE_VOLUME>
230.1

> <PUBCHEM_COORDINATE_TYPE>
2
5
10

> <Energy>
71.9966

> <minimizedAffinity>
-8.62767

> <CNNscore>
0.6750460863

> <CNNaffinity>
7.2101664543

> <CNN_VS>
4.8671946526

> <CNNaffinity_variance>
0.2516559958

$$$$
6013


 22 25  0  0  0  0  0  0  0  0999 V2000
   -3.8496   -5.5236   15.9525 O   0  0  0  0  0  0  0  0  0  0  0  0
  -11.4603   -4.3677    8.2985 O   0  0  0  0  0  0  0  0  0  0  0  0
   -6.6213   -3.9222   14.1910 C   0  0  0  0  0  0  0  0  0  0  0  0
   -5.3453   -4.7836   14.1225 C   0  0  0  0  0  0  0  0  0  0  0  0
   -7.0642   -3.4154   12.8153 C   0  0  0  0  0  0  0  0  0  0  0  0
   -7.3515   -4.6442   11.8957 C   0  0  0  0  0  0  0  0  0  0  0  0
   -7.8579   -4.2295   10.4614 C   0  0  0  0  0  0  0  0  0  0  0  0
   -5.6587   -6.0277   13.2812 C   0  0  0  0  0  0  0  0  0  0  0  0
   -6.1638   -5.6461   11.8779 C   0  0  0  0  0  0  0  0  0  0  0  0
   -5.1453   -5.0570   15.6271 C   0  0  0  0  0  0  0  0  0  0  0  0
   -6.3095   -2.9107   15.2912 C   0  0  0  0  0  0  0  0  0  0  0  0
   -8.3134   -2.5313   12.9201 C   0  0  0  0  0  0  0  0  0  0  0  0
   -5.4593   -3.7045   16.2992 C   0  0  0  0  0  0  0  0  0  0  0  0
   -8.9967   -3.2090   10.5968 C   0  0  0  0  0  0  0  0  0  0  0  0
   -8.7689   -2.0565   11.5465 C   0  0  0  0  0  0  0  0  0  0  0  0
   -4.1070   -4.0608   13.5366 C   0  0  0  0  0  0  0  0  0  0  0  0
   -8.3729   -5.5074    9.7353 C   0  0  0  0  0  0  0  0  0  0  0  0
   -6.7370   -3.5891    9.6126 C   0  0  0  0  0  0  0  0  0  0  0  0
   -9.2261   -5.2143    8.5100 C   0  0  0  0  0  0  0  0  0  0  0  0
  -10.1495   -3.2799    9.9094 C   0  0  0  0  0  0  0  0  0  0  0  0
  -10.3790   -4.3181    8.8772 C   0  0  0  0  0  0  0  0  0  0  0  0
   -3.6916   -6.3731   15.5119 H   0  0  0  0  0  0  0  0  0  0  0  0
  1 10  1  0
  1 22  1  0
  2 21  2  0
  3  4  1  0
  3  5  1  0
  3 11  1  0
  4  8  1  0
  4 10  1  0
  4 16  1  0
  5  6  1  0
  5 12  1  0
  6  7  1  0
  6  9  1  0
  7 14  1  0
  7 17  1  0
  7 18  1  0
  8  9  1  0
 10 13  1  0
 11 13  1  0
 12 15  1  0
 14 15  1  0
 14 20  2  0
 17 19  1  0
 19 21  1  0
 20 21  1  0
M  END
> <PUBCHEM_COMPOUND_CID>
6013

> <PUBCHEM_CONFORMER_RMSD>
0.6

> <PUBCHEM_CONFORMER_DIVERSEORDER>
1

> <PUBCHEM_MMFF94_PARTIAL_CHARGES>
11
1 -0.68
10 0.28
14 -0.28
15 0.14
19 0.06
2 -0.57
20 -0.14
21 0.49
48 0.15
49 0.4
7 0.14

> <PUBCHEM_EFFECTIVE_ROTOR_COUNT>
1.8

> <PUBCHEM_PHARMACOPHORE_FEATURES>
7
1 1 acceptor
1 1 donor
1 2 acceptor
5 3 4 10 11 13 rings
6 3 4 5 6 8 9 rings
6 5 6 7 12 14 15 rings
6 7 14 17 19 20 21 rings

> <PUBCHEM_HEAVY_ATOM_COUNT>
21

> <PUBCHEM_ATOM_DEF_STEREO_COUNT>
6

> <PUBCHEM_ATOM_UDEF_STEREO_COUNT>
0

> <PUBCHEM_BOND_DEF_STEREO_COUNT>
0

> <PUBCHEM_BOND_UDEF_STEREO_COUNT>
0

> <PUBCHEM_ISOTOPIC_ATOM_COUNT>
0

> <PUBCHEM_COMPONENT_COUNT>
1

> <PUBCHEM_CACTVS_TAUTO_COUNT>
5

> <PUBCHEM_CONFORMER_ID>
0000177D00000001

> <PUBCHEM_MMFF94_ENERGY>
67.5416

> <PUBCHEM_FEATURE_SELFOVERLAP>
35.618

> <PUBCHEM_SHAPE_FINGERPRINT>
10062212 137 18336825385559829163
10759866 29 17897457309511876188
10967382 1 18412548682291571786
11132069 177 18410018732180467827
11370993 70 18410569557056084199
11578080 2 16735503067342509174
12011746 2 18412547592124142406
12236239 1 18040155136873436768
12251169 10 18410008845387181634
12403259 226 18410006624652160988
12403259 415 18408880746209696412
12403260 363 18340481291412090749
12403814 3 17894914044785590877
12507557 5 18408881845467772304
12633257 1 18341888602346167976
12839892 36 18340758291450253690
13140716 1 18339643467883616216
13214271 11 18272369780793716703
13224815 77 18411987974316295335
13675066 3 18187087269080573787
14178342 30 18338527339117458393
14223421 5 18341052895787930134
14341114 176 18411985737129035682
14787075 74 18339640165090922602
14790565 3 18050014594947639924
15163728 17 14691189929019880809
15196674 1 18411420639180230811
15375358 24 18413110541697833299
15536298 74 18272376330249831326
15788980 27 17167859768361771669
16945 1 18267308633664624303
17349148 13 18260547844245275310
17492 89 18410012108956776131
1813 80 17168144512515476742
18186145 218 18411423903503023558
18522853 276 18412546492037592553
19050596 39 18410858775858764633
19784866 9 18412265021155473810
200 152 18202274819337965375
20715895 44 18116989984517715477
21033648 29 18262779827106925672
21267235 1 18410302427354843602
21421861 104 18042966467372004754
21637258 2 15647319828885568714
22182313 1 18189614934485510503
22854114 111 18409735070690792279
22854114 59 18343022189864506130
23402539 116 18272925046486162621
23557571 272 18059303161493107767
23559900 14 18343023255612643838
26918003 58 18409728456589012017
2748010 2 18410304609229794207
2838139 119 14835541671104639250
296302 2 16343984710473737934
335352 9 18411702045432157758
34934 24 18341610383102269379
350125 39 18410857681354741304
351380 180 18413386540454065762
3545911 37 18411703166439727155
42 15 18260548935156425576
5104073 3 18410294747868572393
59755656 215 18339930311854621398
633830 44 17988931080225984300
69090 78 18413386557386229218
7364860 26 18200601276388112774
9709674 26 18341058445033876271

> <PUBCHEM_SHAPE_MULTIPOLES>
420.43
9.43
2.1
1.06
1.16
0.42
0.43
-0.59
-2.56
-0.22
0.02
0.09
-0.22
0.11

> <PUBCHEM_SHAPE_SELFOVERLAP>
902.625

> <PUBCHEM_SHAPE_VOLUME>
230.1

> <PUBCHEM_COORDINATE_TYPE>
2
5
10

> <Energy>
71.9966

> <minimizedAffinity>
-7.87045

> <CNNscore>
0.6654809713

> <CNNaffinity>
7.1300015450

> <CNN_VS>
4.7448801994

> <CNNaffinity_variance>
0.2544918060

$$$$
6013


 22 25  0  0  0  0  0  0  0  0999 V2000
   -3.6216   -4.0112   15.9562 O   0  0  0  0  0  0  0  0  0  0  0  0
  -10.9916   -3.9963    7.9858 O   0  0  0  0  0  0  0  0  0  0  0  0
   -5.0882   -4.9361   12.7401 C   0  0  0  0  0  0  0  0  0  0  0  0
   -5.3006   -4.5424   14.2148 C   0  0  0  0  0  0  0  0  0  0  0  0
   -6.3557   -5.5027   12.0934 C   0  0  0  0  0  0  0  0  0  0  0  0
   -7.4783   -4.4192   12.1543 C   0  0  0  0  0  0  0  0  0  0  0  0
   -8.8200   -4.8897   11.4729 C   0  0  0  0  0  0  0  0  0  0  0  0
   -6.3491   -3.4232   14.2595 C   0  0  0  0  0  0  0  0  0  0  0  0
   -7.6660   -3.8580   13.5912 C   0  0  0  0  0  0  0  0  0  0  0  0
   -3.8665   -4.0961   14.5650 C   0  0  0  0  0  0  0  0  0  0  0  0
   -3.8259   -5.7938   12.7787 C   0  0  0  0  0  0  0  0  0  0  0  0
   -6.1034   -5.9199   10.6390 C   0  0  0  0  0  0  0  0  0  0  0  0
   -2.9688   -5.1486   13.8824 C   0  0  0  0  0  0  0  0  0  0  0  0
   -8.5131   -5.4639   10.0827 C   0  0  0  0  0  0  0  0  0  0  0  0
   -7.3744   -6.4524    9.9904 C   0  0  0  0  0  0  0  0  0  0  0  0
   -5.7441   -5.7046   15.1376 C   0  0  0  0  0  0  0  0  0  0  0  0
   -9.7619   -3.6564   11.3426 C   0  0  0  0  0  0  0  0  0  0  0  0
   -9.5374   -5.9824   12.2966 C   0  0  0  0  0  0  0  0  0  0  0  0
  -10.9209   -3.8694   10.3800 C   0  0  0  0  0  0  0  0  0  0  0  0
   -9.2081   -5.1522    8.9753 C   0  0  0  0  0  0  0  0  0  0  0  0
  -10.4078   -4.2839    9.0264 C   0  0  0  0  0  0  0  0  0  0  0  0
   -4.2039   -3.3409   16.3467 H   0  0  0  0  0  0  0  0  0  0  0  0
  1 10  1  0
  1 22  1  0
  2 21  2  0
  3  4  1  0
  3  5  1  0
  3 11  1  0
  4  8  1  0
  4 10  1  0
  4 16  1  0
  5  6  1  0
  5 12  1  0
  6  7  1  0
  6  9  1  0
  7 14  1  0
  7 17  1  0
  7 18  1  0
  8  9  1  0
 10 13  1  0
 11 13  1  0
 12 15  1  0
 14 15  1  0
 14 20  2  0
 17 19  1  0
 19 21  1  0
 20 21  1  0
M  END
> <PUBCHEM_COMPOUND_CID>
6013

> <PUBCHEM_CONFORMER_RMSD>
0.6

> <PUBCHEM_CONFORMER_DIVERSEORDER>
1

> <PUBCHEM_MMFF94_PARTIAL_CHARGES>
11
1 -0.68
10 0.28
14 -0.28
15 0.14
19 0.06
2 -0.57
20 -0.14
21 0.49
48 0.15
49 0.4
7 0.14

> <PUBCHEM_EFFECTIVE_ROTOR_COUNT>
1.8

> <PUBCHEM_PHARMACOPHORE_FEATURES>
7
1 1 acceptor
1 1 donor
1 2 acceptor
5 3 4 10 11 13 rings
6 3 4 5 6 8 9 rings
6 5 6 7 12 14 15 rings
6 7 14 17 19 20 21 rings

> <PUBCHEM_HEAVY_ATOM_COUNT>
21

> <PUBCHEM_ATOM_DEF_STEREO_COUNT>
6

> <PUBCHEM_ATOM_UDEF_STEREO_COUNT>
0

> <PUBCHEM_BOND_DEF_STEREO_COUNT>
0

> <PUBCHEM_BOND_UDEF_STEREO_COUNT>
0

> <PUBCHEM_ISOTOPIC_ATOM_COUNT>
0

> <PUBCHEM_COMPONENT_COUNT>
1

> <PUBCHEM_CACTVS_TAUTO_COUNT>
5

> <PUBCHEM_CONFORMER_ID>
0000177D00000001

> <PUBCHEM_MMFF94_ENERGY>
67.5416

> <PUBCHEM_FEATURE_SELFOVERLAP>
35.618

> <PUBCHEM_SHAPE_FINGERPRINT>
10062212 137 18336825385559829163
10759866 29 17897457309511876188
10967382 1 18412548682291571786
11132069 177 18410018732180467827
11370993 70 18410569557056084199
11578080 2 16735503067342509174
12011746 2 18412547592124142406
12236239 1 18040155136873436768
12251169 10 18410008845387181634
12403259 226 18410006624652160988
12403259 415 18408880746209696412
12403260 363 18340481291412090749
12403814 3 17894914044785590877
12507557 5 18408881845467772304
12633257 1 18341888602346167976
12839892 36 18340758291450253690
13140716 1 18339643467883616216
13214271 11 18272369780793716703
13224815 77 18411987974316295335
13675066 3 18187087269080573787
14178342 30 18338527339117458393
14223421 5 18341052895787930134
14341114 176 18411985737129035682
14787075 74 18339640165090922602
14790565 3 18050014594947639924
15163728 17 14691189929019880809
15196674 1 18411420639180230811
15375358 24 18413110541697833299
15536298 74 18272376330249831326
15788980 27 17167859768361771669
16945 1 18267308633664624303
17349148 13 18260547844245275310
17492 89 18410012108956776131
1813 80 17168144512515476742
18186145 218 18411423903503023558
18522853 276 18412546492037592553
19050596 39 18410858775858764633
19784866 9 18412265021155473810
200 152 18202274819337965375
20715895 44 18116989984517715477
21033648 29 18262779827106925672
21267235 1 18410302427354843602
21421861 104 18042966467372004754
21637258 2 15647319828885568714
22182313 1 18189614934485510503
22854114 111 18409735070690792279
22854114 59 18343022189864506130
23402539 116 18272925046486162621
23557571 272 18059303161493107767
23559900 14 18343023255612643838
26918003 58 18409728456589012017
2748010 2 18410304609229794207
2838139 119 14835541671104639250
296302 2 16343984710473737934
335352 9 18411702045432157758
34934 24 18341610383102269379
350125 39 18410857681354741304
351380 180 18413386540454065762
3545911 37 18411703166439727155
42 15 18260548935156425576
5104073 3 18410294747868572393
59755656 215 18339930311854621398
633830 44 17988931080225984300
69090 78 18413386557386229218
7364860 26 18200601276388112774
9709674 26 18341058445033876271

> <PUBCHEM_SHAPE_MULTIPOLES>
420.43
9.43
2.1
1.06
1.16
0.42
0.43
-0.59
-2.56
-0.22
0.02
0.09
-0.22
0.11

> <PUBCHEM_SHAPE_SELFOVERLAP>
902.625

> <PUBCHEM_SHAPE_VOLUME>
230.1

> <PUBCHEM_COORDINATE_TYPE>
2
5
10

> <Energy>
71.9966

> <minimizedAffinity>
-3.47665

> <CNNscore>
0.5245695710

> <CNNaffinity>
7.0280399323

> <CNN_VS>
3.6866958141

> <CNNaffinity_variance>
0.1713570803

$$$$
6013


 22 25  0  0  0  0  0  0  0  0999 V2000
   -3.7156   -4.5348   16.7497 O   0  0  0  0  0  0  0  0  0  0  0  0
   -9.2178   -6.8001    7.6701 O   0  0  0  0  0  0  0  0  0  0  0  0
   -6.6606   -5.1327   14.6713 C   0  0  0  0  0  0  0  0  0  0  0  0
   -5.2240   -4.5868   14.7860 C   0  0  0  0  0  0  0  0  0  0  0  0
   -7.3621   -4.6789   13.3877 C   0  0  0  0  0  0  0  0  0  0  0  0
   -6.5442   -5.1907   12.1602 C   0  0  0  0  0  0  0  0  0  0  0  0
   -7.2083   -4.8113   10.7815 C   0  0  0  0  0  0  0  0  0  0  0  0
   -4.4067   -5.1564   13.6193 C   0  0  0  0  0  0  0  0  0  0  0  0
   -5.0422   -4.8051   12.2618 C   0  0  0  0  0  0  0  0  0  0  0  0
   -4.8500   -5.1522   16.1713 C   0  0  0  0  0  0  0  0  0  0  0  0
   -7.2826   -4.7850   16.0215 C   0  0  0  0  0  0  0  0  0  0  0  0
   -8.8010   -5.2063   13.3199 C   0  0  0  0  0  0  0  0  0  0  0  0
   -6.1208   -4.9388   17.0193 C   0  0  0  0  0  0  0  0  0  0  0  0
   -8.6945   -5.1948   10.8075 C   0  0  0  0  0  0  0  0  0  0  0  0
   -9.4836   -4.7797   12.0270 C   0  0  0  0  0  0  0  0  0  0  0  0
   -5.1169   -3.0416   14.7876 C   0  0  0  0  0  0  0  0  0  0  0  0
   -6.4765   -5.5960    9.6528 C   0  0  0  0  0  0  0  0  0  0  0  0
   -7.1074   -3.2982   10.4854 C   0  0  0  0  0  0  0  0  0  0  0  0
   -7.2357   -5.6240    8.3344 C   0  0  0  0  0  0  0  0  0  0  0  0
   -9.3156   -5.8470    9.8098 C   0  0  0  0  0  0  0  0  0  0  0  0
   -8.6229   -6.1720    8.5408 C   0  0  0  0  0  0  0  0  0  0  0  0
   -2.9405   -4.6917   16.1881 H   0  0  0  0  0  0  0  0  0  0  0  0
  1 10  1  0
  1 22  1  0
  2 21  2  0
  3  4  1  0
  3  5  1  0
  3 11  1  0
  4  8  1  0
  4 10  1  0
  4 16  1  0
  5  6  1  0
  5 12  1  0
  6  7  1  0
  6  9  1  0
  7 14  1  0
  7 17  1  0
  7 18  1  0
  8  9  1  0
 10 13  1  0
 11 13  1  0
 12 15  1  0
 14 15  1  0
 14 20  2  0
 17 19  1  0
 19 21  1  0
 20 21  1  0
M  END
> <PUBCHEM_COMPOUND_CID>
6013

> <PUBCHEM_CONFORMER_RMSD>
0.6

> <PUBCHEM_CONFORMER_DIVERSEORDER>
1

> <PUBCHEM_MMFF94_PARTIAL_CHARGES>
11
1 -0.68
10 0.28
14 -0.28
15 0.14
19 0.06
2 -0.57
20 -0.14
21 0.49
48 0.15
49 0.4
7 0.14

> <PUBCHEM_EFFECTIVE_ROTOR_COUNT>
1.8

> <PUBCHEM_PHARMACOPHORE_FEATURES>
7
1 1 acceptor
1 1 donor
1 2 acceptor
5 3 4 10 11 13 rings
6 3 4 5 6 8 9 rings
6 5 6 7 12 14 15 rings
6 7 14 17 19 20 21 rings

> <PUBCHEM_HEAVY_ATOM_COUNT>
21

> <PUBCHEM_ATOM_DEF_STEREO_COUNT>
6

> <PUBCHEM_ATOM_UDEF_STEREO_COUNT>
0

> <PUBCHEM_BOND_DEF_STEREO_COUNT>
0

> <PUBCHEM_BOND_UDEF_STEREO_COUNT>
0

> <PUBCHEM_ISOTOPIC_ATOM_COUNT>
0

> <PUBCHEM_COMPONENT_COUNT>
1

> <PUBCHEM_CACTVS_TAUTO_COUNT>
5

> <PUBCHEM_CONFORMER_ID>
0000177D00000001

> <PUBCHEM_MMFF94_ENERGY>
67.5416

> <PUBCHEM_FEATURE_SELFOVERLAP>
35.618

> <PUBCHEM_SHAPE_FINGERPRINT>
10062212 137 18336825385559829163
10759866 29 17897457309511876188
10967382 1 18412548682291571786
11132069 177 18410018732180467827
11370993 70 18410569557056084199
11578080 2 16735503067342509174
12011746 2 18412547592124142406
12236239 1 18040155136873436768
12251169 10 18410008845387181634
12403259 226 18410006624652160988
12403259 415 18408880746209696412
12403260 363 18340481291412090749
12403814 3 17894914044785590877
12507557 5 18408881845467772304
12633257 1 18341888602346167976
12839892 36 18340758291450253690
13140716 1 18339643467883616216
13214271 11 18272369780793716703
13224815 77 18411987974316295335
13675066 3 18187087269080573787
14178342 30 18338527339117458393
14223421 5 18341052895787930134
14341114 176 18411985737129035682
14787075 74 18339640165090922602
14790565 3 18050014594947639924
15163728 17 14691189929019880809
15196674 1 18411420639180230811
15375358 24 18413110541697833299
15536298 74 18272376330249831326
15788980 27 17167859768361771669
16945 1 18267308633664624303
17349148 13 18260547844245275310
17492 89 18410012108956776131
1813 80 17168144512515476742
18186145 218 18411423903503023558
18522853 276 18412546492037592553
19050596 39 18410858775858764633
19784866 9 18412265021155473810
200 152 18202274819337965375
20715895 44 18116989984517715477
21033648 29 18262779827106925672
21267235 1 18410302427354843602
21421861 104 18042966467372004754
21637258 2 15647319828885568714
22182313 1 18189614934485510503
22854114 111 18409735070690792279
22854114 59 18343022189864506130
23402539 116 18272925046486162621
23557571 272 18059303161493107767
23559900 14 18343023255612643838
26918003 58 18409728456589012017
2748010 2 18410304609229794207
2838139 119 14835541671104639250
296302 2 16343984710473737934
335352 9 18411702045432157758
34934 24 18341610383102269379
350125 39 18410857681354741304
351380 180 18413386540454065762
3545911 37 18411703166439727155
42 15 18260548935156425576
5104073 3 18410294747868572393
59755656 215 18339930311854621398
633830 44 17988931080225984300
69090 78 18413386557386229218
7364860 26 18200601276388112774
9709674 26 18341058445033876271

> <PUBCHEM_SHAPE_MULTIPOLES>
420.43
9.43
2.1
1.06
1.16
0.42
0.43
-0.59
-2.56
-0.22
0.02
0.09
-0.22
0.11

> <PUBCHEM_SHAPE_SELFOVERLAP>
902.625

> <PUBCHEM_SHAPE_VOLUME>
230.1

> <PUBCHEM_COORDINATE_TYPE>
2
5
10

> <Energy>
71.9966

> <minimizedAffinity>
-7.95366

> <CNNscore>
0.3358638585

> <CNNaffinity>
6.6869730949

> <CNN_VS>
2.2459125519

> <CNNaffinity_variance>
0.0818213224

$$$$
6013


 22 25  0  0  0  0  0  0  0  0999 V2000
   -8.7856   -5.8159    7.5574 O   0  0  0  0  0  0  0  0  0  0  0  0
   -4.0730   -3.3558   17.0222 O   0  0  0  0  0  0  0  0  0  0  0  0
   -8.1494   -3.8699   10.5836 C   0  0  0  0  0  0  0  0  0  0  0  0
   -8.2182   -5.2497    9.9007 C   0  0  0  0  0  0  0  0  0  0  0  0
   -8.0895   -3.9710   12.1107 C   0  0  0  0  0  0  0  0  0  0  0  0
   -6.8154   -4.7799   12.5111 C   0  0  0  0  0  0  0  0  0  0  0  0
   -6.6364   -4.9057   14.0725 C   0  0  0  0  0  0  0  0  0  0  0  0
   -6.9277   -6.0086   10.2358 C   0  0  0  0  0  0  0  0  0  0  0  0
   -6.7278   -6.1359   11.7570 C   0  0  0  0  0  0  0  0  0  0  0  0
   -8.3365   -4.7973    8.4310 C   0  0  0  0  0  0  0  0  0  0  0  0
   -9.2921   -3.0935    9.9340 C   0  0  0  0  0  0  0  0  0  0  0  0
   -8.0597   -2.5829   12.7627 C   0  0  0  0  0  0  0  0  0  0  0  0
   -9.3151   -3.6059    8.4828 C   0  0  0  0  0  0  0  0  0  0  0  0
   -6.7847   -3.5203   14.7171 C   0  0  0  0  0  0  0  0  0  0  0  0
   -7.9674   -2.6887   14.2793 C   0  0  0  0  0  0  0  0  0  0  0  0
   -9.4431   -6.1094   10.3004 C   0  0  0  0  0  0  0  0  0  0  0  0
   -5.2157   -5.4757   14.3584 C   0  0  0  0  0  0  0  0  0  0  0  0
   -7.6887   -5.8446   14.7037 C   0  0  0  0  0  0  0  0  0  0  0  0
   -4.7641   -5.3010   15.8009 C   0  0  0  0  0  0  0  0  0  0  0  0
   -5.9439   -3.0346   15.6464 C   0  0  0  0  0  0  0  0  0  0  0  0
   -4.8387   -3.8513   16.2009 C   0  0  0  0  0  0  0  0  0  0  0  0
   -8.1449   -6.5441    7.5532 H   0  0  0  0  0  0  0  0  0  0  0  0
  1 10  1  0
  1 22  1  0
  2 21  2  0
  3  4  1  0
  3  5  1  0
  3 11  1  0
  4  8  1  0
  4 10  1  0
  4 16  1  0
  5  6  1  0
  5 12  1  0
  6  7  1  0
  6  9  1  0
  7 14  1  0
  7 17  1  0
  7 18  1  0
  8  9  1  0
 10 13  1  0
 11 13  1  0
 12 15  1  0
 14 15  1  0
 14 20  2  0
 17 19  1  0
 19 21  1  0
 20 21  1  0
M  END
> <PUBCHEM_COMPOUND_CID>
6013

> <PUBCHEM_CONFORMER_RMSD>
0.6

> <PUBCHEM_CONFORMER_DIVERSEORDER>
1

> <PUBCHEM_MMFF94_PARTIAL_CHARGES>
11
1 -0.68
10 0.28
14 -0.28
15 0.14
19 0.06
2 -0.57
20 -0.14
21 0.49
48 0.15
49 0.4
7 0.14

> <PUBCHEM_EFFECTIVE_ROTOR_COUNT>
1.8

> <PUBCHEM_PHARMACOPHORE_FEATURES>
7
1 1 acceptor
1 1 donor
1 2 acceptor
5 3 4 10 11 13 rings
6 3 4 5 6 8 9 rings
6 5 6 7 12 14 15 rings
6 7 14 17 19 20 21 rings

> <PUBCHEM_HEAVY_ATOM_COUNT>
21

> <PUBCHEM_ATOM_DEF_STEREO_COUNT>
6

> <PUBCHEM_ATOM_UDEF_STEREO_COUNT>
0

> <PUBCHEM_BOND_DEF_STEREO_COUNT>
0

> <PUBCHEM_BOND_UDEF_STEREO_COUNT>
0

> <PUBCHEM_ISOTOPIC_ATOM_COUNT>
0

> <PUBCHEM_COMPONENT_COUNT>
1

> <PUBCHEM_CACTVS_TAUTO_COUNT>
5

> <PUBCHEM_CONFORMER_ID>
0000177D00000001

> <PUBCHEM_MMFF94_ENERGY>
67.5416

> <PUBCHEM_FEATURE_SELFOVERLAP>
35.618

> <PUBCHEM_SHAPE_FINGERPRINT>
10062212 137 18336825385559829163
10759866 29 17897457309511876188
10967382 1 18412548682291571786
11132069 177 18410018732180467827
11370993 70 18410569557056084199
11578080 2 16735503067342509174
12011746 2 18412547592124142406
12236239 1 18040155136873436768
12251169 10 18410008845387181634
12403259 226 18410006624652160988
12403259 415 18408880746209696412
12403260 363 18340481291412090749
12403814 3 17894914044785590877
12507557 5 18408881845467772304
12633257 1 18341888602346167976
12839892 36 18340758291450253690
13140716 1 18339643467883616216
13214271 11 18272369780793716703
13224815 77 18411987974316295335
13675066 3 18187087269080573787
14178342 30 18338527339117458393
14223421 5 18341052895787930134
14341114 176 18411985737129035682
14787075 74 18339640165090922602
14790565 3 18050014594947639924
15163728 17 14691189929019880809
15196674 1 18411420639180230811
15375358 24 18413110541697833299
15536298 74 18272376330249831326
15788980 27 17167859768361771669
16945 1 18267308633664624303
17349148 13 18260547844245275310
17492 89 18410012108956776131
1813 80 17168144512515476742
18186145 218 18411423903503023558
18522853 276 18412546492037592553
19050596 39 18410858775858764633
19784866 9 18412265021155473810
200 152 18202274819337965375
20715895 44 18116989984517715477
21033648 29 18262779827106925672
21267235 1 18410302427354843602
21421861 104 18042966467372004754
21637258 2 15647319828885568714
22182313 1 18189614934485510503
22854114 111 18409735070690792279
22854114 59 18343022189864506130
23402539 116 18272925046486162621
23557571 272 18059303161493107767
23559900 14 18343023255612643838
26918003 58 18409728456589012017
2748010 2 18410304609229794207
2838139 119 14835541671104639250
296302 2 16343984710473737934
335352 9 18411702045432157758
34934 24 18341610383102269379
350125 39 18410857681354741304
351380 180 18413386540454065762
3545911 37 18411703166439727155
42 15 18260548935156425576
5104073 3 18410294747868572393
59755656 215 18339930311854621398
633830 44 17988931080225984300
69090 78 18413386557386229218
7364860 26 18200601276388112774
9709674 26 18341058445033876271

> <PUBCHEM_SHAPE_MULTIPOLES>
420.43
9.43
2.1
1.06
1.16
0.42
0.43
-0.59
-2.56
-0.22
0.02
0.09
-0.22
0.11

> <PUBCHEM_SHAPE_SELFOVERLAP>
902.625

> <PUBCHEM_SHAPE_VOLUME>
230.1

> <PUBCHEM_COORDINATE_TYPE>
2
5
10

> <Energy>
71.9966

> <minimizedAffinity>
-7.28446

> <CNNscore>
0.3042125106

> <CNNaffinity>
7.0228619576

> <CNN_VS>
2.1364424229

> <CNNaffinity_variance>
0.5638429523

$$$$
6013


 22 25  0  0  0  0  0  0  0  0999 V2000
   -2.4713   -4.9697   13.8403 O   0  0  0  0  0  0  0  0  0  0  0  0
  -12.0077   -4.5856    8.6681 O   0  0  0  0  0  0  0  0  0  0  0  0
   -6.1010   -4.7154   13.5085 C   0  0  0  0  0  0  0  0  0  0  0  0
   -4.7057   -4.4160   12.9268 C   0  0  0  0  0  0  0  0  0  0  0  0
   -7.2113   -3.9216   12.8138 C   0  0  0  0  0  0  0  0  0  0  0  0
   -7.2224   -4.2943   11.2977 C   0  0  0  0  0  0  0  0  0  0  0  0
   -8.3633   -3.5592   10.4954 C   0  0  0  0  0  0  0  0  0  0  0  0
   -4.7010   -4.8567   11.4573 C   0  0  0  0  0  0  0  0  0  0  0  0
   -5.8138   -4.1571   10.6558 C   0  0  0  0  0  0  0  0  0  0  0  0
   -3.8492   -5.2909   13.8646 C   0  0  0  0  0  0  0  0  0  0  0  0
   -5.9016   -4.5543   15.0135 C   0  0  0  0  0  0  0  0  0  0  0  0
   -8.5818   -4.2120   13.4386 C   0  0  0  0  0  0  0  0  0  0  0  0
   -4.4712   -5.0674   15.2584 C   0  0  0  0  0  0  0  0  0  0  0  0
   -9.6967   -3.7217   11.2385 C   0  0  0  0  0  0  0  0  0  0  0  0
   -9.6867   -3.4454   12.7236 C   0  0  0  0  0  0  0  0  0  0  0  0
   -4.2684   -2.9333   13.0242 C   0  0  0  0  0  0  0  0  0  0  0  0
   -8.4610   -4.2036    9.0810 C   0  0  0  0  0  0  0  0  0  0  0  0
   -8.0816   -2.0482   10.3384 C   0  0  0  0  0  0  0  0  0  0  0  0
   -9.7447   -3.8618    8.3391 C   0  0  0  0  0  0  0  0  0  0  0  0
  -10.8488   -4.0683   10.6393 C   0  0  0  0  0  0  0  0  0  0  0  0
  -10.9443   -4.2336    9.1698 C   0  0  0  0  0  0  0  0  0  0  0  0
   -2.1191   -5.1232   12.9496 H   0  0  0  0  0  0  0  0  0  0  0  0
  1 10  1  0
  1 22  1  0
  2 21  2  0
  3  4  1  0
  3  5  1  0
  3 11  1  0
  4  8  1  0
  4 10  1  0
  4 16  1  0
  5  6  1  0
  5 12  1  0
  6  7  1  0
  6  9  1  0
  7 14  1  0
  7 17  1  0
  7 18  1  0
  8  9  1  0
 10 13  1  0
 11 13  1  0
 12 15  1  0
 14 15  1  0
 14 20  2  0
 17 19  1  0
 19 21  1  0
 20 21  1  0
M  END
> <PUBCHEM_COMPOUND_CID>
6013

> <PUBCHEM_CONFORMER_RMSD>
0.6

> <PUBCHEM_CONFORMER_DIVERSEORDER>
1

> <PUBCHEM_MMFF94_PARTIAL_CHARGES>
11
1 -0.68
10 0.28
14 -0.28
15 0.14
19 0.06
2 -0.57
20 -0.14
21 0.49
48 0.15
49 0.4
7 0.14

> <PUBCHEM_EFFECTIVE_ROTOR_COUNT>
1.8

> <PUBCHEM_PHARMACOPHORE_FEATURES>
7
1 1 acceptor
1 1 donor
1 2 acceptor
5 3 4 10 11 13 rings
6 3 4 5 6 8 9 rings
6 5 6 7 12 14 15 rings
6 7 14 17 19 20 21 rings

> <PUBCHEM_HEAVY_ATOM_COUNT>
21

> <PUBCHEM_ATOM_DEF_STEREO_COUNT>
6

> <PUBCHEM_ATOM_UDEF_STEREO_COUNT>
0

> <PUBCHEM_BOND_DEF_STEREO_COUNT>
0

> <PUBCHEM_BOND_UDEF_STEREO_COUNT>
0

> <PUBCHEM_ISOTOPIC_ATOM_COUNT>
0

> <PUBCHEM_COMPONENT_COUNT>
1

> <PUBCHEM_CACTVS_TAUTO_COUNT>
5

> <PUBCHEM_CONFORMER_ID>
0000177D00000001

> <PUBCHEM_MMFF94_ENERGY>
67.5416

> <PUBCHEM_FEATURE_SELFOVERLAP>
35.618

> <PUBCHEM_SHAPE_FINGERPRINT>
10062212 137 18336825385559829163
10759866 29 17897457309511876188
10967382 1 18412548682291571786
11132069 177 18410018732180467827
11370993 70 18410569557056084199
11578080 2 16735503067342509174
12011746 2 18412547592124142406
12236239 1 18040155136873436768
12251169 10 18410008845387181634
12403259 226 18410006624652160988
12403259 415 18408880746209696412
12403260 363 18340481291412090749
12403814 3 17894914044785590877
12507557 5 18408881845467772304
12633257 1 18341888602346167976
12839892 36 18340758291450253690
13140716 1 18339643467883616216
13214271 11 18272369780793716703
13224815 77 18411987974316295335
13675066 3 18187087269080573787
14178342 30 18338527339117458393
14223421 5 18341052895787930134
14341114 176 18411985737129035682
14787075 74 18339640165090922602
14790565 3 18050014594947639924
15163728 17 14691189929019880809
15196674 1 18411420639180230811
15375358 24 18413110541697833299
15536298 74 18272376330249831326
15788980 27 17167859768361771669
16945 1 18267308633664624303
17349148 13 18260547844245275310
17492 89 18410012108956776131
1813 80 17168144512515476742
18186145 218 18411423903503023558
18522853 276 18412546492037592553
19050596 39 18410858775858764633
19784866 9 18412265021155473810
200 152 18202274819337965375
20715895 44 18116989984517715477
21033648 29 18262779827106925672
21267235 1 18410302427354843602
21421861 104 18042966467372004754
21637258 2 15647319828885568714
22182313 1 18189614934485510503
22854114 111 18409735070690792279
22854114 59 18343022189864506130
23402539 116 18272925046486162621
23557571 272 18059303161493107767
23559900 14 18343023255612643838
26918003 58 18409728456589012017
2748010 2 18410304609229794207
2838139 119 14835541671104639250
296302 2 16343984710473737934
335352 9 18411702045432157758
34934 24 18341610383102269379
350125 39 18410857681354741304
351380 180 18413386540454065762
3545911 37 18411703166439727155
42 15 18260548935156425576
5104073 3 18410294747868572393
59755656 215 18339930311854621398
633830 44 17988931080225984300
69090 78 18413386557386229218
7364860 26 18200601276388112774
9709674 26 18341058445033876271

> <PUBCHEM_SHAPE_MULTIPOLES>
420.43
9.43
2.1
1.06
1.16
0.42
0.43
-0.59
-2.56
-0.22
0.02
0.09
-0.22
0.11

> <PUBCHEM_SHAPE_SELFOVERLAP>
902.625

> <PUBCHEM_SHAPE_VOLUME>
230.1

> <PUBCHEM_COORDINATE_TYPE>
2
5
10

> <Energy>
71.9966

> <minimizedAffinity>
-4.99011

> <CNNscore>
0.2547584474

> <CNNaffinity>
6.3887462616

> <CNN_VS>
1.6275870800

> <CNNaffinity_variance>
0.1092906296

$$$$
6013


 22 25  0  0  0  0  0  0  0  0999 V2000
   -9.2761   -5.7292    9.4120 O   0  0  0  0  0  0  0  0  0  0  0  0
   -3.1642   -2.7714   17.8819 O   0  0  0  0  0  0  0  0  0  0  0  0
   -8.5792   -4.6264   12.8248 C   0  0  0  0  0  0  0  0  0  0  0  0
   -8.1454   -5.4518   11.5979 C   0  0  0  0  0  0  0  0  0  0  0  0
   -7.7828   -4.9806   14.0842 C   0  0  0  0  0  0  0  0  0  0  0  0
   -6.2698   -4.7025   13.8168 C   0  0  0  0  0  0  0  0  0  0  0  0
   -5.3627   -4.9959   15.0725 C   0  0  0  0  0  0  0  0  0  0  0  0
   -6.6798   -5.1145   11.2946 C   0  0  0  0  0  0  0  0  0  0  0  0
   -5.7760   -5.3854   12.5111 C   0  0  0  0  0  0  0  0  0  0  0  0
   -9.1570   -4.9164   10.5642 C   0  0  0  0  0  0  0  0  0  0  0  0
  -10.0981   -4.7792   12.8381 C   0  0  0  0  0  0  0  0  0  0  0  0
   -8.2620   -4.1708   15.2956 C   0  0  0  0  0  0  0  0  0  0  0  0
  -10.4824   -4.8258   11.3483 C   0  0  0  0  0  0  0  0  0  0  0  0
   -5.9647   -4.3129   16.3086 C   0  0  0  0  0  0  0  0  0  0  0  0
   -7.4457   -4.5027   16.5379 C   0  0  0  0  0  0  0  0  0  0  0  0
   -8.3010   -6.9843   11.7608 C   0  0  0  0  0  0  0  0  0  0  0  0
   -3.9397   -4.4290   14.7921 C   0  0  0  0  0  0  0  0  0  0  0  0
   -5.2498   -6.5085   15.3664 C   0  0  0  0  0  0  0  0  0  0  0  0
   -3.0742   -4.3018   16.0371 C   0  0  0  0  0  0  0  0  0  0  0  0
   -5.2481   -3.5902   17.1864 C   0  0  0  0  0  0  0  0  0  0  0  0
   -3.7749   -3.4706   17.0790 C   0  0  0  0  0  0  0  0  0  0  0  0
   -8.4245   -5.7603    8.9487 H   0  0  0  0  0  0  0  0  0  0  0  0
  1 10  1  0
  1 22  1  0
  2 21  2  0
  3  4  1  0
  3  5  1  0
  3 11  1  0
  4  8  1  0
  4 10  1  0
  4 16  1  0
  5  6  1  0
  5 12  1  0
  6  7  1  0
  6  9  1  0
  7 14  1  0
  7 17  1  0
  7 18  1  0
  8  9  1  0
 10 13  1  0
 11 13  1  0
 12 15  1  0
 14 15  1  0
 14 20  2  0
 17 19  1  0
 19 21  1  0
 20 21  1  0
M  END
> <PUBCHEM_COMPOUND_CID>
6013

> <PUBCHEM_CONFORMER_RMSD>
0.6

> <PUBCHEM_CONFORMER_DIVERSEORDER>
1

> <PUBCHEM_MMFF94_PARTIAL_CHARGES>
11
1 -0.68
10 0.28
14 -0.28
15 0.14
19 0.06
2 -0.57
20 -0.14
21 0.49
48 0.15
49 0.4
7 0.14

> <PUBCHEM_EFFECTIVE_ROTOR_COUNT>
1.8

> <PUBCHEM_PHARMACOPHORE_FEATURES>
7
1 1 acceptor
1 1 donor
1 2 acceptor
5 3 4 10 11 13 rings
6 3 4 5 6 8 9 rings
6 5 6 7 12 14 15 rings
6 7 14 17 19 20 21 rings

> <PUBCHEM_HEAVY_ATOM_COUNT>
21

> <PUBCHEM_ATOM_DEF_STEREO_COUNT>
6

> <PUBCHEM_ATOM_UDEF_STEREO_COUNT>
0

> <PUBCHEM_BOND_DEF_STEREO_COUNT>
0

> <PUBCHEM_BOND_UDEF_STEREO_COUNT>
0

> <PUBCHEM_ISOTOPIC_ATOM_COUNT>
0

> <PUBCHEM_COMPONENT_COUNT>
1

> <PUBCHEM_CACTVS_TAUTO_COUNT>
5

> <PUBCHEM_CONFORMER_ID>
0000177D00000001

> <PUBCHEM_MMFF94_ENERGY>
67.5416

> <PUBCHEM_FEATURE_SELFOVERLAP>
35.618

> <PUBCHEM_SHAPE_FINGERPRINT>
10062212 137 18336825385559829163
10759866 29 17897457309511876188
10967382 1 18412548682291571786
11132069 177 18410018732180467827
11370993 70 18410569557056084199
11578080 2 16735503067342509174
12011746 2 18412547592124142406
12236239 1 18040155136873436768
12251169 10 18410008845387181634
12403259 226 18410006624652160988
12403259 415 18408880746209696412
12403260 363 18340481291412090749
12403814 3 17894914044785590877
12507557 5 18408881845467772304
12633257 1 18341888602346167976
12839892 36 18340758291450253690
13140716 1 18339643467883616216
13214271 11 18272369780793716703
13224815 77 18411987974316295335
13675066 3 18187087269080573787
14178342 30 18338527339117458393
14223421 5 18341052895787930134
14341114 176 18411985737129035682
14787075 74 18339640165090922602
14790565 3 18050014594947639924
15163728 17 14691189929019880809
15196674 1 18411420639180230811
15375358 24 18413110541697833299
15536298 74 18272376330249831326
15788980 27 17167859768361771669
16945 1 18267308633664624303
17349148 13 18260547844245275310
17492 89 18410012108956776131
1813 80 17168144512515476742
18186145 218 18411423903503023558
18522853 276 18412546492037592553
19050596 39 18410858775858764633
19784866 9 18412265021155473810
200 152 18202274819337965375
20715895 44 18116989984517715477
21033648 29 18262779827106925672
21267235 1 18410302427354843602
21421861 104 18042966467372004754
21637258 2 15647319828885568714
22182313 1 18189614934485510503
22854114 111 18409735070690792279
22854114 59 18343022189864506130
23402539 116 18272925046486162621
23557571 272 18059303161493107767
23559900 14 18343023255612643838
26918003 58 18409728456589012017
2748010 2 18410304609229794207
2838139 119 14835541671104639250
296302 2 16343984710473737934
335352 9 18411702045432157758
34934 24 18341610383102269379
350125 39 18410857681354741304
351380 180 18413386540454065762
3545911 37 18411703166439727155
42 15 18260548935156425576
5104073 3 18410294747868572393
59755656 215 18339930311854621398
633830 44 17988931080225984300
69090 78 18413386557386229218
7364860 26 18200601276388112774
9709674 26 18341058445033876271

> <PUBCHEM_SHAPE_MULTIPOLES>
420.43
9.43
2.1
1.06
1.16
0.42
0.43
-0.59
-2.56
-0.22
0.02
0.09
-0.22
0.11

> <PUBCHEM_SHAPE_SELFOVERLAP>
902.625

> <PUBCHEM_SHAPE_VOLUME>
230.1

> <PUBCHEM_COORDINATE_TYPE>
2
5
10

> <Energy>
71.9966

> <minimizedAffinity>
-1.03745

> <CNNscore>
0.2352655232

> <CNNaffinity>
6.5393347740

> <CNN_VS>
1.5384800434

> <CNNaffinity_variance>
0.3890760243

$$$$
6013


 22 25  0  0  0  0  0  0  0  0999 V2000
   -9.2651   -4.2678    7.2727 O   0  0  0  0  0  0  0  0  0  0  0  0
   -4.2988   -3.4597   16.8918 O   0  0  0  0  0  0  0  0  0  0  0  0
   -8.9991   -4.1896   10.9159 C   0  0  0  0  0  0  0  0  0  0  0  0
   -8.3653   -4.5615    9.5613 C   0  0  0  0  0  0  0  0  0  0  0  0
   -8.2741   -4.8330   12.1017 C   0  0  0  0  0  0  0  0  0  0  0  0
   -6.7897   -4.3487   12.1060 C   0  0  0  0  0  0  0  0  0  0  0  0
   -5.9624   -4.9231   13.3190 C   0  0  0  0  0  0  0  0  0  0  0  0
   -6.9321   -4.0144    9.5433 C   0  0  0  0  0  0  0  0  0  0  0  0
   -6.1075   -4.5560   10.7252 C   0  0  0  0  0  0  0  0  0  0  0  0
   -9.3444   -3.8342    8.6174 C   0  0  0  0  0  0  0  0  0  0  0  0
  -10.4833   -4.4787   10.7060 C   0  0  0  0  0  0  0  0  0  0  0  0
   -8.9496   -4.4754   13.4316 C   0  0  0  0  0  0  0  0  0  0  0  0
  -10.7321   -4.1077    9.2331 C   0  0  0  0  0  0  0  0  0  0  0  0
   -6.7458   -4.7046   14.6210 C   0  0  0  0  0  0  0  0  0  0  0  0
   -8.2062   -5.0907   14.6100 C   0  0  0  0  0  0  0  0  0  0  0  0
   -8.3443   -6.0789    9.2514 C   0  0  0  0  0  0  0  0  0  0  0  0
   -4.6014   -4.1691   13.3845 C   0  0  0  0  0  0  0  0  0  0  0  0
   -5.6894   -6.4366   13.1706 C   0  0  0  0  0  0  0  0  0  0  0  0
   -3.8662   -4.3452   14.7050 C   0  0  0  0  0  0  0  0  0  0  0  0
   -6.2000   -4.2184   15.7489 C   0  0  0  0  0  0  0  0  0  0  0  0
   -4.7490   -3.9365   15.8543 C   0  0  0  0  0  0  0  0  0  0  0  0
   -8.3802   -4.0785    6.9235 H   0  0  0  0  0  0  0  0  0  0  0  0
  1 10  1  0
  1 22  1  0
  2 21  2  0
  3  4  1  0
  3  5  1  0
  3 11  1  0
  4  8  1  0
  4 10  1  0
  4 16  1  0
  5  6  1  0
  5 12  1  0
  6  7  1  0
  6  9  1  0
  7 14  1  0
  7 17  1  0
  7 18  1  0
  8  9  1  0
 10 13  1  0
 11 13  1  0
 12 15  1  0
 14 15  1  0
 14 20  2  0
 17 19  1  0
 19 21  1  0
 20 21  1  0
M  END
> <PUBCHEM_COMPOUND_CID>
6013

> <PUBCHEM_CONFORMER_RMSD>
0.6

> <PUBCHEM_CONFORMER_DIVERSEORDER>
1

> <PUBCHEM_MMFF94_PARTIAL_CHARGES>
11
1 -0.68
10 0.28
14 -0.28
15 0.14
19 0.06
2 -0.57
20 -0.14
21 0.49
48 0.15
49 0.4
7 0.14

> <PUBCHEM_EFFECTIVE_ROTOR_COUNT>
1.8

> <PUBCHEM_PHARMACOPHORE_FEATURES>
7
1 1 acceptor
1 1 donor
1 2 acceptor
5 3 4 10 11 13 rings
6 3 4 5 6 8 9 rings
6 5 6 7 12 14 15 rings
6 7 14 17 19 20 21 rings

> <PUBCHEM_HEAVY_ATOM_COUNT>
21

> <PUBCHEM_ATOM_DEF_STEREO_COUNT>
6

> <PUBCHEM_ATOM_UDEF_STEREO_COUNT>
0

> <PUBCHEM_BOND_DEF_STEREO_COUNT>
0

> <PUBCHEM_BOND_UDEF_STEREO_COUNT>
0

> <PUBCHEM_ISOTOPIC_ATOM_COUNT>
0

> <PUBCHEM_COMPONENT_COUNT>
1

> <PUBCHEM_CACTVS_TAUTO_COUNT>
5

> <PUBCHEM_CONFORMER_ID>
0000177D00000001

> <PUBCHEM_MMFF94_ENERGY>
67.5416

> <PUBCHEM_FEATURE_SELFOVERLAP>
35.618

> <PUBCHEM_SHAPE_FINGERPRINT>
10062212 137 18336825385559829163
10759866 29 17897457309511876188
10967382 1 18412548682291571786
11132069 177 18410018732180467827
11370993 70 18410569557056084199
11578080 2 16735503067342509174
12011746 2 18412547592124142406
12236239 1 18040155136873436768
12251169 10 18410008845387181634
12403259 226 18410006624652160988
12403259 415 18408880746209696412
12403260 363 18340481291412090749
12403814 3 17894914044785590877
12507557 5 18408881845467772304
12633257 1 18341888602346167976
12839892 36 18340758291450253690
13140716 1 18339643467883616216
13214271 11 18272369780793716703
13224815 77 18411987974316295335
13675066 3 18187087269080573787
14178342 30 18338527339117458393
14223421 5 18341052895787930134
14341114 176 18411985737129035682
14787075 74 18339640165090922602
14790565 3 18050014594947639924
15163728 17 14691189929019880809
15196674 1 18411420639180230811
15375358 24 18413110541697833299
15536298 74 18272376330249831326
15788980 27 17167859768361771669
16945 1 18267308633664624303
17349148 13 18260547844245275310
17492 89 18410012108956776131
1813 80 17168144512515476742
18186145 218 18411423903503023558
18522853 276 18412546492037592553
19050596 39 18410858775858764633
19784866 9 18412265021155473810
200 152 18202274819337965375
20715895 44 18116989984517715477
21033648 29 18262779827106925672
21267235 1 18410302427354843602
21421861 104 18042966467372004754
21637258 2 15647319828885568714
22182313 1 18189614934485510503
22854114 111 18409735070690792279
22854114 59 18343022189864506130
23402539 116 18272925046486162621
23557571 272 18059303161493107767
23559900 14 18343023255612643838
26918003 58 18409728456589012017
2748010 2 18410304609229794207
2838139 119 14835541671104639250
296302 2 16343984710473737934
335352 9 18411702045432157758
34934 24 18341610383102269379
350125 39 18410857681354741304
351380 180 18413386540454065762
3545911 37 18411703166439727155
42 15 18260548935156425576
5104073 3 18410294747868572393
59755656 215 18339930311854621398
633830 44 17988931080225984300
69090 78 18413386557386229218
7364860 26 18200601276388112774
9709674 26 18341058445033876271

> <PUBCHEM_SHAPE_MULTIPOLES>
420.43
9.43
2.1
1.06
1.16
0.42
0.43
-0.59
-2.56
-0.22
0.02
0.09
-0.22
0.11

> <PUBCHEM_SHAPE_SELFOVERLAP>
902.625

> <PUBCHEM_SHAPE_VOLUME>
230.1

> <PUBCHEM_COORDINATE_TYPE>
2
5
10

> <Energy>
71.9966

> <minimizedAffinity>
-8.88920

> <CNNscore>
0.2222809196

> <CNNaffinity>
6.8946661949

> <CNN_VS>
1.5325527191

> <CNNaffinity_variance>
0.2597003281

$$$$
