8814


 16 16  0  0  0  0  0  0  0  0999 V2000
   21.6775    3.5159    5.7155 C   0  0  0  0  0  0  0  0  0  0  0  0
   21.7314    4.1347    4.2852 C   0  0  0  0  0  0  0  0  0  0  0  0
   21.5215    1.9954    5.4799 C   0  0  0  0  0  0  0  0  0  0  0  0
   17.2621    6.0090    8.3501 O   0  0  0  0  0  0  0  0  0  0  0  0
   20.4843    4.1620    6.4357 C   0  0  0  0  0  0  0  0  0  0  0  0
   19.4309    4.7316    5.6885 C   0  0  0  0  0  0  0  0  0  0  0  0
   20.3913    4.2237    7.8363 C   0  0  0  0  0  0  0  0  0  0  0  0
   18.3452    5.3518    6.3124 C   0  0  0  0  0  0  0  0  0  0  0  0
   19.3081    4.8447    8.4621 C   0  0  0  0  0  0  0  0  0  0  0  0
   18.2961    5.4064    7.6963 C   0  0  0  0  0  0  0  0  0  0  0  0
   16.5628    6.3980    7.8627 H   0  0  0  0  0  0  0  0  0  0  0  0
   23.0510    3.8338    6.4094 C   0  0  0  0  0  0  0  0  0  0  0  0
   24.4261    3.2969    5.8841 C   0  0  0  0  0  0  0  0  0  0  0  0
   24.3453    3.3035    4.3367 C   0  0  0  0  0  0  0  0  0  0  0  0
   24.7134    1.8546    6.3245 C   0  0  0  0  0  0  0  0  0  0  0  0
   25.6242    4.1789    6.2692 C   0  0  0  0  0  0  0  0  0  0  0  0
  4 10  1  0
  4 11  1  0
  1 12  1  0
  1  5  1  0
  1  2  1  0
  1  3  1  0
 13 12  1  0
 13 14  1  0
 13 15  1  0
 13 16  1  0
  5  6  2  0
  5  7  1  0
  6  8  1  0
  7  9  2  0
  8 10  2  0
  9 10  1  0
M  END
> <PUBCHEM_COMPOUND_CID>
8814

> <PUBCHEM_CONFORMER_RMSD>
0.6

> <PUBCHEM_CONFORMER_DIVERSEORDER>
1
5
4
3
2

> <PUBCHEM_MMFF94_PARTIAL_CHARGES>
13
1 -0.53
11 -0.15
12 -0.15
13 -0.15
14 -0.15
15 0.08
2 0.14
33 0.15
34 0.15
35 0.15
36 0.15
37 0.45
5 -0.14

> <PUBCHEM_EFFECTIVE_ROTOR_COUNT>
3

> <PUBCHEM_PHARMACOPHORE_FEATURES>
4
1 1 donor
3 2 6 7 hydrophobe
4 3 8 9 10 hydrophobe
6 5 11 12 13 14 15 rings

> <PUBCHEM_HEAVY_ATOM_COUNT>
15

> <PUBCHEM_ATOM_DEF_STEREO_COUNT>
0

> <PUBCHEM_ATOM_UDEF_STEREO_COUNT>
0

> <PUBCHEM_BOND_DEF_STEREO_COUNT>
0

> <PUBCHEM_BOND_UDEF_STEREO_COUNT>
0

> <PUBCHEM_ISOTOPIC_ATOM_COUNT>
0

> <PUBCHEM_COMPONENT_COUNT>
1

> <PUBCHEM_CACTVS_TAUTO_COUNT>
2

> <PUBCHEM_CONFORMER_ID>
0000226E00000001

> <PUBCHEM_MMFF94_ENERGY>
60.6732

> <PUBCHEM_FEATURE_SELFOVERLAP>
20.297

> <PUBCHEM_SHAPE_FINGERPRINT>
1 1 18122065299635933247
11471102 22 13984658170435925480
12138202 97 18272929444633088966
12251169 10 14923953348599690641
12423570 1 15084294979065354379
124424 183 18201999928641116818
12491281 212 18273493468196309381
12532896 13 18409735040726507851
13299463 15 16200422598337566991
13538477 17 17822291326855117498
13764800 53 18335714831507604569
13839132 238 18413110537123213324
14817 1 11689340854733718479
15375462 478 15647061443078261877
15775835 57 18339078194495494345
16945 1 17988065786023185643
18186145 218 18200036118541666588
18534176 82 18271243927656786518
19837323 101 18335708272823803859
20525323 117 18337111292773698462
20645476 183 17894351081266785547
21296965 12 18260545576729377063
21501502 16 18271800211963701222
21524375 3 18339638928324873163
21947302 44 18059017168310697110
22802520 49 18199766781279703998
23402539 116 18267296706830970519
23419403 2 17194099544908694927
23557571 272 18198918083120765556
23559900 14 18342742906418193234
25 1 17845383149850037993
2748010 2 18262817159083630983
276578 36 18189342281366350763
305870 269 18040992882718168402
430814 3 18041565736850213531
549884 4 17416683544816290937
6333449 129 18343582975122638285
6442390 28 18269297706777891659
7364860 26 17834677097914689979
81228 2 18191593162379223291

> <PUBCHEM_SHAPE_MULTIPOLES>
302.82
5.29
2.15
1.39
2.11
0.81
0.13
-3.45
0.34
-1.29
-0.24
-0.12
0.26
0.01

> <PUBCHEM_SHAPE_SELFOVERLAP>
615.427

> <PUBCHEM_SHAPE_VOLUME>
178.4

> <PUBCHEM_COORDINATE_TYPE>
2
5
10

> <Energy>
46.4329

> <minimizedAffinity>
-6.94645

> <CNNscore>
0.9498884678

> <CNNaffinity>
7.0838031769

> <CNN_VS>
6.7288227081

> <CNNaffinity_variance>
0.5115706325

$$$$
8814


 16 16  0  0  0  0  0  0  0  0999 V2000
   21.9153    3.5247    5.7723 C   0  0  0  0  0  0  0  0  0  0  0  0
   21.7297    1.9920    5.5531 C   0  0  0  0  0  0  0  0  0  0  0  0
   22.7900    3.6364    7.0428 C   0  0  0  0  0  0  0  0  0  0  0  0
   16.7299    5.8541    6.3534 O   0  0  0  0  0  0  0  0  0  0  0  0
   20.5101    4.1258    5.9266 C   0  0  0  0  0  0  0  0  0  0  0  0
   20.0300    5.0550    4.9787 C   0  0  0  0  0  0  0  0  0  0  0  0
   19.6609    3.7951    6.9960 C   0  0  0  0  0  0  0  0  0  0  0  0
   18.7681    5.6414    5.1052 C   0  0  0  0  0  0  0  0  0  0  0  0
   18.3999    4.3813    7.1256 C   0  0  0  0  0  0  0  0  0  0  0  0
   17.9649    5.3016    6.1822 C   0  0  0  0  0  0  0  0  0  0  0  0
   16.4062    6.4788    5.7345 H   0  0  0  0  0  0  0  0  0  0  0  0
   22.6807    4.0822    4.5185 C   0  0  0  0  0  0  0  0  0  0  0  0
   23.9537    4.9901    4.6198 C   0  0  0  0  0  0  0  0  0  0  0  0
   23.5149    6.2953    5.3301 C   0  0  0  0  0  0  0  0  0  0  0  0
   24.5214    5.3804    3.2478 C   0  0  0  0  0  0  0  0  0  0  0  0
   25.0829    4.3825    5.4667 C   0  0  0  0  0  0  0  0  0  0  0  0
  4 10  1  0
  4 11  1  0
  1 12  1  0
  1  5  1  0
  1  2  1  0
  1  3  1  0
 13 12  1  0
 13 14  1  0
 13 15  1  0
 13 16  1  0
  5  6  2  0
  5  7  1  0
  6  8  1  0
  7  9  2  0
  8 10  2  0
  9 10  1  0
M  END
> <PUBCHEM_COMPOUND_CID>
8814

> <PUBCHEM_CONFORMER_RMSD>
0.6

> <PUBCHEM_CONFORMER_DIVERSEORDER>
1
5
4
3
2

> <PUBCHEM_MMFF94_PARTIAL_CHARGES>
13
1 -0.53
11 -0.15
12 -0.15
13 -0.15
14 -0.15
15 0.08
2 0.14
33 0.15
34 0.15
35 0.15
36 0.15
37 0.45
5 -0.14

> <PUBCHEM_EFFECTIVE_ROTOR_COUNT>
3

> <PUBCHEM_PHARMACOPHORE_FEATURES>
4
1 1 donor
3 2 6 7 hydrophobe
4 3 8 9 10 hydrophobe
6 5 11 12 13 14 15 rings

> <PUBCHEM_HEAVY_ATOM_COUNT>
15

> <PUBCHEM_ATOM_DEF_STEREO_COUNT>
0

> <PUBCHEM_ATOM_UDEF_STEREO_COUNT>
0

> <PUBCHEM_BOND_DEF_STEREO_COUNT>
0

> <PUBCHEM_BOND_UDEF_STEREO_COUNT>
0

> <PUBCHEM_ISOTOPIC_ATOM_COUNT>
0

> <PUBCHEM_COMPONENT_COUNT>
1

> <PUBCHEM_CACTVS_TAUTO_COUNT>
2

> <PUBCHEM_CONFORMER_ID>
0000226E00000001

> <PUBCHEM_MMFF94_ENERGY>
60.6732

> <PUBCHEM_FEATURE_SELFOVERLAP>
20.297

> <PUBCHEM_SHAPE_FINGERPRINT>
1 1 18122065299635933247
11471102 22 13984658170435925480
12138202 97 18272929444633088966
12251169 10 14923953348599690641
12423570 1 15084294979065354379
124424 183 18201999928641116818
12491281 212 18273493468196309381
12532896 13 18409735040726507851
13299463 15 16200422598337566991
13538477 17 17822291326855117498
13764800 53 18335714831507604569
13839132 238 18413110537123213324
14817 1 11689340854733718479
15375462 478 15647061443078261877
15775835 57 18339078194495494345
16945 1 17988065786023185643
18186145 218 18200036118541666588
18534176 82 18271243927656786518
19837323 101 18335708272823803859
20525323 117 18337111292773698462
20645476 183 17894351081266785547
21296965 12 18260545576729377063
21501502 16 18271800211963701222
21524375 3 18339638928324873163
21947302 44 18059017168310697110
22802520 49 18199766781279703998
23402539 116 18267296706830970519
23419403 2 17194099544908694927
23557571 272 18198918083120765556
23559900 14 18342742906418193234
25 1 17845383149850037993
2748010 2 18262817159083630983
276578 36 18189342281366350763
305870 269 18040992882718168402
430814 3 18041565736850213531
549884 4 17416683544816290937
6333449 129 18343582975122638285
6442390 28 18269297706777891659
7364860 26 17834677097914689979
81228 2 18191593162379223291

> <PUBCHEM_SHAPE_MULTIPOLES>
302.82
5.29
2.15
1.39
2.11
0.81
0.13
-3.45
0.34
-1.29
-0.24
-0.12
0.26
0.01

> <PUBCHEM_SHAPE_SELFOVERLAP>
615.427

> <PUBCHEM_SHAPE_VOLUME>
178.4

> <PUBCHEM_COORDINATE_TYPE>
2
5
10

> <Energy>
46.4329

> <minimizedAffinity>
-7.25014

> <CNNscore>
0.9257082939

> <CNNaffinity>
7.0032086372

> <CNN_VS>
6.4829282761

> <CNNaffinity_variance>
0.4563871622

$$$$
8814


 16 16  0  0  0  0  0  0  0  0999 V2000
   22.3642    4.0111    6.1559 C   0  0  0  0  0  0  0  0  0  0  0  0
   22.8168    2.9779    7.2326 C   0  0  0  0  0  0  0  0  0  0  0  0
   23.4179    5.1408    6.2285 C   0  0  0  0  0  0  0  0  0  0  0  0
   17.1026    5.7622    7.5351 O   0  0  0  0  0  0  0  0  0  0  0  0
   20.9438    4.4565    6.5355 C   0  0  0  0  0  0  0  0  0  0  0  0
   20.0673    4.9470    5.5438 C   0  0  0  0  0  0  0  0  0  0  0  0
   20.4647    4.4068    7.8554 C   0  0  0  0  0  0  0  0  0  0  0  0
   18.7792    5.3864    5.8602 C   0  0  0  0  0  0  0  0  0  0  0  0
   19.1782    4.8471    8.1744 C   0  0  0  0  0  0  0  0  0  0  0  0
   18.3474    5.3362    7.1761 C   0  0  0  0  0  0  0  0  0  0  0  0
   16.5169    6.0981    6.8854 H   0  0  0  0  0  0  0  0  0  0  0  0
   22.4218    3.2845    4.7640 C   0  0  0  0  0  0  0  0  0  0  0  0
   23.6344    2.4077    4.2995 C   0  0  0  0  0  0  0  0  0  0  0  0
   23.9552    2.8269    2.8427 C   0  0  0  0  0  0  0  0  0  0  0  0
   23.3174    0.9056    4.2878 C   0  0  0  0  0  0  0  0  0  0  0  0
   24.9145    2.6359    5.1186 C   0  0  0  0  0  0  0  0  0  0  0  0
  4 10  1  0
  4 11  1  0
  1 12  1  0
  1  5  1  0
  1  2  1  0
  1  3  1  0
 13 12  1  0
 13 14  1  0
 13 15  1  0
 13 16  1  0
  5  6  2  0
  5  7  1  0
  6  8  1  0
  7  9  2  0
  8 10  2  0
  9 10  1  0
M  END
> <PUBCHEM_COMPOUND_CID>
8814

> <PUBCHEM_CONFORMER_RMSD>
0.6

> <PUBCHEM_CONFORMER_DIVERSEORDER>
1
5
4
3
2

> <PUBCHEM_MMFF94_PARTIAL_CHARGES>
13
1 -0.53
11 -0.15
12 -0.15
13 -0.15
14 -0.15
15 0.08
2 0.14
33 0.15
34 0.15
35 0.15
36 0.15
37 0.45
5 -0.14

> <PUBCHEM_EFFECTIVE_ROTOR_COUNT>
3

> <PUBCHEM_PHARMACOPHORE_FEATURES>
4
1 1 donor
3 2 6 7 hydrophobe
4 3 8 9 10 hydrophobe
6 5 11 12 13 14 15 rings

> <PUBCHEM_HEAVY_ATOM_COUNT>
15

> <PUBCHEM_ATOM_DEF_STEREO_COUNT>
0

> <PUBCHEM_ATOM_UDEF_STEREO_COUNT>
0

> <PUBCHEM_BOND_DEF_STEREO_COUNT>
0

> <PUBCHEM_BOND_UDEF_STEREO_COUNT>
0

> <PUBCHEM_ISOTOPIC_ATOM_COUNT>
0

> <PUBCHEM_COMPONENT_COUNT>
1

> <PUBCHEM_CACTVS_TAUTO_COUNT>
2

> <PUBCHEM_CONFORMER_ID>
0000226E00000001

> <PUBCHEM_MMFF94_ENERGY>
60.6732

> <PUBCHEM_FEATURE_SELFOVERLAP>
20.297

> <PUBCHEM_SHAPE_FINGERPRINT>
1 1 18122065299635933247
11471102 22 13984658170435925480
12138202 97 18272929444633088966
12251169 10 14923953348599690641
12423570 1 15084294979065354379
124424 183 18201999928641116818
12491281 212 18273493468196309381
12532896 13 18409735040726507851
13299463 15 16200422598337566991
13538477 17 17822291326855117498
13764800 53 18335714831507604569
13839132 238 18413110537123213324
14817 1 11689340854733718479
15375462 478 15647061443078261877
15775835 57 18339078194495494345
16945 1 17988065786023185643
18186145 218 18200036118541666588
18534176 82 18271243927656786518
19837323 101 18335708272823803859
20525323 117 18337111292773698462
20645476 183 17894351081266785547
21296965 12 18260545576729377063
21501502 16 18271800211963701222
21524375 3 18339638928324873163
21947302 44 18059017168310697110
22802520 49 18199766781279703998
23402539 116 18267296706830970519
23419403 2 17194099544908694927
23557571 272 18198918083120765556
23559900 14 18342742906418193234
25 1 17845383149850037993
2748010 2 18262817159083630983
276578 36 18189342281366350763
305870 269 18040992882718168402
430814 3 18041565736850213531
549884 4 17416683544816290937
6333449 129 18343582975122638285
6442390 28 18269297706777891659
7364860 26 17834677097914689979
81228 2 18191593162379223291

> <PUBCHEM_SHAPE_MULTIPOLES>
302.82
5.29
2.15
1.39
2.11
0.81
0.13
-3.45
0.34
-1.29
-0.24
-0.12
0.26
0.01

> <PUBCHEM_SHAPE_SELFOVERLAP>
615.427

> <PUBCHEM_SHAPE_VOLUME>
178.4

> <PUBCHEM_COORDINATE_TYPE>
2
5
10

> <Energy>
46.4329

> <minimizedAffinity>
-7.53185

> <CNNscore>
0.9212694168

> <CNNaffinity>
6.8673892021

> <CNN_VS>
6.3267154694

> <CNNaffinity_variance>
0.4755681753

$$$$
8814


 16 16  0  0  0  0  0  0  0  0999 V2000
   21.6793    3.6716    5.6335 C   0  0  0  0  0  0  0  0  0  0  0  0
   22.6317    4.2941    6.6999 C   0  0  0  0  0  0  0  0  0  0  0  0
   22.2679    4.1162    4.2742 C   0  0  0  0  0  0  0  0  0  0  0  0
   16.4116    5.6286    6.6694 O   0  0  0  0  0  0  0  0  0  0  0  0
   20.2736    4.2229    5.9158 C   0  0  0  0  0  0  0  0  0  0  0  0
   19.5254    3.7285    7.0058 C   0  0  0  0  0  0  0  0  0  0  0  0
   19.6771    5.2136    5.1177 C   0  0  0  0  0  0  0  0  0  0  0  0
   18.2333    4.1883    7.2731 C   0  0  0  0  0  0  0  0  0  0  0  0
   18.3850    5.6735    5.3818 C   0  0  0  0  0  0  0  0  0  0  0  0
   17.6724    5.1555    6.4542 C   0  0  0  0  0  0  0  0  0  0  0  0
   15.9036    5.2999    7.3849 H   0  0  0  0  0  0  0  0  0  0  0  0
   21.7634    2.1107    5.7929 C   0  0  0  0  0  0  0  0  0  0  0  0
   23.0919    1.2977    5.6222 C   0  0  0  0  0  0  0  0  0  0  0  0
   22.9150   -0.0179    6.4214 C   0  0  0  0  0  0  0  0  0  0  0  0
   24.3164    2.0244    6.1960 C   0  0  0  0  0  0  0  0  0  0  0  0
   23.3914    0.8969    4.1692 C   0  0  0  0  0  0  0  0  0  0  0  0
  4 10  1  0
  4 11  1  0
  1 12  1  0
  1  5  1  0
  1  2  1  0
  1  3  1  0
 13 12  1  0
 13 14  1  0
 13 15  1  0
 13 16  1  0
  5  6  2  0
  5  7  1  0
  6  8  1  0
  7  9  2  0
  8 10  2  0
  9 10  1  0
M  END
> <PUBCHEM_COMPOUND_CID>
8814

> <PUBCHEM_CONFORMER_RMSD>
0.6

> <PUBCHEM_CONFORMER_DIVERSEORDER>
1
5
4
3
2

> <PUBCHEM_MMFF94_PARTIAL_CHARGES>
13
1 -0.53
11 -0.15
12 -0.15
13 -0.15
14 -0.15
15 0.08
2 0.14
33 0.15
34 0.15
35 0.15
36 0.15
37 0.45
5 -0.14

> <PUBCHEM_EFFECTIVE_ROTOR_COUNT>
3

> <PUBCHEM_PHARMACOPHORE_FEATURES>
4
1 1 donor
3 2 6 7 hydrophobe
4 3 8 9 10 hydrophobe
6 5 11 12 13 14 15 rings

> <PUBCHEM_HEAVY_ATOM_COUNT>
15

> <PUBCHEM_ATOM_DEF_STEREO_COUNT>
0

> <PUBCHEM_ATOM_UDEF_STEREO_COUNT>
0

> <PUBCHEM_BOND_DEF_STEREO_COUNT>
0

> <PUBCHEM_BOND_UDEF_STEREO_COUNT>
0

> <PUBCHEM_ISOTOPIC_ATOM_COUNT>
0

> <PUBCHEM_COMPONENT_COUNT>
1

> <PUBCHEM_CACTVS_TAUTO_COUNT>
2

> <PUBCHEM_CONFORMER_ID>
0000226E00000001

> <PUBCHEM_MMFF94_ENERGY>
60.6732

> <PUBCHEM_FEATURE_SELFOVERLAP>
20.297

> <PUBCHEM_SHAPE_FINGERPRINT>
1 1 18122065299635933247
11471102 22 13984658170435925480
12138202 97 18272929444633088966
12251169 10 14923953348599690641
12423570 1 15084294979065354379
124424 183 18201999928641116818
12491281 212 18273493468196309381
12532896 13 18409735040726507851
13299463 15 16200422598337566991
13538477 17 17822291326855117498
13764800 53 18335714831507604569
13839132 238 18413110537123213324
14817 1 11689340854733718479
15375462 478 15647061443078261877
15775835 57 18339078194495494345
16945 1 17988065786023185643
18186145 218 18200036118541666588
18534176 82 18271243927656786518
19837323 101 18335708272823803859
20525323 117 18337111292773698462
20645476 183 17894351081266785547
21296965 12 18260545576729377063
21501502 16 18271800211963701222
21524375 3 18339638928324873163
21947302 44 18059017168310697110
22802520 49 18199766781279703998
23402539 116 18267296706830970519
23419403 2 17194099544908694927
23557571 272 18198918083120765556
23559900 14 18342742906418193234
25 1 17845383149850037993
2748010 2 18262817159083630983
276578 36 18189342281366350763
305870 269 18040992882718168402
430814 3 18041565736850213531
549884 4 17416683544816290937
6333449 129 18343582975122638285
6442390 28 18269297706777891659
7364860 26 17834677097914689979
81228 2 18191593162379223291

> <PUBCHEM_SHAPE_MULTIPOLES>
302.82
5.29
2.15
1.39
2.11
0.81
0.13
-3.45
0.34
-1.29
-0.24
-0.12
0.26
0.01

> <PUBCHEM_SHAPE_SELFOVERLAP>
615.427

> <PUBCHEM_SHAPE_VOLUME>
178.4

> <PUBCHEM_COORDINATE_TYPE>
2
5
10

> <Energy>
46.4329

> <minimizedAffinity>
-7.99939

> <CNNscore>
0.9132197499

> <CNNaffinity>
6.6839423180

> <CNN_VS>
6.1039080620

> <CNNaffinity_variance>
0.2258654237

$$$$
8814


 16 16  0  0  0  0  0  0  0  0999 V2000
   21.7308    4.5241    5.6856 C   0  0  0  0  0  0  0  0  0  0  0  0
   21.9225    3.0010    5.4111 C   0  0  0  0  0  0  0  0  0  0  0  0
   22.6570    4.8260    6.8868 C   0  0  0  0  0  0  0  0  0  0  0  0
   16.1602    5.2285    6.7456 O   0  0  0  0  0  0  0  0  0  0  0  0
   20.2383    4.7395    5.9780 C   0  0  0  0  0  0  0  0  0  0  0  0
   19.5909    3.9627    6.9628 C   0  0  0  0  0  0  0  0  0  0  0  0
   19.4638    5.6891    5.2906 C   0  0  0  0  0  0  0  0  0  0  0  0
   18.2284    4.1141    7.2334 C   0  0  0  0  0  0  0  0  0  0  0  0
   18.1014    5.8410    5.5579 C   0  0  0  0  0  0  0  0  0  0  0  0
   17.4940    5.0509    6.5237 C   0  0  0  0  0  0  0  0  0  0  0  0
   15.7196    4.7112    7.3907 H   0  0  0  0  0  0  0  0  0  0  0  0
   22.2156    5.2902    4.4023 C   0  0  0  0  0  0  0  0  0  0  0  0
   23.6910    5.7747    4.1941 C   0  0  0  0  0  0  0  0  0  0  0  0
   24.1641    5.1928    2.8383 C   0  0  0  0  0  0  0  0  0  0  0  0
   24.6491    5.2582    5.2768 C   0  0  0  0  0  0  0  0  0  0  0  0
   23.8343    7.3016    4.0955 C   0  0  0  0  0  0  0  0  0  0  0  0
  4 10  1  0
  4 11  1  0
  1 12  1  0
  1  5  1  0
  1  2  1  0
  1  3  1  0
 13 12  1  0
 13 14  1  0
 13 15  1  0
 13 16  1  0
  5  6  2  0
  5  7  1  0
  6  8  1  0
  7  9  2  0
  8 10  2  0
  9 10  1  0
M  END
> <PUBCHEM_COMPOUND_CID>
8814

> <PUBCHEM_CONFORMER_RMSD>
0.6

> <PUBCHEM_CONFORMER_DIVERSEORDER>
1
5
4
3
2

> <PUBCHEM_MMFF94_PARTIAL_CHARGES>
13
1 -0.53
11 -0.15
12 -0.15
13 -0.15
14 -0.15
15 0.08
2 0.14
33 0.15
34 0.15
35 0.15
36 0.15
37 0.45
5 -0.14

> <PUBCHEM_EFFECTIVE_ROTOR_COUNT>
3

> <PUBCHEM_PHARMACOPHORE_FEATURES>
4
1 1 donor
3 2 6 7 hydrophobe
4 3 8 9 10 hydrophobe
6 5 11 12 13 14 15 rings

> <PUBCHEM_HEAVY_ATOM_COUNT>
15

> <PUBCHEM_ATOM_DEF_STEREO_COUNT>
0

> <PUBCHEM_ATOM_UDEF_STEREO_COUNT>
0

> <PUBCHEM_BOND_DEF_STEREO_COUNT>
0

> <PUBCHEM_BOND_UDEF_STEREO_COUNT>
0

> <PUBCHEM_ISOTOPIC_ATOM_COUNT>
0

> <PUBCHEM_COMPONENT_COUNT>
1

> <PUBCHEM_CACTVS_TAUTO_COUNT>
2

> <PUBCHEM_CONFORMER_ID>
0000226E00000001

> <PUBCHEM_MMFF94_ENERGY>
60.6732

> <PUBCHEM_FEATURE_SELFOVERLAP>
20.297

> <PUBCHEM_SHAPE_FINGERPRINT>
1 1 18122065299635933247
11471102 22 13984658170435925480
12138202 97 18272929444633088966
12251169 10 14923953348599690641
12423570 1 15084294979065354379
124424 183 18201999928641116818
12491281 212 18273493468196309381
12532896 13 18409735040726507851
13299463 15 16200422598337566991
13538477 17 17822291326855117498
13764800 53 18335714831507604569
13839132 238 18413110537123213324
14817 1 11689340854733718479
15375462 478 15647061443078261877
15775835 57 18339078194495494345
16945 1 17988065786023185643
18186145 218 18200036118541666588
18534176 82 18271243927656786518
19837323 101 18335708272823803859
20525323 117 18337111292773698462
20645476 183 17894351081266785547
21296965 12 18260545576729377063
21501502 16 18271800211963701222
21524375 3 18339638928324873163
21947302 44 18059017168310697110
22802520 49 18199766781279703998
23402539 116 18267296706830970519
23419403 2 17194099544908694927
23557571 272 18198918083120765556
23559900 14 18342742906418193234
25 1 17845383149850037993
2748010 2 18262817159083630983
276578 36 18189342281366350763
305870 269 18040992882718168402
430814 3 18041565736850213531
549884 4 17416683544816290937
6333449 129 18343582975122638285
6442390 28 18269297706777891659
7364860 26 17834677097914689979
81228 2 18191593162379223291

> <PUBCHEM_SHAPE_MULTIPOLES>
302.82
5.29
2.15
1.39
2.11
0.81
0.13
-3.45
0.34
-1.29
-0.24
-0.12
0.26
0.01

> <PUBCHEM_SHAPE_SELFOVERLAP>
615.427

> <PUBCHEM_SHAPE_VOLUME>
178.4

> <PUBCHEM_COORDINATE_TYPE>
2
5
10

> <Energy>
46.4329

> <minimizedAffinity>
-7.56210

> <CNNscore>
0.8989318609

> <CNNaffinity>
7.0383191109

> <CNN_VS>
6.3269691467

> <CNNaffinity_variance>
0.3983322084

$$$$
8814


 16 16  0  0  0  0  0  0  0  0999 V2000
   21.9279    3.8144    5.8748 C   0  0  0  0  0  0  0  0  0  0  0  0
   22.8435    4.8983    6.5217 C   0  0  0  0  0  0  0  0  0  0  0  0
   22.3812    3.7482    4.3977 C   0  0  0  0  0  0  0  0  0  0  0  0
   16.5025    5.4745    6.5544 O   0  0  0  0  0  0  0  0  0  0  0  0
   20.4781    4.2862    6.0628 C   0  0  0  0  0  0  0  0  0  0  0  0
   19.6772    3.7239    7.0799 C   0  0  0  0  0  0  0  0  0  0  0  0
   19.8922    5.2682    5.2463 C   0  0  0  0  0  0  0  0  0  0  0  0
   18.3465    4.1106    7.2593 C   0  0  0  0  0  0  0  0  0  0  0  0
   18.5618    5.6551    5.4225 C   0  0  0  0  0  0  0  0  0  0  0  0
   17.7988    5.0715    6.4242 C   0  0  0  0  0  0  0  0  0  0  0  0
   15.9602    5.1003    7.2206 H   0  0  0  0  0  0  0  0  0  0  0  0
   22.2258    2.4581    6.6101 C   0  0  0  0  0  0  0  0  0  0  0  0
   23.1838    1.3593    6.0358 C   0  0  0  0  0  0  0  0  0  0  0  0
   24.6305    1.8587    6.2777 C   0  0  0  0  0  0  0  0  0  0  0  0
   23.0155    1.1488    4.5244 C   0  0  0  0  0  0  0  0  0  0  0  0
   23.0607   -0.0008    6.7406 C   0  0  0  0  0  0  0  0  0  0  0  0
  4 10  1  0
  4 11  1  0
  1 12  1  0
  1  5  1  0
  1  2  1  0
  1  3  1  0
 13 12  1  0
 13 14  1  0
 13 15  1  0
 13 16  1  0
  5  6  2  0
  5  7  1  0
  6  8  1  0
  7  9  2  0
  8 10  2  0
  9 10  1  0
M  END
> <PUBCHEM_COMPOUND_CID>
8814

> <PUBCHEM_CONFORMER_RMSD>
0.6

> <PUBCHEM_CONFORMER_DIVERSEORDER>
1
5
4
3
2

> <PUBCHEM_MMFF94_PARTIAL_CHARGES>
13
1 -0.53
11 -0.15
12 -0.15
13 -0.15
14 -0.15
15 0.08
2 0.14
33 0.15
34 0.15
35 0.15
36 0.15
37 0.45
5 -0.14

> <PUBCHEM_EFFECTIVE_ROTOR_COUNT>
3

> <PUBCHEM_PHARMACOPHORE_FEATURES>
4
1 1 donor
3 2 6 7 hydrophobe
4 3 8 9 10 hydrophobe
6 5 11 12 13 14 15 rings

> <PUBCHEM_HEAVY_ATOM_COUNT>
15

> <PUBCHEM_ATOM_DEF_STEREO_COUNT>
0

> <PUBCHEM_ATOM_UDEF_STEREO_COUNT>
0

> <PUBCHEM_BOND_DEF_STEREO_COUNT>
0

> <PUBCHEM_BOND_UDEF_STEREO_COUNT>
0

> <PUBCHEM_ISOTOPIC_ATOM_COUNT>
0

> <PUBCHEM_COMPONENT_COUNT>
1

> <PUBCHEM_CACTVS_TAUTO_COUNT>
2

> <PUBCHEM_CONFORMER_ID>
0000226E00000001

> <PUBCHEM_MMFF94_ENERGY>
60.6732

> <PUBCHEM_FEATURE_SELFOVERLAP>
20.297

> <PUBCHEM_SHAPE_FINGERPRINT>
1 1 18122065299635933247
11471102 22 13984658170435925480
12138202 97 18272929444633088966
12251169 10 14923953348599690641
12423570 1 15084294979065354379
124424 183 18201999928641116818
12491281 212 18273493468196309381
12532896 13 18409735040726507851
13299463 15 16200422598337566991
13538477 17 17822291326855117498
13764800 53 18335714831507604569
13839132 238 18413110537123213324
14817 1 11689340854733718479
15375462 478 15647061443078261877
15775835 57 18339078194495494345
16945 1 17988065786023185643
18186145 218 18200036118541666588
18534176 82 18271243927656786518
19837323 101 18335708272823803859
20525323 117 18337111292773698462
20645476 183 17894351081266785547
21296965 12 18260545576729377063
21501502 16 18271800211963701222
21524375 3 18339638928324873163
21947302 44 18059017168310697110
22802520 49 18199766781279703998
23402539 116 18267296706830970519
23419403 2 17194099544908694927
23557571 272 18198918083120765556
23559900 14 18342742906418193234
25 1 17845383149850037993
2748010 2 18262817159083630983
276578 36 18189342281366350763
305870 269 18040992882718168402
430814 3 18041565736850213531
549884 4 17416683544816290937
6333449 129 18343582975122638285
6442390 28 18269297706777891659
7364860 26 17834677097914689979
81228 2 18191593162379223291

> <PUBCHEM_SHAPE_MULTIPOLES>
302.82
5.29
2.15
1.39
2.11
0.81
0.13
-3.45
0.34
-1.29
-0.24
-0.12
0.26
0.01

> <PUBCHEM_SHAPE_SELFOVERLAP>
615.427

> <PUBCHEM_SHAPE_VOLUME>
178.4

> <PUBCHEM_COORDINATE_TYPE>
2
5
10

> <Energy>
46.4329

> <minimizedAffinity>
-7.90652

> <CNNscore>
0.8932403326

> <CNNaffinity>
6.5763106346

> <CNN_VS>
5.8742260933

> <CNNaffinity_variance>
0.1960734129

$$$$
8814


 16 16  0  0  0  0  0  0  0  0999 V2000
   22.1976    4.0228    6.0125 C   0  0  0  0  0  0  0  0  0  0  0  0
   22.6191    3.2626    7.3072 C   0  0  0  0  0  0  0  0  0  0  0  0
   23.1148    5.2673    5.9718 C   0  0  0  0  0  0  0  0  0  0  0  0
   16.6660    5.3445    6.5665 O   0  0  0  0  0  0  0  0  0  0  0  0
   20.7040    4.3520    6.1557 C   0  0  0  0  0  0  0  0  0  0  0  0
   20.1049    5.3056    5.3048 C   0  0  0  0  0  0  0  0  0  0  0  0
   19.8859    3.7421    7.1216 C   0  0  0  0  0  0  0  0  0  0  0  0
   18.7559    5.6484    5.4273 C   0  0  0  0  0  0  0  0  0  0  0  0
   18.5376    4.0844    7.2472 C   0  0  0  0  0  0  0  0  0  0  0  0
   17.9843    5.0364    6.4023 C   0  0  0  0  0  0  0  0  0  0  0  0
   16.2617    5.9830    6.0126 H   0  0  0  0  0  0  0  0  0  0  0  0
   22.4966    3.0708    4.7988 C   0  0  0  0  0  0  0  0  0  0  0  0
   23.2924    1.7278    4.9331 C   0  0  0  0  0  0  0  0  0  0  0  0
   22.2966    0.6720    5.4757 C   0  0  0  0  0  0  0  0  0  0  0  0
   24.4563    1.8187    5.9300 C   0  0  0  0  0  0  0  0  0  0  0  0
   23.8272    1.1876    3.5975 C   0  0  0  0  0  0  0  0  0  0  0  0
  4 10  1  0
  4 11  1  0
  1 12  1  0
  1  5  1  0
  1  2  1  0
  1  3  1  0
 13 12  1  0
 13 14  1  0
 13 15  1  0
 13 16  1  0
  5  6  2  0
  5  7  1  0
  6  8  1  0
  7  9  2  0
  8 10  2  0
  9 10  1  0
M  END
> <PUBCHEM_COMPOUND_CID>
8814

> <PUBCHEM_CONFORMER_RMSD>
0.6

> <PUBCHEM_CONFORMER_DIVERSEORDER>
1
5
4
3
2

> <PUBCHEM_MMFF94_PARTIAL_CHARGES>
13
1 -0.53
11 -0.15
12 -0.15
13 -0.15
14 -0.15
15 0.08
2 0.14
33 0.15
34 0.15
35 0.15
36 0.15
37 0.45
5 -0.14

> <PUBCHEM_EFFECTIVE_ROTOR_COUNT>
3

> <PUBCHEM_PHARMACOPHORE_FEATURES>
4
1 1 donor
3 2 6 7 hydrophobe
4 3 8 9 10 hydrophobe
6 5 11 12 13 14 15 rings

> <PUBCHEM_HEAVY_ATOM_COUNT>
15

> <PUBCHEM_ATOM_DEF_STEREO_COUNT>
0

> <PUBCHEM_ATOM_UDEF_STEREO_COUNT>
0

> <PUBCHEM_BOND_DEF_STEREO_COUNT>
0

> <PUBCHEM_BOND_UDEF_STEREO_COUNT>
0

> <PUBCHEM_ISOTOPIC_ATOM_COUNT>
0

> <PUBCHEM_COMPONENT_COUNT>
1

> <PUBCHEM_CACTVS_TAUTO_COUNT>
2

> <PUBCHEM_CONFORMER_ID>
0000226E00000001

> <PUBCHEM_MMFF94_ENERGY>
60.6732

> <PUBCHEM_FEATURE_SELFOVERLAP>
20.297

> <PUBCHEM_SHAPE_FINGERPRINT>
1 1 18122065299635933247
11471102 22 13984658170435925480
12138202 97 18272929444633088966
12251169 10 14923953348599690641
12423570 1 15084294979065354379
124424 183 18201999928641116818
12491281 212 18273493468196309381
12532896 13 18409735040726507851
13299463 15 16200422598337566991
13538477 17 17822291326855117498
13764800 53 18335714831507604569
13839132 238 18413110537123213324
14817 1 11689340854733718479
15375462 478 15647061443078261877
15775835 57 18339078194495494345
16945 1 17988065786023185643
18186145 218 18200036118541666588
18534176 82 18271243927656786518
19837323 101 18335708272823803859
20525323 117 18337111292773698462
20645476 183 17894351081266785547
21296965 12 18260545576729377063
21501502 16 18271800211963701222
21524375 3 18339638928324873163
21947302 44 18059017168310697110
22802520 49 18199766781279703998
23402539 116 18267296706830970519
23419403 2 17194099544908694927
23557571 272 18198918083120765556
23559900 14 18342742906418193234
25 1 17845383149850037993
2748010 2 18262817159083630983
276578 36 18189342281366350763
305870 269 18040992882718168402
430814 3 18041565736850213531
549884 4 17416683544816290937
6333449 129 18343582975122638285
6442390 28 18269297706777891659
7364860 26 17834677097914689979
81228 2 18191593162379223291

> <PUBCHEM_SHAPE_MULTIPOLES>
302.82
5.29
2.15
1.39
2.11
0.81
0.13
-3.45
0.34
-1.29
-0.24
-0.12
0.26
0.01

> <PUBCHEM_SHAPE_SELFOVERLAP>
615.427

> <PUBCHEM_SHAPE_VOLUME>
178.4

> <PUBCHEM_COORDINATE_TYPE>
2
5
10

> <Energy>
46.4329

> <minimizedAffinity>
-7.92851

> <CNNscore>
0.8899690509

> <CNNaffinity>
6.6642012596

> <CNN_VS>
5.9309329987

> <CNNaffinity_variance>
0.3057536185

$$$$
8814


 16 16  0  0  0  0  0  0  0  0999 V2000
   22.8077    4.7737    4.8393 C   0  0  0  0  0  0  0  0  0  0  0  0
   23.5726    4.7295    6.1974 C   0  0  0  0  0  0  0  0  0  0  0  0
   23.4120    5.9825    4.0875 C   0  0  0  0  0  0  0  0  0  0  0  0
   17.2628    5.4432    6.0470 O   0  0  0  0  0  0  0  0  0  0  0  0
   21.3161    4.9277    5.1730 C   0  0  0  0  0  0  0  0  0  0  0  0
   20.3886    5.2196    4.1499 C   0  0  0  0  0  0  0  0  0  0  0  0
   20.8180    4.7979    6.4804 C   0  0  0  0  0  0  0  0  0  0  0  0
   19.0296    5.3937    4.4242 C   0  0  0  0  0  0  0  0  0  0  0  0
   19.4603    4.9733    6.7572 C   0  0  0  0  0  0  0  0  0  0  0  0
   18.5779    5.2730    5.7288 C   0  0  0  0  0  0  0  0  0  0  0  0
   16.6410    5.6464    5.3762 H   0  0  0  0  0  0  0  0  0  0  0  0
   23.1264    3.4328    4.0848 C   0  0  0  0  0  0  0  0  0  0  0  0
   23.3022    2.0560    4.8119 C   0  0  0  0  0  0  0  0  0  0  0  0
   23.6636    1.0182    3.7196 C   0  0  0  0  0  0  0  0  0  0  0  0
   22.0170    1.5735    5.4990 C   0  0  0  0  0  0  0  0  0  0  0  0
   24.4470    2.0378    5.8369 C   0  0  0  0  0  0  0  0  0  0  0  0
  4 10  1  0
  4 11  1  0
  1 12  1  0
  1  5  1  0
  1  2  1  0
  1  3  1  0
 13 12  1  0
 13 14  1  0
 13 15  1  0
 13 16  1  0
  5  6  2  0
  5  7  1  0
  6  8  1  0
  7  9  2  0
  8 10  2  0
  9 10  1  0
M  END
> <PUBCHEM_COMPOUND_CID>
8814

> <PUBCHEM_CONFORMER_RMSD>
0.6

> <PUBCHEM_CONFORMER_DIVERSEORDER>
1
5
4
3
2

> <PUBCHEM_MMFF94_PARTIAL_CHARGES>
13
1 -0.53
11 -0.15
12 -0.15
13 -0.15
14 -0.15
15 0.08
2 0.14
33 0.15
34 0.15
35 0.15
36 0.15
37 0.45
5 -0.14

> <PUBCHEM_EFFECTIVE_ROTOR_COUNT>
3

> <PUBCHEM_PHARMACOPHORE_FEATURES>
4
1 1 donor
3 2 6 7 hydrophobe
4 3 8 9 10 hydrophobe
6 5 11 12 13 14 15 rings

> <PUBCHEM_HEAVY_ATOM_COUNT>
15

> <PUBCHEM_ATOM_DEF_STEREO_COUNT>
0

> <PUBCHEM_ATOM_UDEF_STEREO_COUNT>
0

> <PUBCHEM_BOND_DEF_STEREO_COUNT>
0

> <PUBCHEM_BOND_UDEF_STEREO_COUNT>
0

> <PUBCHEM_ISOTOPIC_ATOM_COUNT>
0

> <PUBCHEM_COMPONENT_COUNT>
1

> <PUBCHEM_CACTVS_TAUTO_COUNT>
2

> <PUBCHEM_CONFORMER_ID>
0000226E00000001

> <PUBCHEM_MMFF94_ENERGY>
60.6732

> <PUBCHEM_FEATURE_SELFOVERLAP>
20.297

> <PUBCHEM_SHAPE_FINGERPRINT>
1 1 18122065299635933247
11471102 22 13984658170435925480
12138202 97 18272929444633088966
12251169 10 14923953348599690641
12423570 1 15084294979065354379
124424 183 18201999928641116818
12491281 212 18273493468196309381
12532896 13 18409735040726507851
13299463 15 16200422598337566991
13538477 17 17822291326855117498
13764800 53 18335714831507604569
13839132 238 18413110537123213324
14817 1 11689340854733718479
15375462 478 15647061443078261877
15775835 57 18339078194495494345
16945 1 17988065786023185643
18186145 218 18200036118541666588
18534176 82 18271243927656786518
19837323 101 18335708272823803859
20525323 117 18337111292773698462
20645476 183 17894351081266785547
21296965 12 18260545576729377063
21501502 16 18271800211963701222
21524375 3 18339638928324873163
21947302 44 18059017168310697110
22802520 49 18199766781279703998
23402539 116 18267296706830970519
23419403 2 17194099544908694927
23557571 272 18198918083120765556
23559900 14 18342742906418193234
25 1 17845383149850037993
2748010 2 18262817159083630983
276578 36 18189342281366350763
305870 269 18040992882718168402
430814 3 18041565736850213531
549884 4 17416683544816290937
6333449 129 18343582975122638285
6442390 28 18269297706777891659
7364860 26 17834677097914689979
81228 2 18191593162379223291

> <PUBCHEM_SHAPE_MULTIPOLES>
302.82
5.29
2.15
1.39
2.11
0.81
0.13
-3.45
0.34
-1.29
-0.24
-0.12
0.26
0.01

> <PUBCHEM_SHAPE_SELFOVERLAP>
615.427

> <PUBCHEM_SHAPE_VOLUME>
178.4

> <PUBCHEM_COORDINATE_TYPE>
2
5
10

> <Energy>
46.4329

> <minimizedAffinity>
-7.20798

> <CNNscore>
0.8728157282

> <CNNaffinity>
6.7026557922

> <CNN_VS>
5.8501834869

> <CNNaffinity_variance>
0.3438571393

$$$$
8814


 16 16  0  0  0  0  0  0  0  0999 V2000
   22.7768    4.2226    5.9586 C   0  0  0  0  0  0  0  0  0  0  0  0
   23.3662    3.5776    7.2502 C   0  0  0  0  0  0  0  0  0  0  0  0
   23.5477    5.5535    5.7975 C   0  0  0  0  0  0  0  0  0  0  0  0
   17.1632    4.7786    6.8701 O   0  0  0  0  0  0  0  0  0  0  0  0
   21.2694    4.3986    6.1968 C   0  0  0  0  0  0  0  0  0  0  0  0
   20.7227    4.1610    7.4762 C   0  0  0  0  0  0  0  0  0  0  0  0
   20.3843    4.7857    5.1766 C   0  0  0  0  0  0  0  0  0  0  0  0
   19.3523    4.2848    7.7193 C   0  0  0  0  0  0  0  0  0  0  0  0
   19.0139    4.9083    5.4167 C   0  0  0  0  0  0  0  0  0  0  0  0
   18.5084    4.6538    6.6839 C   0  0  0  0  0  0  0  0  0  0  0  0
   16.7897    4.6140    7.7135 H   0  0  0  0  0  0  0  0  0  0  0  0
   23.0942    3.2475    4.7681 C   0  0  0  0  0  0  0  0  0  0  0  0
   23.3629    1.7156    4.9575 C   0  0  0  0  0  0  0  0  0  0  0  0
   23.8304    1.1719    3.5839 C   0  0  0  0  0  0  0  0  0  0  0  0
   22.1051    0.9324    5.3593 C   0  0  0  0  0  0  0  0  0  0  0  0
   24.4821    1.4018    5.9627 C   0  0  0  0  0  0  0  0  0  0  0  0
  4 10  1  0
  4 11  1  0
  1 12  1  0
  1  5  1  0
  1  2  1  0
  1  3  1  0
 13 12  1  0
 13 14  1  0
 13 15  1  0
 13 16  1  0
  5  6  2  0
  5  7  1  0
  6  8  1  0
  7  9  2  0
  8 10  2  0
  9 10  1  0
M  END
> <PUBCHEM_COMPOUND_CID>
8814

> <PUBCHEM_CONFORMER_RMSD>
0.6

> <PUBCHEM_CONFORMER_DIVERSEORDER>
1
5
4
3
2

> <PUBCHEM_MMFF94_PARTIAL_CHARGES>
13
1 -0.53
11 -0.15
12 -0.15
13 -0.15
14 -0.15
15 0.08
2 0.14
33 0.15
34 0.15
35 0.15
36 0.15
37 0.45
5 -0.14

> <PUBCHEM_EFFECTIVE_ROTOR_COUNT>
3

> <PUBCHEM_PHARMACOPHORE_FEATURES>
4
1 1 donor
3 2 6 7 hydrophobe
4 3 8 9 10 hydrophobe
6 5 11 12 13 14 15 rings

> <PUBCHEM_HEAVY_ATOM_COUNT>
15

> <PUBCHEM_ATOM_DEF_STEREO_COUNT>
0

> <PUBCHEM_ATOM_UDEF_STEREO_COUNT>
0

> <PUBCHEM_BOND_DEF_STEREO_COUNT>
0

> <PUBCHEM_BOND_UDEF_STEREO_COUNT>
0

> <PUBCHEM_ISOTOPIC_ATOM_COUNT>
0

> <PUBCHEM_COMPONENT_COUNT>
1

> <PUBCHEM_CACTVS_TAUTO_COUNT>
2

> <PUBCHEM_CONFORMER_ID>
0000226E00000001

> <PUBCHEM_MMFF94_ENERGY>
60.6732

> <PUBCHEM_FEATURE_SELFOVERLAP>
20.297

> <PUBCHEM_SHAPE_FINGERPRINT>
1 1 18122065299635933247
11471102 22 13984658170435925480
12138202 97 18272929444633088966
12251169 10 14923953348599690641
12423570 1 15084294979065354379
124424 183 18201999928641116818
12491281 212 18273493468196309381
12532896 13 18409735040726507851
13299463 15 16200422598337566991
13538477 17 17822291326855117498
13764800 53 18335714831507604569
13839132 238 18413110537123213324
14817 1 11689340854733718479
15375462 478 15647061443078261877
15775835 57 18339078194495494345
16945 1 17988065786023185643
18186145 218 18200036118541666588
18534176 82 18271243927656786518
19837323 101 18335708272823803859
20525323 117 18337111292773698462
20645476 183 17894351081266785547
21296965 12 18260545576729377063
21501502 16 18271800211963701222
21524375 3 18339638928324873163
21947302 44 18059017168310697110
22802520 49 18199766781279703998
23402539 116 18267296706830970519
23419403 2 17194099544908694927
23557571 272 18198918083120765556
23559900 14 18342742906418193234
25 1 17845383149850037993
2748010 2 18262817159083630983
276578 36 18189342281366350763
305870 269 18040992882718168402
430814 3 18041565736850213531
549884 4 17416683544816290937
6333449 129 18343582975122638285
6442390 28 18269297706777891659
7364860 26 17834677097914689979
81228 2 18191593162379223291

> <PUBCHEM_SHAPE_MULTIPOLES>
302.82
5.29
2.15
1.39
2.11
0.81
0.13
-3.45
0.34
-1.29
-0.24
-0.12
0.26
0.01

> <PUBCHEM_SHAPE_SELFOVERLAP>
615.427

> <PUBCHEM_SHAPE_VOLUME>
178.4

> <PUBCHEM_COORDINATE_TYPE>
2
5
10

> <Energy>
46.4329

> <minimizedAffinity>
-7.34491

> <CNNscore>
0.8721368909

> <CNNaffinity>
6.6463799477

> <CNN_VS>
5.7965531349

> <CNNaffinity_variance>
0.3274132013

$$$$
