8814


 16 16  0  0  0  0  0  0  0  0999 V2000
   -1.9967   -3.1649   22.3421 C   0  0  0  0  0  0  0  0  0  0  0  0
   -2.4533   -4.6277   22.6311 C   0  0  0  0  0  0  0  0  0  0  0  0
   -1.3223   -3.2316   20.9520 C   0  0  0  0  0  0  0  0  0  0  0  0
    1.4826   -1.5864   26.5913 O   0  0  0  0  0  0  0  0  0  0  0  0
   -1.0455   -2.7625   23.4792 C   0  0  0  0  0  0  0  0  0  0  0  0
   -1.5206   -2.6883   24.8063 C   0  0  0  0  0  0  0  0  0  0  0  0
    0.3059   -2.4481   23.2572 C   0  0  0  0  0  0  0  0  0  0  0  0
   -0.6887   -2.2983   25.8591 C   0  0  0  0  0  0  0  0  0  0  0  0
    1.1388   -2.0563   24.3076 C   0  0  0  0  0  0  0  0  0  0  0  0
    0.6349   -1.9810   25.5985 C   0  0  0  0  0  0  0  0  0  0  0  0
    1.1741   -1.5252   27.4739 H   0  0  0  0  0  0  0  0  0  0  0  0
   -3.2922   -2.2773   22.2906 C   0  0  0  0  0  0  0  0  0  0  0  0
   -4.2621   -2.2395   21.0605 C   0  0  0  0  0  0  0  0  0  0  0  0
   -5.4977   -1.4104   21.4926 C   0  0  0  0  0  0  0  0  0  0  0  0
   -4.7620   -3.6316   20.6494 C   0  0  0  0  0  0  0  0  0  0  0  0
   -3.6704   -1.5426   19.8254 C   0  0  0  0  0  0  0  0  0  0  0  0
  4 10  1  0
  4 11  1  0
  1 12  1  0
  1  5  1  0
  1  2  1  0
  1  3  1  0
 13 12  1  0
 13 14  1  0
 13 15  1  0
 13 16  1  0
  5  6  2  0
  5  7  1  0
  6  8  1  0
  7  9  2  0
  8 10  2  0
  9 10  1  0
M  END
> <PUBCHEM_COMPOUND_CID>
8814

> <PUBCHEM_CONFORMER_RMSD>
0.6

> <PUBCHEM_CONFORMER_DIVERSEORDER>
1
5
4
3
2

> <PUBCHEM_MMFF94_PARTIAL_CHARGES>
13
1 -0.53
11 -0.15
12 -0.15
13 -0.15
14 -0.15
15 0.08
2 0.14
33 0.15
34 0.15
35 0.15
36 0.15
37 0.45
5 -0.14

> <PUBCHEM_EFFECTIVE_ROTOR_COUNT>
3

> <PUBCHEM_PHARMACOPHORE_FEATURES>
4
1 1 donor
3 2 6 7 hydrophobe
4 3 8 9 10 hydrophobe
6 5 11 12 13 14 15 rings

> <PUBCHEM_HEAVY_ATOM_COUNT>
15

> <PUBCHEM_ATOM_DEF_STEREO_COUNT>
0

> <PUBCHEM_ATOM_UDEF_STEREO_COUNT>
0

> <PUBCHEM_BOND_DEF_STEREO_COUNT>
0

> <PUBCHEM_BOND_UDEF_STEREO_COUNT>
0

> <PUBCHEM_ISOTOPIC_ATOM_COUNT>
0

> <PUBCHEM_COMPONENT_COUNT>
1

> <PUBCHEM_CACTVS_TAUTO_COUNT>
2

> <PUBCHEM_CONFORMER_ID>
0000226E00000001

> <PUBCHEM_MMFF94_ENERGY>
60.6732

> <PUBCHEM_FEATURE_SELFOVERLAP>
20.297

> <PUBCHEM_SHAPE_FINGERPRINT>
1 1 18122065299635933247
11471102 22 13984658170435925480
12138202 97 18272929444633088966
12251169 10 14923953348599690641
12423570 1 15084294979065354379
124424 183 18201999928641116818
12491281 212 18273493468196309381
12532896 13 18409735040726507851
13299463 15 16200422598337566991
13538477 17 17822291326855117498
13764800 53 18335714831507604569
13839132 238 18413110537123213324
14817 1 11689340854733718479
15375462 478 15647061443078261877
15775835 57 18339078194495494345
16945 1 17988065786023185643
18186145 218 18200036118541666588
18534176 82 18271243927656786518
19837323 101 18335708272823803859
20525323 117 18337111292773698462
20645476 183 17894351081266785547
21296965 12 18260545576729377063
21501502 16 18271800211963701222
21524375 3 18339638928324873163
21947302 44 18059017168310697110
22802520 49 18199766781279703998
23402539 116 18267296706830970519
23419403 2 17194099544908694927
23557571 272 18198918083120765556
23559900 14 18342742906418193234
25 1 17845383149850037993
2748010 2 18262817159083630983
276578 36 18189342281366350763
305870 269 18040992882718168402
430814 3 18041565736850213531
549884 4 17416683544816290937
6333449 129 18343582975122638285
6442390 28 18269297706777891659
7364860 26 17834677097914689979
81228 2 18191593162379223291

> <PUBCHEM_SHAPE_MULTIPOLES>
302.82
5.29
2.15
1.39
2.11
0.81
0.13
-3.45
0.34
-1.29
-0.24
-0.12
0.26
0.01

> <PUBCHEM_SHAPE_SELFOVERLAP>
615.427

> <PUBCHEM_SHAPE_VOLUME>
178.4

> <PUBCHEM_COORDINATE_TYPE>
2
5
10

> <Energy>
46.4329

> <minimizedAffinity>
-7.90218

> <CNNscore>
0.9534444809

> <CNNaffinity>
7.1251330376

> <CNN_VS>
6.7934188843

> <CNNaffinity_variance>
0.5308526158

$$$$
8814


 16 16  0  0  0  0  0  0  0  0999 V2000
   -1.9875   -3.5780   22.4800 C   0  0  0  0  0  0  0  0  0  0  0  0
   -3.4584   -3.4113   22.9702 C   0  0  0  0  0  0  0  0  0  0  0  0
   -1.8173   -5.0992   22.2594 C   0  0  0  0  0  0  0  0  0  0  0  0
    1.4400   -1.5113   26.5584 O   0  0  0  0  0  0  0  0  0  0  0  0
   -1.0834   -3.0014   23.5800 C   0  0  0  0  0  0  0  0  0  0  0  0
    0.2421   -2.6209   23.2792 C   0  0  0  0  0  0  0  0  0  0  0  0
   -1.5185   -2.8378   24.9059 C   0  0  0  0  0  0  0  0  0  0  0  0
    1.0990   -2.1195   24.2625 C   0  0  0  0  0  0  0  0  0  0  0  0
   -0.6633   -2.3387   25.8909 C   0  0  0  0  0  0  0  0  0  0  0  0
    0.6385   -1.9869   25.5629 C   0  0  0  0  0  0  0  0  0  0  0  0
    2.3243   -1.2649   26.3705 H   0  0  0  0  0  0  0  0  0  0  0  0
   -1.8618   -2.8007   21.1203 C   0  0  0  0  0  0  0  0  0  0  0  0
   -2.5664   -3.2587   19.7979 C   0  0  0  0  0  0  0  0  0  0  0  0
   -3.7177   -4.2092   20.2125 C   0  0  0  0  0  0  0  0  0  0  0  0
   -1.6345   -4.0435   18.8639 C   0  0  0  0  0  0  0  0  0  0  0  0
   -3.2054   -2.1078   19.0050 C   0  0  0  0  0  0  0  0  0  0  0  0
  4 10  1  0
  4 11  1  0
  1 12  1  0
  1  5  1  0
  1  2  1  0
  1  3  1  0
 13 12  1  0
 13 14  1  0
 13 15  1  0
 13 16  1  0
  5  6  2  0
  5  7  1  0
  6  8  1  0
  7  9  2  0
  8 10  2  0
  9 10  1  0
M  END
> <PUBCHEM_COMPOUND_CID>
8814

> <PUBCHEM_CONFORMER_RMSD>
0.6

> <PUBCHEM_CONFORMER_DIVERSEORDER>
1
5
4
3
2

> <PUBCHEM_MMFF94_PARTIAL_CHARGES>
13
1 -0.53
11 -0.15
12 -0.15
13 -0.15
14 -0.15
15 0.08
2 0.14
33 0.15
34 0.15
35 0.15
36 0.15
37 0.45
5 -0.14

> <PUBCHEM_EFFECTIVE_ROTOR_COUNT>
3

> <PUBCHEM_PHARMACOPHORE_FEATURES>
4
1 1 donor
3 2 6 7 hydrophobe
4 3 8 9 10 hydrophobe
6 5 11 12 13 14 15 rings

> <PUBCHEM_HEAVY_ATOM_COUNT>
15

> <PUBCHEM_ATOM_DEF_STEREO_COUNT>
0

> <PUBCHEM_ATOM_UDEF_STEREO_COUNT>
0

> <PUBCHEM_BOND_DEF_STEREO_COUNT>
0

> <PUBCHEM_BOND_UDEF_STEREO_COUNT>
0

> <PUBCHEM_ISOTOPIC_ATOM_COUNT>
0

> <PUBCHEM_COMPONENT_COUNT>
1

> <PUBCHEM_CACTVS_TAUTO_COUNT>
2

> <PUBCHEM_CONFORMER_ID>
0000226E00000001

> <PUBCHEM_MMFF94_ENERGY>
60.6732

> <PUBCHEM_FEATURE_SELFOVERLAP>
20.297

> <PUBCHEM_SHAPE_FINGERPRINT>
1 1 18122065299635933247
11471102 22 13984658170435925480
12138202 97 18272929444633088966
12251169 10 14923953348599690641
12423570 1 15084294979065354379
124424 183 18201999928641116818
12491281 212 18273493468196309381
12532896 13 18409735040726507851
13299463 15 16200422598337566991
13538477 17 17822291326855117498
13764800 53 18335714831507604569
13839132 238 18413110537123213324
14817 1 11689340854733718479
15375462 478 15647061443078261877
15775835 57 18339078194495494345
16945 1 17988065786023185643
18186145 218 18200036118541666588
18534176 82 18271243927656786518
19837323 101 18335708272823803859
20525323 117 18337111292773698462
20645476 183 17894351081266785547
21296965 12 18260545576729377063
21501502 16 18271800211963701222
21524375 3 18339638928324873163
21947302 44 18059017168310697110
22802520 49 18199766781279703998
23402539 116 18267296706830970519
23419403 2 17194099544908694927
23557571 272 18198918083120765556
23559900 14 18342742906418193234
25 1 17845383149850037993
2748010 2 18262817159083630983
276578 36 18189342281366350763
305870 269 18040992882718168402
430814 3 18041565736850213531
549884 4 17416683544816290937
6333449 129 18343582975122638285
6442390 28 18269297706777891659
7364860 26 17834677097914689979
81228 2 18191593162379223291

> <PUBCHEM_SHAPE_MULTIPOLES>
302.82
5.29
2.15
1.39
2.11
0.81
0.13
-3.45
0.34
-1.29
-0.24
-0.12
0.26
0.01

> <PUBCHEM_SHAPE_SELFOVERLAP>
615.427

> <PUBCHEM_SHAPE_VOLUME>
178.4

> <PUBCHEM_COORDINATE_TYPE>
2
5
10

> <Energy>
46.4329

> <minimizedAffinity>
-7.74277

> <CNNscore>
0.9491937160

> <CNNaffinity>
7.2805290222

> <CNN_VS>
6.9106326103

> <CNNaffinity_variance>
0.6905366778

$$$$
8814


 16 16  0  0  0  0  0  0  0  0999 V2000
   -1.8785   -3.5305   22.1822 C   0  0  0  0  0  0  0  0  0  0  0  0
   -1.8371   -5.0836   22.3168 C   0  0  0  0  0  0  0  0  0  0  0  0
   -1.3001   -3.2427   20.7771 C   0  0  0  0  0  0  0  0  0  0  0  0
    1.3210   -1.4920   26.4553 O   0  0  0  0  0  0  0  0  0  0  0  0
   -1.0356   -2.9612   23.3333 C   0  0  0  0  0  0  0  0  0  0  0  0
    0.3122   -2.6038   23.1139 C   0  0  0  0  0  0  0  0  0  0  0  0
   -1.5499   -2.7821   24.6285 C   0  0  0  0  0  0  0  0  0  0  0  0
    1.1141   -2.1097   24.1460 C   0  0  0  0  0  0  0  0  0  0  0  0
   -0.7498   -2.2901   25.6623 C   0  0  0  0  0  0  0  0  0  0  0  0
    0.5755   -1.9613   25.4143 C   0  0  0  0  0  0  0  0  0  0  0  0
    2.2191   -1.2608   26.3217 H   0  0  0  0  0  0  0  0  0  0  0  0
   -3.3872   -3.0991   22.2624 C   0  0  0  0  0  0  0  0  0  0  0  0
   -3.9691   -1.8563   21.5063 C   0  0  0  0  0  0  0  0  0  0  0  0
   -3.2255   -0.6125   22.0548 C   0  0  0  0  0  0  0  0  0  0  0  0
   -5.4683   -1.6473   21.7629 C   0  0  0  0  0  0  0  0  0  0  0  0
   -3.7270   -1.8842   19.9890 C   0  0  0  0  0  0  0  0  0  0  0  0
  4 10  1  0
  4 11  1  0
  1 12  1  0
  1  5  1  0
  1  2  1  0
  1  3  1  0
 13 12  1  0
 13 14  1  0
 13 15  1  0
 13 16  1  0
  5  6  2  0
  5  7  1  0
  6  8  1  0
  7  9  2  0
  8 10  2  0
  9 10  1  0
M  END
> <PUBCHEM_COMPOUND_CID>
8814

> <PUBCHEM_CONFORMER_RMSD>
0.6

> <PUBCHEM_CONFORMER_DIVERSEORDER>
1
5
4
3
2

> <PUBCHEM_MMFF94_PARTIAL_CHARGES>
13
1 -0.53
11 -0.15
12 -0.15
13 -0.15
14 -0.15
15 0.08
2 0.14
33 0.15
34 0.15
35 0.15
36 0.15
37 0.45
5 -0.14

> <PUBCHEM_EFFECTIVE_ROTOR_COUNT>
3

> <PUBCHEM_PHARMACOPHORE_FEATURES>
4
1 1 donor
3 2 6 7 hydrophobe
4 3 8 9 10 hydrophobe
6 5 11 12 13 14 15 rings

> <PUBCHEM_HEAVY_ATOM_COUNT>
15

> <PUBCHEM_ATOM_DEF_STEREO_COUNT>
0

> <PUBCHEM_ATOM_UDEF_STEREO_COUNT>
0

> <PUBCHEM_BOND_DEF_STEREO_COUNT>
0

> <PUBCHEM_BOND_UDEF_STEREO_COUNT>
0

> <PUBCHEM_ISOTOPIC_ATOM_COUNT>
0

> <PUBCHEM_COMPONENT_COUNT>
1

> <PUBCHEM_CACTVS_TAUTO_COUNT>
2

> <PUBCHEM_CONFORMER_ID>
0000226E00000001

> <PUBCHEM_MMFF94_ENERGY>
60.6732

> <PUBCHEM_FEATURE_SELFOVERLAP>
20.297

> <PUBCHEM_SHAPE_FINGERPRINT>
1 1 18122065299635933247
11471102 22 13984658170435925480
12138202 97 18272929444633088966
12251169 10 14923953348599690641
12423570 1 15084294979065354379
124424 183 18201999928641116818
12491281 212 18273493468196309381
12532896 13 18409735040726507851
13299463 15 16200422598337566991
13538477 17 17822291326855117498
13764800 53 18335714831507604569
13839132 238 18413110537123213324
14817 1 11689340854733718479
15375462 478 15647061443078261877
15775835 57 18339078194495494345
16945 1 17988065786023185643
18186145 218 18200036118541666588
18534176 82 18271243927656786518
19837323 101 18335708272823803859
20525323 117 18337111292773698462
20645476 183 17894351081266785547
21296965 12 18260545576729377063
21501502 16 18271800211963701222
21524375 3 18339638928324873163
21947302 44 18059017168310697110
22802520 49 18199766781279703998
23402539 116 18267296706830970519
23419403 2 17194099544908694927
23557571 272 18198918083120765556
23559900 14 18342742906418193234
25 1 17845383149850037993
2748010 2 18262817159083630983
276578 36 18189342281366350763
305870 269 18040992882718168402
430814 3 18041565736850213531
549884 4 17416683544816290937
6333449 129 18343582975122638285
6442390 28 18269297706777891659
7364860 26 17834677097914689979
81228 2 18191593162379223291

> <PUBCHEM_SHAPE_MULTIPOLES>
302.82
5.29
2.15
1.39
2.11
0.81
0.13
-3.45
0.34
-1.29
-0.24
-0.12
0.26
0.01

> <PUBCHEM_SHAPE_SELFOVERLAP>
615.427

> <PUBCHEM_SHAPE_VOLUME>
178.4

> <PUBCHEM_COORDINATE_TYPE>
2
5
10

> <Energy>
46.4329

> <minimizedAffinity>
-7.91253

> <CNNscore>
0.9446963668

> <CNNaffinity>
7.0820827484

> <CNN_VS>
6.6904177666

> <CNNaffinity_variance>
0.4307753146

$$$$
8814


 16 16  0  0  0  0  0  0  0  0999 V2000
   -1.9582   -3.6300   22.0897 C   0  0  0  0  0  0  0  0  0  0  0  0
   -1.8721   -5.1762   22.2726 C   0  0  0  0  0  0  0  0  0  0  0  0
   -1.4012   -3.3709   20.6705 C   0  0  0  0  0  0  0  0  0  0  0  0
    1.2195   -1.3723   26.2679 O   0  0  0  0  0  0  0  0  0  0  0  0
   -1.1208   -3.0013   23.2137 C   0  0  0  0  0  0  0  0  0  0  0  0
    0.2347   -2.6777   22.9899 C   0  0  0  0  0  0  0  0  0  0  0  0
   -1.6480   -2.7338   24.4884 C   0  0  0  0  0  0  0  0  0  0  0  0
    1.0313   -2.1310   23.9994 C   0  0  0  0  0  0  0  0  0  0  0  0
   -0.8533   -2.1892   25.4995 C   0  0  0  0  0  0  0  0  0  0  0  0
    0.4798   -1.8955   25.2487 C   0  0  0  0  0  0  0  0  0  0  0  0
    2.1226   -1.1628   26.1318 H   0  0  0  0  0  0  0  0  0  0  0  0
   -3.4776   -3.2381   22.1718 C   0  0  0  0  0  0  0  0  0  0  0  0
   -4.0551   -1.9020   21.5919 C   0  0  0  0  0  0  0  0  0  0  0  0
   -4.0480   -2.0460   20.0491 C   0  0  0  0  0  0  0  0  0  0  0  0
   -3.1995   -0.6771   21.9445 C   0  0  0  0  0  0  0  0  0  0  0  0
   -5.5091   -1.6242   22.0045 C   0  0  0  0  0  0  0  0  0  0  0  0
  4 10  1  0
  4 11  1  0
  1 12  1  0
  1  5  1  0
  1  2  1  0
  1  3  1  0
 13 12  1  0
 13 14  1  0
 13 15  1  0
 13 16  1  0
  5  6  2  0
  5  7  1  0
  6  8  1  0
  7  9  2  0
  8 10  2  0
  9 10  1  0
M  END
> <PUBCHEM_COMPOUND_CID>
8814

> <PUBCHEM_CONFORMER_RMSD>
0.6

> <PUBCHEM_CONFORMER_DIVERSEORDER>
1
5
4
3
2

> <PUBCHEM_MMFF94_PARTIAL_CHARGES>
13
1 -0.53
11 -0.15
12 -0.15
13 -0.15
14 -0.15
15 0.08
2 0.14
33 0.15
34 0.15
35 0.15
36 0.15
37 0.45
5 -0.14

> <PUBCHEM_EFFECTIVE_ROTOR_COUNT>
3

> <PUBCHEM_PHARMACOPHORE_FEATURES>
4
1 1 donor
3 2 6 7 hydrophobe
4 3 8 9 10 hydrophobe
6 5 11 12 13 14 15 rings

> <PUBCHEM_HEAVY_ATOM_COUNT>
15

> <PUBCHEM_ATOM_DEF_STEREO_COUNT>
0

> <PUBCHEM_ATOM_UDEF_STEREO_COUNT>
0

> <PUBCHEM_BOND_DEF_STEREO_COUNT>
0

> <PUBCHEM_BOND_UDEF_STEREO_COUNT>
0

> <PUBCHEM_ISOTOPIC_ATOM_COUNT>
0

> <PUBCHEM_COMPONENT_COUNT>
1

> <PUBCHEM_CACTVS_TAUTO_COUNT>
2

> <PUBCHEM_CONFORMER_ID>
0000226E00000001

> <PUBCHEM_MMFF94_ENERGY>
60.6732

> <PUBCHEM_FEATURE_SELFOVERLAP>
20.297

> <PUBCHEM_SHAPE_FINGERPRINT>
1 1 18122065299635933247
11471102 22 13984658170435925480
12138202 97 18272929444633088966
12251169 10 14923953348599690641
12423570 1 15084294979065354379
124424 183 18201999928641116818
12491281 212 18273493468196309381
12532896 13 18409735040726507851
13299463 15 16200422598337566991
13538477 17 17822291326855117498
13764800 53 18335714831507604569
13839132 238 18413110537123213324
14817 1 11689340854733718479
15375462 478 15647061443078261877
15775835 57 18339078194495494345
16945 1 17988065786023185643
18186145 218 18200036118541666588
18534176 82 18271243927656786518
19837323 101 18335708272823803859
20525323 117 18337111292773698462
20645476 183 17894351081266785547
21296965 12 18260545576729377063
21501502 16 18271800211963701222
21524375 3 18339638928324873163
21947302 44 18059017168310697110
22802520 49 18199766781279703998
23402539 116 18267296706830970519
23419403 2 17194099544908694927
23557571 272 18198918083120765556
23559900 14 18342742906418193234
25 1 17845383149850037993
2748010 2 18262817159083630983
276578 36 18189342281366350763
305870 269 18040992882718168402
430814 3 18041565736850213531
549884 4 17416683544816290937
6333449 129 18343582975122638285
6442390 28 18269297706777891659
7364860 26 17834677097914689979
81228 2 18191593162379223291

> <PUBCHEM_SHAPE_MULTIPOLES>
302.82
5.29
2.15
1.39
2.11
0.81
0.13
-3.45
0.34
-1.29
-0.24
-0.12
0.26
0.01

> <PUBCHEM_SHAPE_SELFOVERLAP>
615.427

> <PUBCHEM_SHAPE_VOLUME>
178.4

> <PUBCHEM_COORDINATE_TYPE>
2
5
10

> <Energy>
46.4329

> <minimizedAffinity>
-7.80209

> <CNNscore>
0.9358664155

> <CNNaffinity>
7.0490384102

> <CNN_VS>
6.5969581604

> <CNNaffinity_variance>
0.4428505898

$$$$
8814


 16 16  0  0  0  0  0  0  0  0999 V2000
   -2.6425   -2.5068   22.3785 C   0  0  0  0  0  0  0  0  0  0  0  0
   -3.0859   -1.0408   22.0854 C   0  0  0  0  0  0  0  0  0  0  0  0
   -3.9650   -3.2928   22.5366 C   0  0  0  0  0  0  0  0  0  0  0  0
    0.6199   -2.4172   27.0690 O   0  0  0  0  0  0  0  0  0  0  0  0
   -1.7839   -2.4663   23.6517 C   0  0  0  0  0  0  0  0  0  0  0  0
   -0.4747   -1.9408   23.6058 C   0  0  0  0  0  0  0  0  0  0  0  0
   -2.2454   -2.9465   24.8889 C   0  0  0  0  0  0  0  0  0  0  0  0
    0.3422   -1.9153   24.7391 C   0  0  0  0  0  0  0  0  0  0  0  0
   -1.4301   -2.9238   26.0227 C   0  0  0  0  0  0  0  0  0  0  0  0
   -0.1428   -2.4121   25.9385 C   0  0  0  0  0  0  0  0  0  0  0  0
    1.4934   -2.0790   27.0464 H   0  0  0  0  0  0  0  0  0  0  0  0
   -1.8434   -3.0086   21.1222 C   0  0  0  0  0  0  0  0  0  0  0  0
   -1.2088   -4.4375   21.0191 C   0  0  0  0  0  0  0  0  0  0  0  0
   -1.4531   -4.9302   19.5705 C   0  0  0  0  0  0  0  0  0  0  0  0
   -1.8622   -5.4525   21.9676 C   0  0  0  0  0  0  0  0  0  0  0  0
    0.3112   -4.4587   21.2442 C   0  0  0  0  0  0  0  0  0  0  0  0
  4 10  1  0
  4 11  1  0
  1 12  1  0
  1  5  1  0
  1  2  1  0
  1  3  1  0
 13 12  1  0
 13 14  1  0
 13 15  1  0
 13 16  1  0
  5  6  2  0
  5  7  1  0
  6  8  1  0
  7  9  2  0
  8 10  2  0
  9 10  1  0
M  END
> <PUBCHEM_COMPOUND_CID>
8814

> <PUBCHEM_CONFORMER_RMSD>
0.6

> <PUBCHEM_CONFORMER_DIVERSEORDER>
1
5
4
3
2

> <PUBCHEM_MMFF94_PARTIAL_CHARGES>
13
1 -0.53
11 -0.15
12 -0.15
13 -0.15
14 -0.15
15 0.08
2 0.14
33 0.15
34 0.15
35 0.15
36 0.15
37 0.45
5 -0.14

> <PUBCHEM_EFFECTIVE_ROTOR_COUNT>
3

> <PUBCHEM_PHARMACOPHORE_FEATURES>
4
1 1 donor
3 2 6 7 hydrophobe
4 3 8 9 10 hydrophobe
6 5 11 12 13 14 15 rings

> <PUBCHEM_HEAVY_ATOM_COUNT>
15

> <PUBCHEM_ATOM_DEF_STEREO_COUNT>
0

> <PUBCHEM_ATOM_UDEF_STEREO_COUNT>
0

> <PUBCHEM_BOND_DEF_STEREO_COUNT>
0

> <PUBCHEM_BOND_UDEF_STEREO_COUNT>
0

> <PUBCHEM_ISOTOPIC_ATOM_COUNT>
0

> <PUBCHEM_COMPONENT_COUNT>
1

> <PUBCHEM_CACTVS_TAUTO_COUNT>
2

> <PUBCHEM_CONFORMER_ID>
0000226E00000001

> <PUBCHEM_MMFF94_ENERGY>
60.6732

> <PUBCHEM_FEATURE_SELFOVERLAP>
20.297

> <PUBCHEM_SHAPE_FINGERPRINT>
1 1 18122065299635933247
11471102 22 13984658170435925480
12138202 97 18272929444633088966
12251169 10 14923953348599690641
12423570 1 15084294979065354379
124424 183 18201999928641116818
12491281 212 18273493468196309381
12532896 13 18409735040726507851
13299463 15 16200422598337566991
13538477 17 17822291326855117498
13764800 53 18335714831507604569
13839132 238 18413110537123213324
14817 1 11689340854733718479
15375462 478 15647061443078261877
15775835 57 18339078194495494345
16945 1 17988065786023185643
18186145 218 18200036118541666588
18534176 82 18271243927656786518
19837323 101 18335708272823803859
20525323 117 18337111292773698462
20645476 183 17894351081266785547
21296965 12 18260545576729377063
21501502 16 18271800211963701222
21524375 3 18339638928324873163
21947302 44 18059017168310697110
22802520 49 18199766781279703998
23402539 116 18267296706830970519
23419403 2 17194099544908694927
23557571 272 18198918083120765556
23559900 14 18342742906418193234
25 1 17845383149850037993
2748010 2 18262817159083630983
276578 36 18189342281366350763
305870 269 18040992882718168402
430814 3 18041565736850213531
549884 4 17416683544816290937
6333449 129 18343582975122638285
6442390 28 18269297706777891659
7364860 26 17834677097914689979
81228 2 18191593162379223291

> <PUBCHEM_SHAPE_MULTIPOLES>
302.82
5.29
2.15
1.39
2.11
0.81
0.13
-3.45
0.34
-1.29
-0.24
-0.12
0.26
0.01

> <PUBCHEM_SHAPE_SELFOVERLAP>
615.427

> <PUBCHEM_SHAPE_VOLUME>
178.4

> <PUBCHEM_COORDINATE_TYPE>
2
5
10

> <Energy>
46.4329

> <minimizedAffinity>
-7.37480

> <CNNscore>
0.9334793091

> <CNNaffinity>
7.0506424904

> <CNN_VS>
6.5816287994

> <CNNaffinity_variance>
0.4012513161

$$$$
8814


 16 16  0  0  0  0  0  0  0  0999 V2000
   -2.3297   -3.5604   22.3663 C   0  0  0  0  0  0  0  0  0  0  0  0
   -3.7589   -3.4389   22.9782 C   0  0  0  0  0  0  0  0  0  0  0  0
   -2.1424   -5.0729   22.1036 C   0  0  0  0  0  0  0  0  0  0  0  0
    1.2450   -1.3209   26.2210 O   0  0  0  0  0  0  0  0  0  0  0  0
   -1.3521   -2.9801   23.3994 C   0  0  0  0  0  0  0  0  0  0  0  0
   -1.7760   -2.7565   24.7270 C   0  0  0  0  0  0  0  0  0  0  0  0
   -0.0261   -2.6442   23.0783 C   0  0  0  0  0  0  0  0  0  0  0  0
   -0.9204   -2.2039   25.6836 C   0  0  0  0  0  0  0  0  0  0  0  0
    0.8304   -2.0900   24.0322 C   0  0  0  0  0  0  0  0  0  0  0  0
    0.3763   -1.8711   25.3252 C   0  0  0  0  0  0  0  0  0  0  0  0
    0.9700   -1.1601   27.1022 H   0  0  0  0  0  0  0  0  0  0  0  0
   -2.3346   -2.7571   21.0159 C   0  0  0  0  0  0  0  0  0  0  0  0
   -3.6192   -2.0921   20.4139 C   0  0  0  0  0  0  0  0  0  0  0  0
   -3.2743   -1.6953   18.9563 C   0  0  0  0  0  0  0  0  0  0  0  0
   -4.0340   -0.8126   21.1540 C   0  0  0  0  0  0  0  0  0  0  0  0
   -4.8302   -3.0354   20.3418 C   0  0  0  0  0  0  0  0  0  0  0  0
  4 10  1  0
  4 11  1  0
  1 12  1  0
  1  5  1  0
  1  2  1  0
  1  3  1  0
 13 12  1  0
 13 14  1  0
 13 15  1  0
 13 16  1  0
  5  6  2  0
  5  7  1  0
  6  8  1  0
  7  9  2  0
  8 10  2  0
  9 10  1  0
M  END
> <PUBCHEM_COMPOUND_CID>
8814

> <PUBCHEM_CONFORMER_RMSD>
0.6

> <PUBCHEM_CONFORMER_DIVERSEORDER>
1
5
4
3
2

> <PUBCHEM_MMFF94_PARTIAL_CHARGES>
13
1 -0.53
11 -0.15
12 -0.15
13 -0.15
14 -0.15
15 0.08
2 0.14
33 0.15
34 0.15
35 0.15
36 0.15
37 0.45
5 -0.14

> <PUBCHEM_EFFECTIVE_ROTOR_COUNT>
3

> <PUBCHEM_PHARMACOPHORE_FEATURES>
4
1 1 donor
3 2 6 7 hydrophobe
4 3 8 9 10 hydrophobe
6 5 11 12 13 14 15 rings

> <PUBCHEM_HEAVY_ATOM_COUNT>
15

> <PUBCHEM_ATOM_DEF_STEREO_COUNT>
0

> <PUBCHEM_ATOM_UDEF_STEREO_COUNT>
0

> <PUBCHEM_BOND_DEF_STEREO_COUNT>
0

> <PUBCHEM_BOND_UDEF_STEREO_COUNT>
0

> <PUBCHEM_ISOTOPIC_ATOM_COUNT>
0

> <PUBCHEM_COMPONENT_COUNT>
1

> <PUBCHEM_CACTVS_TAUTO_COUNT>
2

> <PUBCHEM_CONFORMER_ID>
0000226E00000001

> <PUBCHEM_MMFF94_ENERGY>
60.6732

> <PUBCHEM_FEATURE_SELFOVERLAP>
20.297

> <PUBCHEM_SHAPE_FINGERPRINT>
1 1 18122065299635933247
11471102 22 13984658170435925480
12138202 97 18272929444633088966
12251169 10 14923953348599690641
12423570 1 15084294979065354379
124424 183 18201999928641116818
12491281 212 18273493468196309381
12532896 13 18409735040726507851
13299463 15 16200422598337566991
13538477 17 17822291326855117498
13764800 53 18335714831507604569
13839132 238 18413110537123213324
14817 1 11689340854733718479
15375462 478 15647061443078261877
15775835 57 18339078194495494345
16945 1 17988065786023185643
18186145 218 18200036118541666588
18534176 82 18271243927656786518
19837323 101 18335708272823803859
20525323 117 18337111292773698462
20645476 183 17894351081266785547
21296965 12 18260545576729377063
21501502 16 18271800211963701222
21524375 3 18339638928324873163
21947302 44 18059017168310697110
22802520 49 18199766781279703998
23402539 116 18267296706830970519
23419403 2 17194099544908694927
23557571 272 18198918083120765556
23559900 14 18342742906418193234
25 1 17845383149850037993
2748010 2 18262817159083630983
276578 36 18189342281366350763
305870 269 18040992882718168402
430814 3 18041565736850213531
549884 4 17416683544816290937
6333449 129 18343582975122638285
6442390 28 18269297706777891659
7364860 26 17834677097914689979
81228 2 18191593162379223291

> <PUBCHEM_SHAPE_MULTIPOLES>
302.82
5.29
2.15
1.39
2.11
0.81
0.13
-3.45
0.34
-1.29
-0.24
-0.12
0.26
0.01

> <PUBCHEM_SHAPE_SELFOVERLAP>
615.427

> <PUBCHEM_SHAPE_VOLUME>
178.4

> <PUBCHEM_COORDINATE_TYPE>
2
5
10

> <Energy>
46.4329

> <minimizedAffinity>
-7.98919

> <CNNscore>
0.9251804352

> <CNNaffinity>
7.0525584221

> <CNN_VS>
6.5248889923

> <CNNaffinity_variance>
0.5600079894

$$$$
8814


 16 16  0  0  0  0  0  0  0  0999 V2000
   -2.3834   -3.5144   22.4050 C   0  0  0  0  0  0  0  0  0  0  0  0
   -3.8143   -3.2966   22.9852 C   0  0  0  0  0  0  0  0  0  0  0  0
   -2.2675   -5.0442   22.2100 C   0  0  0  0  0  0  0  0  0  0  0  0
    1.2344   -1.2902   26.2282 O   0  0  0  0  0  0  0  0  0  0  0  0
   -1.3948   -2.9387   23.4302 C   0  0  0  0  0  0  0  0  0  0  0  0
   -1.8182   -2.6750   24.7506 C   0  0  0  0  0  0  0  0  0  0  0  0
   -0.0587   -2.6461   23.1085 C   0  0  0  0  0  0  0  0  0  0  0  0
   -0.9520   -2.1253   25.6993 C   0  0  0  0  0  0  0  0  0  0  0  0
    0.8084   -2.0949   24.0545 C   0  0  0  0  0  0  0  0  0  0  0  0
    0.3548   -1.8358   25.3402 C   0  0  0  0  0  0  0  0  0  0  0  0
    0.9601   -1.1030   27.1044 H   0  0  0  0  0  0  0  0  0  0  0  0
   -2.3266   -2.7709   21.0220 C   0  0  0  0  0  0  0  0  0  0  0  0
   -3.5533   -2.0257   20.3935 C   0  0  0  0  0  0  0  0  0  0  0  0
   -4.7323   -3.0311   20.3917 C   0  0  0  0  0  0  0  0  0  0  0  0
   -3.3120   -1.5958   18.9397 C   0  0  0  0  0  0  0  0  0  0  0  0
   -4.0154   -0.8021   21.2002 C   0  0  0  0  0  0  0  0  0  0  0  0
  4 10  1  0
  4 11  1  0
  1 12  1  0
  1  5  1  0
  1  2  1  0
  1  3  1  0
 13 12  1  0
 13 14  1  0
 13 15  1  0
 13 16  1  0
  5  6  2  0
  5  7  1  0
  6  8  1  0
  7  9  2  0
  8 10  2  0
  9 10  1  0
M  END
> <PUBCHEM_COMPOUND_CID>
8814

> <PUBCHEM_CONFORMER_RMSD>
0.6

> <PUBCHEM_CONFORMER_DIVERSEORDER>
1
5
4
3
2

> <PUBCHEM_MMFF94_PARTIAL_CHARGES>
13
1 -0.53
11 -0.15
12 -0.15
13 -0.15
14 -0.15
15 0.08
2 0.14
33 0.15
34 0.15
35 0.15
36 0.15
37 0.45
5 -0.14

> <PUBCHEM_EFFECTIVE_ROTOR_COUNT>
3

> <PUBCHEM_PHARMACOPHORE_FEATURES>
4
1 1 donor
3 2 6 7 hydrophobe
4 3 8 9 10 hydrophobe
6 5 11 12 13 14 15 rings

> <PUBCHEM_HEAVY_ATOM_COUNT>
15

> <PUBCHEM_ATOM_DEF_STEREO_COUNT>
0

> <PUBCHEM_ATOM_UDEF_STEREO_COUNT>
0

> <PUBCHEM_BOND_DEF_STEREO_COUNT>
0

> <PUBCHEM_BOND_UDEF_STEREO_COUNT>
0

> <PUBCHEM_ISOTOPIC_ATOM_COUNT>
0

> <PUBCHEM_COMPONENT_COUNT>
1

> <PUBCHEM_CACTVS_TAUTO_COUNT>
2

> <PUBCHEM_CONFORMER_ID>
0000226E00000001

> <PUBCHEM_MMFF94_ENERGY>
60.6732

> <PUBCHEM_FEATURE_SELFOVERLAP>
20.297

> <PUBCHEM_SHAPE_FINGERPRINT>
1 1 18122065299635933247
11471102 22 13984658170435925480
12138202 97 18272929444633088966
12251169 10 14923953348599690641
12423570 1 15084294979065354379
124424 183 18201999928641116818
12491281 212 18273493468196309381
12532896 13 18409735040726507851
13299463 15 16200422598337566991
13538477 17 17822291326855117498
13764800 53 18335714831507604569
13839132 238 18413110537123213324
14817 1 11689340854733718479
15375462 478 15647061443078261877
15775835 57 18339078194495494345
16945 1 17988065786023185643
18186145 218 18200036118541666588
18534176 82 18271243927656786518
19837323 101 18335708272823803859
20525323 117 18337111292773698462
20645476 183 17894351081266785547
21296965 12 18260545576729377063
21501502 16 18271800211963701222
21524375 3 18339638928324873163
21947302 44 18059017168310697110
22802520 49 18199766781279703998
23402539 116 18267296706830970519
23419403 2 17194099544908694927
23557571 272 18198918083120765556
23559900 14 18342742906418193234
25 1 17845383149850037993
2748010 2 18262817159083630983
276578 36 18189342281366350763
305870 269 18040992882718168402
430814 3 18041565736850213531
549884 4 17416683544816290937
6333449 129 18343582975122638285
6442390 28 18269297706777891659
7364860 26 17834677097914689979
81228 2 18191593162379223291

> <PUBCHEM_SHAPE_MULTIPOLES>
302.82
5.29
2.15
1.39
2.11
0.81
0.13
-3.45
0.34
-1.29
-0.24
-0.12
0.26
0.01

> <PUBCHEM_SHAPE_SELFOVERLAP>
615.427

> <PUBCHEM_SHAPE_VOLUME>
178.4

> <PUBCHEM_COORDINATE_TYPE>
2
5
10

> <Energy>
46.4329

> <minimizedAffinity>
-7.93673

> <CNNscore>
0.9240996242

> <CNNaffinity>
7.0352377892

> <CNN_VS>
6.5012607574

> <CNNaffinity_variance>
0.5618444085

$$$$
8814


 16 16  0  0  0  0  0  0  0  0999 V2000
   -2.3671   -3.5137   22.4279 C   0  0  0  0  0  0  0  0  0  0  0  0
   -3.8040   -3.3863   23.0203 C   0  0  0  0  0  0  0  0  0  0  0  0
   -2.1656   -5.0314   22.2097 C   0  0  0  0  0  0  0  0  0  0  0  0
    1.2682   -1.3042   26.2429 O   0  0  0  0  0  0  0  0  0  0  0  0
   -1.4056   -2.8972   23.4551 C   0  0  0  0  0  0  0  0  0  0  0  0
   -0.0623   -2.6436   23.1037 C   0  0  0  0  0  0  0  0  0  0  0  0
   -1.8046   -2.5731   24.7628 C   0  0  0  0  0  0  0  0  0  0  0  0
    0.8448   -2.1100   24.0229 C   0  0  0  0  0  0  0  0  0  0  0  0
   -0.8993   -2.0414   25.6839 C   0  0  0  0  0  0  0  0  0  0  0  0
    0.4179   -1.8174   25.3084 C   0  0  0  0  0  0  0  0  0  0  0  0
    2.1640   -1.1410   26.0219 H   0  0  0  0  0  0  0  0  0  0  0  0
   -2.3628   -2.7484   21.0556 C   0  0  0  0  0  0  0  0  0  0  0  0
   -3.6383   -2.0802   20.4379 C   0  0  0  0  0  0  0  0  0  0  0  0
   -3.2784   -1.6953   18.9808 C   0  0  0  0  0  0  0  0  0  0  0  0
   -4.0521   -0.7934   21.1657 C   0  0  0  0  0  0  0  0  0  0  0  0
   -4.8540   -3.0171   20.3616 C   0  0  0  0  0  0  0  0  0  0  0  0
  4 10  1  0
  4 11  1  0
  1 12  1  0
  1  5  1  0
  1  2  1  0
  1  3  1  0
 13 12  1  0
 13 14  1  0
 13 15  1  0
 13 16  1  0
  5  6  2  0
  5  7  1  0
  6  8  1  0
  7  9  2  0
  8 10  2  0
  9 10  1  0
M  END
> <PUBCHEM_COMPOUND_CID>
8814

> <PUBCHEM_CONFORMER_RMSD>
0.6

> <PUBCHEM_CONFORMER_DIVERSEORDER>
1
5
4
3
2

> <PUBCHEM_MMFF94_PARTIAL_CHARGES>
13
1 -0.53
11 -0.15
12 -0.15
13 -0.15
14 -0.15
15 0.08
2 0.14
33 0.15
34 0.15
35 0.15
36 0.15
37 0.45
5 -0.14

> <PUBCHEM_EFFECTIVE_ROTOR_COUNT>
3

> <PUBCHEM_PHARMACOPHORE_FEATURES>
4
1 1 donor
3 2 6 7 hydrophobe
4 3 8 9 10 hydrophobe
6 5 11 12 13 14 15 rings

> <PUBCHEM_HEAVY_ATOM_COUNT>
15

> <PUBCHEM_ATOM_DEF_STEREO_COUNT>
0

> <PUBCHEM_ATOM_UDEF_STEREO_COUNT>
0

> <PUBCHEM_BOND_DEF_STEREO_COUNT>
0

> <PUBCHEM_BOND_UDEF_STEREO_COUNT>
0

> <PUBCHEM_ISOTOPIC_ATOM_COUNT>
0

> <PUBCHEM_COMPONENT_COUNT>
1

> <PUBCHEM_CACTVS_TAUTO_COUNT>
2

> <PUBCHEM_CONFORMER_ID>
0000226E00000001

> <PUBCHEM_MMFF94_ENERGY>
60.6732

> <PUBCHEM_FEATURE_SELFOVERLAP>
20.297

> <PUBCHEM_SHAPE_FINGERPRINT>
1 1 18122065299635933247
11471102 22 13984658170435925480
12138202 97 18272929444633088966
12251169 10 14923953348599690641
12423570 1 15084294979065354379
124424 183 18201999928641116818
12491281 212 18273493468196309381
12532896 13 18409735040726507851
13299463 15 16200422598337566991
13538477 17 17822291326855117498
13764800 53 18335714831507604569
13839132 238 18413110537123213324
14817 1 11689340854733718479
15375462 478 15647061443078261877
15775835 57 18339078194495494345
16945 1 17988065786023185643
18186145 218 18200036118541666588
18534176 82 18271243927656786518
19837323 101 18335708272823803859
20525323 117 18337111292773698462
20645476 183 17894351081266785547
21296965 12 18260545576729377063
21501502 16 18271800211963701222
21524375 3 18339638928324873163
21947302 44 18059017168310697110
22802520 49 18199766781279703998
23402539 116 18267296706830970519
23419403 2 17194099544908694927
23557571 272 18198918083120765556
23559900 14 18342742906418193234
25 1 17845383149850037993
2748010 2 18262817159083630983
276578 36 18189342281366350763
305870 269 18040992882718168402
430814 3 18041565736850213531
549884 4 17416683544816290937
6333449 129 18343582975122638285
6442390 28 18269297706777891659
7364860 26 17834677097914689979
81228 2 18191593162379223291

> <PUBCHEM_SHAPE_MULTIPOLES>
302.82
5.29
2.15
1.39
2.11
0.81
0.13
-3.45
0.34
-1.29
-0.24
-0.12
0.26
0.01

> <PUBCHEM_SHAPE_SELFOVERLAP>
615.427

> <PUBCHEM_SHAPE_VOLUME>
178.4

> <PUBCHEM_COORDINATE_TYPE>
2
5
10

> <Energy>
46.4329

> <minimizedAffinity>
-7.97285

> <CNNscore>
0.9175012112

> <CNNaffinity>
6.9664874077

> <CNN_VS>
6.3917608261

> <CNNaffinity_variance>
0.4639095366

$$$$
8814


 16 16  0  0  0  0  0  0  0  0999 V2000
   -2.5310   -2.4810   22.1536 C   0  0  0  0  0  0  0  0  0  0  0  0
   -1.5409   -2.8614   21.0105 C   0  0  0  0  0  0  0  0  0  0  0  0
   -3.0942   -1.1007   21.7420 C   0  0  0  0  0  0  0  0  0  0  0  0
    0.5517   -2.4768   26.9649 O   0  0  0  0  0  0  0  0  0  0  0  0
   -1.7192   -2.4608   23.4575 C   0  0  0  0  0  0  0  0  0  0  0  0
   -0.3581   -2.0873   23.4379 C   0  0  0  0  0  0  0  0  0  0  0  0
   -2.2757   -2.8130   24.6987 C   0  0  0  0  0  0  0  0  0  0  0  0
    0.4155   -2.0856   24.6015 C   0  0  0  0  0  0  0  0  0  0  0  0
   -1.5040   -2.8139   25.8627 C   0  0  0  0  0  0  0  0  0  0  0  0
   -0.1648   -2.4540   25.8049 C   0  0  0  0  0  0  0  0  0  0  0  0
    1.4581   -2.2395   26.9605 H   0  0  0  0  0  0  0  0  0  0  0  0
   -3.6673   -3.5661   22.1618 C   0  0  0  0  0  0  0  0  0  0  0  0
   -4.9074   -3.5221   21.2051 C   0  0  0  0  0  0  0  0  0  0  0  0
   -5.7736   -2.3181   21.6533 C   0  0  0  0  0  0  0  0  0  0  0  0
   -5.7822   -4.7801   21.3006 C   0  0  0  0  0  0  0  0  0  0  0  0
   -4.5452   -3.2832   19.7309 C   0  0  0  0  0  0  0  0  0  0  0  0
  4 10  1  0
  4 11  1  0
  1 12  1  0
  1  5  1  0
  1  2  1  0
  1  3  1  0
 13 12  1  0
 13 14  1  0
 13 15  1  0
 13 16  1  0
  5  6  2  0
  5  7  1  0
  6  8  1  0
  7  9  2  0
  8 10  2  0
  9 10  1  0
M  END
> <PUBCHEM_COMPOUND_CID>
8814

> <PUBCHEM_CONFORMER_RMSD>
0.6

> <PUBCHEM_CONFORMER_DIVERSEORDER>
1
5
4
3
2

> <PUBCHEM_MMFF94_PARTIAL_CHARGES>
13
1 -0.53
11 -0.15
12 -0.15
13 -0.15
14 -0.15
15 0.08
2 0.14
33 0.15
34 0.15
35 0.15
36 0.15
37 0.45
5 -0.14

> <PUBCHEM_EFFECTIVE_ROTOR_COUNT>
3

> <PUBCHEM_PHARMACOPHORE_FEATURES>
4
1 1 donor
3 2 6 7 hydrophobe
4 3 8 9 10 hydrophobe
6 5 11 12 13 14 15 rings

> <PUBCHEM_HEAVY_ATOM_COUNT>
15

> <PUBCHEM_ATOM_DEF_STEREO_COUNT>
0

> <PUBCHEM_ATOM_UDEF_STEREO_COUNT>
0

> <PUBCHEM_BOND_DEF_STEREO_COUNT>
0

> <PUBCHEM_BOND_UDEF_STEREO_COUNT>
0

> <PUBCHEM_ISOTOPIC_ATOM_COUNT>
0

> <PUBCHEM_COMPONENT_COUNT>
1

> <PUBCHEM_CACTVS_TAUTO_COUNT>
2

> <PUBCHEM_CONFORMER_ID>
0000226E00000001

> <PUBCHEM_MMFF94_ENERGY>
60.6732

> <PUBCHEM_FEATURE_SELFOVERLAP>
20.297

> <PUBCHEM_SHAPE_FINGERPRINT>
1 1 18122065299635933247
11471102 22 13984658170435925480
12138202 97 18272929444633088966
12251169 10 14923953348599690641
12423570 1 15084294979065354379
124424 183 18201999928641116818
12491281 212 18273493468196309381
12532896 13 18409735040726507851
13299463 15 16200422598337566991
13538477 17 17822291326855117498
13764800 53 18335714831507604569
13839132 238 18413110537123213324
14817 1 11689340854733718479
15375462 478 15647061443078261877
15775835 57 18339078194495494345
16945 1 17988065786023185643
18186145 218 18200036118541666588
18534176 82 18271243927656786518
19837323 101 18335708272823803859
20525323 117 18337111292773698462
20645476 183 17894351081266785547
21296965 12 18260545576729377063
21501502 16 18271800211963701222
21524375 3 18339638928324873163
21947302 44 18059017168310697110
22802520 49 18199766781279703998
23402539 116 18267296706830970519
23419403 2 17194099544908694927
23557571 272 18198918083120765556
23559900 14 18342742906418193234
25 1 17845383149850037993
2748010 2 18262817159083630983
276578 36 18189342281366350763
305870 269 18040992882718168402
430814 3 18041565736850213531
549884 4 17416683544816290937
6333449 129 18343582975122638285
6442390 28 18269297706777891659
7364860 26 17834677097914689979
81228 2 18191593162379223291

> <PUBCHEM_SHAPE_MULTIPOLES>
302.82
5.29
2.15
1.39
2.11
0.81
0.13
-3.45
0.34
-1.29
-0.24
-0.12
0.26
0.01

> <PUBCHEM_SHAPE_SELFOVERLAP>
615.427

> <PUBCHEM_SHAPE_VOLUME>
178.4

> <PUBCHEM_COORDINATE_TYPE>
2
5
10

> <Energy>
46.4329

> <minimizedAffinity>
-7.19806

> <CNNscore>
0.9158644080

> <CNNaffinity>
6.8968405724

> <CNN_VS>
6.3165707588

> <CNNaffinity_variance>
0.4761884212

$$$$
