5991


 24 27  0  0  0  0  0  0  0  0999 V2000
   -9.8688   -3.4464    8.4869 O   0  0  0  0  0  0  0  0  0  0  0  0
   -3.7681   -3.9041   17.6036 O   0  0  0  0  0  0  0  0  0  0  0  0
   -8.4080   -3.9363   10.4208 C   0  0  0  0  0  0  0  0  0  0  0  0
   -7.2906   -4.9929   10.5808 C   0  0  0  0  0  0  0  0  0  0  0  0
   -6.3379   -4.6723   11.7352 C   0  0  0  0  0  0  0  0  0  0  0  0
   -9.1117   -4.4635    9.1313 C   0  0  0  0  0  0  0  0  0  0  0  0
   -7.1492   -4.6437   13.0653 C   0  0  0  0  0  0  0  0  0  0  0  0
   -9.2341   -3.9166   11.7208 C   0  0  0  0  0  0  0  0  0  0  0  0
   -6.7174   -5.1221    9.1719 C   0  0  0  0  0  0  0  0  0  0  0  0
   -8.3568   -3.6757   12.9653 C   0  0  0  0  0  0  0  0  0  0  0  0
   -7.9179   -4.8872    8.2347 C   0  0  0  0  0  0  0  0  0  0  0  0
   -5.2085   -5.6972   11.8635 C   0  0  0  0  0  0  0  0  0  0  0  0
   -7.8734   -2.4960   10.1651 C   0  0  0  0  0  0  0  0  0  0  0  0
   -6.2339   -4.4121   14.2671 C   0  0  0  0  0  0  0  0  0  0  0  0
   -4.2156   -5.2424   12.9283 C   0  0  0  0  0  0  0  0  0  0  0  0
   -4.8622   -4.7413   14.1957 C   0  0  0  0  0  0  0  0  0  0  0  0
   -6.7453   -3.9571   15.4945 C   0  0  0  0  0  0  0  0  0  0  0  0
   -4.0355   -4.5543   15.3201 C   0  0  0  0  0  0  0  0  0  0  0  0
   -5.9137   -3.7850   16.6094 C   0  0  0  0  0  0  0  0  0  0  0  0
   -4.5631   -4.0812   16.5104 C   0  0  0  0  0  0  0  0  0  0  0  0
   -9.3016   -2.6773    8.3206 H   0  0  0  0  0  0  0  0  0  0  0  0
   -2.8531   -4.0994   17.5540 H   0  0  0  0  0  0  0  0  0  0  0  0
  -10.0026   -5.6150    9.3686 C   0  0  0  0  0  0  0  0  0  0  0  0
  -10.7250   -6.5546    9.5768 C   0  0  0  0  0  0  0  0  0  0  0  0
  1  6  1  0
  1 21  1  0
  2 20  1  0
  2 22  1  0
  3  4  1  0
  3  6  1  0
  3  8  1  0
  3 13  1  0
  4  5  1  0
  4  9  1  0
  5  7  1  0
  5 12  1  0
  6 11  1  0
  6 23  1  0
  7 10  1  0
  7 14  1  0
  8 10  1  0
  9 11  1  0
 12 15  1  0
 14 16  2  0
 14 17  1  0
 15 16  1  0
 16 18  1  0
 23 24  3  0
 17 19  2  0
 18 20  2  0
 19 20  1  0
M  END
> <PUBCHEM_COMPOUND_CID>
5991

> <PUBCHEM_CONFORMER_RMSD>
0.6

> <PUBCHEM_CONFORMER_DIVERSEORDER>
1

> <PUBCHEM_MMFF94_PARTIAL_CHARGES>
19
1 -0.68
14 -0.14
15 0.14
16 -0.14
17 -0.2
18 -0.15
19 -0.15
2 -0.53
20 -0.15
21 0.08
22 -0.18
41 0.4
42 0.15
43 0.15
44 0.15
45 0.18
46 0.45
6 0.48
7 0.14

> <PUBCHEM_EFFECTIVE_ROTOR_COUNT>
1.4

> <PUBCHEM_PHARMACOPHORE_FEATURES>
8
1 1 acceptor
1 1 donor
1 2 donor
1 22 hydrophobe
5 3 4 6 9 11 rings
6 14 16 18 19 20 21 rings
6 3 4 5 7 8 10 rings
6 5 7 12 14 15 16 rings

> <PUBCHEM_HEAVY_ATOM_COUNT>
22

> <PUBCHEM_ATOM_DEF_STEREO_COUNT>
5

> <PUBCHEM_ATOM_UDEF_STEREO_COUNT>
0

> <PUBCHEM_BOND_DEF_STEREO_COUNT>
0

> <PUBCHEM_BOND_UDEF_STEREO_COUNT>
0

> <PUBCHEM_ISOTOPIC_ATOM_COUNT>
0

> <PUBCHEM_COMPONENT_COUNT>
1

> <PUBCHEM_CACTVS_TAUTO_COUNT>
9

> <PUBCHEM_CONFORMER_ID>
0000176700000001

> <PUBCHEM_MMFF94_ENERGY>
75.3654

> <PUBCHEM_FEATURE_SELFOVERLAP>
40.689

> <PUBCHEM_SHAPE_FINGERPRINT>
10498660 4 18334565854482978588
10616163 171 18412261769892000550
10906281 52 18268729332496851400
10967382 1 18409163299196382730
11132069 177 18260823830106114581
11315181 36 17846777438100329984
11552529 35 18058445585631877095
11578080 2 16952518088400902894
11796584 16 15123796154675551020
12107183 9 17697047933183828707
12236239 1 17917992754997443209
12403259 415 18260540148118003532
12403814 3 17531241756051219503
12633257 1 18411416168188185458
12644460 14 18260827060354363322
12788726 201 17059505002047033793
128620 24 17385724690407290772
13140716 1 18264499557760559337
13224815 77 18408318891198213202
13675066 3 17749393654488776519
14790565 3 18338806709892665688
15163728 17 15481289097577292713
15183329 4 18408605830407435614
15196674 1 18337388339818468438
15209289 33 18341332270467662817
15209294 21 18059584555192331817
15309172 13 18409451371427638915
15536298 74 18341610425830279326
15788980 27 17749105603943632888
16945 1 18265320738190372627
17349148 13 18114176445825312880
1813 80 17530976782159466655
18186145 218 18409161126111612646
19489759 90 15410896249631894657
19591789 44 18193273216009210722
200 152 17918273168974754922
21033648 29 17968079933063946356
21267235 1 18338240469814837151
21623110 236 18263368155990106261
23402539 116 18410566319162361766
23402655 69 18201721773563375622
23559900 14 18341325700027887232
335352 9 18410007719541319564
34934 24 18335695014618288215
350125 39 18408603674022772468
3545911 37 18408602569419241710
3680242 22 18335416829913620042
4214541 1 18412824715549947695
474 4 18408605889666299408
5104073 3 18339077194179428906
542803 24 17561084709247609168
59755656 215 18335983078396721054
633830 44 18202282537272954908
9709674 26 18410014338397756278

> <PUBCHEM_SHAPE_MULTIPOLES>
441.01
10.64
2.03
1.22
7.18
0.55
-0.05
-1.94
-1.01
0.21
-0.15
-1.94
-0.33
-0.49

> <PUBCHEM_SHAPE_SELFOVERLAP>
961.464

> <PUBCHEM_SHAPE_VOLUME>
238.8

> <PUBCHEM_COORDINATE_TYPE>
2
5
10

> <Energy>
61.5647

> <minimizedAffinity>
-9.44238

> <CNNscore>
0.9275830388

> <CNNaffinity>
8.4184761047

> <CNN_VS>
7.8088355064

> <CNNaffinity_variance>
1.0380676985

$$$$
5991


 24 27  0  0  0  0  0  0  0  0999 V2000
  -10.7557   -2.5612   10.4640 O   0  0  0  0  0  0  0  0  0  0  0  0
   -2.5548   -4.6927   17.4457 O   0  0  0  0  0  0  0  0  0  0  0  0
   -8.7920   -3.3249   11.7583 C   0  0  0  0  0  0  0  0  0  0  0  0
   -7.5114   -4.0517   11.2867 C   0  0  0  0  0  0  0  0  0  0  0  0
   -6.3640   -3.9357   12.2932 C   0  0  0  0  0  0  0  0  0  0  0  0
   -9.7021   -3.5160   10.5047 C   0  0  0  0  0  0  0  0  0  0  0  0
   -6.8048   -4.5886   13.6377 C   0  0  0  0  0  0  0  0  0  0  0  0
   -9.2531   -3.9787   13.0746 C   0  0  0  0  0  0  0  0  0  0  0  0
   -7.3009   -3.5211    9.8709 C   0  0  0  0  0  0  0  0  0  0  0  0
   -8.1414   -3.9855   14.1427 C   0  0  0  0  0  0  0  0  0  0  0  0
   -8.7215   -3.2772    9.3259 C   0  0  0  0  0  0  0  0  0  0  0  0
   -5.0852   -4.6197   11.8039 C   0  0  0  0  0  0  0  0  0  0  0  0
   -8.5861   -1.8034   12.0196 C   0  0  0  0  0  0  0  0  0  0  0  0
   -5.6662   -4.5789   14.6572 C   0  0  0  0  0  0  0  0  0  0  0  0
   -3.9444   -4.3409   12.7773 C   0  0  0  0  0  0  0  0  0  0  0  0
   -4.3225   -4.5049   14.2284 C   0  0  0  0  0  0  0  0  0  0  0  0
   -5.9179   -4.7361   16.0309 C   0  0  0  0  0  0  0  0  0  0  0  0
   -3.2806   -4.5300   15.1752 C   0  0  0  0  0  0  0  0  0  0  0  0
   -4.8714   -4.7701   16.9623 C   0  0  0  0  0  0  0  0  0  0  0  0
   -3.5602   -4.6617   16.5256 C   0  0  0  0  0  0  0  0  0  0  0  0
  -10.3847   -1.6673   10.5292 H   0  0  0  0  0  0  0  0  0  0  0  0
   -1.6629   -4.6206   17.1677 H   0  0  0  0  0  0  0  0  0  0  0  0
  -10.3002   -4.8606   10.4036 C   0  0  0  0  0  0  0  0  0  0  0  0
  -10.7834   -5.9605   10.3354 C   0  0  0  0  0  0  0  0  0  0  0  0
  1  6  1  0
  1 21  1  0
  2 20  1  0
  2 22  1  0
  3  4  1  0
  3  6  1  0
  3  8  1  0
  3 13  1  0
  4  5  1  0
  4  9  1  0
  5  7  1  0
  5 12  1  0
  6 11  1  0
  6 23  1  0
  7 10  1  0
  7 14  1  0
  8 10  1  0
  9 11  1  0
 12 15  1  0
 14 16  2  0
 14 17  1  0
 15 16  1  0
 16 18  1  0
 23 24  3  0
 17 19  2  0
 18 20  2  0
 19 20  1  0
M  END
> <PUBCHEM_COMPOUND_CID>
5991

> <PUBCHEM_CONFORMER_RMSD>
0.6

> <PUBCHEM_CONFORMER_DIVERSEORDER>
1

> <PUBCHEM_MMFF94_PARTIAL_CHARGES>
19
1 -0.68
14 -0.14
15 0.14
16 -0.14
17 -0.2
18 -0.15
19 -0.15
2 -0.53
20 -0.15
21 0.08
22 -0.18
41 0.4
42 0.15
43 0.15
44 0.15
45 0.18
46 0.45
6 0.48
7 0.14

> <PUBCHEM_EFFECTIVE_ROTOR_COUNT>
1.4

> <PUBCHEM_PHARMACOPHORE_FEATURES>
8
1 1 acceptor
1 1 donor
1 2 donor
1 22 hydrophobe
5 3 4 6 9 11 rings
6 14 16 18 19 20 21 rings
6 3 4 5 7 8 10 rings
6 5 7 12 14 15 16 rings

> <PUBCHEM_HEAVY_ATOM_COUNT>
22

> <PUBCHEM_ATOM_DEF_STEREO_COUNT>
5

> <PUBCHEM_ATOM_UDEF_STEREO_COUNT>
0

> <PUBCHEM_BOND_DEF_STEREO_COUNT>
0

> <PUBCHEM_BOND_UDEF_STEREO_COUNT>
0

> <PUBCHEM_ISOTOPIC_ATOM_COUNT>
0

> <PUBCHEM_COMPONENT_COUNT>
1

> <PUBCHEM_CACTVS_TAUTO_COUNT>
9

> <PUBCHEM_CONFORMER_ID>
0000176700000001

> <PUBCHEM_MMFF94_ENERGY>
75.3654

> <PUBCHEM_FEATURE_SELFOVERLAP>
40.689

> <PUBCHEM_SHAPE_FINGERPRINT>
10498660 4 18334565854482978588
10616163 171 18412261769892000550
10906281 52 18268729332496851400
10967382 1 18409163299196382730
11132069 177 18260823830106114581
11315181 36 17846777438100329984
11552529 35 18058445585631877095
11578080 2 16952518088400902894
11796584 16 15123796154675551020
12107183 9 17697047933183828707
12236239 1 17917992754997443209
12403259 415 18260540148118003532
12403814 3 17531241756051219503
12633257 1 18411416168188185458
12644460 14 18260827060354363322
12788726 201 17059505002047033793
128620 24 17385724690407290772
13140716 1 18264499557760559337
13224815 77 18408318891198213202
13675066 3 17749393654488776519
14790565 3 18338806709892665688
15163728 17 15481289097577292713
15183329 4 18408605830407435614
15196674 1 18337388339818468438
15209289 33 18341332270467662817
15209294 21 18059584555192331817
15309172 13 18409451371427638915
15536298 74 18341610425830279326
15788980 27 17749105603943632888
16945 1 18265320738190372627
17349148 13 18114176445825312880
1813 80 17530976782159466655
18186145 218 18409161126111612646
19489759 90 15410896249631894657
19591789 44 18193273216009210722
200 152 17918273168974754922
21033648 29 17968079933063946356
21267235 1 18338240469814837151
21623110 236 18263368155990106261
23402539 116 18410566319162361766
23402655 69 18201721773563375622
23559900 14 18341325700027887232
335352 9 18410007719541319564
34934 24 18335695014618288215
350125 39 18408603674022772468
3545911 37 18408602569419241710
3680242 22 18335416829913620042
4214541 1 18412824715549947695
474 4 18408605889666299408
5104073 3 18339077194179428906
542803 24 17561084709247609168
59755656 215 18335983078396721054
633830 44 18202282537272954908
9709674 26 18410014338397756278

> <PUBCHEM_SHAPE_MULTIPOLES>
441.01
10.64
2.03
1.22
7.18
0.55
-0.05
-1.94
-1.01
0.21
-0.15
-1.94
-0.33
-0.49

> <PUBCHEM_SHAPE_SELFOVERLAP>
961.464

> <PUBCHEM_SHAPE_VOLUME>
238.8

> <PUBCHEM_COORDINATE_TYPE>
2
5
10

> <Energy>
61.5647

> <minimizedAffinity>
-6.67828

> <CNNscore>
0.6810357571

> <CNNaffinity>
7.8347010612

> <CNN_VS>
5.3357114792

> <CNNaffinity_variance>
1.0405069590

$$$$
5991


 24 27  0  0  0  0  0  0  0  0999 V2000
   -8.7269   -6.6921    8.2271 O   0  0  0  0  0  0  0  0  0  0  0  0
   -3.8710   -4.3470   17.7907 O   0  0  0  0  0  0  0  0  0  0  0  0
   -7.9362   -5.8854   10.4267 C   0  0  0  0  0  0  0  0  0  0  0  0
   -8.7045   -5.1586   11.5545 C   0  0  0  0  0  0  0  0  0  0  0  0
   -7.9884   -5.2440   12.9046 C   0  0  0  0  0  0  0  0  0  0  0  0
   -8.9488   -5.7283    9.2493 C   0  0  0  0  0  0  0  0  0  0  0  0
   -6.5910   -4.5661   12.7780 C   0  0  0  0  0  0  0  0  0  0  0  0
   -6.5615   -5.2074   10.2737 C   0  0  0  0  0  0  0  0  0  0  0  0
  -10.1204   -5.7176   11.4391 C   0  0  0  0  0  0  0  0  0  0  0  0
   -5.7796   -5.1690   11.6018 C   0  0  0  0  0  0  0  0  0  0  0  0
  -10.3176   -5.9844    9.9343 C   0  0  0  0  0  0  0  0  0  0  0  0
   -8.7729   -4.5603   14.0271 C   0  0  0  0  0  0  0  0  0  0  0  0
   -7.7008   -7.3993   10.7067 C   0  0  0  0  0  0  0  0  0  0  0  0
   -5.8623   -4.5450   14.1212 C   0  0  0  0  0  0  0  0  0  0  0  0
   -8.0844   -4.8092   15.3652 C   0  0  0  0  0  0  0  0  0  0  0  0
   -6.5886   -4.6174   15.3304 C   0  0  0  0  0  0  0  0  0  0  0  0
   -4.4708   -4.3606   14.1915 C   0  0  0  0  0  0  0  0  0  0  0  0
   -5.9088   -4.5638   16.5624 C   0  0  0  0  0  0  0  0  0  0  0  0
   -3.8073   -4.2984   15.4243 C   0  0  0  0  0  0  0  0  0  0  0  0
   -4.5331   -4.4056   16.6005 C   0  0  0  0  0  0  0  0  0  0  0  0
   -8.7323   -7.5814    8.6144 H   0  0  0  0  0  0  0  0  0  0  0  0
   -4.3462   -4.4179   18.5951 H   0  0  0  0  0  0  0  0  0  0  0  0
   -8.9343   -4.3910    8.6270 C   0  0  0  0  0  0  0  0  0  0  0  0
   -8.9250   -3.2937    8.1331 C   0  0  0  0  0  0  0  0  0  0  0  0
  1  6  1  0
  1 21  1  0
  2 20  1  0
  2 22  1  0
  3  4  1  0
  3  6  1  0
  3  8  1  0
  3 13  1  0
  4  5  1  0
  4  9  1  0
  5  7  1  0
  5 12  1  0
  6 11  1  0
  6 23  1  0
  7 10  1  0
  7 14  1  0
  8 10  1  0
  9 11  1  0
 12 15  1  0
 14 16  2  0
 14 17  1  0
 15 16  1  0
 16 18  1  0
 23 24  3  0
 17 19  2  0
 18 20  2  0
 19 20  1  0
M  END
> <PUBCHEM_COMPOUND_CID>
5991

> <PUBCHEM_CONFORMER_RMSD>
0.6

> <PUBCHEM_CONFORMER_DIVERSEORDER>
1

> <PUBCHEM_MMFF94_PARTIAL_CHARGES>
19
1 -0.68
14 -0.14
15 0.14
16 -0.14
17 -0.2
18 -0.15
19 -0.15
2 -0.53
20 -0.15
21 0.08
22 -0.18
41 0.4
42 0.15
43 0.15
44 0.15
45 0.18
46 0.45
6 0.48
7 0.14

> <PUBCHEM_EFFECTIVE_ROTOR_COUNT>
1.4

> <PUBCHEM_PHARMACOPHORE_FEATURES>
8
1 1 acceptor
1 1 donor
1 2 donor
1 22 hydrophobe
5 3 4 6 9 11 rings
6 14 16 18 19 20 21 rings
6 3 4 5 7 8 10 rings
6 5 7 12 14 15 16 rings

> <PUBCHEM_HEAVY_ATOM_COUNT>
22

> <PUBCHEM_ATOM_DEF_STEREO_COUNT>
5

> <PUBCHEM_ATOM_UDEF_STEREO_COUNT>
0

> <PUBCHEM_BOND_DEF_STEREO_COUNT>
0

> <PUBCHEM_BOND_UDEF_STEREO_COUNT>
0

> <PUBCHEM_ISOTOPIC_ATOM_COUNT>
0

> <PUBCHEM_COMPONENT_COUNT>
1

> <PUBCHEM_CACTVS_TAUTO_COUNT>
9

> <PUBCHEM_CONFORMER_ID>
0000176700000001

> <PUBCHEM_MMFF94_ENERGY>
75.3654

> <PUBCHEM_FEATURE_SELFOVERLAP>
40.689

> <PUBCHEM_SHAPE_FINGERPRINT>
10498660 4 18334565854482978588
10616163 171 18412261769892000550
10906281 52 18268729332496851400
10967382 1 18409163299196382730
11132069 177 18260823830106114581
11315181 36 17846777438100329984
11552529 35 18058445585631877095
11578080 2 16952518088400902894
11796584 16 15123796154675551020
12107183 9 17697047933183828707
12236239 1 17917992754997443209
12403259 415 18260540148118003532
12403814 3 17531241756051219503
12633257 1 18411416168188185458
12644460 14 18260827060354363322
12788726 201 17059505002047033793
128620 24 17385724690407290772
13140716 1 18264499557760559337
13224815 77 18408318891198213202
13675066 3 17749393654488776519
14790565 3 18338806709892665688
15163728 17 15481289097577292713
15183329 4 18408605830407435614
15196674 1 18337388339818468438
15209289 33 18341332270467662817
15209294 21 18059584555192331817
15309172 13 18409451371427638915
15536298 74 18341610425830279326
15788980 27 17749105603943632888
16945 1 18265320738190372627
17349148 13 18114176445825312880
1813 80 17530976782159466655
18186145 218 18409161126111612646
19489759 90 15410896249631894657
19591789 44 18193273216009210722
200 152 17918273168974754922
21033648 29 17968079933063946356
21267235 1 18338240469814837151
21623110 236 18263368155990106261
23402539 116 18410566319162361766
23402655 69 18201721773563375622
23559900 14 18341325700027887232
335352 9 18410007719541319564
34934 24 18335695014618288215
350125 39 18408603674022772468
3545911 37 18408602569419241710
3680242 22 18335416829913620042
4214541 1 18412824715549947695
474 4 18408605889666299408
5104073 3 18339077194179428906
542803 24 17561084709247609168
59755656 215 18335983078396721054
633830 44 18202282537272954908
9709674 26 18410014338397756278

> <PUBCHEM_SHAPE_MULTIPOLES>
441.01
10.64
2.03
1.22
7.18
0.55
-0.05
-1.94
-1.01
0.21
-0.15
-1.94
-0.33
-0.49

> <PUBCHEM_SHAPE_SELFOVERLAP>
961.464

> <PUBCHEM_SHAPE_VOLUME>
238.8

> <PUBCHEM_COORDINATE_TYPE>
2
5
10

> <Energy>
61.5647

> <minimizedAffinity>
-8.79274

> <CNNscore>
0.3892607689

> <CNNaffinity>
7.5823311806

> <CNN_VS>
2.9515039921

> <CNNaffinity_variance>
0.4536887407

$$$$
5991


 24 27  0  0  0  0  0  0  0  0999 V2000
  -10.3368   -6.4721    8.8946 O   0  0  0  0  0  0  0  0  0  0  0  0
   -4.0779   -4.0813   17.5924 O   0  0  0  0  0  0  0  0  0  0  0  0
   -8.8536   -5.5759   10.6584 C   0  0  0  0  0  0  0  0  0  0  0  0
   -8.4695   -4.1148   10.9874 C   0  0  0  0  0  0  0  0  0  0  0  0
   -7.9119   -3.9574   12.4042 C   0  0  0  0  0  0  0  0  0  0  0  0
   -9.4815   -5.3899    9.2416 C   0  0  0  0  0  0  0  0  0  0  0  0
   -6.6222   -4.8219   12.5374 C   0  0  0  0  0  0  0  0  0  0  0  0
   -7.5808   -6.4374   10.7613 C   0  0  0  0  0  0  0  0  0  0  0  0
   -9.7145   -3.3223   10.5975 C   0  0  0  0  0  0  0  0  0  0  0  0
   -6.8897   -6.2947   12.1320 C   0  0  0  0  0  0  0  0  0  0  0  0
  -10.3091   -4.0866    9.3988 C   0  0  0  0  0  0  0  0  0  0  0  0
   -7.5729   -2.5034   12.7412 C   0  0  0  0  0  0  0  0  0  0  0  0
   -9.9215   -6.1729   11.6221 C   0  0  0  0  0  0  0  0  0  0  0  0
   -5.9714   -4.6375   13.9079 C   0  0  0  0  0  0  0  0  0  0  0  0
   -7.1668   -2.3933   14.2074 C   0  0  0  0  0  0  0  0  0  0  0  0
   -6.2074   -3.4656   14.6602 C   0  0  0  0  0  0  0  0  0  0  0  0
   -5.0556   -5.5773   14.4111 C   0  0  0  0  0  0  0  0  0  0  0  0
   -5.5762   -3.2922   15.9069 C   0  0  0  0  0  0  0  0  0  0  0  0
   -4.4260   -5.3880   15.6487 C   0  0  0  0  0  0  0  0  0  0  0  0
   -4.6962   -4.2474   16.3888 C   0  0  0  0  0  0  0  0  0  0  0  0
  -11.0020   -6.5944    9.5899 H   0  0  0  0  0  0  0  0  0  0  0  0
   -4.2492   -3.3162   18.1054 H   0  0  0  0  0  0  0  0  0  0  0  0
   -8.4849   -5.2322    8.1655 C   0  0  0  0  0  0  0  0  0  0  0  0
   -7.6723   -5.1188    7.2853 C   0  0  0  0  0  0  0  0  0  0  0  0
  1  6  1  0
  1 21  1  0
  2 20  1  0
  2 22  1  0
  3  4  1  0
  3  6  1  0
  3  8  1  0
  3 13  1  0
  4  5  1  0
  4  9  1  0
  5  7  1  0
  5 12  1  0
  6 11  1  0
  6 23  1  0
  7 10  1  0
  7 14  1  0
  8 10  1  0
  9 11  1  0
 12 15  1  0
 14 16  2  0
 14 17  1  0
 15 16  1  0
 16 18  1  0
 23 24  3  0
 17 19  2  0
 18 20  2  0
 19 20  1  0
M  END
> <PUBCHEM_COMPOUND_CID>
5991

> <PUBCHEM_CONFORMER_RMSD>
0.6

> <PUBCHEM_CONFORMER_DIVERSEORDER>
1

> <PUBCHEM_MMFF94_PARTIAL_CHARGES>
19
1 -0.68
14 -0.14
15 0.14
16 -0.14
17 -0.2
18 -0.15
19 -0.15
2 -0.53
20 -0.15
21 0.08
22 -0.18
41 0.4
42 0.15
43 0.15
44 0.15
45 0.18
46 0.45
6 0.48
7 0.14

> <PUBCHEM_EFFECTIVE_ROTOR_COUNT>
1.4

> <PUBCHEM_PHARMACOPHORE_FEATURES>
8
1 1 acceptor
1 1 donor
1 2 donor
1 22 hydrophobe
5 3 4 6 9 11 rings
6 14 16 18 19 20 21 rings
6 3 4 5 7 8 10 rings
6 5 7 12 14 15 16 rings

> <PUBCHEM_HEAVY_ATOM_COUNT>
22

> <PUBCHEM_ATOM_DEF_STEREO_COUNT>
5

> <PUBCHEM_ATOM_UDEF_STEREO_COUNT>
0

> <PUBCHEM_BOND_DEF_STEREO_COUNT>
0

> <PUBCHEM_BOND_UDEF_STEREO_COUNT>
0

> <PUBCHEM_ISOTOPIC_ATOM_COUNT>
0

> <PUBCHEM_COMPONENT_COUNT>
1

> <PUBCHEM_CACTVS_TAUTO_COUNT>
9

> <PUBCHEM_CONFORMER_ID>
0000176700000001

> <PUBCHEM_MMFF94_ENERGY>
75.3654

> <PUBCHEM_FEATURE_SELFOVERLAP>
40.689

> <PUBCHEM_SHAPE_FINGERPRINT>
10498660 4 18334565854482978588
10616163 171 18412261769892000550
10906281 52 18268729332496851400
10967382 1 18409163299196382730
11132069 177 18260823830106114581
11315181 36 17846777438100329984
11552529 35 18058445585631877095
11578080 2 16952518088400902894
11796584 16 15123796154675551020
12107183 9 17697047933183828707
12236239 1 17917992754997443209
12403259 415 18260540148118003532
12403814 3 17531241756051219503
12633257 1 18411416168188185458
12644460 14 18260827060354363322
12788726 201 17059505002047033793
128620 24 17385724690407290772
13140716 1 18264499557760559337
13224815 77 18408318891198213202
13675066 3 17749393654488776519
14790565 3 18338806709892665688
15163728 17 15481289097577292713
15183329 4 18408605830407435614
15196674 1 18337388339818468438
15209289 33 18341332270467662817
15209294 21 18059584555192331817
15309172 13 18409451371427638915
15536298 74 18341610425830279326
15788980 27 17749105603943632888
16945 1 18265320738190372627
17349148 13 18114176445825312880
1813 80 17530976782159466655
18186145 218 18409161126111612646
19489759 90 15410896249631894657
19591789 44 18193273216009210722
200 152 17918273168974754922
21033648 29 17968079933063946356
21267235 1 18338240469814837151
21623110 236 18263368155990106261
23402539 116 18410566319162361766
23402655 69 18201721773563375622
23559900 14 18341325700027887232
335352 9 18410007719541319564
34934 24 18335695014618288215
350125 39 18408603674022772468
3545911 37 18408602569419241710
3680242 22 18335416829913620042
4214541 1 18412824715549947695
474 4 18408605889666299408
5104073 3 18339077194179428906
542803 24 17561084709247609168
59755656 215 18335983078396721054
633830 44 18202282537272954908
9709674 26 18410014338397756278

> <PUBCHEM_SHAPE_MULTIPOLES>
441.01
10.64
2.03
1.22
7.18
0.55
-0.05
-1.94
-1.01
0.21
-0.15
-1.94
-0.33
-0.49

> <PUBCHEM_SHAPE_SELFOVERLAP>
961.464

> <PUBCHEM_SHAPE_VOLUME>
238.8

> <PUBCHEM_COORDINATE_TYPE>
2
5
10

> <Energy>
61.5647

> <minimizedAffinity>
-7.19338

> <CNNscore>
0.3728872240

> <CNNaffinity>
7.3975033760

> <CNN_VS>
2.7584345341

> <CNNaffinity_variance>
0.3675089777

$$$$
5991


 24 27  0  0  0  0  0  0  0  0999 V2000
   -3.2918   -4.7695   16.2804 O   0  0  0  0  0  0  0  0  0  0  0  0
   -9.9092   -4.1606    7.5408 O   0  0  0  0  0  0  0  0  0  0  0  0
   -5.0750   -4.5259   14.5847 C   0  0  0  0  0  0  0  0  0  0  0  0
   -6.3956   -3.7237   14.6384 C   0  0  0  0  0  0  0  0  0  0  0  0
   -6.9835   -3.4638   13.2492 C   0  0  0  0  0  0  0  0  0  0  0  0
   -4.6795   -4.5188   16.0946 C   0  0  0  0  0  0  0  0  0  0  0  0
   -7.2935   -4.8310   12.5690 C   0  0  0  0  0  0  0  0  0  0  0  0
   -5.3734   -5.8914   13.9373 C   0  0  0  0  0  0  0  0  0  0  0  0
   -6.0515   -2.5288   15.5239 C   0  0  0  0  0  0  0  0  0  0  0  0
   -6.0425   -5.7476   12.5558 C   0  0  0  0  0  0  0  0  0  0  0  0
   -5.0224   -3.0707   16.5349 C   0  0  0  0  0  0  0  0  0  0  0  0
   -8.2678   -2.6328   13.3036 C   0  0  0  0  0  0  0  0  0  0  0  0
   -3.9555   -3.8308   13.7545 C   0  0  0  0  0  0  0  0  0  0  0  0
   -7.9635   -4.6336   11.2097 C   0  0  0  0  0  0  0  0  0  0  0  0
   -8.7180   -2.2832   11.8888 C   0  0  0  0  0  0  0  0  0  0  0  0
   -8.6668   -3.4423   10.9248 C   0  0  0  0  0  0  0  0  0  0  0  0
   -7.9778   -5.6597   10.2493 C   0  0  0  0  0  0  0  0  0  0  0  0
   -9.3080   -3.2853    9.6811 C   0  0  0  0  0  0  0  0  0  0  0  0
   -8.6286   -5.4949    9.0192 C   0  0  0  0  0  0  0  0  0  0  0  0
   -9.2848   -4.3053    8.7439 C   0  0  0  0  0  0  0  0  0  0  0  0
   -2.7760   -4.1410   15.7514 H   0  0  0  0  0  0  0  0  0  0  0  0
  -10.3574   -3.3630    7.3385 H   0  0  0  0  0  0  0  0  0  0  0  0
   -5.4322   -5.4897   16.9110 C   0  0  0  0  0  0  0  0  0  0  0  0
   -6.0472   -6.2714   17.5884 C   0  0  0  0  0  0  0  0  0  0  0  0
  1  6  1  0
  1 21  1  0
  2 20  1  0
  2 22  1  0
  3  4  1  0
  3  6  1  0
  3  8  1  0
  3 13  1  0
  4  5  1  0
  4  9  1  0
  5  7  1  0
  5 12  1  0
  6 11  1  0
  6 23  1  0
  7 10  1  0
  7 14  1  0
  8 10  1  0
  9 11  1  0
 12 15  1  0
 14 16  2  0
 14 17  1  0
 15 16  1  0
 16 18  1  0
 23 24  3  0
 17 19  2  0
 18 20  2  0
 19 20  1  0
M  END
> <PUBCHEM_COMPOUND_CID>
5991

> <PUBCHEM_CONFORMER_RMSD>
0.6

> <PUBCHEM_CONFORMER_DIVERSEORDER>
1

> <PUBCHEM_MMFF94_PARTIAL_CHARGES>
19
1 -0.68
14 -0.14
15 0.14
16 -0.14
17 -0.2
18 -0.15
19 -0.15
2 -0.53
20 -0.15
21 0.08
22 -0.18
41 0.4
42 0.15
43 0.15
44 0.15
45 0.18
46 0.45
6 0.48
7 0.14

> <PUBCHEM_EFFECTIVE_ROTOR_COUNT>
1.4

> <PUBCHEM_PHARMACOPHORE_FEATURES>
8
1 1 acceptor
1 1 donor
1 2 donor
1 22 hydrophobe
5 3 4 6 9 11 rings
6 14 16 18 19 20 21 rings
6 3 4 5 7 8 10 rings
6 5 7 12 14 15 16 rings

> <PUBCHEM_HEAVY_ATOM_COUNT>
22

> <PUBCHEM_ATOM_DEF_STEREO_COUNT>
5

> <PUBCHEM_ATOM_UDEF_STEREO_COUNT>
0

> <PUBCHEM_BOND_DEF_STEREO_COUNT>
0

> <PUBCHEM_BOND_UDEF_STEREO_COUNT>
0

> <PUBCHEM_ISOTOPIC_ATOM_COUNT>
0

> <PUBCHEM_COMPONENT_COUNT>
1

> <PUBCHEM_CACTVS_TAUTO_COUNT>
9

> <PUBCHEM_CONFORMER_ID>
0000176700000001

> <PUBCHEM_MMFF94_ENERGY>
75.3654

> <PUBCHEM_FEATURE_SELFOVERLAP>
40.689

> <PUBCHEM_SHAPE_FINGERPRINT>
10498660 4 18334565854482978588
10616163 171 18412261769892000550
10906281 52 18268729332496851400
10967382 1 18409163299196382730
11132069 177 18260823830106114581
11315181 36 17846777438100329984
11552529 35 18058445585631877095
11578080 2 16952518088400902894
11796584 16 15123796154675551020
12107183 9 17697047933183828707
12236239 1 17917992754997443209
12403259 415 18260540148118003532
12403814 3 17531241756051219503
12633257 1 18411416168188185458
12644460 14 18260827060354363322
12788726 201 17059505002047033793
128620 24 17385724690407290772
13140716 1 18264499557760559337
13224815 77 18408318891198213202
13675066 3 17749393654488776519
14790565 3 18338806709892665688
15163728 17 15481289097577292713
15183329 4 18408605830407435614
15196674 1 18337388339818468438
15209289 33 18341332270467662817
15209294 21 18059584555192331817
15309172 13 18409451371427638915
15536298 74 18341610425830279326
15788980 27 17749105603943632888
16945 1 18265320738190372627
17349148 13 18114176445825312880
1813 80 17530976782159466655
18186145 218 18409161126111612646
19489759 90 15410896249631894657
19591789 44 18193273216009210722
200 152 17918273168974754922
21033648 29 17968079933063946356
21267235 1 18338240469814837151
21623110 236 18263368155990106261
23402539 116 18410566319162361766
23402655 69 18201721773563375622
23559900 14 18341325700027887232
335352 9 18410007719541319564
34934 24 18335695014618288215
350125 39 18408603674022772468
3545911 37 18408602569419241710
3680242 22 18335416829913620042
4214541 1 18412824715549947695
474 4 18408605889666299408
5104073 3 18339077194179428906
542803 24 17561084709247609168
59755656 215 18335983078396721054
633830 44 18202282537272954908
9709674 26 18410014338397756278

> <PUBCHEM_SHAPE_MULTIPOLES>
441.01
10.64
2.03
1.22
7.18
0.55
-0.05
-1.94
-1.01
0.21
-0.15
-1.94
-0.33
-0.49

> <PUBCHEM_SHAPE_SELFOVERLAP>
961.464

> <PUBCHEM_SHAPE_VOLUME>
238.8

> <PUBCHEM_COORDINATE_TYPE>
2
5
10

> <Energy>
61.5647

> <minimizedAffinity>
-4.26560

> <CNNscore>
0.2388339192

> <CNNaffinity>
6.9938731194

> <CNN_VS>
1.6703741550

> <CNNaffinity_variance>
0.4239357412

$$$$
5991


 24 27  0  0  0  0  0  0  0  0999 V2000
  -11.8239   -3.2776   12.1663 O   0  0  0  0  0  0  0  0  0  0  0  0
   -2.7829   -7.1879    7.3173 O   0  0  0  0  0  0  0  0  0  0  0  0
   -9.5825   -3.9514   11.3684 C   0  0  0  0  0  0  0  0  0  0  0  0
   -8.2339   -4.0082   12.1224 C   0  0  0  0  0  0  0  0  0  0  0  0
   -7.2040   -4.8968   11.4206 C   0  0  0  0  0  0  0  0  0  0  0  0
  -10.4271   -3.0978   12.3656 C   0  0  0  0  0  0  0  0  0  0  0  0
   -6.9228   -4.3186   10.0012 C   0  0  0  0  0  0  0  0  0  0  0  0
   -9.3222   -3.3568    9.9714 C   0  0  0  0  0  0  0  0  0  0  0  0
   -8.6398   -4.3469   13.5544 C   0  0  0  0  0  0  0  0  0  0  0  0
   -8.2378   -4.1346    9.1997 C   0  0  0  0  0  0  0  0  0  0  0  0
  -10.0090   -3.6667   13.7476 C   0  0  0  0  0  0  0  0  0  0  0  0
   -5.8849   -4.9848   12.1920 C   0  0  0  0  0  0  0  0  0  0  0  0
  -10.2540   -5.3445   11.1841 C   0  0  0  0  0  0  0  0  0  0  0  0
   -5.8357   -5.1178    9.2834 C   0  0  0  0  0  0  0  0  0  0  0  0
   -4.9609   -5.9974   11.5230 C   0  0  0  0  0  0  0  0  0  0  0  0
   -4.8940   -5.8683   10.0216 C   0  0  0  0  0  0  0  0  0  0  0  0
   -5.6871   -5.0536    7.8873 C   0  0  0  0  0  0  0  0  0  0  0  0
   -3.8769   -6.5740    9.3507 C   0  0  0  0  0  0  0  0  0  0  0  0
   -4.6639   -5.7523    7.2324 C   0  0  0  0  0  0  0  0  0  0  0  0
   -3.7696   -6.5114    7.9710 C   0  0  0  0  0  0  0  0  0  0  0  0
  -12.0368   -4.2232   12.2035 H   0  0  0  0  0  0  0  0  0  0  0  0
   -2.1700   -7.7057    7.8012 H   0  0  0  0  0  0  0  0  0  0  0  0
  -10.1391   -1.6524   12.3030 C   0  0  0  0  0  0  0  0  0  0  0  0
   -9.8897   -0.4762   12.2560 C   0  0  0  0  0  0  0  0  0  0  0  0
  1  6  1  0
  1 21  1  0
  2 20  1  0
  2 22  1  0
  3  4  1  0
  3  6  1  0
  3  8  1  0
  3 13  1  0
  4  5  1  0
  4  9  1  0
  5  7  1  0
  5 12  1  0
  6 11  1  0
  6 23  1  0
  7 10  1  0
  7 14  1  0
  8 10  1  0
  9 11  1  0
 12 15  1  0
 14 16  2  0
 14 17  1  0
 15 16  1  0
 16 18  1  0
 23 24  3  0
 17 19  2  0
 18 20  2  0
 19 20  1  0
M  END
> <PUBCHEM_COMPOUND_CID>
5991

> <PUBCHEM_CONFORMER_RMSD>
0.6

> <PUBCHEM_CONFORMER_DIVERSEORDER>
1

> <PUBCHEM_MMFF94_PARTIAL_CHARGES>
19
1 -0.68
14 -0.14
15 0.14
16 -0.14
17 -0.2
18 -0.15
19 -0.15
2 -0.53
20 -0.15
21 0.08
22 -0.18
41 0.4
42 0.15
43 0.15
44 0.15
45 0.18
46 0.45
6 0.48
7 0.14

> <PUBCHEM_EFFECTIVE_ROTOR_COUNT>
1.4

> <PUBCHEM_PHARMACOPHORE_FEATURES>
8
1 1 acceptor
1 1 donor
1 2 donor
1 22 hydrophobe
5 3 4 6 9 11 rings
6 14 16 18 19 20 21 rings
6 3 4 5 7 8 10 rings
6 5 7 12 14 15 16 rings

> <PUBCHEM_HEAVY_ATOM_COUNT>
22

> <PUBCHEM_ATOM_DEF_STEREO_COUNT>
5

> <PUBCHEM_ATOM_UDEF_STEREO_COUNT>
0

> <PUBCHEM_BOND_DEF_STEREO_COUNT>
0

> <PUBCHEM_BOND_UDEF_STEREO_COUNT>
0

> <PUBCHEM_ISOTOPIC_ATOM_COUNT>
0

> <PUBCHEM_COMPONENT_COUNT>
1

> <PUBCHEM_CACTVS_TAUTO_COUNT>
9

> <PUBCHEM_CONFORMER_ID>
0000176700000001

> <PUBCHEM_MMFF94_ENERGY>
75.3654

> <PUBCHEM_FEATURE_SELFOVERLAP>
40.689

> <PUBCHEM_SHAPE_FINGERPRINT>
10498660 4 18334565854482978588
10616163 171 18412261769892000550
10906281 52 18268729332496851400
10967382 1 18409163299196382730
11132069 177 18260823830106114581
11315181 36 17846777438100329984
11552529 35 18058445585631877095
11578080 2 16952518088400902894
11796584 16 15123796154675551020
12107183 9 17697047933183828707
12236239 1 17917992754997443209
12403259 415 18260540148118003532
12403814 3 17531241756051219503
12633257 1 18411416168188185458
12644460 14 18260827060354363322
12788726 201 17059505002047033793
128620 24 17385724690407290772
13140716 1 18264499557760559337
13224815 77 18408318891198213202
13675066 3 17749393654488776519
14790565 3 18338806709892665688
15163728 17 15481289097577292713
15183329 4 18408605830407435614
15196674 1 18337388339818468438
15209289 33 18341332270467662817
15209294 21 18059584555192331817
15309172 13 18409451371427638915
15536298 74 18341610425830279326
15788980 27 17749105603943632888
16945 1 18265320738190372627
17349148 13 18114176445825312880
1813 80 17530976782159466655
18186145 218 18409161126111612646
19489759 90 15410896249631894657
19591789 44 18193273216009210722
200 152 17918273168974754922
21033648 29 17968079933063946356
21267235 1 18338240469814837151
21623110 236 18263368155990106261
23402539 116 18410566319162361766
23402655 69 18201721773563375622
23559900 14 18341325700027887232
335352 9 18410007719541319564
34934 24 18335695014618288215
350125 39 18408603674022772468
3545911 37 18408602569419241710
3680242 22 18335416829913620042
4214541 1 18412824715549947695
474 4 18408605889666299408
5104073 3 18339077194179428906
542803 24 17561084709247609168
59755656 215 18335983078396721054
633830 44 18202282537272954908
9709674 26 18410014338397756278

> <PUBCHEM_SHAPE_MULTIPOLES>
441.01
10.64
2.03
1.22
7.18
0.55
-0.05
-1.94
-1.01
0.21
-0.15
-1.94
-0.33
-0.49

> <PUBCHEM_SHAPE_SELFOVERLAP>
961.464

> <PUBCHEM_SHAPE_VOLUME>
238.8

> <PUBCHEM_COORDINATE_TYPE>
2
5
10

> <Energy>
61.5647

> <minimizedAffinity>
4.77878

> <CNNscore>
0.1561227143

> <CNNaffinity>
5.8049921989

> <CNN_VS>
0.9062911272

> <CNNaffinity_variance>
0.5240213275

$$$$
5991


 24 27  0  0  0  0  0  0  0  0999 V2000
   -9.1564   -6.5978    7.9953 O   0  0  0  0  0  0  0  0  0  0  0  0
   -8.2968    1.5764   15.2744 O   0  0  0  0  0  0  0  0  0  0  0  0
   -9.3506   -4.8564    9.7399 C   0  0  0  0  0  0  0  0  0  0  0  0
  -10.2957   -4.7726   10.9608 C   0  0  0  0  0  0  0  0  0  0  0  0
   -9.7966   -3.7928   12.0256 C   0  0  0  0  0  0  0  0  0  0  0  0
  -10.0471   -5.9884    8.9217 C   0  0  0  0  0  0  0  0  0  0  0  0
   -9.7126   -2.3681   11.4000 C   0  0  0  0  0  0  0  0  0  0  0  0
   -9.2793   -3.4587    9.0964 C   0  0  0  0  0  0  0  0  0  0  0  0
  -10.5058   -6.2336   11.3501 C   0  0  0  0  0  0  0  0  0  0  0  0
   -8.8572   -2.3730   10.1062 C   0  0  0  0  0  0  0  0  0  0  0  0
  -10.4536   -7.0079   10.0188 C   0  0  0  0  0  0  0  0  0  0  0  0
  -10.7121   -3.7445   13.2512 C   0  0  0  0  0  0  0  0  0  0  0  0
   -7.9014   -5.2975   10.1013 C   0  0  0  0  0  0  0  0  0  0  0  0
   -9.3005   -1.3292   12.4424 C   0  0  0  0  0  0  0  0  0  0  0  0
  -10.0848   -2.8692   14.3314 C   0  0  0  0  0  0  0  0  0  0  0  0
   -9.5242   -1.5669   13.8166 C   0  0  0  0  0  0  0  0  0  0  0  0
   -8.7785   -0.0817   12.0599 C   0  0  0  0  0  0  0  0  0  0  0  0
   -9.1705   -0.5884   14.7654 C   0  0  0  0  0  0  0  0  0  0  0  0
   -8.4402    0.8880   13.0135 C   0  0  0  0  0  0  0  0  0  0  0  0
   -8.6351    0.6234   14.3602 C   0  0  0  0  0  0  0  0  0  0  0  0
   -8.3626   -6.9024    8.4623 H   0  0  0  0  0  0  0  0  0  0  0  0
   -8.4219    1.4139   16.1887 H   0  0  0  0  0  0  0  0  0  0  0  0
  -11.2399   -5.5381    8.1797 C   0  0  0  0  0  0  0  0  0  0  0  0
  -12.2046   -5.1593    7.5683 C   0  0  0  0  0  0  0  0  0  0  0  0
  1  6  1  0
  1 21  1  0
  2 20  1  0
  2 22  1  0
  3  4  1  0
  3  6  1  0
  3  8  1  0
  3 13  1  0
  4  5  1  0
  4  9  1  0
  5  7  1  0
  5 12  1  0
  6 11  1  0
  6 23  1  0
  7 10  1  0
  7 14  1  0
  8 10  1  0
  9 11  1  0
 12 15  1  0
 14 16  2  0
 14 17  1  0
 15 16  1  0
 16 18  1  0
 23 24  3  0
 17 19  2  0
 18 20  2  0
 19 20  1  0
M  END
> <PUBCHEM_COMPOUND_CID>
5991

> <PUBCHEM_CONFORMER_RMSD>
0.6

> <PUBCHEM_CONFORMER_DIVERSEORDER>
1

> <PUBCHEM_MMFF94_PARTIAL_CHARGES>
19
1 -0.68
14 -0.14
15 0.14
16 -0.14
17 -0.2
18 -0.15
19 -0.15
2 -0.53
20 -0.15
21 0.08
22 -0.18
41 0.4
42 0.15
43 0.15
44 0.15
45 0.18
46 0.45
6 0.48
7 0.14

> <PUBCHEM_EFFECTIVE_ROTOR_COUNT>
1.4

> <PUBCHEM_PHARMACOPHORE_FEATURES>
8
1 1 acceptor
1 1 donor
1 2 donor
1 22 hydrophobe
5 3 4 6 9 11 rings
6 14 16 18 19 20 21 rings
6 3 4 5 7 8 10 rings
6 5 7 12 14 15 16 rings

> <PUBCHEM_HEAVY_ATOM_COUNT>
22

> <PUBCHEM_ATOM_DEF_STEREO_COUNT>
5

> <PUBCHEM_ATOM_UDEF_STEREO_COUNT>
0

> <PUBCHEM_BOND_DEF_STEREO_COUNT>
0

> <PUBCHEM_BOND_UDEF_STEREO_COUNT>
0

> <PUBCHEM_ISOTOPIC_ATOM_COUNT>
0

> <PUBCHEM_COMPONENT_COUNT>
1

> <PUBCHEM_CACTVS_TAUTO_COUNT>
9

> <PUBCHEM_CONFORMER_ID>
0000176700000001

> <PUBCHEM_MMFF94_ENERGY>
75.3654

> <PUBCHEM_FEATURE_SELFOVERLAP>
40.689

> <PUBCHEM_SHAPE_FINGERPRINT>
10498660 4 18334565854482978588
10616163 171 18412261769892000550
10906281 52 18268729332496851400
10967382 1 18409163299196382730
11132069 177 18260823830106114581
11315181 36 17846777438100329984
11552529 35 18058445585631877095
11578080 2 16952518088400902894
11796584 16 15123796154675551020
12107183 9 17697047933183828707
12236239 1 17917992754997443209
12403259 415 18260540148118003532
12403814 3 17531241756051219503
12633257 1 18411416168188185458
12644460 14 18260827060354363322
12788726 201 17059505002047033793
128620 24 17385724690407290772
13140716 1 18264499557760559337
13224815 77 18408318891198213202
13675066 3 17749393654488776519
14790565 3 18338806709892665688
15163728 17 15481289097577292713
15183329 4 18408605830407435614
15196674 1 18337388339818468438
15209289 33 18341332270467662817
15209294 21 18059584555192331817
15309172 13 18409451371427638915
15536298 74 18341610425830279326
15788980 27 17749105603943632888
16945 1 18265320738190372627
17349148 13 18114176445825312880
1813 80 17530976782159466655
18186145 218 18409161126111612646
19489759 90 15410896249631894657
19591789 44 18193273216009210722
200 152 17918273168974754922
21033648 29 17968079933063946356
21267235 1 18338240469814837151
21623110 236 18263368155990106261
23402539 116 18410566319162361766
23402655 69 18201721773563375622
23559900 14 18341325700027887232
335352 9 18410007719541319564
34934 24 18335695014618288215
350125 39 18408603674022772468
3545911 37 18408602569419241710
3680242 22 18335416829913620042
4214541 1 18412824715549947695
474 4 18408605889666299408
5104073 3 18339077194179428906
542803 24 17561084709247609168
59755656 215 18335983078396721054
633830 44 18202282537272954908
9709674 26 18410014338397756278

> <PUBCHEM_SHAPE_MULTIPOLES>
441.01
10.64
2.03
1.22
7.18
0.55
-0.05
-1.94
-1.01
0.21
-0.15
-1.94
-0.33
-0.49

> <PUBCHEM_SHAPE_SELFOVERLAP>
961.464

> <PUBCHEM_SHAPE_VOLUME>
238.8

> <PUBCHEM_COORDINATE_TYPE>
2
5
10

> <Energy>
61.5647

> <minimizedAffinity>
23.12932

> <CNNscore>
0.1420548409

> <CNNaffinity>
5.9797477722

> <CNN_VS>
0.8494521379

> <CNNaffinity_variance>
0.4229775369

$$$$
5991


 24 27  0  0  0  0  0  0  0  0999 V2000
   -3.7790   -3.4457   16.4168 O   0  0  0  0  0  0  0  0  0  0  0  0
   -9.0540   -6.9463    7.4467 O   0  0  0  0  0  0  0  0  0  0  0  0
   -5.2751   -4.3278   14.6568 C   0  0  0  0  0  0  0  0  0  0  0  0
   -6.8127   -4.4908   14.6481 C   0  0  0  0  0  0  0  0  0  0  0  0
   -7.3813   -4.6362   13.2344 C   0  0  0  0  0  0  0  0  0  0  0  0
   -5.0260   -4.0871   16.1787 C   0  0  0  0  0  0  0  0  0  0  0  0
   -6.7718   -5.9093   12.5742 C   0  0  0  0  0  0  0  0  0  0  0  0
   -4.6588   -5.5926   14.0296 C   0  0  0  0  0  0  0  0  0  0  0  0
   -7.2988   -3.3347   15.5184 C   0  0  0  0  0  0  0  0  0  0  0  0
   -5.2220   -5.8796   12.6235 C   0  0  0  0  0  0  0  0  0  0  0  0
   -6.1935   -3.1448   16.5752 C   0  0  0  0  0  0  0  0  0  0  0  0
   -8.9073   -4.7542   13.2270 C   0  0  0  0  0  0  0  0  0  0  0  0
   -4.7735   -3.0937   13.8500 C   0  0  0  0  0  0  0  0  0  0  0  0
   -7.3691   -6.1543   11.1889 C   0  0  0  0  0  0  0  0  0  0  0  0
   -9.4200   -4.7447   11.7905 C   0  0  0  0  0  0  0  0  0  0  0  0
   -8.6382   -5.6324   10.8544 C   0  0  0  0  0  0  0  0  0  0  0  0
   -6.7200   -6.9759   10.2514 C   0  0  0  0  0  0  0  0  0  0  0  0
   -9.1927   -5.8924    9.5865 C   0  0  0  0  0  0  0  0  0  0  0  0
   -7.2875   -7.2356    8.9966 C   0  0  0  0  0  0  0  0  0  0  0  0
   -8.5186   -6.6866    8.6733 C   0  0  0  0  0  0  0  0  0  0  0  0
   -3.7287   -2.6315   15.8920 H   0  0  0  0  0  0  0  0  0  0  0  0
   -9.8852   -6.5832    7.2119 H   0  0  0  0  0  0  0  0  0  0  0  0
   -5.0686   -5.3182   16.9902 C   0  0  0  0  0  0  0  0  0  0  0  0
   -5.0978   -6.3146   17.6642 C   0  0  0  0  0  0  0  0  0  0  0  0
  1  6  1  0
  1 21  1  0
  2 20  1  0
  2 22  1  0
  3  4  1  0
  3  6  1  0
  3  8  1  0
  3 13  1  0
  4  5  1  0
  4  9  1  0
  5  7  1  0
  5 12  1  0
  6 11  1  0
  6 23  1  0
  7 10  1  0
  7 14  1  0
  8 10  1  0
  9 11  1  0
 12 15  1  0
 14 16  2  0
 14 17  1  0
 15 16  1  0
 16 18  1  0
 23 24  3  0
 17 19  2  0
 18 20  2  0
 19 20  1  0
M  END
> <PUBCHEM_COMPOUND_CID>
5991

> <PUBCHEM_CONFORMER_RMSD>
0.6

> <PUBCHEM_CONFORMER_DIVERSEORDER>
1

> <PUBCHEM_MMFF94_PARTIAL_CHARGES>
19
1 -0.68
14 -0.14
15 0.14
16 -0.14
17 -0.2
18 -0.15
19 -0.15
2 -0.53
20 -0.15
21 0.08
22 -0.18
41 0.4
42 0.15
43 0.15
44 0.15
45 0.18
46 0.45
6 0.48
7 0.14

> <PUBCHEM_EFFECTIVE_ROTOR_COUNT>
1.4

> <PUBCHEM_PHARMACOPHORE_FEATURES>
8
1 1 acceptor
1 1 donor
1 2 donor
1 22 hydrophobe
5 3 4 6 9 11 rings
6 14 16 18 19 20 21 rings
6 3 4 5 7 8 10 rings
6 5 7 12 14 15 16 rings

> <PUBCHEM_HEAVY_ATOM_COUNT>
22

> <PUBCHEM_ATOM_DEF_STEREO_COUNT>
5

> <PUBCHEM_ATOM_UDEF_STEREO_COUNT>
0

> <PUBCHEM_BOND_DEF_STEREO_COUNT>
0

> <PUBCHEM_BOND_UDEF_STEREO_COUNT>
0

> <PUBCHEM_ISOTOPIC_ATOM_COUNT>
0

> <PUBCHEM_COMPONENT_COUNT>
1

> <PUBCHEM_CACTVS_TAUTO_COUNT>
9

> <PUBCHEM_CONFORMER_ID>
0000176700000001

> <PUBCHEM_MMFF94_ENERGY>
75.3654

> <PUBCHEM_FEATURE_SELFOVERLAP>
40.689

> <PUBCHEM_SHAPE_FINGERPRINT>
10498660 4 18334565854482978588
10616163 171 18412261769892000550
10906281 52 18268729332496851400
10967382 1 18409163299196382730
11132069 177 18260823830106114581
11315181 36 17846777438100329984
11552529 35 18058445585631877095
11578080 2 16952518088400902894
11796584 16 15123796154675551020
12107183 9 17697047933183828707
12236239 1 17917992754997443209
12403259 415 18260540148118003532
12403814 3 17531241756051219503
12633257 1 18411416168188185458
12644460 14 18260827060354363322
12788726 201 17059505002047033793
128620 24 17385724690407290772
13140716 1 18264499557760559337
13224815 77 18408318891198213202
13675066 3 17749393654488776519
14790565 3 18338806709892665688
15163728 17 15481289097577292713
15183329 4 18408605830407435614
15196674 1 18337388339818468438
15209289 33 18341332270467662817
15209294 21 18059584555192331817
15309172 13 18409451371427638915
15536298 74 18341610425830279326
15788980 27 17749105603943632888
16945 1 18265320738190372627
17349148 13 18114176445825312880
1813 80 17530976782159466655
18186145 218 18409161126111612646
19489759 90 15410896249631894657
19591789 44 18193273216009210722
200 152 17918273168974754922
21033648 29 17968079933063946356
21267235 1 18338240469814837151
21623110 236 18263368155990106261
23402539 116 18410566319162361766
23402655 69 18201721773563375622
23559900 14 18341325700027887232
335352 9 18410007719541319564
34934 24 18335695014618288215
350125 39 18408603674022772468
3545911 37 18408602569419241710
3680242 22 18335416829913620042
4214541 1 18412824715549947695
474 4 18408605889666299408
5104073 3 18339077194179428906
542803 24 17561084709247609168
59755656 215 18335983078396721054
633830 44 18202282537272954908
9709674 26 18410014338397756278

> <PUBCHEM_SHAPE_MULTIPOLES>
441.01
10.64
2.03
1.22
7.18
0.55
-0.05
-1.94
-1.01
0.21
-0.15
-1.94
-0.33
-0.49

> <PUBCHEM_SHAPE_SELFOVERLAP>
961.464

> <PUBCHEM_SHAPE_VOLUME>
238.8

> <PUBCHEM_COORDINATE_TYPE>
2
5
10

> <Energy>
61.5647

> <minimizedAffinity>
-5.89965

> <CNNscore>
0.1325951666

> <CNNaffinity>
6.6377487183

> <CNN_VS>
0.8801333904

> <CNNaffinity_variance>
0.0941843316

$$$$
5991


 24 27  0  0  0  0  0  0  0  0999 V2000
   -7.0683   -3.0354   17.5529 O   0  0  0  0  0  0  0  0  0  0  0  0
   -8.3075   -5.0303    6.8278 O   0  0  0  0  0  0  0  0  0  0  0  0
   -7.2540   -3.8761   15.2349 C   0  0  0  0  0  0  0  0  0  0  0  0
   -7.5071   -5.3098   14.7141 C   0  0  0  0  0  0  0  0  0  0  0  0
   -8.0020   -5.3313   13.2658 C   0  0  0  0  0  0  0  0  0  0  0  0
   -6.8912   -4.1769   16.7229 C   0  0  0  0  0  0  0  0  0  0  0  0
   -6.9167   -4.6861   12.3524 C   0  0  0  0  0  0  0  0  0  0  0  0
   -6.1633   -3.2358   14.3555 C   0  0  0  0  0  0  0  0  0  0  0  0
   -8.3833   -5.9333   15.7975 C   0  0  0  0  0  0  0  0  0  0  0  0
   -6.5261   -3.2728   12.8576 C   0  0  0  0  0  0  0  0  0  0  0  0
   -7.9109   -5.2805   17.1109 C   0  0  0  0  0  0  0  0  0  0  0  0
   -8.2923   -6.7492   12.7678 C   0  0  0  0  0  0  0  0  0  0  0  0
   -8.5142   -2.9623   15.1853 C   0  0  0  0  0  0  0  0  0  0  0  0
   -7.3193   -4.7569   10.8798 C   0  0  0  0  0  0  0  0  0  0  0  0
   -8.9206   -6.6913   11.3791 C   0  0  0  0  0  0  0  0  0  0  0  0
   -8.2329   -5.7376   10.4341 C   0  0  0  0  0  0  0  0  0  0  0  0
   -6.7262   -3.9167    9.9219 C   0  0  0  0  0  0  0  0  0  0  0  0
   -8.5710   -5.8141    9.0694 C   0  0  0  0  0  0  0  0  0  0  0  0
   -7.0636   -4.0099    8.5649 C   0  0  0  0  0  0  0  0  0  0  0  0
   -7.9881   -4.9562    8.1510 C   0  0  0  0  0  0  0  0  0  0  0  0
   -7.9697   -2.6938   17.4450 H   0  0  0  0  0  0  0  0  0  0  0  0
   -8.9305   -5.6641    6.5310 H   0  0  0  0  0  0  0  0  0  0  0  0
   -5.5135   -4.6692   16.9112 C   0  0  0  0  0  0  0  0  0  0  0  0
   -4.3874   -5.0600   17.0756 C   0  0  0  0  0  0  0  0  0  0  0  0
  1  6  1  0
  1 21  1  0
  2 20  1  0
  2 22  1  0
  3  4  1  0
  3  6  1  0
  3  8  1  0
  3 13  1  0
  4  5  1  0
  4  9  1  0
  5  7  1  0
  5 12  1  0
  6 11  1  0
  6 23  1  0
  7 10  1  0
  7 14  1  0
  8 10  1  0
  9 11  1  0
 12 15  1  0
 14 16  2  0
 14 17  1  0
 15 16  1  0
 16 18  1  0
 23 24  3  0
 17 19  2  0
 18 20  2  0
 19 20  1  0
M  END
> <PUBCHEM_COMPOUND_CID>
5991

> <PUBCHEM_CONFORMER_RMSD>
0.6

> <PUBCHEM_CONFORMER_DIVERSEORDER>
1

> <PUBCHEM_MMFF94_PARTIAL_CHARGES>
19
1 -0.68
14 -0.14
15 0.14
16 -0.14
17 -0.2
18 -0.15
19 -0.15
2 -0.53
20 -0.15
21 0.08
22 -0.18
41 0.4
42 0.15
43 0.15
44 0.15
45 0.18
46 0.45
6 0.48
7 0.14

> <PUBCHEM_EFFECTIVE_ROTOR_COUNT>
1.4

> <PUBCHEM_PHARMACOPHORE_FEATURES>
8
1 1 acceptor
1 1 donor
1 2 donor
1 22 hydrophobe
5 3 4 6 9 11 rings
6 14 16 18 19 20 21 rings
6 3 4 5 7 8 10 rings
6 5 7 12 14 15 16 rings

> <PUBCHEM_HEAVY_ATOM_COUNT>
22

> <PUBCHEM_ATOM_DEF_STEREO_COUNT>
5

> <PUBCHEM_ATOM_UDEF_STEREO_COUNT>
0

> <PUBCHEM_BOND_DEF_STEREO_COUNT>
0

> <PUBCHEM_BOND_UDEF_STEREO_COUNT>
0

> <PUBCHEM_ISOTOPIC_ATOM_COUNT>
0

> <PUBCHEM_COMPONENT_COUNT>
1

> <PUBCHEM_CACTVS_TAUTO_COUNT>
9

> <PUBCHEM_CONFORMER_ID>
0000176700000001

> <PUBCHEM_MMFF94_ENERGY>
75.3654

> <PUBCHEM_FEATURE_SELFOVERLAP>
40.689

> <PUBCHEM_SHAPE_FINGERPRINT>
10498660 4 18334565854482978588
10616163 171 18412261769892000550
10906281 52 18268729332496851400
10967382 1 18409163299196382730
11132069 177 18260823830106114581
11315181 36 17846777438100329984
11552529 35 18058445585631877095
11578080 2 16952518088400902894
11796584 16 15123796154675551020
12107183 9 17697047933183828707
12236239 1 17917992754997443209
12403259 415 18260540148118003532
12403814 3 17531241756051219503
12633257 1 18411416168188185458
12644460 14 18260827060354363322
12788726 201 17059505002047033793
128620 24 17385724690407290772
13140716 1 18264499557760559337
13224815 77 18408318891198213202
13675066 3 17749393654488776519
14790565 3 18338806709892665688
15163728 17 15481289097577292713
15183329 4 18408605830407435614
15196674 1 18337388339818468438
15209289 33 18341332270467662817
15209294 21 18059584555192331817
15309172 13 18409451371427638915
15536298 74 18341610425830279326
15788980 27 17749105603943632888
16945 1 18265320738190372627
17349148 13 18114176445825312880
1813 80 17530976782159466655
18186145 218 18409161126111612646
19489759 90 15410896249631894657
19591789 44 18193273216009210722
200 152 17918273168974754922
21033648 29 17968079933063946356
21267235 1 18338240469814837151
21623110 236 18263368155990106261
23402539 116 18410566319162361766
23402655 69 18201721773563375622
23559900 14 18341325700027887232
335352 9 18410007719541319564
34934 24 18335695014618288215
350125 39 18408603674022772468
3545911 37 18408602569419241710
3680242 22 18335416829913620042
4214541 1 18412824715549947695
474 4 18408605889666299408
5104073 3 18339077194179428906
542803 24 17561084709247609168
59755656 215 18335983078396721054
633830 44 18202282537272954908
9709674 26 18410014338397756278

> <PUBCHEM_SHAPE_MULTIPOLES>
441.01
10.64
2.03
1.22
7.18
0.55
-0.05
-1.94
-1.01
0.21
-0.15
-1.94
-0.33
-0.49

> <PUBCHEM_SHAPE_SELFOVERLAP>
961.464

> <PUBCHEM_SHAPE_VOLUME>
238.8

> <PUBCHEM_COORDINATE_TYPE>
2
5
10

> <Energy>
61.5647

> <minimizedAffinity>
-2.19511

> <CNNscore>
0.1245625690

> <CNNaffinity>
5.3932938576

> <CNN_VS>
0.6718025208

> <CNNaffinity_variance>
0.4093480408

$$$$
