2519


 14 15  0  0  0  0  0  0  0  0999 V2000
   -4.0726   -2.4170   24.2771 O   0  0  0  0  0  0  0  0  0  0  0  0
   -7.6625   -4.3980   22.1269 O   0  0  0  0  0  0  0  0  0  0  0  0
   -5.6257   -4.4028   21.0513 N   0  0  0  0  0  0  0  0  0  0  0  0
   -2.4662   -3.1840   21.8743 N   0  0  0  0  0  0  0  0  0  0  0  0
   -5.8892   -3.4063   23.2154 N   0  0  0  0  0  0  0  0  0  0  0  0
   -3.3617   -4.2644   20.1482 N   0  0  0  0  0  0  0  0  0  0  0  0
   -3.7836   -3.3742   22.1783 C   0  0  0  0  0  0  0  0  0  0  0  0
   -4.3017   -4.0348   21.1065 C   0  0  0  0  0  0  0  0  0  0  0  0
   -4.5516   -3.0121   23.3166 C   0  0  0  0  0  0  0  0  0  0  0  0
   -6.4660   -4.0917   22.1234 C   0  0  0  0  0  0  0  0  0  0  0  0
   -2.2569   -3.7378   20.6389 C   0  0  0  0  0  0  0  0  0  0  0  0
   -6.1354   -5.1068   19.8875 C   0  0  0  0  0  0  0  0  0  0  0  0
   -1.4774   -2.5276   22.6908 C   0  0  0  0  0  0  0  0  0  0  0  0
   -6.7730   -3.0910   24.3211 C   0  0  0  0  0  0  0  0  0  0  0  0
  1  9  2  0
  2 10  2  0
  3  8  1  0
  3 10  1  0
  3 12  1  0
  4  7  1  0
  4 11  1  0
  4 13  1  0
  5  9  1  0
  5 10  1  0
  5 14  1  0
  6  8  1  0
  6 11  2  0
  7  8  2  0
  7  9  1  0
M  END
> <PUBCHEM_COMPOUND_CID>
2519

> <PUBCHEM_CONFORMER_RMSD>
0.4

> <PUBCHEM_CONFORMER_DIVERSEORDER>
1

> <PUBCHEM_MMFF94_PARTIAL_CHARGES>
15
1 -0.57
10 0.69
11 0.04
12 0.3
13 0.26
14 0.3
15 0.15
2 -0.57
3 -0.42
4 0.05
5 -0.42
6 -0.57
7 -0.24
8 0.29
9 0.71

> <PUBCHEM_EFFECTIVE_ROTOR_COUNT>
0

> <PUBCHEM_PHARMACOPHORE_FEATURES>
5
1 1 acceptor
1 2 acceptor
3 4 6 11 cation
5 4 6 7 8 11 rings
6 3 5 7 8 9 10 rings

> <PUBCHEM_HEAVY_ATOM_COUNT>
14

> <PUBCHEM_ATOM_DEF_STEREO_COUNT>
0

> <PUBCHEM_ATOM_UDEF_STEREO_COUNT>
0

> <PUBCHEM_BOND_DEF_STEREO_COUNT>
0

> <PUBCHEM_BOND_UDEF_STEREO_COUNT>
0

> <PUBCHEM_ISOTOPIC_ATOM_COUNT>
0

> <PUBCHEM_COMPONENT_COUNT>
1

> <PUBCHEM_CACTVS_TAUTO_COUNT>
1

> <PUBCHEM_CONFORMER_ID>
000009D700000001

> <PUBCHEM_MMFF94_ENERGY>
22.901

> <PUBCHEM_FEATURE_SELFOVERLAP>
25.487

> <PUBCHEM_SHAPE_FINGERPRINT>
10967382 1 18338799025773621285
11132069 177 18339075025094499008
12524768 44 18342463625094026902
13140716 1 17978511158789908153
16945 1 18338517550775811621
193761 8 15816500986559935910
20588541 1 18339082691204868851
21501502 16 18338796715286957384
22802520 49 18128840606503503494
2334 1 18338516344016692929
23402539 116 18270382932679789735
23552423 10 18262240993325675966
23559900 14 18199193898169584358
241688 4 18266458702623303353
2748010 2 18266180539182415717
5084963 1 17698433339235542986
528886 8 18267580380709240570
53812653 166 18198902694142226312
66348 1 18339079396917369615

> <PUBCHEM_SHAPE_MULTIPOLES>
256.45
4.01
2.83
0.58
0.71
0.08
0
-0.48
0
-0.81
0
0.01
0
0

> <PUBCHEM_SHAPE_SELFOVERLAP>
550.88

> <PUBCHEM_SHAPE_VOLUME>
143.9

> <PUBCHEM_COORDINATE_TYPE>
2
5
10

> <Energy>
-122.511

> <minimizedAffinity>
-5.63608

> <CNNscore>
0.6105174422

> <CNNaffinity>
5.1387577057

> <CNN_VS>
3.1373012066

> <CNNaffinity_variance>
0.2481356412

$$$$
2519


 14 15  0  0  0  0  0  0  0  0999 V2000
   -4.0377   -3.2123   24.0787 O   0  0  0  0  0  0  0  0  0  0  0  0
   -1.1751   -2.0401   20.6338 O   0  0  0  0  0  0  0  0  0  0  0  0
   -3.2420   -2.8895   20.0757 N   0  0  0  0  0  0  0  0  0  0  0  0
   -5.9675   -4.0080   21.9375 N   0  0  0  0  0  0  0  0  0  0  0  0
   -2.5840   -2.6172   22.3645 N   0  0  0  0  0  0  0  0  0  0  0  0
   -5.4833   -3.8100   19.7753 N   0  0  0  0  0  0  0  0  0  0  0  0
   -4.7063   -3.4895   21.8695 C   0  0  0  0  0  0  0  0  0  0  0  0
   -4.4401   -3.3812   20.5387 C   0  0  0  0  0  0  0  0  0  0  0  0
   -3.7856   -3.1104   22.8819 C   0  0  0  0  0  0  0  0  0  0  0  0
   -2.2680   -2.4887   20.9938 C   0  0  0  0  0  0  0  0  0  0  0  0
   -6.3970   -4.1854   20.6487 C   0  0  0  0  0  0  0  0  0  0  0  0
   -3.0014   -2.7915   18.6465 C   0  0  0  0  0  0  0  0  0  0  0  0
   -6.7126   -4.3133   23.1320 C   0  0  0  0  0  0  0  0  0  0  0  0
   -1.5640   -2.1964   23.3056 C   0  0  0  0  0  0  0  0  0  0  0  0
  1  9  2  0
  2 10  2  0
  3  8  1  0
  3 10  1  0
  3 12  1  0
  4  7  1  0
  4 11  1  0
  4 13  1  0
  5  9  1  0
  5 10  1  0
  5 14  1  0
  6  8  1  0
  6 11  2  0
  7  8  2  0
  7  9  1  0
M  END
> <PUBCHEM_COMPOUND_CID>
2519

> <PUBCHEM_CONFORMER_RMSD>
0.4

> <PUBCHEM_CONFORMER_DIVERSEORDER>
1

> <PUBCHEM_MMFF94_PARTIAL_CHARGES>
15
1 -0.57
10 0.69
11 0.04
12 0.3
13 0.26
14 0.3
15 0.15
2 -0.57
3 -0.42
4 0.05
5 -0.42
6 -0.57
7 -0.24
8 0.29
9 0.71

> <PUBCHEM_EFFECTIVE_ROTOR_COUNT>
0

> <PUBCHEM_PHARMACOPHORE_FEATURES>
5
1 1 acceptor
1 2 acceptor
3 4 6 11 cation
5 4 6 7 8 11 rings
6 3 5 7 8 9 10 rings

> <PUBCHEM_HEAVY_ATOM_COUNT>
14

> <PUBCHEM_ATOM_DEF_STEREO_COUNT>
0

> <PUBCHEM_ATOM_UDEF_STEREO_COUNT>
0

> <PUBCHEM_BOND_DEF_STEREO_COUNT>
0

> <PUBCHEM_BOND_UDEF_STEREO_COUNT>
0

> <PUBCHEM_ISOTOPIC_ATOM_COUNT>
0

> <PUBCHEM_COMPONENT_COUNT>
1

> <PUBCHEM_CACTVS_TAUTO_COUNT>
1

> <PUBCHEM_CONFORMER_ID>
000009D700000001

> <PUBCHEM_MMFF94_ENERGY>
22.901

> <PUBCHEM_FEATURE_SELFOVERLAP>
25.487

> <PUBCHEM_SHAPE_FINGERPRINT>
10967382 1 18338799025773621285
11132069 177 18339075025094499008
12524768 44 18342463625094026902
13140716 1 17978511158789908153
16945 1 18338517550775811621
193761 8 15816500986559935910
20588541 1 18339082691204868851
21501502 16 18338796715286957384
22802520 49 18128840606503503494
2334 1 18338516344016692929
23402539 116 18270382932679789735
23552423 10 18262240993325675966
23559900 14 18199193898169584358
241688 4 18266458702623303353
2748010 2 18266180539182415717
5084963 1 17698433339235542986
528886 8 18267580380709240570
53812653 166 18198902694142226312
66348 1 18339079396917369615

> <PUBCHEM_SHAPE_MULTIPOLES>
256.45
4.01
2.83
0.58
0.71
0.08
0
-0.48
0
-0.81
0
0.01
0
0

> <PUBCHEM_SHAPE_SELFOVERLAP>
550.88

> <PUBCHEM_SHAPE_VOLUME>
143.9

> <PUBCHEM_COORDINATE_TYPE>
2
5
10

> <Energy>
-122.511

> <minimizedAffinity>
-5.25426

> <CNNscore>
0.5388983488

> <CNNaffinity>
4.9358077049

> <CNN_VS>
2.6598985195

> <CNNaffinity_variance>
0.6127881408

$$$$
2519


 14 15  0  0  0  0  0  0  0  0999 V2000
   -5.1636   -4.8929   19.6218 O   0  0  0  0  0  0  0  0  0  0  0  0
   -7.3843   -3.5270   23.4478 O   0  0  0  0  0  0  0  0  0  0  0  0
   -5.2762   -2.6814   23.0653 N   0  0  0  0  0  0  0  0  0  0  0  0
   -2.9262   -3.1296   20.5313 N   0  0  0  0  0  0  0  0  0  0  0  0
   -6.2970   -4.2205   21.5373 N   0  0  0  0  0  0  0  0  0  0  0  0
   -3.0410   -1.9478   22.4124 N   0  0  0  0  0  0  0  0  0  0  0  0
   -4.1452   -3.3994   21.0837 C   0  0  0  0  0  0  0  0  0  0  0  0
   -4.1845   -2.6645   22.2290 C   0  0  0  0  0  0  0  0  0  0  0  0
   -5.2108   -4.2355   20.6571 C   0  0  0  0  0  0  0  0  0  0  0  0
   -6.3781   -3.4740   22.7336 C   0  0  0  0  0  0  0  0  0  0  0  0
   -2.2940   -2.2484   21.3683 C   0  0  0  0  0  0  0  0  0  0  0  0
   -5.2745   -1.8808   24.2774 C   0  0  0  0  0  0  0  0  0  0  0  0
   -2.3971   -3.6646   19.3028 C   0  0  0  0  0  0  0  0  0  0  0  0
   -7.4483   -5.0376   21.2054 C   0  0  0  0  0  0  0  0  0  0  0  0
  1  9  2  0
  2 10  2  0
  3  8  1  0
  3 10  1  0
  3 12  1  0
  4  7  1  0
  4 11  1  0
  4 13  1  0
  5  9  1  0
  5 10  1  0
  5 14  1  0
  6  8  1  0
  6 11  2  0
  7  8  2  0
  7  9  1  0
M  END
> <PUBCHEM_COMPOUND_CID>
2519

> <PUBCHEM_CONFORMER_RMSD>
0.4

> <PUBCHEM_CONFORMER_DIVERSEORDER>
1

> <PUBCHEM_MMFF94_PARTIAL_CHARGES>
15
1 -0.57
10 0.69
11 0.04
12 0.3
13 0.26
14 0.3
15 0.15
2 -0.57
3 -0.42
4 0.05
5 -0.42
6 -0.57
7 -0.24
8 0.29
9 0.71

> <PUBCHEM_EFFECTIVE_ROTOR_COUNT>
0

> <PUBCHEM_PHARMACOPHORE_FEATURES>
5
1 1 acceptor
1 2 acceptor
3 4 6 11 cation
5 4 6 7 8 11 rings
6 3 5 7 8 9 10 rings

> <PUBCHEM_HEAVY_ATOM_COUNT>
14

> <PUBCHEM_ATOM_DEF_STEREO_COUNT>
0

> <PUBCHEM_ATOM_UDEF_STEREO_COUNT>
0

> <PUBCHEM_BOND_DEF_STEREO_COUNT>
0

> <PUBCHEM_BOND_UDEF_STEREO_COUNT>
0

> <PUBCHEM_ISOTOPIC_ATOM_COUNT>
0

> <PUBCHEM_COMPONENT_COUNT>
1

> <PUBCHEM_CACTVS_TAUTO_COUNT>
1

> <PUBCHEM_CONFORMER_ID>
000009D700000001

> <PUBCHEM_MMFF94_ENERGY>
22.901

> <PUBCHEM_FEATURE_SELFOVERLAP>
25.487

> <PUBCHEM_SHAPE_FINGERPRINT>
10967382 1 18338799025773621285
11132069 177 18339075025094499008
12524768 44 18342463625094026902
13140716 1 17978511158789908153
16945 1 18338517550775811621
193761 8 15816500986559935910
20588541 1 18339082691204868851
21501502 16 18338796715286957384
22802520 49 18128840606503503494
2334 1 18338516344016692929
23402539 116 18270382932679789735
23552423 10 18262240993325675966
23559900 14 18199193898169584358
241688 4 18266458702623303353
2748010 2 18266180539182415717
5084963 1 17698433339235542986
528886 8 18267580380709240570
53812653 166 18198902694142226312
66348 1 18339079396917369615

> <PUBCHEM_SHAPE_MULTIPOLES>
256.45
4.01
2.83
0.58
0.71
0.08
0
-0.48
0
-0.81
0
0.01
0
0

> <PUBCHEM_SHAPE_SELFOVERLAP>
550.88

> <PUBCHEM_SHAPE_VOLUME>
143.9

> <PUBCHEM_COORDINATE_TYPE>
2
5
10

> <Energy>
-122.511

> <minimizedAffinity>
-5.22992

> <CNNscore>
0.5188603997

> <CNNaffinity>
4.9418988228

> <CNN_VS>
2.5641555786

> <CNNaffinity_variance>
0.3417647779

$$$$
2519


 14 15  0  0  0  0  0  0  0  0999 V2000
   -6.3665   -2.7622   23.4906 O   0  0  0  0  0  0  0  0  0  0  0  0
   -1.8760   -2.3683   22.4341 O   0  0  0  0  0  0  0  0  0  0  0  0
   -3.1870   -3.7008   21.0883 N   0  0  0  0  0  0  0  0  0  0  0  0
   -6.5631   -4.5647   21.1127 N   0  0  0  0  0  0  0  0  0  0  0  0
   -4.1084   -2.5503   22.9785 N   0  0  0  0  0  0  0  0  0  0  0  0
   -4.8017   -5.0405   19.8399 N   0  0  0  0  0  0  0  0  0  0  0  0
   -5.5040   -3.8918   21.6508 C   0  0  0  0  0  0  0  0  0  0  0  0
   -4.4457   -4.2026   20.8528 C   0  0  0  0  0  0  0  0  0  0  0  0
   -5.4045   -3.0354   22.7792 C   0  0  0  0  0  0  0  0  0  0  0  0
   -2.9847   -2.8475   22.1761 C   0  0  0  0  0  0  0  0  0  0  0  0
   -6.0917   -5.2450   20.0209 C   0  0  0  0  0  0  0  0  0  0  0  0
   -2.0867   -4.0593   20.2102 C   0  0  0  0  0  0  0  0  0  0  0  0
   -7.9208   -4.5652   21.5941 C   0  0  0  0  0  0  0  0  0  0  0  0
   -3.8836   -1.6628   24.1032 C   0  0  0  0  0  0  0  0  0  0  0  0
  1  9  2  0
  2 10  2  0
  3  8  1  0
  3 10  1  0
  3 12  1  0
  4  7  1  0
  4 11  1  0
  4 13  1  0
  5  9  1  0
  5 10  1  0
  5 14  1  0
  6  8  1  0
  6 11  2  0
  7  8  2  0
  7  9  1  0
M  END
> <PUBCHEM_COMPOUND_CID>
2519

> <PUBCHEM_CONFORMER_RMSD>
0.4

> <PUBCHEM_CONFORMER_DIVERSEORDER>
1

> <PUBCHEM_MMFF94_PARTIAL_CHARGES>
15
1 -0.57
10 0.69
11 0.04
12 0.3
13 0.26
14 0.3
15 0.15
2 -0.57
3 -0.42
4 0.05
5 -0.42
6 -0.57
7 -0.24
8 0.29
9 0.71

> <PUBCHEM_EFFECTIVE_ROTOR_COUNT>
0

> <PUBCHEM_PHARMACOPHORE_FEATURES>
5
1 1 acceptor
1 2 acceptor
3 4 6 11 cation
5 4 6 7 8 11 rings
6 3 5 7 8 9 10 rings

> <PUBCHEM_HEAVY_ATOM_COUNT>
14

> <PUBCHEM_ATOM_DEF_STEREO_COUNT>
0

> <PUBCHEM_ATOM_UDEF_STEREO_COUNT>
0

> <PUBCHEM_BOND_DEF_STEREO_COUNT>
0

> <PUBCHEM_BOND_UDEF_STEREO_COUNT>
0

> <PUBCHEM_ISOTOPIC_ATOM_COUNT>
0

> <PUBCHEM_COMPONENT_COUNT>
1

> <PUBCHEM_CACTVS_TAUTO_COUNT>
1

> <PUBCHEM_CONFORMER_ID>
000009D700000001

> <PUBCHEM_MMFF94_ENERGY>
22.901

> <PUBCHEM_FEATURE_SELFOVERLAP>
25.487

> <PUBCHEM_SHAPE_FINGERPRINT>
10967382 1 18338799025773621285
11132069 177 18339075025094499008
12524768 44 18342463625094026902
13140716 1 17978511158789908153
16945 1 18338517550775811621
193761 8 15816500986559935910
20588541 1 18339082691204868851
21501502 16 18338796715286957384
22802520 49 18128840606503503494
2334 1 18338516344016692929
23402539 116 18270382932679789735
23552423 10 18262240993325675966
23559900 14 18199193898169584358
241688 4 18266458702623303353
2748010 2 18266180539182415717
5084963 1 17698433339235542986
528886 8 18267580380709240570
53812653 166 18198902694142226312
66348 1 18339079396917369615

> <PUBCHEM_SHAPE_MULTIPOLES>
256.45
4.01
2.83
0.58
0.71
0.08
0
-0.48
0
-0.81
0
0.01
0
0

> <PUBCHEM_SHAPE_SELFOVERLAP>
550.88

> <PUBCHEM_SHAPE_VOLUME>
143.9

> <PUBCHEM_COORDINATE_TYPE>
2
5
10

> <Energy>
-122.511

> <minimizedAffinity>
-5.29153

> <CNNscore>
0.5151355863

> <CNNaffinity>
4.7730937004

> <CNN_VS>
2.4587905407

> <CNNaffinity_variance>
0.7170560956

$$$$
2519


 14 15  0  0  0  0  0  0  0  0999 V2000
   -5.4028   -4.5081   19.7081 O   0  0  0  0  0  0  0  0  0  0  0  0
   -1.8758   -2.1796   21.5987 O   0  0  0  0  0  0  0  0  0  0  0  0
   -3.7906   -2.4401   22.8522 N   0  0  0  0  0  0  0  0  0  0  0  0
   -6.8550   -3.9947   22.2711 N   0  0  0  0  0  0  0  0  0  0  0  0
   -3.6191   -3.3419   20.6379 N   0  0  0  0  0  0  0  0  0  0  0  0
   -5.9299   -2.8648   23.9493 N   0  0  0  0  0  0  0  0  0  0  0  0
   -5.6016   -3.6456   21.8578 C   0  0  0  0  0  0  0  0  0  0  0  0
   -5.0638   -2.9579   22.9025 C   0  0  0  0  0  0  0  0  0  0  0  0
   -4.9071   -3.8859   20.6426 C   0  0  0  0  0  0  0  0  0  0  0  0
   -3.0243   -2.6229   21.6982 C   0  0  0  0  0  0  0  0  0  0  0  0
   -7.0094   -3.5019   23.5401 C   0  0  0  0  0  0  0  0  0  0  0  0
   -3.2573   -1.7132   23.9911 C   0  0  0  0  0  0  0  0  0  0  0  0
   -7.8352   -4.7394   21.5228 C   0  0  0  0  0  0  0  0  0  0  0  0
   -2.8118   -3.5247   19.4472 C   0  0  0  0  0  0  0  0  0  0  0  0
  1  9  2  0
  2 10  2  0
  3  8  1  0
  3 10  1  0
  3 12  1  0
  4  7  1  0
  4 11  1  0
  4 13  1  0
  5  9  1  0
  5 10  1  0
  5 14  1  0
  6  8  1  0
  6 11  2  0
  7  8  2  0
  7  9  1  0
M  END
> <PUBCHEM_COMPOUND_CID>
2519

> <PUBCHEM_CONFORMER_RMSD>
0.4

> <PUBCHEM_CONFORMER_DIVERSEORDER>
1

> <PUBCHEM_MMFF94_PARTIAL_CHARGES>
15
1 -0.57
10 0.69
11 0.04
12 0.3
13 0.26
14 0.3
15 0.15
2 -0.57
3 -0.42
4 0.05
5 -0.42
6 -0.57
7 -0.24
8 0.29
9 0.71

> <PUBCHEM_EFFECTIVE_ROTOR_COUNT>
0

> <PUBCHEM_PHARMACOPHORE_FEATURES>
5
1 1 acceptor
1 2 acceptor
3 4 6 11 cation
5 4 6 7 8 11 rings
6 3 5 7 8 9 10 rings

> <PUBCHEM_HEAVY_ATOM_COUNT>
14

> <PUBCHEM_ATOM_DEF_STEREO_COUNT>
0

> <PUBCHEM_ATOM_UDEF_STEREO_COUNT>
0

> <PUBCHEM_BOND_DEF_STEREO_COUNT>
0

> <PUBCHEM_BOND_UDEF_STEREO_COUNT>
0

> <PUBCHEM_ISOTOPIC_ATOM_COUNT>
0

> <PUBCHEM_COMPONENT_COUNT>
1

> <PUBCHEM_CACTVS_TAUTO_COUNT>
1

> <PUBCHEM_CONFORMER_ID>
000009D700000001

> <PUBCHEM_MMFF94_ENERGY>
22.901

> <PUBCHEM_FEATURE_SELFOVERLAP>
25.487

> <PUBCHEM_SHAPE_FINGERPRINT>
10967382 1 18338799025773621285
11132069 177 18339075025094499008
12524768 44 18342463625094026902
13140716 1 17978511158789908153
16945 1 18338517550775811621
193761 8 15816500986559935910
20588541 1 18339082691204868851
21501502 16 18338796715286957384
22802520 49 18128840606503503494
2334 1 18338516344016692929
23402539 116 18270382932679789735
23552423 10 18262240993325675966
23559900 14 18199193898169584358
241688 4 18266458702623303353
2748010 2 18266180539182415717
5084963 1 17698433339235542986
528886 8 18267580380709240570
53812653 166 18198902694142226312
66348 1 18339079396917369615

> <PUBCHEM_SHAPE_MULTIPOLES>
256.45
4.01
2.83
0.58
0.71
0.08
0
-0.48
0
-0.81
0
0.01
0
0

> <PUBCHEM_SHAPE_SELFOVERLAP>
550.88

> <PUBCHEM_SHAPE_VOLUME>
143.9

> <PUBCHEM_COORDINATE_TYPE>
2
5
10

> <Energy>
-122.511

> <minimizedAffinity>
-5.39936

> <CNNscore>
0.4847886264

> <CNNaffinity>
4.9431352615

> <CNN_VS>
2.3963756561

> <CNNaffinity_variance>
0.2757140398

$$$$
2519


 14 15  0  0  0  0  0  0  0  0999 V2000
   -3.9267   -3.9117   19.8015 O   0  0  0  0  0  0  0  0  0  0  0  0
   -7.8813   -4.5707   22.1172 O   0  0  0  0  0  0  0  0  0  0  0  0
   -6.1932   -3.4141   23.1744 N   0  0  0  0  0  0  0  0  0  0  0  0
   -2.9709   -2.4704   22.2410 N   0  0  0  0  0  0  0  0  0  0  0  0
   -5.9214   -4.2544   20.9460 N   0  0  0  0  0  0  0  0  0  0  0  0
   -4.2460   -2.2280   24.0476 N   0  0  0  0  0  0  0  0  0  0  0  0
   -4.1579   -3.0844   21.9617 C   0  0  0  0  0  0  0  0  0  0  0  0
   -4.9131   -2.9196   23.0825 C   0  0  0  0  0  0  0  0  0  0  0  0
   -4.6171   -3.7704   20.8063 C   0  0  0  0  0  0  0  0  0  0  0  0
   -6.7375   -4.1056   22.0892 C   0  0  0  0  0  0  0  0  0  0  0  0
   -3.0698   -1.9678   23.5116 C   0  0  0  0  0  0  0  0  0  0  0  0
   -6.9628   -3.2144   24.3901 C   0  0  0  0  0  0  0  0  0  0  0  0
   -1.8270   -2.3658   21.3715 C   0  0  0  0  0  0  0  0  0  0  0  0
   -6.4998   -4.9733   19.8273 C   0  0  0  0  0  0  0  0  0  0  0  0
  1  9  2  0
  2 10  2  0
  3  8  1  0
  3 10  1  0
  3 12  1  0
  4  7  1  0
  4 11  1  0
  4 13  1  0
  5  9  1  0
  5 10  1  0
  5 14  1  0
  6  8  1  0
  6 11  2  0
  7  8  2  0
  7  9  1  0
M  END
> <PUBCHEM_COMPOUND_CID>
2519

> <PUBCHEM_CONFORMER_RMSD>
0.4

> <PUBCHEM_CONFORMER_DIVERSEORDER>
1

> <PUBCHEM_MMFF94_PARTIAL_CHARGES>
15
1 -0.57
10 0.69
11 0.04
12 0.3
13 0.26
14 0.3
15 0.15
2 -0.57
3 -0.42
4 0.05
5 -0.42
6 -0.57
7 -0.24
8 0.29
9 0.71

> <PUBCHEM_EFFECTIVE_ROTOR_COUNT>
0

> <PUBCHEM_PHARMACOPHORE_FEATURES>
5
1 1 acceptor
1 2 acceptor
3 4 6 11 cation
5 4 6 7 8 11 rings
6 3 5 7 8 9 10 rings

> <PUBCHEM_HEAVY_ATOM_COUNT>
14

> <PUBCHEM_ATOM_DEF_STEREO_COUNT>
0

> <PUBCHEM_ATOM_UDEF_STEREO_COUNT>
0

> <PUBCHEM_BOND_DEF_STEREO_COUNT>
0

> <PUBCHEM_BOND_UDEF_STEREO_COUNT>
0

> <PUBCHEM_ISOTOPIC_ATOM_COUNT>
0

> <PUBCHEM_COMPONENT_COUNT>
1

> <PUBCHEM_CACTVS_TAUTO_COUNT>
1

> <PUBCHEM_CONFORMER_ID>
000009D700000001

> <PUBCHEM_MMFF94_ENERGY>
22.901

> <PUBCHEM_FEATURE_SELFOVERLAP>
25.487

> <PUBCHEM_SHAPE_FINGERPRINT>
10967382 1 18338799025773621285
11132069 177 18339075025094499008
12524768 44 18342463625094026902
13140716 1 17978511158789908153
16945 1 18338517550775811621
193761 8 15816500986559935910
20588541 1 18339082691204868851
21501502 16 18338796715286957384
22802520 49 18128840606503503494
2334 1 18338516344016692929
23402539 116 18270382932679789735
23552423 10 18262240993325675966
23559900 14 18199193898169584358
241688 4 18266458702623303353
2748010 2 18266180539182415717
5084963 1 17698433339235542986
528886 8 18267580380709240570
53812653 166 18198902694142226312
66348 1 18339079396917369615

> <PUBCHEM_SHAPE_MULTIPOLES>
256.45
4.01
2.83
0.58
0.71
0.08
0
-0.48
0
-0.81
0
0.01
0
0

> <PUBCHEM_SHAPE_SELFOVERLAP>
550.88

> <PUBCHEM_SHAPE_VOLUME>
143.9

> <PUBCHEM_COORDINATE_TYPE>
2
5
10

> <Energy>
-122.511

> <minimizedAffinity>
-5.59246

> <CNNscore>
0.4338141680

> <CNNaffinity>
5.1811556816

> <CNN_VS>
2.2476587296

> <CNNaffinity_variance>
0.1177915707

$$$$
2519


 14 15  0  0  0  0  0  0  0  0999 V2000
   -3.3083   -5.4758   21.5863 O   0  0  0  0  0  0  0  0  0  0  0  0
   -3.3961   -1.5831   24.0912 O   0  0  0  0  0  0  0  0  0  0  0  0
   -5.3287   -2.2106   23.0065 N   0  0  0  0  0  0  0  0  0  0  0  0
   -6.1745   -4.8999   20.9577 N   0  0  0  0  0  0  0  0  0  0  0  0
   -3.3298   -3.5241   22.8498 N   0  0  0  0  0  0  0  0  0  0  0  0
   -7.2246   -3.1095   21.7581 N   0  0  0  0  0  0  0  0  0  0  0  0
   -5.2631   -4.2243   21.7172 C   0  0  0  0  0  0  0  0  0  0  0  0
   -5.9335   -3.1381   22.1906 C   0  0  0  0  0  0  0  0  0  0  0  0
   -3.9015   -4.4924   22.0188 C   0  0  0  0  0  0  0  0  0  0  0  0
   -3.9887   -2.3845   23.3618 C   0  0  0  0  0  0  0  0  0  0  0  0
   -7.3447   -4.1895   21.0113 C   0  0  0  0  0  0  0  0  0  0  0  0
   -6.0830   -1.0666   23.4885 C   0  0  0  0  0  0  0  0  0  0  0  0
   -5.9564   -6.1265   20.2344 C   0  0  0  0  0  0  0  0  0  0  0  0
   -1.9398   -3.6921   23.2277 C   0  0  0  0  0  0  0  0  0  0  0  0
  1  9  2  0
  2 10  2  0
  3  8  1  0
  3 10  1  0
  3 12  1  0
  4  7  1  0
  4 11  1  0
  4 13  1  0
  5  9  1  0
  5 10  1  0
  5 14  1  0
  6  8  1  0
  6 11  2  0
  7  8  2  0
  7  9  1  0
M  END
> <PUBCHEM_COMPOUND_CID>
2519

> <PUBCHEM_CONFORMER_RMSD>
0.4

> <PUBCHEM_CONFORMER_DIVERSEORDER>
1

> <PUBCHEM_MMFF94_PARTIAL_CHARGES>
15
1 -0.57
10 0.69
11 0.04
12 0.3
13 0.26
14 0.3
15 0.15
2 -0.57
3 -0.42
4 0.05
5 -0.42
6 -0.57
7 -0.24
8 0.29
9 0.71

> <PUBCHEM_EFFECTIVE_ROTOR_COUNT>
0

> <PUBCHEM_PHARMACOPHORE_FEATURES>
5
1 1 acceptor
1 2 acceptor
3 4 6 11 cation
5 4 6 7 8 11 rings
6 3 5 7 8 9 10 rings

> <PUBCHEM_HEAVY_ATOM_COUNT>
14

> <PUBCHEM_ATOM_DEF_STEREO_COUNT>
0

> <PUBCHEM_ATOM_UDEF_STEREO_COUNT>
0

> <PUBCHEM_BOND_DEF_STEREO_COUNT>
0

> <PUBCHEM_BOND_UDEF_STEREO_COUNT>
0

> <PUBCHEM_ISOTOPIC_ATOM_COUNT>
0

> <PUBCHEM_COMPONENT_COUNT>
1

> <PUBCHEM_CACTVS_TAUTO_COUNT>
1

> <PUBCHEM_CONFORMER_ID>
000009D700000001

> <PUBCHEM_MMFF94_ENERGY>
22.901

> <PUBCHEM_FEATURE_SELFOVERLAP>
25.487

> <PUBCHEM_SHAPE_FINGERPRINT>
10967382 1 18338799025773621285
11132069 177 18339075025094499008
12524768 44 18342463625094026902
13140716 1 17978511158789908153
16945 1 18338517550775811621
193761 8 15816500986559935910
20588541 1 18339082691204868851
21501502 16 18338796715286957384
22802520 49 18128840606503503494
2334 1 18338516344016692929
23402539 116 18270382932679789735
23552423 10 18262240993325675966
23559900 14 18199193898169584358
241688 4 18266458702623303353
2748010 2 18266180539182415717
5084963 1 17698433339235542986
528886 8 18267580380709240570
53812653 166 18198902694142226312
66348 1 18339079396917369615

> <PUBCHEM_SHAPE_MULTIPOLES>
256.45
4.01
2.83
0.58
0.71
0.08
0
-0.48
0
-0.81
0
0.01
0
0

> <PUBCHEM_SHAPE_SELFOVERLAP>
550.88

> <PUBCHEM_SHAPE_VOLUME>
143.9

> <PUBCHEM_COORDINATE_TYPE>
2
5
10

> <Energy>
-122.511

> <minimizedAffinity>
-5.40561

> <CNNscore>
0.3847162127

> <CNNaffinity>
4.4666686058

> <CNN_VS>
1.7183998823

> <CNNaffinity_variance>
0.5920092463

$$$$
2519


 14 15  0  0  0  0  0  0  0  0999 V2000
   -7.3558   -2.6211   21.6117 O   0  0  0  0  0  0  0  0  0  0  0  0
   -3.4508   -1.2736   23.7023 O   0  0  0  0  0  0  0  0  0  0  0  0
   -3.5271   -3.4046   22.8316 N   0  0  0  0  0  0  0  0  0  0  0  0
   -5.9681   -5.2275   21.1393 N   0  0  0  0  0  0  0  0  0  0  0  0
   -5.4045   -1.9235   22.6661 N   0  0  0  0  0  0  0  0  0  0  0  0
   -3.8843   -5.5993   21.8234 N   0  0  0  0  0  0  0  0  0  0  0  0
   -5.5533   -4.0822   21.7558 C   0  0  0  0  0  0  0  0  0  0  0  0
   -4.2798   -4.3409   22.1620 C   0  0  0  0  0  0  0  0  0  0  0  0
   -6.2073   -2.8424   21.9835 C   0  0  0  0  0  0  0  0  0  0  0  0
   -4.0813   -2.1514   23.1045 C   0  0  0  0  0  0  0  0  0  0  0  0
   -4.9274   -6.1161   21.2042 C   0  0  0  0  0  0  0  0  0  0  0  0
   -2.1720   -3.7243   23.2459 C   0  0  0  0  0  0  0  0  0  0  0  0
   -7.2531   -5.4653   20.5330 C   0  0  0  0  0  0  0  0  0  0  0  0
   -5.9661   -0.6182   22.9555 C   0  0  0  0  0  0  0  0  0  0  0  0
  1  9  2  0
  2 10  2  0
  3  8  1  0
  3 10  1  0
  3 12  1  0
  4  7  1  0
  4 11  1  0
  4 13  1  0
  5  9  1  0
  5 10  1  0
  5 14  1  0
  6  8  1  0
  6 11  2  0
  7  8  2  0
  7  9  1  0
M  END
> <PUBCHEM_COMPOUND_CID>
2519

> <PUBCHEM_CONFORMER_RMSD>
0.4

> <PUBCHEM_CONFORMER_DIVERSEORDER>
1

> <PUBCHEM_MMFF94_PARTIAL_CHARGES>
15
1 -0.57
10 0.69
11 0.04
12 0.3
13 0.26
14 0.3
15 0.15
2 -0.57
3 -0.42
4 0.05
5 -0.42
6 -0.57
7 -0.24
8 0.29
9 0.71

> <PUBCHEM_EFFECTIVE_ROTOR_COUNT>
0

> <PUBCHEM_PHARMACOPHORE_FEATURES>
5
1 1 acceptor
1 2 acceptor
3 4 6 11 cation
5 4 6 7 8 11 rings
6 3 5 7 8 9 10 rings

> <PUBCHEM_HEAVY_ATOM_COUNT>
14

> <PUBCHEM_ATOM_DEF_STEREO_COUNT>
0

> <PUBCHEM_ATOM_UDEF_STEREO_COUNT>
0

> <PUBCHEM_BOND_DEF_STEREO_COUNT>
0

> <PUBCHEM_BOND_UDEF_STEREO_COUNT>
0

> <PUBCHEM_ISOTOPIC_ATOM_COUNT>
0

> <PUBCHEM_COMPONENT_COUNT>
1

> <PUBCHEM_CACTVS_TAUTO_COUNT>
1

> <PUBCHEM_CONFORMER_ID>
000009D700000001

> <PUBCHEM_MMFF94_ENERGY>
22.901

> <PUBCHEM_FEATURE_SELFOVERLAP>
25.487

> <PUBCHEM_SHAPE_FINGERPRINT>
10967382 1 18338799025773621285
11132069 177 18339075025094499008
12524768 44 18342463625094026902
13140716 1 17978511158789908153
16945 1 18338517550775811621
193761 8 15816500986559935910
20588541 1 18339082691204868851
21501502 16 18338796715286957384
22802520 49 18128840606503503494
2334 1 18338516344016692929
23402539 116 18270382932679789735
23552423 10 18262240993325675966
23559900 14 18199193898169584358
241688 4 18266458702623303353
2748010 2 18266180539182415717
5084963 1 17698433339235542986
528886 8 18267580380709240570
53812653 166 18198902694142226312
66348 1 18339079396917369615

> <PUBCHEM_SHAPE_MULTIPOLES>
256.45
4.01
2.83
0.58
0.71
0.08
0
-0.48
0
-0.81
0
0.01
0
0

> <PUBCHEM_SHAPE_SELFOVERLAP>
550.88

> <PUBCHEM_SHAPE_VOLUME>
143.9

> <PUBCHEM_COORDINATE_TYPE>
2
5
10

> <Energy>
-122.511

> <minimizedAffinity>
-5.15621

> <CNNscore>
0.3714376390

> <CNNaffinity>
4.6797256470

> <CNN_VS>
1.7382262945

> <CNNaffinity_variance>
0.2997418344

$$$$
2519


 14 15  0  0  0  0  0  0  0  0999 V2000
   -7.0557   -3.1160   22.2501 O   0  0  0  0  0  0  0  0  0  0  0  0
   -3.3758   -1.3706   24.4517 O   0  0  0  0  0  0  0  0  0  0  0  0
   -2.9983   -2.7109   22.6169 N   0  0  0  0  0  0  0  0  0  0  0  0
   -5.0891   -4.4109   20.4069 N   0  0  0  0  0  0  0  0  0  0  0  0
   -5.2220   -2.2289   23.3710 N   0  0  0  0  0  0  0  0  0  0  0  0
   -2.8928   -4.1559   20.6518 N   0  0  0  0  0  0  0  0  0  0  0  0
   -4.9123   -3.6032   21.4934 C   0  0  0  0  0  0  0  0  0  0  0  0
   -3.5633   -3.4672   21.6167 C   0  0  0  0  0  0  0  0  0  0  0  0
   -5.8415   -2.9862   22.3722 C   0  0  0  0  0  0  0  0  0  0  0  0
   -3.8290   -2.0622   23.5343 C   0  0  0  0  0  0  0  0  0  0  0  0
   -3.8421   -4.7199   19.9312 C   0  0  0  0  0  0  0  0  0  0  0  0
   -1.5535   -2.5935   22.7100 C   0  0  0  0  0  0  0  0  0  0  0  0
   -6.3437   -4.8578   19.8579 C   0  0  0  0  0  0  0  0  0  0  0  0
   -6.0716   -1.5491   24.3298 C   0  0  0  0  0  0  0  0  0  0  0  0
  1  9  2  0
  2 10  2  0
  3  8  1  0
  3 10  1  0
  3 12  1  0
  4  7  1  0
  4 11  1  0
  4 13  1  0
  5  9  1  0
  5 10  1  0
  5 14  1  0
  6  8  1  0
  6 11  2  0
  7  8  2  0
  7  9  1  0
M  END
> <PUBCHEM_COMPOUND_CID>
2519

> <PUBCHEM_CONFORMER_RMSD>
0.4

> <PUBCHEM_CONFORMER_DIVERSEORDER>
1

> <PUBCHEM_MMFF94_PARTIAL_CHARGES>
15
1 -0.57
10 0.69
11 0.04
12 0.3
13 0.26
14 0.3
15 0.15
2 -0.57
3 -0.42
4 0.05
5 -0.42
6 -0.57
7 -0.24
8 0.29
9 0.71

> <PUBCHEM_EFFECTIVE_ROTOR_COUNT>
0

> <PUBCHEM_PHARMACOPHORE_FEATURES>
5
1 1 acceptor
1 2 acceptor
3 4 6 11 cation
5 4 6 7 8 11 rings
6 3 5 7 8 9 10 rings

> <PUBCHEM_HEAVY_ATOM_COUNT>
14

> <PUBCHEM_ATOM_DEF_STEREO_COUNT>
0

> <PUBCHEM_ATOM_UDEF_STEREO_COUNT>
0

> <PUBCHEM_BOND_DEF_STEREO_COUNT>
0

> <PUBCHEM_BOND_UDEF_STEREO_COUNT>
0

> <PUBCHEM_ISOTOPIC_ATOM_COUNT>
0

> <PUBCHEM_COMPONENT_COUNT>
1

> <PUBCHEM_CACTVS_TAUTO_COUNT>
1

> <PUBCHEM_CONFORMER_ID>
000009D700000001

> <PUBCHEM_MMFF94_ENERGY>
22.901

> <PUBCHEM_FEATURE_SELFOVERLAP>
25.487

> <PUBCHEM_SHAPE_FINGERPRINT>
10967382 1 18338799025773621285
11132069 177 18339075025094499008
12524768 44 18342463625094026902
13140716 1 17978511158789908153
16945 1 18338517550775811621
193761 8 15816500986559935910
20588541 1 18339082691204868851
21501502 16 18338796715286957384
22802520 49 18128840606503503494
2334 1 18338516344016692929
23402539 116 18270382932679789735
23552423 10 18262240993325675966
23559900 14 18199193898169584358
241688 4 18266458702623303353
2748010 2 18266180539182415717
5084963 1 17698433339235542986
528886 8 18267580380709240570
53812653 166 18198902694142226312
66348 1 18339079396917369615

> <PUBCHEM_SHAPE_MULTIPOLES>
256.45
4.01
2.83
0.58
0.71
0.08
0
-0.48
0
-0.81
0
0.01
0
0

> <PUBCHEM_SHAPE_SELFOVERLAP>
550.88

> <PUBCHEM_SHAPE_VOLUME>
143.9

> <PUBCHEM_COORDINATE_TYPE>
2
5
10

> <Energy>
-122.511

> <minimizedAffinity>
-4.96312

> <CNNscore>
0.3162159920

> <CNNaffinity>
4.7014565468

> <CNN_VS>
1.4866757393

> <CNNaffinity_variance>
0.6537670493

$$$$
