448537


 22 23  0  0  0  0  0  0  0  0999 V2000
   -4.9272   -3.1670   22.1094 C   0  0  0  0  0  0  0  0  0  0  0  0
   -4.0983   -3.9142   21.3384 C   0  0  0  0  0  0  0  0  0  0  0  0
   -9.2959   -5.5233   24.7632 O   0  0  0  0  0  0  0  0  0  0  0  0
   -6.0802   -3.7869   22.7935 C   0  0  0  0  0  0  0  0  0  0  0  0
   -7.3815   -3.5706   22.3206 C   0  0  0  0  0  0  0  0  0  0  0  0
   -5.8832   -4.5900   23.9241 C   0  0  0  0  0  0  0  0  0  0  0  0
   -8.4739   -4.1478   22.9730 C   0  0  0  0  0  0  0  0  0  0  0  0
   -6.9750   -5.1667   24.5752 C   0  0  0  0  0  0  0  0  0  0  0  0
   -8.2590   -4.9412   24.0952 C   0  0  0  0  0  0  0  0  0  0  0  0
  -10.1754   -5.3932   24.4678 H   0  0  0  0  0  0  0  0  0  0  0  0
    0.2997   -1.5217   18.7662 O   0  0  0  0  0  0  0  0  0  0  0  0
   -2.9433   -3.2953   20.6559 C   0  0  0  0  0  0  0  0  0  0  0  0
   -1.8380   -2.8516   21.3929 C   0  0  0  0  0  0  0  0  0  0  0  0
   -2.9502   -3.1389   19.2636 C   0  0  0  0  0  0  0  0  0  0  0  0
   -0.7553   -2.2572   20.7427 C   0  0  0  0  0  0  0  0  0  0  0  0
   -1.8674   -2.5456   18.6135 C   0  0  0  0  0  0  0  0  0  0  0  0
   -0.7782   -2.1086   19.3607 C   0  0  0  0  0  0  0  0  0  0  0  0
    1.0234   -1.2343   19.2874 H   0  0  0  0  0  0  0  0  0  0  0  0
   -4.7699   -1.6843   22.3966 C   0  0  0  0  0  0  0  0  0  0  0  0
   -4.2356   -1.3998   23.7943 C   0  0  0  0  0  0  0  0  0  0  0  0
   -4.2102   -5.4117   21.1149 C   0  0  0  0  0  0  0  0  0  0  0  0
   -5.3120   -5.7871   20.1324 C   0  0  0  0  0  0  0  0  0  0  0  0
  3  9  1  0
  3 10  1  0
 11 17  1  0
 11 18  1  0
  1  2  2  0
  1 19  1  0
  1  4  1  0
  2 21  1  0
  2 12  1  0
 19 20  1  0
 21 22  1  0
  4  5  2  0
  4  6  1  0
 12 13  2  0
 12 14  1  0
  5  7  1  0
 13 15  1  0
  6  8  2  0
 14 16  2  0
  7  9  2  0
 15 17  2  0
  8  9  1  0
 16 17  1  0
M  END
> <PUBCHEM_COMPOUND_CID>
448537

> <PUBCHEM_CONFORMER_RMSD>
0.6

> <PUBCHEM_CONFORMER_DIVERSEORDER>
1
3
2

> <PUBCHEM_MMFF94_PARTIAL_CHARGES>
28
1 -0.53
11 -0.15
12 -0.15
13 -0.15
14 -0.15
15 -0.15
16 -0.15
17 -0.15
18 -0.15
19 0.08
2 -0.53
20 0.08
3 -0.17
31 0.15
32 0.15
33 0.15
34 0.15
35 0.15
36 0.15
37 0.15
38 0.15
39 0.45
4 -0.17
40 0.45
5 0.14
6 0.14
7 0.03
8 0.03

> <PUBCHEM_EFFECTIVE_ROTOR_COUNT>
4

> <PUBCHEM_PHARMACOPHORE_FEATURES>
6
1 1 donor
1 10 hydrophobe
1 2 donor
1 9 hydrophobe
6 7 11 13 15 17 19 rings
6 8 12 14 16 18 20 rings

> <PUBCHEM_HEAVY_ATOM_COUNT>
20

> <PUBCHEM_ATOM_DEF_STEREO_COUNT>
0

> <PUBCHEM_ATOM_UDEF_STEREO_COUNT>
0

> <PUBCHEM_BOND_DEF_STEREO_COUNT>
1

> <PUBCHEM_BOND_UDEF_STEREO_COUNT>
0

> <PUBCHEM_ISOTOPIC_ATOM_COUNT>
0

> <PUBCHEM_COMPONENT_COUNT>
1

> <PUBCHEM_CACTVS_TAUTO_COUNT>
3

> <PUBCHEM_CONFORMER_ID>
0006D81900000001

> <PUBCHEM_MMFF94_ENERGY>
60.231

> <PUBCHEM_FEATURE_SELFOVERLAP>
30.447

> <PUBCHEM_SHAPE_FINGERPRINT>
10366900 7 18186514428534874893
104564 63 18339924792832442081
10906281 52 18129397028286092948
11646440 116 18130798871235594657
12592029 89 16950278473467191938
12788726 201 18270697410649816016
13140716 1 18266458895859843337
13533116 47 18340201896197096762
13760787 19 16660644076447957075
14115302 16 18186806919849492430
14341114 176 15647057049052281551
15099037 51 18335139812416525942
15848700 24 18202843262111810220
15848702 151 16988848262958300981
16752209 62 18335696105492573576
16945 1 18410855473013063775
1813 80 18272378572207267076
18186145 218 18338228362096015613
187816 3 18410857663704853992
19141452 34 17131829889222033293
19784866 9 18113613452605694563
200 152 16950282905968490344
20028762 73 18055641861278493167
20600515 1 18340218469921978116
20645477 70 16009301016701038466
21285901 2 17917162606291067244
23175994 123 18333735723499757565
23402539 116 17988639696664490244
23493267 7 17313098635762053785
23557571 272 17489592229515708168
23559900 14 15554438621982335170
266924 87 18194116322357846868
347723 3 18410856551049855057
34934 24 18129105515976021729
3545911 37 15719391732852524422
4072396 5 18261662693185545291
4214541 1 15791727494979709055
465052 167 17240208741576471315
474 4 17917140731779840409
59755656 215 18270402685366324510
633830 44 18342455975941661781
69090 78 17060620005479420895
7226269 152 18410853270196137312
7495541 125 17531535390133293585
77779 3 15719110262139125926
81228 2 18128838385973970688
8272917 22 16660357039657468298
9971528 1 17775283884826915592

> <PUBCHEM_SHAPE_MULTIPOLES>
399.85
10.42
1.74
1.37
0
0
0.06
0
1.28
0
-0.74
0
0
-0.06

> <PUBCHEM_SHAPE_SELFOVERLAP>
850.96

> <PUBCHEM_SHAPE_VOLUME>
224.1

> <PUBCHEM_COORDINATE_TYPE>
2
5
10

> <Energy>
28.3223

> <minimizedAffinity>
-8.39696

> <CNNscore>
0.8745567799

> <CNNaffinity>
7.9013481140

> <CNN_VS>
6.9101777077

> <CNNaffinity_variance>
0.8436426520

$$$$
448537


 22 23  0  0  0  0  0  0  0  0999 V2000
   -4.0898   -3.8164   21.3341 C   0  0  0  0  0  0  0  0  0  0  0  0
   -4.8501   -3.0948   22.1950 C   0  0  0  0  0  0  0  0  0  0  0  0
    0.3193   -1.4612   18.7468 O   0  0  0  0  0  0  0  0  0  0  0  0
   -2.9243   -3.2035   20.6650 C   0  0  0  0  0  0  0  0  0  0  0  0
   -1.8557   -2.7065   21.4233 C   0  0  0  0  0  0  0  0  0  0  0  0
   -2.8806   -3.1077   19.2683 C   0  0  0  0  0  0  0  0  0  0  0  0
   -0.7573   -2.1169   20.7922 C   0  0  0  0  0  0  0  0  0  0  0  0
   -1.7828   -2.5191   18.6384 C   0  0  0  0  0  0  0  0  0  0  0  0
   -0.7321   -2.0294   19.4041 C   0  0  0  0  0  0  0  0  0  0  0  0
    1.0454   -1.1204   19.2309 H   0  0  0  0  0  0  0  0  0  0  0  0
   -9.2684   -5.4711   24.7474 O   0  0  0  0  0  0  0  0  0  0  0  0
   -6.0146   -3.7080   22.8666 C   0  0  0  0  0  0  0  0  0  0  0  0
   -5.8305   -4.6221   23.9117 C   0  0  0  0  0  0  0  0  0  0  0  0
   -7.3143   -3.3853   22.4549 C   0  0  0  0  0  0  0  0  0  0  0  0
   -6.9350   -5.2064   24.5340 C   0  0  0  0  0  0  0  0  0  0  0  0
   -8.4184   -3.9687   23.0776 C   0  0  0  0  0  0  0  0  0  0  0  0
   -8.2181   -4.8762   24.1129 C   0  0  0  0  0  0  0  0  0  0  0  0
   -9.1122   -6.0796   25.4425 H   0  0  0  0  0  0  0  0  0  0  0  0
   -4.2915   -5.2819   20.9916 C   0  0  0  0  0  0  0  0  0  0  0  0
   -5.4901   -5.5237   20.0834 C   0  0  0  0  0  0  0  0  0  0  0  0
   -4.6015   -1.6522   22.5976 C   0  0  0  0  0  0  0  0  0  0  0  0
   -4.0430   -1.5147   24.0080 C   0  0  0  0  0  0  0  0  0  0  0  0
  3  9  1  0
  3 10  1  0
 11 17  1  0
 11 18  1  0
  1  2  2  0
  1 19  1  0
  1  4  1  0
  2 21  1  0
  2 12  1  0
 19 20  1  0
 21 22  1  0
  4  5  2  0
  4  6  1  0
 12 13  2  0
 12 14  1  0
  5  7  1  0
 13 15  1  0
  6  8  2  0
 14 16  2  0
  7  9  2  0
 15 17  2  0
  8  9  1  0
 16 17  1  0
M  END
> <PUBCHEM_COMPOUND_CID>
448537

> <PUBCHEM_CONFORMER_RMSD>
0.6

> <PUBCHEM_CONFORMER_DIVERSEORDER>
1
3
2

> <PUBCHEM_MMFF94_PARTIAL_CHARGES>
28
1 -0.53
11 -0.15
12 -0.15
13 -0.15
14 -0.15
15 -0.15
16 -0.15
17 -0.15
18 -0.15
19 0.08
2 -0.53
20 0.08
3 -0.17
31 0.15
32 0.15
33 0.15
34 0.15
35 0.15
36 0.15
37 0.15
38 0.15
39 0.45
4 -0.17
40 0.45
5 0.14
6 0.14
7 0.03
8 0.03

> <PUBCHEM_EFFECTIVE_ROTOR_COUNT>
4

> <PUBCHEM_PHARMACOPHORE_FEATURES>
6
1 1 donor
1 10 hydrophobe
1 2 donor
1 9 hydrophobe
6 7 11 13 15 17 19 rings
6 8 12 14 16 18 20 rings

> <PUBCHEM_HEAVY_ATOM_COUNT>
20

> <PUBCHEM_ATOM_DEF_STEREO_COUNT>
0

> <PUBCHEM_ATOM_UDEF_STEREO_COUNT>
0

> <PUBCHEM_BOND_DEF_STEREO_COUNT>
1

> <PUBCHEM_BOND_UDEF_STEREO_COUNT>
0

> <PUBCHEM_ISOTOPIC_ATOM_COUNT>
0

> <PUBCHEM_COMPONENT_COUNT>
1

> <PUBCHEM_CACTVS_TAUTO_COUNT>
3

> <PUBCHEM_CONFORMER_ID>
0006D81900000001

> <PUBCHEM_MMFF94_ENERGY>
60.231

> <PUBCHEM_FEATURE_SELFOVERLAP>
30.447

> <PUBCHEM_SHAPE_FINGERPRINT>
10366900 7 18186514428534874893
104564 63 18339924792832442081
10906281 52 18129397028286092948
11646440 116 18130798871235594657
12592029 89 16950278473467191938
12788726 201 18270697410649816016
13140716 1 18266458895859843337
13533116 47 18340201896197096762
13760787 19 16660644076447957075
14115302 16 18186806919849492430
14341114 176 15647057049052281551
15099037 51 18335139812416525942
15848700 24 18202843262111810220
15848702 151 16988848262958300981
16752209 62 18335696105492573576
16945 1 18410855473013063775
1813 80 18272378572207267076
18186145 218 18338228362096015613
187816 3 18410857663704853992
19141452 34 17131829889222033293
19784866 9 18113613452605694563
200 152 16950282905968490344
20028762 73 18055641861278493167
20600515 1 18340218469921978116
20645477 70 16009301016701038466
21285901 2 17917162606291067244
23175994 123 18333735723499757565
23402539 116 17988639696664490244
23493267 7 17313098635762053785
23557571 272 17489592229515708168
23559900 14 15554438621982335170
266924 87 18194116322357846868
347723 3 18410856551049855057
34934 24 18129105515976021729
3545911 37 15719391732852524422
4072396 5 18261662693185545291
4214541 1 15791727494979709055
465052 167 17240208741576471315
474 4 17917140731779840409
59755656 215 18270402685366324510
633830 44 18342455975941661781
69090 78 17060620005479420895
7226269 152 18410853270196137312
7495541 125 17531535390133293585
77779 3 15719110262139125926
81228 2 18128838385973970688
8272917 22 16660357039657468298
9971528 1 17775283884826915592

> <PUBCHEM_SHAPE_MULTIPOLES>
399.85
10.42
1.74
1.37
0
0
0.06
0
1.28
0
-0.74
0
0
-0.06

> <PUBCHEM_SHAPE_SELFOVERLAP>
850.96

> <PUBCHEM_SHAPE_VOLUME>
224.1

> <PUBCHEM_COORDINATE_TYPE>
2
5
10

> <Energy>
28.3223

> <minimizedAffinity>
-8.55540

> <CNNscore>
0.8704587221

> <CNNaffinity>
7.8919939995

> <CNN_VS>
6.8696551323

> <CNNaffinity_variance>
0.8405921459

$$$$
448537


 22 23  0  0  0  0  0  0  0  0999 V2000
   -4.9215   -3.9713   21.5588 C   0  0  0  0  0  0  0  0  0  0  0  0
   -4.0145   -3.0319   21.9259 C   0  0  0  0  0  0  0  0  0  0  0  0
   -9.2567   -5.2786   24.9021 O   0  0  0  0  0  0  0  0  0  0  0  0
   -6.0505   -4.3143   22.4472 C   0  0  0  0  0  0  0  0  0  0  0  0
   -5.8466   -5.1388   23.5619 C   0  0  0  0  0  0  0  0  0  0  0  0
   -7.3351   -3.8242   22.1792 C   0  0  0  0  0  0  0  0  0  0  0  0
   -6.9157   -5.4726   24.3971 C   0  0  0  0  0  0  0  0  0  0  0  0
   -8.4027   -4.1577   23.0144 C   0  0  0  0  0  0  0  0  0  0  0  0
   -8.1846   -4.9777   24.1144 C   0  0  0  0  0  0  0  0  0  0  0  0
   -9.1468   -5.8288   25.6525 H   0  0  0  0  0  0  0  0  0  0  0  0
    0.2848   -1.6752   18.5558 O   0  0  0  0  0  0  0  0  0  0  0  0
   -2.8864   -2.6866   21.0366 C   0  0  0  0  0  0  0  0  0  0  0  0
   -1.7145   -2.1274   21.5619 C   0  0  0  0  0  0  0  0  0  0  0  0
   -2.9853   -2.9079   19.6567 C   0  0  0  0  0  0  0  0  0  0  0  0
   -0.6570   -1.7928   20.7144 C   0  0  0  0  0  0  0  0  0  0  0  0
   -1.9278   -2.5742   18.8097 C   0  0  0  0  0  0  0  0  0  0  0  0
   -0.7715   -2.0179   19.3474 C   0  0  0  0  0  0  0  0  0  0  0  0
    1.0547   -1.3019   18.9376 H   0  0  0  0  0  0  0  0  0  0  0  0
   -4.9284   -4.7260   20.2412 C   0  0  0  0  0  0  0  0  0  0  0  0
   -5.4336   -6.1568   20.3747 C   0  0  0  0  0  0  0  0  0  0  0  0
   -4.0523   -2.2211   23.2090 C   0  0  0  0  0  0  0  0  0  0  0  0
   -4.9756   -1.0128   23.1236 C   0  0  0  0  0  0  0  0  0  0  0  0
  3  9  1  0
  3 10  1  0
 11 17  1  0
 11 18  1  0
  1  2  2  0
  1 19  1  0
  1  4  1  0
  2 21  1  0
  2 12  1  0
 19 20  1  0
 21 22  1  0
  4  5  2  0
  4  6  1  0
 12 13  2  0
 12 14  1  0
  5  7  1  0
 13 15  1  0
  6  8  2  0
 14 16  2  0
  7  9  2  0
 15 17  2  0
  8  9  1  0
 16 17  1  0
M  END
> <PUBCHEM_COMPOUND_CID>
448537

> <PUBCHEM_CONFORMER_RMSD>
0.6

> <PUBCHEM_CONFORMER_DIVERSEORDER>
1
3
2

> <PUBCHEM_MMFF94_PARTIAL_CHARGES>
28
1 -0.53
11 -0.15
12 -0.15
13 -0.15
14 -0.15
15 -0.15
16 -0.15
17 -0.15
18 -0.15
19 0.08
2 -0.53
20 0.08
3 -0.17
31 0.15
32 0.15
33 0.15
34 0.15
35 0.15
36 0.15
37 0.15
38 0.15
39 0.45
4 -0.17
40 0.45
5 0.14
6 0.14
7 0.03
8 0.03

> <PUBCHEM_EFFECTIVE_ROTOR_COUNT>
4

> <PUBCHEM_PHARMACOPHORE_FEATURES>
6
1 1 donor
1 10 hydrophobe
1 2 donor
1 9 hydrophobe
6 7 11 13 15 17 19 rings
6 8 12 14 16 18 20 rings

> <PUBCHEM_HEAVY_ATOM_COUNT>
20

> <PUBCHEM_ATOM_DEF_STEREO_COUNT>
0

> <PUBCHEM_ATOM_UDEF_STEREO_COUNT>
0

> <PUBCHEM_BOND_DEF_STEREO_COUNT>
1

> <PUBCHEM_BOND_UDEF_STEREO_COUNT>
0

> <PUBCHEM_ISOTOPIC_ATOM_COUNT>
0

> <PUBCHEM_COMPONENT_COUNT>
1

> <PUBCHEM_CACTVS_TAUTO_COUNT>
3

> <PUBCHEM_CONFORMER_ID>
0006D81900000001

> <PUBCHEM_MMFF94_ENERGY>
60.231

> <PUBCHEM_FEATURE_SELFOVERLAP>
30.447

> <PUBCHEM_SHAPE_FINGERPRINT>
10366900 7 18186514428534874893
104564 63 18339924792832442081
10906281 52 18129397028286092948
11646440 116 18130798871235594657
12592029 89 16950278473467191938
12788726 201 18270697410649816016
13140716 1 18266458895859843337
13533116 47 18340201896197096762
13760787 19 16660644076447957075
14115302 16 18186806919849492430
14341114 176 15647057049052281551
15099037 51 18335139812416525942
15848700 24 18202843262111810220
15848702 151 16988848262958300981
16752209 62 18335696105492573576
16945 1 18410855473013063775
1813 80 18272378572207267076
18186145 218 18338228362096015613
187816 3 18410857663704853992
19141452 34 17131829889222033293
19784866 9 18113613452605694563
200 152 16950282905968490344
20028762 73 18055641861278493167
20600515 1 18340218469921978116
20645477 70 16009301016701038466
21285901 2 17917162606291067244
23175994 123 18333735723499757565
23402539 116 17988639696664490244
23493267 7 17313098635762053785
23557571 272 17489592229515708168
23559900 14 15554438621982335170
266924 87 18194116322357846868
347723 3 18410856551049855057
34934 24 18129105515976021729
3545911 37 15719391732852524422
4072396 5 18261662693185545291
4214541 1 15791727494979709055
465052 167 17240208741576471315
474 4 17917140731779840409
59755656 215 18270402685366324510
633830 44 18342455975941661781
69090 78 17060620005479420895
7226269 152 18410853270196137312
7495541 125 17531535390133293585
77779 3 15719110262139125926
81228 2 18128838385973970688
8272917 22 16660357039657468298
9971528 1 17775283884826915592

> <PUBCHEM_SHAPE_MULTIPOLES>
399.85
10.42
1.74
1.37
0
0
0.06
0
1.28
0
-0.74
0
0
-0.06

> <PUBCHEM_SHAPE_SELFOVERLAP>
850.96

> <PUBCHEM_SHAPE_VOLUME>
224.1

> <PUBCHEM_COORDINATE_TYPE>
2
5
10

> <Energy>
28.3223

> <minimizedAffinity>
-8.76210

> <CNNscore>
0.8626550436

> <CNNaffinity>
7.9152750969

> <CNN_VS>
6.8281521797

> <CNNaffinity_variance>
0.9534422755

$$$$
448537


 22 23  0  0  0  0  0  0  0  0999 V2000
   -4.0028   -3.0432   21.9255 C   0  0  0  0  0  0  0  0  0  0  0  0
   -4.9289   -3.9538   21.5342 C   0  0  0  0  0  0  0  0  0  0  0  0
    0.2657   -1.6905   18.5151 O   0  0  0  0  0  0  0  0  0  0  0  0
   -2.8736   -2.6913   21.0408 C   0  0  0  0  0  0  0  0  0  0  0  0
   -1.7235   -2.0898   21.5693 C   0  0  0  0  0  0  0  0  0  0  0  0
   -2.9457   -2.9493   19.6659 C   0  0  0  0  0  0  0  0  0  0  0  0
   -0.6589   -1.7467   20.7319 C   0  0  0  0  0  0  0  0  0  0  0  0
   -1.8815   -2.6068   18.8300 C   0  0  0  0  0  0  0  0  0  0  0  0
   -0.7490   -2.0093   19.3689 C   0  0  0  0  0  0  0  0  0  0  0  0
    1.0446   -1.2865   18.8434 H   0  0  0  0  0  0  0  0  0  0  0  0
   -9.2493   -5.2463   24.9026 O   0  0  0  0  0  0  0  0  0  0  0  0
   -6.0600   -4.3044   22.4176 C   0  0  0  0  0  0  0  0  0  0  0  0
   -7.3491   -3.8315   22.1411 C   0  0  0  0  0  0  0  0  0  0  0  0
   -5.8483   -5.1067   23.5466 C   0  0  0  0  0  0  0  0  0  0  0  0
   -8.4110   -4.1571   22.9865 C   0  0  0  0  0  0  0  0  0  0  0  0
   -6.9101   -5.4329   24.3911 C   0  0  0  0  0  0  0  0  0  0  0  0
   -8.1840   -4.9535   24.1031 C   0  0  0  0  0  0  0  0  0  0  0  0
  -10.0992   -4.9136   24.6911 H   0  0  0  0  0  0  0  0  0  0  0  0
   -4.0203   -2.2703   23.2324 C   0  0  0  0  0  0  0  0  0  0  0  0
   -4.9523   -1.0659   23.2018 C   0  0  0  0  0  0  0  0  0  0  0  0
   -4.9546   -4.6683   20.1949 C   0  0  0  0  0  0  0  0  0  0  0  0
   -5.4003   -6.1208   20.3026 C   0  0  0  0  0  0  0  0  0  0  0  0
  3  9  1  0
  3 10  1  0
 11 17  1  0
 11 18  1  0
  1  2  2  0
  1 19  1  0
  1  4  1  0
  2 21  1  0
  2 12  1  0
 19 20  1  0
 21 22  1  0
  4  5  2  0
  4  6  1  0
 12 13  2  0
 12 14  1  0
  5  7  1  0
 13 15  1  0
  6  8  2  0
 14 16  2  0
  7  9  2  0
 15 17  2  0
  8  9  1  0
 16 17  1  0
M  END
> <PUBCHEM_COMPOUND_CID>
448537

> <PUBCHEM_CONFORMER_RMSD>
0.6

> <PUBCHEM_CONFORMER_DIVERSEORDER>
1
3
2

> <PUBCHEM_MMFF94_PARTIAL_CHARGES>
28
1 -0.53
11 -0.15
12 -0.15
13 -0.15
14 -0.15
15 -0.15
16 -0.15
17 -0.15
18 -0.15
19 0.08
2 -0.53
20 0.08
3 -0.17
31 0.15
32 0.15
33 0.15
34 0.15
35 0.15
36 0.15
37 0.15
38 0.15
39 0.45
4 -0.17
40 0.45
5 0.14
6 0.14
7 0.03
8 0.03

> <PUBCHEM_EFFECTIVE_ROTOR_COUNT>
4

> <PUBCHEM_PHARMACOPHORE_FEATURES>
6
1 1 donor
1 10 hydrophobe
1 2 donor
1 9 hydrophobe
6 7 11 13 15 17 19 rings
6 8 12 14 16 18 20 rings

> <PUBCHEM_HEAVY_ATOM_COUNT>
20

> <PUBCHEM_ATOM_DEF_STEREO_COUNT>
0

> <PUBCHEM_ATOM_UDEF_STEREO_COUNT>
0

> <PUBCHEM_BOND_DEF_STEREO_COUNT>
1

> <PUBCHEM_BOND_UDEF_STEREO_COUNT>
0

> <PUBCHEM_ISOTOPIC_ATOM_COUNT>
0

> <PUBCHEM_COMPONENT_COUNT>
1

> <PUBCHEM_CACTVS_TAUTO_COUNT>
3

> <PUBCHEM_CONFORMER_ID>
0006D81900000001

> <PUBCHEM_MMFF94_ENERGY>
60.231

> <PUBCHEM_FEATURE_SELFOVERLAP>
30.447

> <PUBCHEM_SHAPE_FINGERPRINT>
10366900 7 18186514428534874893
104564 63 18339924792832442081
10906281 52 18129397028286092948
11646440 116 18130798871235594657
12592029 89 16950278473467191938
12788726 201 18270697410649816016
13140716 1 18266458895859843337
13533116 47 18340201896197096762
13760787 19 16660644076447957075
14115302 16 18186806919849492430
14341114 176 15647057049052281551
15099037 51 18335139812416525942
15848700 24 18202843262111810220
15848702 151 16988848262958300981
16752209 62 18335696105492573576
16945 1 18410855473013063775
1813 80 18272378572207267076
18186145 218 18338228362096015613
187816 3 18410857663704853992
19141452 34 17131829889222033293
19784866 9 18113613452605694563
200 152 16950282905968490344
20028762 73 18055641861278493167
20600515 1 18340218469921978116
20645477 70 16009301016701038466
21285901 2 17917162606291067244
23175994 123 18333735723499757565
23402539 116 17988639696664490244
23493267 7 17313098635762053785
23557571 272 17489592229515708168
23559900 14 15554438621982335170
266924 87 18194116322357846868
347723 3 18410856551049855057
34934 24 18129105515976021729
3545911 37 15719391732852524422
4072396 5 18261662693185545291
4214541 1 15791727494979709055
465052 167 17240208741576471315
474 4 17917140731779840409
59755656 215 18270402685366324510
633830 44 18342455975941661781
69090 78 17060620005479420895
7226269 152 18410853270196137312
7495541 125 17531535390133293585
77779 3 15719110262139125926
81228 2 18128838385973970688
8272917 22 16660357039657468298
9971528 1 17775283884826915592

> <PUBCHEM_SHAPE_MULTIPOLES>
399.85
10.42
1.74
1.37
0
0
0.06
0
1.28
0
-0.74
0
0
-0.06

> <PUBCHEM_SHAPE_SELFOVERLAP>
850.96

> <PUBCHEM_SHAPE_VOLUME>
224.1

> <PUBCHEM_COORDINATE_TYPE>
2
5
10

> <Energy>
28.3223

> <minimizedAffinity>
-8.80514

> <CNNscore>
0.8578104377

> <CNNaffinity>
7.8802132607

> <CNN_VS>
6.7597293854

> <CNNaffinity_variance>
0.9402496219

$$$$
448537


 22 23  0  0  0  0  0  0  0  0999 V2000
   -4.9272   -3.0843   22.2235 C   0  0  0  0  0  0  0  0  0  0  0  0
   -4.1297   -3.7873   21.3811 C   0  0  0  0  0  0  0  0  0  0  0  0
   -9.3014   -5.5364   24.7798 O   0  0  0  0  0  0  0  0  0  0  0  0
   -6.0807   -3.7307   22.8818 C   0  0  0  0  0  0  0  0  0  0  0  0
   -7.3589   -3.6410   22.3143 C   0  0  0  0  0  0  0  0  0  0  0  0
   -5.9079   -4.4324   24.0817 C   0  0  0  0  0  0  0  0  0  0  0  0
   -8.4527   -4.2430   22.9415 C   0  0  0  0  0  0  0  0  0  0  0  0
   -7.0010   -5.0340   24.7075 C   0  0  0  0  0  0  0  0  0  0  0  0
   -8.2621   -4.9345   24.1333 C   0  0  0  0  0  0  0  0  0  0  0  0
  -10.1659   -5.4899   24.4216 H   0  0  0  0  0  0  0  0  0  0  0  0
    0.2776   -1.3652   18.8530 O   0  0  0  0  0  0  0  0  0  0  0  0
   -2.9742   -3.1421   20.7243 C   0  0  0  0  0  0  0  0  0  0  0  0
   -2.9023   -3.0685   19.3275 C   0  0  0  0  0  0  0  0  0  0  0  0
   -1.9351   -2.6065   21.4965 C   0  0  0  0  0  0  0  0  0  0  0  0
   -1.8021   -2.4678   18.7133 C   0  0  0  0  0  0  0  0  0  0  0  0
   -0.8357   -2.0051   20.8826 C   0  0  0  0  0  0  0  0  0  0  0  0
   -0.7790   -1.9419   19.4939 C   0  0  0  0  0  0  0  0  0  0  0  0
    0.2967   -1.3327   17.9168 H   0  0  0  0  0  0  0  0  0  0  0  0
   -4.7316   -1.6315   22.6196 C   0  0  0  0  0  0  0  0  0  0  0  0
   -6.0286   -0.8329   22.6215 C   0  0  0  0  0  0  0  0  0  0  0  0
   -4.2791   -5.2607   21.0465 C   0  0  0  0  0  0  0  0  0  0  0  0
   -5.4301   -5.5407   20.0889 C   0  0  0  0  0  0  0  0  0  0  0  0
  3  9  1  0
  3 10  1  0
 11 17  1  0
 11 18  1  0
  1  2  2  0
  1 19  1  0
  1  4  1  0
  2 21  1  0
  2 12  1  0
 19 20  1  0
 21 22  1  0
  4  5  2  0
  4  6  1  0
 12 13  2  0
 12 14  1  0
  5  7  1  0
 13 15  1  0
  6  8  2  0
 14 16  2  0
  7  9  2  0
 15 17  2  0
  8  9  1  0
 16 17  1  0
M  END
> <PUBCHEM_COMPOUND_CID>
448537

> <PUBCHEM_CONFORMER_RMSD>
0.6

> <PUBCHEM_CONFORMER_DIVERSEORDER>
1
3
2

> <PUBCHEM_MMFF94_PARTIAL_CHARGES>
28
1 -0.53
11 -0.15
12 -0.15
13 -0.15
14 -0.15
15 -0.15
16 -0.15
17 -0.15
18 -0.15
19 0.08
2 -0.53
20 0.08
3 -0.17
31 0.15
32 0.15
33 0.15
34 0.15
35 0.15
36 0.15
37 0.15
38 0.15
39 0.45
4 -0.17
40 0.45
5 0.14
6 0.14
7 0.03
8 0.03

> <PUBCHEM_EFFECTIVE_ROTOR_COUNT>
4

> <PUBCHEM_PHARMACOPHORE_FEATURES>
6
1 1 donor
1 10 hydrophobe
1 2 donor
1 9 hydrophobe
6 7 11 13 15 17 19 rings
6 8 12 14 16 18 20 rings

> <PUBCHEM_HEAVY_ATOM_COUNT>
20

> <PUBCHEM_ATOM_DEF_STEREO_COUNT>
0

> <PUBCHEM_ATOM_UDEF_STEREO_COUNT>
0

> <PUBCHEM_BOND_DEF_STEREO_COUNT>
1

> <PUBCHEM_BOND_UDEF_STEREO_COUNT>
0

> <PUBCHEM_ISOTOPIC_ATOM_COUNT>
0

> <PUBCHEM_COMPONENT_COUNT>
1

> <PUBCHEM_CACTVS_TAUTO_COUNT>
3

> <PUBCHEM_CONFORMER_ID>
0006D81900000001

> <PUBCHEM_MMFF94_ENERGY>
60.231

> <PUBCHEM_FEATURE_SELFOVERLAP>
30.447

> <PUBCHEM_SHAPE_FINGERPRINT>
10366900 7 18186514428534874893
104564 63 18339924792832442081
10906281 52 18129397028286092948
11646440 116 18130798871235594657
12592029 89 16950278473467191938
12788726 201 18270697410649816016
13140716 1 18266458895859843337
13533116 47 18340201896197096762
13760787 19 16660644076447957075
14115302 16 18186806919849492430
14341114 176 15647057049052281551
15099037 51 18335139812416525942
15848700 24 18202843262111810220
15848702 151 16988848262958300981
16752209 62 18335696105492573576
16945 1 18410855473013063775
1813 80 18272378572207267076
18186145 218 18338228362096015613
187816 3 18410857663704853992
19141452 34 17131829889222033293
19784866 9 18113613452605694563
200 152 16950282905968490344
20028762 73 18055641861278493167
20600515 1 18340218469921978116
20645477 70 16009301016701038466
21285901 2 17917162606291067244
23175994 123 18333735723499757565
23402539 116 17988639696664490244
23493267 7 17313098635762053785
23557571 272 17489592229515708168
23559900 14 15554438621982335170
266924 87 18194116322357846868
347723 3 18410856551049855057
34934 24 18129105515976021729
3545911 37 15719391732852524422
4072396 5 18261662693185545291
4214541 1 15791727494979709055
465052 167 17240208741576471315
474 4 17917140731779840409
59755656 215 18270402685366324510
633830 44 18342455975941661781
69090 78 17060620005479420895
7226269 152 18410853270196137312
7495541 125 17531535390133293585
77779 3 15719110262139125926
81228 2 18128838385973970688
8272917 22 16660357039657468298
9971528 1 17775283884826915592

> <PUBCHEM_SHAPE_MULTIPOLES>
399.85
10.42
1.74
1.37
0
0
0.06
0
1.28
0
-0.74
0
0
-0.06

> <PUBCHEM_SHAPE_SELFOVERLAP>
850.96

> <PUBCHEM_SHAPE_VOLUME>
224.1

> <PUBCHEM_COORDINATE_TYPE>
2
5
10

> <Energy>
28.3223

> <minimizedAffinity>
-8.49920

> <CNNscore>
0.8544813395

> <CNNaffinity>
7.8535914421

> <CNN_VS>
6.7107472420

> <CNNaffinity_variance>
0.8902769089

$$$$
448537


 22 23  0  0  0  0  0  0  0  0999 V2000
   -4.1058   -3.7723   21.3477 C   0  0  0  0  0  0  0  0  0  0  0  0
   -4.8616   -3.0786   22.2351 C   0  0  0  0  0  0  0  0  0  0  0  0
    0.3309   -1.3652   18.8573 O   0  0  0  0  0  0  0  0  0  0  0  0
   -2.9500   -3.1352   20.6845 C   0  0  0  0  0  0  0  0  0  0  0  0
   -2.9198   -3.0055   19.2894 C   0  0  0  0  0  0  0  0  0  0  0  0
   -1.8720   -2.6618   21.4434 C   0  0  0  0  0  0  0  0  0  0  0  0
   -1.8224   -2.4126   18.6599 C   0  0  0  0  0  0  0  0  0  0  0  0
   -0.7762   -2.0690   20.8139 C   0  0  0  0  0  0  0  0  0  0  0  0
   -0.7604   -1.9496   19.4299 C   0  0  0  0  0  0  0  0  0  0  0  0
    0.3758   -1.2678   17.9265 H   0  0  0  0  0  0  0  0  0  0  0  0
   -9.2831   -5.4686   24.7688 O   0  0  0  0  0  0  0  0  0  0  0  0
   -6.0163   -3.7160   22.9008 C   0  0  0  0  0  0  0  0  0  0  0  0
   -7.2973   -3.6233   22.3421 C   0  0  0  0  0  0  0  0  0  0  0  0
   -5.8385   -4.4114   24.1040 C   0  0  0  0  0  0  0  0  0  0  0  0
   -8.3856   -4.2181   22.9825 C   0  0  0  0  0  0  0  0  0  0  0  0
   -6.9264   -5.0069   24.7437 C   0  0  0  0  0  0  0  0  0  0  0  0
   -8.1925   -4.9038   24.1763 C   0  0  0  0  0  0  0  0  0  0  0  0
  -10.1272   -5.3878   24.3704 H   0  0  0  0  0  0  0  0  0  0  0  0
   -4.3030   -5.2291   20.9675 C   0  0  0  0  0  0  0  0  0  0  0  0
   -5.4849   -5.4477   20.0318 C   0  0  0  0  0  0  0  0  0  0  0  0
   -4.6167   -1.6460   22.6743 C   0  0  0  0  0  0  0  0  0  0  0  0
   -5.8921   -0.8157   22.7379 C   0  0  0  0  0  0  0  0  0  0  0  0
  3  9  1  0
  3 10  1  0
 11 17  1  0
 11 18  1  0
  1  2  2  0
  1 19  1  0
  1  4  1  0
  2 21  1  0
  2 12  1  0
 19 20  1  0
 21 22  1  0
  4  5  2  0
  4  6  1  0
 12 13  2  0
 12 14  1  0
  5  7  1  0
 13 15  1  0
  6  8  2  0
 14 16  2  0
  7  9  2  0
 15 17  2  0
  8  9  1  0
 16 17  1  0
M  END
> <PUBCHEM_COMPOUND_CID>
448537

> <PUBCHEM_CONFORMER_RMSD>
0.6

> <PUBCHEM_CONFORMER_DIVERSEORDER>
1
3
2

> <PUBCHEM_MMFF94_PARTIAL_CHARGES>
28
1 -0.53
11 -0.15
12 -0.15
13 -0.15
14 -0.15
15 -0.15
16 -0.15
17 -0.15
18 -0.15
19 0.08
2 -0.53
20 0.08
3 -0.17
31 0.15
32 0.15
33 0.15
34 0.15
35 0.15
36 0.15
37 0.15
38 0.15
39 0.45
4 -0.17
40 0.45
5 0.14
6 0.14
7 0.03
8 0.03

> <PUBCHEM_EFFECTIVE_ROTOR_COUNT>
4

> <PUBCHEM_PHARMACOPHORE_FEATURES>
6
1 1 donor
1 10 hydrophobe
1 2 donor
1 9 hydrophobe
6 7 11 13 15 17 19 rings
6 8 12 14 16 18 20 rings

> <PUBCHEM_HEAVY_ATOM_COUNT>
20

> <PUBCHEM_ATOM_DEF_STEREO_COUNT>
0

> <PUBCHEM_ATOM_UDEF_STEREO_COUNT>
0

> <PUBCHEM_BOND_DEF_STEREO_COUNT>
1

> <PUBCHEM_BOND_UDEF_STEREO_COUNT>
0

> <PUBCHEM_ISOTOPIC_ATOM_COUNT>
0

> <PUBCHEM_COMPONENT_COUNT>
1

> <PUBCHEM_CACTVS_TAUTO_COUNT>
3

> <PUBCHEM_CONFORMER_ID>
0006D81900000001

> <PUBCHEM_MMFF94_ENERGY>
60.231

> <PUBCHEM_FEATURE_SELFOVERLAP>
30.447

> <PUBCHEM_SHAPE_FINGERPRINT>
10366900 7 18186514428534874893
104564 63 18339924792832442081
10906281 52 18129397028286092948
11646440 116 18130798871235594657
12592029 89 16950278473467191938
12788726 201 18270697410649816016
13140716 1 18266458895859843337
13533116 47 18340201896197096762
13760787 19 16660644076447957075
14115302 16 18186806919849492430
14341114 176 15647057049052281551
15099037 51 18335139812416525942
15848700 24 18202843262111810220
15848702 151 16988848262958300981
16752209 62 18335696105492573576
16945 1 18410855473013063775
1813 80 18272378572207267076
18186145 218 18338228362096015613
187816 3 18410857663704853992
19141452 34 17131829889222033293
19784866 9 18113613452605694563
200 152 16950282905968490344
20028762 73 18055641861278493167
20600515 1 18340218469921978116
20645477 70 16009301016701038466
21285901 2 17917162606291067244
23175994 123 18333735723499757565
23402539 116 17988639696664490244
23493267 7 17313098635762053785
23557571 272 17489592229515708168
23559900 14 15554438621982335170
266924 87 18194116322357846868
347723 3 18410856551049855057
34934 24 18129105515976021729
3545911 37 15719391732852524422
4072396 5 18261662693185545291
4214541 1 15791727494979709055
465052 167 17240208741576471315
474 4 17917140731779840409
59755656 215 18270402685366324510
633830 44 18342455975941661781
69090 78 17060620005479420895
7226269 152 18410853270196137312
7495541 125 17531535390133293585
77779 3 15719110262139125926
81228 2 18128838385973970688
8272917 22 16660357039657468298
9971528 1 17775283884826915592

> <PUBCHEM_SHAPE_MULTIPOLES>
399.85
10.42
1.74
1.37
0
0
0.06
0
1.28
0
-0.74
0
0
-0.06

> <PUBCHEM_SHAPE_SELFOVERLAP>
850.96

> <PUBCHEM_SHAPE_VOLUME>
224.1

> <PUBCHEM_COORDINATE_TYPE>
2
5
10

> <Energy>
28.3223

> <minimizedAffinity>
-8.44669

> <CNNscore>
0.8473293781

> <CNNaffinity>
7.8496575356

> <CNN_VS>
6.6512455940

> <CNNaffinity_variance>
0.8886661530

$$$$
448537


 22 23  0  0  0  0  0  0  0  0999 V2000
   -4.3030   -3.5689   21.6967 C   0  0  0  0  0  0  0  0  0  0  0  0
   -4.8706   -2.8305   22.6828 C   0  0  0  0  0  0  0  0  0  0  0  0
    0.2374   -1.6844   18.9554 O   0  0  0  0  0  0  0  0  0  0  0  0
   -3.1033   -3.0803   20.9870 C   0  0  0  0  0  0  0  0  0  0  0  0
   -1.9679   -2.6867   21.7080 C   0  0  0  0  0  0  0  0  0  0  0  0
   -3.0930   -2.9997   19.5886 C   0  0  0  0  0  0  0  0  0  0  0  0
   -0.8362   -2.2143   21.0385 C   0  0  0  0  0  0  0  0  0  0  0  0
   -1.9617   -2.5281   18.9204 C   0  0  0  0  0  0  0  0  0  0  0  0
   -0.8447   -2.1400   19.6495 C   0  0  0  0  0  0  0  0  0  0  0  0
    1.0082   -1.4141   19.4142 H   0  0  0  0  0  0  0  0  0  0  0  0
   -9.4278   -4.6665   25.4292 O   0  0  0  0  0  0  0  0  0  0  0  0
   -6.0691   -3.3198   23.3949 C   0  0  0  0  0  0  0  0  0  0  0  0
   -7.0173   -2.4165   23.8916 C   0  0  0  0  0  0  0  0  0  0  0  0
   -6.2608   -4.6943   23.5870 C   0  0  0  0  0  0  0  0  0  0  0  0
   -8.1414   -2.8852   24.5735 C   0  0  0  0  0  0  0  0  0  0  0  0
   -7.3851   -5.1629   24.2679 C   0  0  0  0  0  0  0  0  0  0  0  0
   -8.3164   -4.2521   24.7565 C   0  0  0  0  0  0  0  0  0  0  0  0
  -10.0431   -4.0371   25.7502 H   0  0  0  0  0  0  0  0  0  0  0  0
   -4.7673   -4.9409   21.2410 C   0  0  0  0  0  0  0  0  0  0  0  0
   -3.7872   -6.0517   21.5956 C   0  0  0  0  0  0  0  0  0  0  0  0
   -4.3596   -1.4946   23.1919 C   0  0  0  0  0  0  0  0  0  0  0  0
   -5.1811   -0.3128   22.6931 C   0  0  0  0  0  0  0  0  0  0  0  0
  3  9  1  0
  3 10  1  0
 11 17  1  0
 11 18  1  0
  1  2  2  0
  1 19  1  0
  1  4  1  0
  2 21  1  0
  2 12  1  0
 19 20  1  0
 21 22  1  0
  4  5  2  0
  4  6  1  0
 12 13  2  0
 12 14  1  0
  5  7  1  0
 13 15  1  0
  6  8  2  0
 14 16  2  0
  7  9  2  0
 15 17  2  0
  8  9  1  0
 16 17  1  0
M  END
> <PUBCHEM_COMPOUND_CID>
448537

> <PUBCHEM_CONFORMER_RMSD>
0.6

> <PUBCHEM_CONFORMER_DIVERSEORDER>
1
3
2

> <PUBCHEM_MMFF94_PARTIAL_CHARGES>
28
1 -0.53
11 -0.15
12 -0.15
13 -0.15
14 -0.15
15 -0.15
16 -0.15
17 -0.15
18 -0.15
19 0.08
2 -0.53
20 0.08
3 -0.17
31 0.15
32 0.15
33 0.15
34 0.15
35 0.15
36 0.15
37 0.15
38 0.15
39 0.45
4 -0.17
40 0.45
5 0.14
6 0.14
7 0.03
8 0.03

> <PUBCHEM_EFFECTIVE_ROTOR_COUNT>
4

> <PUBCHEM_PHARMACOPHORE_FEATURES>
6
1 1 donor
1 10 hydrophobe
1 2 donor
1 9 hydrophobe
6 7 11 13 15 17 19 rings
6 8 12 14 16 18 20 rings

> <PUBCHEM_HEAVY_ATOM_COUNT>
20

> <PUBCHEM_ATOM_DEF_STEREO_COUNT>
0

> <PUBCHEM_ATOM_UDEF_STEREO_COUNT>
0

> <PUBCHEM_BOND_DEF_STEREO_COUNT>
1

> <PUBCHEM_BOND_UDEF_STEREO_COUNT>
0

> <PUBCHEM_ISOTOPIC_ATOM_COUNT>
0

> <PUBCHEM_COMPONENT_COUNT>
1

> <PUBCHEM_CACTVS_TAUTO_COUNT>
3

> <PUBCHEM_CONFORMER_ID>
0006D81900000001

> <PUBCHEM_MMFF94_ENERGY>
60.231

> <PUBCHEM_FEATURE_SELFOVERLAP>
30.447

> <PUBCHEM_SHAPE_FINGERPRINT>
10366900 7 18186514428534874893
104564 63 18339924792832442081
10906281 52 18129397028286092948
11646440 116 18130798871235594657
12592029 89 16950278473467191938
12788726 201 18270697410649816016
13140716 1 18266458895859843337
13533116 47 18340201896197096762
13760787 19 16660644076447957075
14115302 16 18186806919849492430
14341114 176 15647057049052281551
15099037 51 18335139812416525942
15848700 24 18202843262111810220
15848702 151 16988848262958300981
16752209 62 18335696105492573576
16945 1 18410855473013063775
1813 80 18272378572207267076
18186145 218 18338228362096015613
187816 3 18410857663704853992
19141452 34 17131829889222033293
19784866 9 18113613452605694563
200 152 16950282905968490344
20028762 73 18055641861278493167
20600515 1 18340218469921978116
20645477 70 16009301016701038466
21285901 2 17917162606291067244
23175994 123 18333735723499757565
23402539 116 17988639696664490244
23493267 7 17313098635762053785
23557571 272 17489592229515708168
23559900 14 15554438621982335170
266924 87 18194116322357846868
347723 3 18410856551049855057
34934 24 18129105515976021729
3545911 37 15719391732852524422
4072396 5 18261662693185545291
4214541 1 15791727494979709055
465052 167 17240208741576471315
474 4 17917140731779840409
59755656 215 18270402685366324510
633830 44 18342455975941661781
69090 78 17060620005479420895
7226269 152 18410853270196137312
7495541 125 17531535390133293585
77779 3 15719110262139125926
81228 2 18128838385973970688
8272917 22 16660357039657468298
9971528 1 17775283884826915592

> <PUBCHEM_SHAPE_MULTIPOLES>
399.85
10.42
1.74
1.37
0
0
0.06
0
1.28
0
-0.74
0
0
-0.06

> <PUBCHEM_SHAPE_SELFOVERLAP>
850.96

> <PUBCHEM_SHAPE_VOLUME>
224.1

> <PUBCHEM_COORDINATE_TYPE>
2
5
10

> <Energy>
28.3223

> <minimizedAffinity>
-7.19312

> <CNNscore>
0.8305600882

> <CNNaffinity>
7.8172473907

> <CNN_VS>
6.4926939011

> <CNNaffinity_variance>
0.9664750099

$$$$
448537


 22 23  0  0  0  0  0  0  0  0999 V2000
   -4.9122   -2.1001   22.6082 C   0  0  0  0  0  0  0  0  0  0  0  0
   -4.3443   -3.0357   21.8071 C   0  0  0  0  0  0  0  0  0  0  0  0
  -10.4587   -2.1031   23.5661 O   0  0  0  0  0  0  0  0  0  0  0  0
   -6.3700   -2.0983   22.8460 C   0  0  0  0  0  0  0  0  0  0  0  0
   -7.2028   -1.2368   22.1193 C   0  0  0  0  0  0  0  0  0  0  0  0
   -6.9310   -2.9522   23.8043 C   0  0  0  0  0  0  0  0  0  0  0  0
   -8.5807   -1.2265   22.3507 C   0  0  0  0  0  0  0  0  0  0  0  0
   -8.3077   -2.9418   24.0346 C   0  0  0  0  0  0  0  0  0  0  0  0
   -9.1197   -2.0806   23.3073 C   0  0  0  0  0  0  0  0  0  0  0  0
  -11.0365   -1.5360   23.0947 H   0  0  0  0  0  0  0  0  0  0  0  0
    1.2126   -3.0950   20.9130 O   0  0  0  0  0  0  0  0  0  0  0  0
   -2.8859   -3.0397   21.5708 C   0  0  0  0  0  0  0  0  0  0  0  0
   -2.3204   -3.9207   20.6404 C   0  0  0  0  0  0  0  0  0  0  0  0
   -2.0554   -2.1662   22.2851 C   0  0  0  0  0  0  0  0  0  0  0  0
   -0.9404   -3.9271   20.4306 C   0  0  0  0  0  0  0  0  0  0  0  0
   -0.6759   -2.1719   22.0747 C   0  0  0  0  0  0  0  0  0  0  0  0
   -0.1301   -3.0546   21.1482 C   0  0  0  0  0  0  0  0  0  0  0  0
    1.5603   -3.6968   20.2848 H   0  0  0  0  0  0  0  0  0  0  0  0
   -4.1674   -1.0141   23.3643 C   0  0  0  0  0  0  0  0  0  0  0  0
   -3.8968   -1.3768   24.8187 C   0  0  0  0  0  0  0  0  0  0  0  0
   -5.0792   -4.1692   21.1141 C   0  0  0  0  0  0  0  0  0  0  0  0
   -5.0668   -5.4651   21.9146 C   0  0  0  0  0  0  0  0  0  0  0  0
  3  9  1  0
  3 10  1  0
 11 17  1  0
 11 18  1  0
  1  2  2  0
  1 19  1  0
  1  4  1  0
  2 21  1  0
  2 12  1  0
 19 20  1  0
 21 22  1  0
  4  5  2  0
  4  6  1  0
 12 13  2  0
 12 14  1  0
  5  7  1  0
 13 15  1  0
  6  8  2  0
 14 16  2  0
  7  9  2  0
 15 17  2  0
  8  9  1  0
 16 17  1  0
M  END
> <PUBCHEM_COMPOUND_CID>
448537

> <PUBCHEM_CONFORMER_RMSD>
0.6

> <PUBCHEM_CONFORMER_DIVERSEORDER>
1
3
2

> <PUBCHEM_MMFF94_PARTIAL_CHARGES>
28
1 -0.53
11 -0.15
12 -0.15
13 -0.15
14 -0.15
15 -0.15
16 -0.15
17 -0.15
18 -0.15
19 0.08
2 -0.53
20 0.08
3 -0.17
31 0.15
32 0.15
33 0.15
34 0.15
35 0.15
36 0.15
37 0.15
38 0.15
39 0.45
4 -0.17
40 0.45
5 0.14
6 0.14
7 0.03
8 0.03

> <PUBCHEM_EFFECTIVE_ROTOR_COUNT>
4

> <PUBCHEM_PHARMACOPHORE_FEATURES>
6
1 1 donor
1 10 hydrophobe
1 2 donor
1 9 hydrophobe
6 7 11 13 15 17 19 rings
6 8 12 14 16 18 20 rings

> <PUBCHEM_HEAVY_ATOM_COUNT>
20

> <PUBCHEM_ATOM_DEF_STEREO_COUNT>
0

> <PUBCHEM_ATOM_UDEF_STEREO_COUNT>
0

> <PUBCHEM_BOND_DEF_STEREO_COUNT>
1

> <PUBCHEM_BOND_UDEF_STEREO_COUNT>
0

> <PUBCHEM_ISOTOPIC_ATOM_COUNT>
0

> <PUBCHEM_COMPONENT_COUNT>
1

> <PUBCHEM_CACTVS_TAUTO_COUNT>
3

> <PUBCHEM_CONFORMER_ID>
0006D81900000001

> <PUBCHEM_MMFF94_ENERGY>
60.231

> <PUBCHEM_FEATURE_SELFOVERLAP>
30.447

> <PUBCHEM_SHAPE_FINGERPRINT>
10366900 7 18186514428534874893
104564 63 18339924792832442081
10906281 52 18129397028286092948
11646440 116 18130798871235594657
12592029 89 16950278473467191938
12788726 201 18270697410649816016
13140716 1 18266458895859843337
13533116 47 18340201896197096762
13760787 19 16660644076447957075
14115302 16 18186806919849492430
14341114 176 15647057049052281551
15099037 51 18335139812416525942
15848700 24 18202843262111810220
15848702 151 16988848262958300981
16752209 62 18335696105492573576
16945 1 18410855473013063775
1813 80 18272378572207267076
18186145 218 18338228362096015613
187816 3 18410857663704853992
19141452 34 17131829889222033293
19784866 9 18113613452605694563
200 152 16950282905968490344
20028762 73 18055641861278493167
20600515 1 18340218469921978116
20645477 70 16009301016701038466
21285901 2 17917162606291067244
23175994 123 18333735723499757565
23402539 116 17988639696664490244
23493267 7 17313098635762053785
23557571 272 17489592229515708168
23559900 14 15554438621982335170
266924 87 18194116322357846868
347723 3 18410856551049855057
34934 24 18129105515976021729
3545911 37 15719391732852524422
4072396 5 18261662693185545291
4214541 1 15791727494979709055
465052 167 17240208741576471315
474 4 17917140731779840409
59755656 215 18270402685366324510
633830 44 18342455975941661781
69090 78 17060620005479420895
7226269 152 18410853270196137312
7495541 125 17531535390133293585
77779 3 15719110262139125926
81228 2 18128838385973970688
8272917 22 16660357039657468298
9971528 1 17775283884826915592

> <PUBCHEM_SHAPE_MULTIPOLES>
399.85
10.42
1.74
1.37
0
0
0.06
0
1.28
0
-0.74
0
0
-0.06

> <PUBCHEM_SHAPE_SELFOVERLAP>
850.96

> <PUBCHEM_SHAPE_VOLUME>
224.1

> <PUBCHEM_COORDINATE_TYPE>
2
5
10

> <Energy>
28.3223

> <minimizedAffinity>
-7.98283

> <CNNscore>
0.7720347643

> <CNNaffinity>
7.6812367439

> <CNN_VS>
5.9301819801

> <CNNaffinity_variance>
0.9741595387

$$$$
448537


 22 23  0  0  0  0  0  0  0  0999 V2000
   -5.5127   -3.0325   22.5692 C   0  0  0  0  0  0  0  0  0  0  0  0
   -4.4677   -2.2268   22.8832 C   0  0  0  0  0  0  0  0  0  0  0  0
  -10.6151   -2.0353   24.7260 O   0  0  0  0  0  0  0  0  0  0  0  0
   -6.8570   -2.7704   23.1222 C   0  0  0  0  0  0  0  0  0  0  0  0
   -7.7521   -1.9375   22.4374 C   0  0  0  0  0  0  0  0  0  0  0  0
   -7.2457   -3.3463   24.3385 C   0  0  0  0  0  0  0  0  0  0  0  0
   -9.0201   -1.6802   22.9646 C   0  0  0  0  0  0  0  0  0  0  0  0
   -8.5129   -3.0892   24.8645 C   0  0  0  0  0  0  0  0  0  0  0  0
   -9.3881   -2.2598   24.1745 C   0  0  0  0  0  0  0  0  0  0  0  0
  -11.2311   -1.4813   24.2885 H   0  0  0  0  0  0  0  0  0  0  0  0
    0.6682   -3.1785   20.7858 O   0  0  0  0  0  0  0  0  0  0  0  0
   -3.1233   -2.4868   22.3283 C   0  0  0  0  0  0  0  0  0  0  0  0
   -1.9874   -2.3775   23.1404 C   0  0  0  0  0  0  0  0  0  0  0  0
   -2.9746   -2.8361   20.9797 C   0  0  0  0  0  0  0  0  0  0  0  0
   -0.7194   -2.6133   22.6067 C   0  0  0  0  0  0  0  0  0  0  0  0
   -1.7070   -3.0728   20.4464 C   0  0  0  0  0  0  0  0  0  0  0  0
   -0.5889   -2.9581   21.2663 C   0  0  0  0  0  0  0  0  0  0  0  0
    1.4082   -3.0962   21.3544 H   0  0  0  0  0  0  0  0  0  0  0  0
   -5.4603   -4.2208   21.6253 C   0  0  0  0  0  0  0  0  0  0  0  0
   -6.4732   -4.1283   20.4914 C   0  0  0  0  0  0  0  0  0  0  0  0
   -4.5373   -0.9924   23.7645 C   0  0  0  0  0  0  0  0  0  0  0  0
   -5.3618    0.1320   23.1513 C   0  0  0  0  0  0  0  0  0  0  0  0
  3  9  1  0
  3 10  1  0
 11 17  1  0
 11 18  1  0
  1  2  2  0
  1 19  1  0
  1  4  1  0
  2 21  1  0
  2 12  1  0
 19 20  1  0
 21 22  1  0
  4  5  2  0
  4  6  1  0
 12 13  2  0
 12 14  1  0
  5  7  1  0
 13 15  1  0
  6  8  2  0
 14 16  2  0
  7  9  2  0
 15 17  2  0
  8  9  1  0
 16 17  1  0
M  END
> <PUBCHEM_COMPOUND_CID>
448537

> <PUBCHEM_CONFORMER_RMSD>
0.6

> <PUBCHEM_CONFORMER_DIVERSEORDER>
1
3
2

> <PUBCHEM_MMFF94_PARTIAL_CHARGES>
28
1 -0.53
11 -0.15
12 -0.15
13 -0.15
14 -0.15
15 -0.15
16 -0.15
17 -0.15
18 -0.15
19 0.08
2 -0.53
20 0.08
3 -0.17
31 0.15
32 0.15
33 0.15
34 0.15
35 0.15
36 0.15
37 0.15
38 0.15
39 0.45
4 -0.17
40 0.45
5 0.14
6 0.14
7 0.03
8 0.03

> <PUBCHEM_EFFECTIVE_ROTOR_COUNT>
4

> <PUBCHEM_PHARMACOPHORE_FEATURES>
6
1 1 donor
1 10 hydrophobe
1 2 donor
1 9 hydrophobe
6 7 11 13 15 17 19 rings
6 8 12 14 16 18 20 rings

> <PUBCHEM_HEAVY_ATOM_COUNT>
20

> <PUBCHEM_ATOM_DEF_STEREO_COUNT>
0

> <PUBCHEM_ATOM_UDEF_STEREO_COUNT>
0

> <PUBCHEM_BOND_DEF_STEREO_COUNT>
1

> <PUBCHEM_BOND_UDEF_STEREO_COUNT>
0

> <PUBCHEM_ISOTOPIC_ATOM_COUNT>
0

> <PUBCHEM_COMPONENT_COUNT>
1

> <PUBCHEM_CACTVS_TAUTO_COUNT>
3

> <PUBCHEM_CONFORMER_ID>
0006D81900000001

> <PUBCHEM_MMFF94_ENERGY>
60.231

> <PUBCHEM_FEATURE_SELFOVERLAP>
30.447

> <PUBCHEM_SHAPE_FINGERPRINT>
10366900 7 18186514428534874893
104564 63 18339924792832442081
10906281 52 18129397028286092948
11646440 116 18130798871235594657
12592029 89 16950278473467191938
12788726 201 18270697410649816016
13140716 1 18266458895859843337
13533116 47 18340201896197096762
13760787 19 16660644076447957075
14115302 16 18186806919849492430
14341114 176 15647057049052281551
15099037 51 18335139812416525942
15848700 24 18202843262111810220
15848702 151 16988848262958300981
16752209 62 18335696105492573576
16945 1 18410855473013063775
1813 80 18272378572207267076
18186145 218 18338228362096015613
187816 3 18410857663704853992
19141452 34 17131829889222033293
19784866 9 18113613452605694563
200 152 16950282905968490344
20028762 73 18055641861278493167
20600515 1 18340218469921978116
20645477 70 16009301016701038466
21285901 2 17917162606291067244
23175994 123 18333735723499757565
23402539 116 17988639696664490244
23493267 7 17313098635762053785
23557571 272 17489592229515708168
23559900 14 15554438621982335170
266924 87 18194116322357846868
347723 3 18410856551049855057
34934 24 18129105515976021729
3545911 37 15719391732852524422
4072396 5 18261662693185545291
4214541 1 15791727494979709055
465052 167 17240208741576471315
474 4 17917140731779840409
59755656 215 18270402685366324510
633830 44 18342455975941661781
69090 78 17060620005479420895
7226269 152 18410853270196137312
7495541 125 17531535390133293585
77779 3 15719110262139125926
81228 2 18128838385973970688
8272917 22 16660357039657468298
9971528 1 17775283884826915592

> <PUBCHEM_SHAPE_MULTIPOLES>
399.85
10.42
1.74
1.37
0
0
0.06
0
1.28
0
-0.74
0
0
-0.06

> <PUBCHEM_SHAPE_SELFOVERLAP>
850.96

> <PUBCHEM_SHAPE_VOLUME>
224.1

> <PUBCHEM_COORDINATE_TYPE>
2
5
10

> <Energy>
28.3223

> <minimizedAffinity>
-7.33813

> <CNNscore>
0.7055059075

> <CNNaffinity>
7.5317521095

> <CNN_VS>
5.3136954308

> <CNNaffinity_variance>
0.7975152135

$$$$
