448537


 22 23  0  0  0  0  0  0  0  0999 V2000
   21.5417    4.2761    5.8316 C   0  0  0  0  0  0  0  0  0  0  0  0
   21.9534    3.0020    5.6146 C   0  0  0  0  0  0  0  0  0  0  0  0
   16.1205    5.4066    6.8382 O   0  0  0  0  0  0  0  0  0  0  0  0
   20.1168    4.5736    6.0820 C   0  0  0  0  0  0  0  0  0  0  0  0
   19.4191    5.4476    5.2375 C   0  0  0  0  0  0  0  0  0  0  0  0
   19.4532    3.9904    7.1690 C   0  0  0  0  0  0  0  0  0  0  0  0
   18.0740    5.7381    5.4793 C   0  0  0  0  0  0  0  0  0  0  0  0
   18.1092    4.2807    7.4098 C   0  0  0  0  0  0  0  0  0  0  0  0
   17.4319    5.1507    6.5645 C   0  0  0  0  0  0  0  0  0  0  0  0
   15.6323    5.9883    6.2895 H   0  0  0  0  0  0  0  0  0  0  0  0
   27.3959    1.8994    4.6952 O   0  0  0  0  0  0  0  0  0  0  0  0
   23.3790    2.7034    5.3667 C   0  0  0  0  0  0  0  0  0  0  0  0
   24.2789    2.6027    6.4352 C   0  0  0  0  0  0  0  0  0  0  0  0
   23.8432    2.5279    4.0565 C   0  0  0  0  0  0  0  0  0  0  0  0
   25.6266    2.3318    6.1928 C   0  0  0  0  0  0  0  0  0  0  0  0
   25.1903    2.2562    3.8143 C   0  0  0  0  0  0  0  0  0  0  0  0
   26.0714    2.1613    4.8868 C   0  0  0  0  0  0  0  0  0  0  0  0
   27.9729    1.8393    5.4309 H   0  0  0  0  0  0  0  0  0  0  0  0
   22.4413    5.4980    5.8887 C   0  0  0  0  0  0  0  0  0  0  0  0
   22.7272    6.0941    4.5165 C   0  0  0  0  0  0  0  0  0  0  0  0
   21.0653    1.7708    5.6357 C   0  0  0  0  0  0  0  0  0  0  0  0
   21.8445    0.4771    5.8344 C   0  0  0  0  0  0  0  0  0  0  0  0
  3  9  1  0
  3 10  1  0
 11 17  1  0
 11 18  1  0
  1  2  2  0
  1 19  1  0
  1  4  1  0
  2 21  1  0
  2 12  1  0
 19 20  1  0
 21 22  1  0
  4  5  2  0
  4  6  1  0
 12 13  2  0
 12 14  1  0
  5  7  1  0
 13 15  1  0
  6  8  2  0
 14 16  2  0
  7  9  2  0
 15 17  2  0
  8  9  1  0
 16 17  1  0
M  END
> <PUBCHEM_COMPOUND_CID>
448537

> <PUBCHEM_CONFORMER_RMSD>
0.6

> <PUBCHEM_CONFORMER_DIVERSEORDER>
1
3
2

> <PUBCHEM_MMFF94_PARTIAL_CHARGES>
28
1 -0.53
11 -0.15
12 -0.15
13 -0.15
14 -0.15
15 -0.15
16 -0.15
17 -0.15
18 -0.15
19 0.08
2 -0.53
20 0.08
3 -0.17
31 0.15
32 0.15
33 0.15
34 0.15
35 0.15
36 0.15
37 0.15
38 0.15
39 0.45
4 -0.17
40 0.45
5 0.14
6 0.14
7 0.03
8 0.03

> <PUBCHEM_EFFECTIVE_ROTOR_COUNT>
4

> <PUBCHEM_PHARMACOPHORE_FEATURES>
6
1 1 donor
1 10 hydrophobe
1 2 donor
1 9 hydrophobe
6 7 11 13 15 17 19 rings
6 8 12 14 16 18 20 rings

> <PUBCHEM_HEAVY_ATOM_COUNT>
20

> <PUBCHEM_ATOM_DEF_STEREO_COUNT>
0

> <PUBCHEM_ATOM_UDEF_STEREO_COUNT>
0

> <PUBCHEM_BOND_DEF_STEREO_COUNT>
1

> <PUBCHEM_BOND_UDEF_STEREO_COUNT>
0

> <PUBCHEM_ISOTOPIC_ATOM_COUNT>
0

> <PUBCHEM_COMPONENT_COUNT>
1

> <PUBCHEM_CACTVS_TAUTO_COUNT>
3

> <PUBCHEM_CONFORMER_ID>
0006D81900000001

> <PUBCHEM_MMFF94_ENERGY>
60.231

> <PUBCHEM_FEATURE_SELFOVERLAP>
30.447

> <PUBCHEM_SHAPE_FINGERPRINT>
10366900 7 18186514428534874893
104564 63 18339924792832442081
10906281 52 18129397028286092948
11646440 116 18130798871235594657
12592029 89 16950278473467191938
12788726 201 18270697410649816016
13140716 1 18266458895859843337
13533116 47 18340201896197096762
13760787 19 16660644076447957075
14115302 16 18186806919849492430
14341114 176 15647057049052281551
15099037 51 18335139812416525942
15848700 24 18202843262111810220
15848702 151 16988848262958300981
16752209 62 18335696105492573576
16945 1 18410855473013063775
1813 80 18272378572207267076
18186145 218 18338228362096015613
187816 3 18410857663704853992
19141452 34 17131829889222033293
19784866 9 18113613452605694563
200 152 16950282905968490344
20028762 73 18055641861278493167
20600515 1 18340218469921978116
20645477 70 16009301016701038466
21285901 2 17917162606291067244
23175994 123 18333735723499757565
23402539 116 17988639696664490244
23493267 7 17313098635762053785
23557571 272 17489592229515708168
23559900 14 15554438621982335170
266924 87 18194116322357846868
347723 3 18410856551049855057
34934 24 18129105515976021729
3545911 37 15719391732852524422
4072396 5 18261662693185545291
4214541 1 15791727494979709055
465052 167 17240208741576471315
474 4 17917140731779840409
59755656 215 18270402685366324510
633830 44 18342455975941661781
69090 78 17060620005479420895
7226269 152 18410853270196137312
7495541 125 17531535390133293585
77779 3 15719110262139125926
81228 2 18128838385973970688
8272917 22 16660357039657468298
9971528 1 17775283884826915592

> <PUBCHEM_SHAPE_MULTIPOLES>
399.85
10.42
1.74
1.37
0
0
0.06
0
1.28
0
-0.74
0
0
-0.06

> <PUBCHEM_SHAPE_SELFOVERLAP>
850.96

> <PUBCHEM_SHAPE_VOLUME>
224.1

> <PUBCHEM_COORDINATE_TYPE>
2
5
10

> <Energy>
28.3223

> <minimizedAffinity>
-8.68024

> <CNNscore>
0.9418990016

> <CNNaffinity>
8.0947561264

> <CNN_VS>
7.6244425774

> <CNNaffinity_variance>
0.9615841508

$$$$
448537


 22 23  0  0  0  0  0  0  0  0999 V2000
   21.9670    3.0172    5.6137 C   0  0  0  0  0  0  0  0  0  0  0  0
   21.5683    4.2844    5.8877 C   0  0  0  0  0  0  0  0  0  0  0  0
   27.3988    1.8878    4.6647 O   0  0  0  0  0  0  0  0  0  0  0  0
   23.3925    2.7122    5.3758 C   0  0  0  0  0  0  0  0  0  0  0  0
   24.2563    2.4872    6.4562 C   0  0  0  0  0  0  0  0  0  0  0  0
   23.8941    2.6524    4.0693 C   0  0  0  0  0  0  0  0  0  0  0  0
   25.6072    2.2091    6.2329 C   0  0  0  0  0  0  0  0  0  0  0  0
   25.2438    2.3740    3.8469 C   0  0  0  0  0  0  0  0  0  0  0  0
   26.0877    2.1551    4.9286 C   0  0  0  0  0  0  0  0  0  0  0  0
   27.9968    1.7349    5.3696 H   0  0  0  0  0  0  0  0  0  0  0  0
   16.1291    5.4038    6.8063 O   0  0  0  0  0  0  0  0  0  0  0  0
   20.1429    4.5897    6.1283 C   0  0  0  0  0  0  0  0  0  0  0  0
   19.4620    3.9986    7.2001 C   0  0  0  0  0  0  0  0  0  0  0  0
   19.4584    5.4677    5.2778 C   0  0  0  0  0  0  0  0  0  0  0  0
   18.1123    4.2826    7.4147 C   0  0  0  0  0  0  0  0  0  0  0  0
   18.1094    5.7523    5.4929 C   0  0  0  0  0  0  0  0  0  0  0  0
   17.4473    5.1553    6.5610 C   0  0  0  0  0  0  0  0  0  0  0  0
   15.7016    4.9917    7.5310 H   0  0  0  0  0  0  0  0  0  0  0  0
   21.0632    1.7982    5.5605 C   0  0  0  0  0  0  0  0  0  0  0  0
   21.8201    0.4858    5.7180 C   0  0  0  0  0  0  0  0  0  0  0  0
   22.4825    5.4895    6.0186 C   0  0  0  0  0  0  0  0  0  0  0  0
   22.8315    6.1214    4.6773 C   0  0  0  0  0  0  0  0  0  0  0  0
  3  9  1  0
  3 10  1  0
 11 17  1  0
 11 18  1  0
  1  2  2  0
  1 19  1  0
  1  4  1  0
  2 21  1  0
  2 12  1  0
 19 20  1  0
 21 22  1  0
  4  5  2  0
  4  6  1  0
 12 13  2  0
 12 14  1  0
  5  7  1  0
 13 15  1  0
  6  8  2  0
 14 16  2  0
  7  9  2  0
 15 17  2  0
  8  9  1  0
 16 17  1  0
M  END
> <PUBCHEM_COMPOUND_CID>
448537

> <PUBCHEM_CONFORMER_RMSD>
0.6

> <PUBCHEM_CONFORMER_DIVERSEORDER>
1
3
2

> <PUBCHEM_MMFF94_PARTIAL_CHARGES>
28
1 -0.53
11 -0.15
12 -0.15
13 -0.15
14 -0.15
15 -0.15
16 -0.15
17 -0.15
18 -0.15
19 0.08
2 -0.53
20 0.08
3 -0.17
31 0.15
32 0.15
33 0.15
34 0.15
35 0.15
36 0.15
37 0.15
38 0.15
39 0.45
4 -0.17
40 0.45
5 0.14
6 0.14
7 0.03
8 0.03

> <PUBCHEM_EFFECTIVE_ROTOR_COUNT>
4

> <PUBCHEM_PHARMACOPHORE_FEATURES>
6
1 1 donor
1 10 hydrophobe
1 2 donor
1 9 hydrophobe
6 7 11 13 15 17 19 rings
6 8 12 14 16 18 20 rings

> <PUBCHEM_HEAVY_ATOM_COUNT>
20

> <PUBCHEM_ATOM_DEF_STEREO_COUNT>
0

> <PUBCHEM_ATOM_UDEF_STEREO_COUNT>
0

> <PUBCHEM_BOND_DEF_STEREO_COUNT>
1

> <PUBCHEM_BOND_UDEF_STEREO_COUNT>
0

> <PUBCHEM_ISOTOPIC_ATOM_COUNT>
0

> <PUBCHEM_COMPONENT_COUNT>
1

> <PUBCHEM_CACTVS_TAUTO_COUNT>
3

> <PUBCHEM_CONFORMER_ID>
0006D81900000001

> <PUBCHEM_MMFF94_ENERGY>
60.231

> <PUBCHEM_FEATURE_SELFOVERLAP>
30.447

> <PUBCHEM_SHAPE_FINGERPRINT>
10366900 7 18186514428534874893
104564 63 18339924792832442081
10906281 52 18129397028286092948
11646440 116 18130798871235594657
12592029 89 16950278473467191938
12788726 201 18270697410649816016
13140716 1 18266458895859843337
13533116 47 18340201896197096762
13760787 19 16660644076447957075
14115302 16 18186806919849492430
14341114 176 15647057049052281551
15099037 51 18335139812416525942
15848700 24 18202843262111810220
15848702 151 16988848262958300981
16752209 62 18335696105492573576
16945 1 18410855473013063775
1813 80 18272378572207267076
18186145 218 18338228362096015613
187816 3 18410857663704853992
19141452 34 17131829889222033293
19784866 9 18113613452605694563
200 152 16950282905968490344
20028762 73 18055641861278493167
20600515 1 18340218469921978116
20645477 70 16009301016701038466
21285901 2 17917162606291067244
23175994 123 18333735723499757565
23402539 116 17988639696664490244
23493267 7 17313098635762053785
23557571 272 17489592229515708168
23559900 14 15554438621982335170
266924 87 18194116322357846868
347723 3 18410856551049855057
34934 24 18129105515976021729
3545911 37 15719391732852524422
4072396 5 18261662693185545291
4214541 1 15791727494979709055
465052 167 17240208741576471315
474 4 17917140731779840409
59755656 215 18270402685366324510
633830 44 18342455975941661781
69090 78 17060620005479420895
7226269 152 18410853270196137312
7495541 125 17531535390133293585
77779 3 15719110262139125926
81228 2 18128838385973970688
8272917 22 16660357039657468298
9971528 1 17775283884826915592

> <PUBCHEM_SHAPE_MULTIPOLES>
399.85
10.42
1.74
1.37
0
0
0.06
0
1.28
0
-0.74
0
0
-0.06

> <PUBCHEM_SHAPE_SELFOVERLAP>
850.96

> <PUBCHEM_SHAPE_VOLUME>
224.1

> <PUBCHEM_COORDINATE_TYPE>
2
5
10

> <Energy>
28.3223

> <minimizedAffinity>
-8.65744

> <CNNscore>
0.9366943240

> <CNNaffinity>
8.0978012085

> <CNN_VS>
7.5851645470

> <CNNaffinity_variance>
1.0019364357

$$$$
448537


 22 23  0  0  0  0  0  0  0  0999 V2000
   21.5667    4.2502    5.8790 C   0  0  0  0  0  0  0  0  0  0  0  0
   21.9686    2.9870    5.5915 C   0  0  0  0  0  0  0  0  0  0  0  0
   16.1284    5.3883    6.7792 O   0  0  0  0  0  0  0  0  0  0  0  0
   20.1417    4.5474    6.1290 C   0  0  0  0  0  0  0  0  0  0  0  0
   19.4619    3.9142    7.1783 C   0  0  0  0  0  0  0  0  0  0  0  0
   19.4563    5.4588    5.3156 C   0  0  0  0  0  0  0  0  0  0  0  0
   18.1111    4.1865    7.4093 C   0  0  0  0  0  0  0  0  0  0  0  0
   18.1069    5.7307    5.5473 C   0  0  0  0  0  0  0  0  0  0  0  0
   17.4466    5.0934    6.5903 C   0  0  0  0  0  0  0  0  0  0  0  0
   15.6513    4.9775    7.4730 H   0  0  0  0  0  0  0  0  0  0  0  0
   27.4114    1.8831    4.6754 O   0  0  0  0  0  0  0  0  0  0  0  0
   23.3942    2.6885    5.3439 C   0  0  0  0  0  0  0  0  0  0  0  0
   24.2794    2.5161    6.4155 C   0  0  0  0  0  0  0  0  0  0  0  0
   23.8734    2.5851    4.0314 C   0  0  0  0  0  0  0  0  0  0  0  0
   25.6274    2.2457    6.1742 C   0  0  0  0  0  0  0  0  0  0  0  0
   25.2208    2.3139    3.7901 C   0  0  0  0  0  0  0  0  0  0  0  0
   26.0871    2.1472    4.8659 C   0  0  0  0  0  0  0  0  0  0  0  0
   27.9783    1.7741    5.4134 H   0  0  0  0  0  0  0  0  0  0  0  0
   22.4775    5.4570    6.0200 C   0  0  0  0  0  0  0  0  0  0  0  0
   22.7924    6.1266    4.6886 C   0  0  0  0  0  0  0  0  0  0  0  0
   21.0681    1.7662    5.5283 C   0  0  0  0  0  0  0  0  0  0  0  0
   21.8029    0.4671    5.8327 C   0  0  0  0  0  0  0  0  0  0  0  0
  3  9  1  0
  3 10  1  0
 11 17  1  0
 11 18  1  0
  1  2  2  0
  1 19  1  0
  1  4  1  0
  2 21  1  0
  2 12  1  0
 19 20  1  0
 21 22  1  0
  4  5  2  0
  4  6  1  0
 12 13  2  0
 12 14  1  0
  5  7  1  0
 13 15  1  0
  6  8  2  0
 14 16  2  0
  7  9  2  0
 15 17  2  0
  8  9  1  0
 16 17  1  0
M  END
> <PUBCHEM_COMPOUND_CID>
448537

> <PUBCHEM_CONFORMER_RMSD>
0.6

> <PUBCHEM_CONFORMER_DIVERSEORDER>
1
3
2

> <PUBCHEM_MMFF94_PARTIAL_CHARGES>
28
1 -0.53
11 -0.15
12 -0.15
13 -0.15
14 -0.15
15 -0.15
16 -0.15
17 -0.15
18 -0.15
19 0.08
2 -0.53
20 0.08
3 -0.17
31 0.15
32 0.15
33 0.15
34 0.15
35 0.15
36 0.15
37 0.15
38 0.15
39 0.45
4 -0.17
40 0.45
5 0.14
6 0.14
7 0.03
8 0.03

> <PUBCHEM_EFFECTIVE_ROTOR_COUNT>
4

> <PUBCHEM_PHARMACOPHORE_FEATURES>
6
1 1 donor
1 10 hydrophobe
1 2 donor
1 9 hydrophobe
6 7 11 13 15 17 19 rings
6 8 12 14 16 18 20 rings

> <PUBCHEM_HEAVY_ATOM_COUNT>
20

> <PUBCHEM_ATOM_DEF_STEREO_COUNT>
0

> <PUBCHEM_ATOM_UDEF_STEREO_COUNT>
0

> <PUBCHEM_BOND_DEF_STEREO_COUNT>
1

> <PUBCHEM_BOND_UDEF_STEREO_COUNT>
0

> <PUBCHEM_ISOTOPIC_ATOM_COUNT>
0

> <PUBCHEM_COMPONENT_COUNT>
1

> <PUBCHEM_CACTVS_TAUTO_COUNT>
3

> <PUBCHEM_CONFORMER_ID>
0006D81900000001

> <PUBCHEM_MMFF94_ENERGY>
60.231

> <PUBCHEM_FEATURE_SELFOVERLAP>
30.447

> <PUBCHEM_SHAPE_FINGERPRINT>
10366900 7 18186514428534874893
104564 63 18339924792832442081
10906281 52 18129397028286092948
11646440 116 18130798871235594657
12592029 89 16950278473467191938
12788726 201 18270697410649816016
13140716 1 18266458895859843337
13533116 47 18340201896197096762
13760787 19 16660644076447957075
14115302 16 18186806919849492430
14341114 176 15647057049052281551
15099037 51 18335139812416525942
15848700 24 18202843262111810220
15848702 151 16988848262958300981
16752209 62 18335696105492573576
16945 1 18410855473013063775
1813 80 18272378572207267076
18186145 218 18338228362096015613
187816 3 18410857663704853992
19141452 34 17131829889222033293
19784866 9 18113613452605694563
200 152 16950282905968490344
20028762 73 18055641861278493167
20600515 1 18340218469921978116
20645477 70 16009301016701038466
21285901 2 17917162606291067244
23175994 123 18333735723499757565
23402539 116 17988639696664490244
23493267 7 17313098635762053785
23557571 272 17489592229515708168
23559900 14 15554438621982335170
266924 87 18194116322357846868
347723 3 18410856551049855057
34934 24 18129105515976021729
3545911 37 15719391732852524422
4072396 5 18261662693185545291
4214541 1 15791727494979709055
465052 167 17240208741576471315
474 4 17917140731779840409
59755656 215 18270402685366324510
633830 44 18342455975941661781
69090 78 17060620005479420895
7226269 152 18410853270196137312
7495541 125 17531535390133293585
77779 3 15719110262139125926
81228 2 18128838385973970688
8272917 22 16660357039657468298
9971528 1 17775283884826915592

> <PUBCHEM_SHAPE_MULTIPOLES>
399.85
10.42
1.74
1.37
0
0
0.06
0
1.28
0
-0.74
0
0
-0.06

> <PUBCHEM_SHAPE_SELFOVERLAP>
850.96

> <PUBCHEM_SHAPE_VOLUME>
224.1

> <PUBCHEM_COORDINATE_TYPE>
2
5
10

> <Energy>
28.3223

> <minimizedAffinity>
-8.68489

> <CNNscore>
0.9362612367

> <CNNaffinity>
8.1013326645

> <CNN_VS>
7.5849637985

> <CNNaffinity_variance>
0.9818696976

$$$$
448537


 22 23  0  0  0  0  0  0  0  0999 V2000
   21.9723    3.0134    5.6236 C   0  0  0  0  0  0  0  0  0  0  0  0
   21.5685    4.2801    5.8926 C   0  0  0  0  0  0  0  0  0  0  0  0
   27.4086    1.8395    4.7582 O   0  0  0  0  0  0  0  0  0  0  0  0
   23.3988    2.7136    5.3852 C   0  0  0  0  0  0  0  0  0  0  0  0
   23.8905    2.6155    4.0765 C   0  0  0  0  0  0  0  0  0  0  0  0
   24.2700    2.5180    6.4644 C   0  0  0  0  0  0  0  0  0  0  0  0
   25.2374    2.3215    3.8495 C   0  0  0  0  0  0  0  0  0  0  0  0
   25.6157    2.2247    6.2368 C   0  0  0  0  0  0  0  0  0  0  0  0
   26.0874    2.1290    4.9336 C   0  0  0  0  0  0  0  0  0  0  0  0
   27.7616    1.7673    3.8934 H   0  0  0  0  0  0  0  0  0  0  0  0
   16.1252    5.3801    6.8107 O   0  0  0  0  0  0  0  0  0  0  0  0
   20.1421    4.5803    6.1337 C   0  0  0  0  0  0  0  0  0  0  0  0
   19.4478    3.9415    7.1689 C   0  0  0  0  0  0  0  0  0  0  0  0
   19.4699    5.5016    5.3199 C   0  0  0  0  0  0  0  0  0  0  0  0
   18.0973    4.2213    7.3837 C   0  0  0  0  0  0  0  0  0  0  0  0
   18.1200    5.7820    5.5352 C   0  0  0  0  0  0  0  0  0  0  0  0
   17.4447    5.1373    6.5667 C   0  0  0  0  0  0  0  0  0  0  0  0
   15.6886    4.9355    7.5104 H   0  0  0  0  0  0  0  0  0  0  0  0
   21.0737    1.7903    5.5767 C   0  0  0  0  0  0  0  0  0  0  0  0
   21.8426    0.4796    5.6808 C   0  0  0  0  0  0  0  0  0  0  0  0
   22.4776    5.4896    6.0172 C   0  0  0  0  0  0  0  0  0  0  0  0
   22.7903    6.1409    4.6763 C   0  0  0  0  0  0  0  0  0  0  0  0
  3  9  1  0
  3 10  1  0
 11 17  1  0
 11 18  1  0
  1  2  2  0
  1 19  1  0
  1  4  1  0
  2 21  1  0
  2 12  1  0
 19 20  1  0
 21 22  1  0
  4  5  2  0
  4  6  1  0
 12 13  2  0
 12 14  1  0
  5  7  1  0
 13 15  1  0
  6  8  2  0
 14 16  2  0
  7  9  2  0
 15 17  2  0
  8  9  1  0
 16 17  1  0
M  END
> <PUBCHEM_COMPOUND_CID>
448537

> <PUBCHEM_CONFORMER_RMSD>
0.6

> <PUBCHEM_CONFORMER_DIVERSEORDER>
1
3
2

> <PUBCHEM_MMFF94_PARTIAL_CHARGES>
28
1 -0.53
11 -0.15
12 -0.15
13 -0.15
14 -0.15
15 -0.15
16 -0.15
17 -0.15
18 -0.15
19 0.08
2 -0.53
20 0.08
3 -0.17
31 0.15
32 0.15
33 0.15
34 0.15
35 0.15
36 0.15
37 0.15
38 0.15
39 0.45
4 -0.17
40 0.45
5 0.14
6 0.14
7 0.03
8 0.03

> <PUBCHEM_EFFECTIVE_ROTOR_COUNT>
4

> <PUBCHEM_PHARMACOPHORE_FEATURES>
6
1 1 donor
1 10 hydrophobe
1 2 donor
1 9 hydrophobe
6 7 11 13 15 17 19 rings
6 8 12 14 16 18 20 rings

> <PUBCHEM_HEAVY_ATOM_COUNT>
20

> <PUBCHEM_ATOM_DEF_STEREO_COUNT>
0

> <PUBCHEM_ATOM_UDEF_STEREO_COUNT>
0

> <PUBCHEM_BOND_DEF_STEREO_COUNT>
1

> <PUBCHEM_BOND_UDEF_STEREO_COUNT>
0

> <PUBCHEM_ISOTOPIC_ATOM_COUNT>
0

> <PUBCHEM_COMPONENT_COUNT>
1

> <PUBCHEM_CACTVS_TAUTO_COUNT>
3

> <PUBCHEM_CONFORMER_ID>
0006D81900000001

> <PUBCHEM_MMFF94_ENERGY>
60.231

> <PUBCHEM_FEATURE_SELFOVERLAP>
30.447

> <PUBCHEM_SHAPE_FINGERPRINT>
10366900 7 18186514428534874893
104564 63 18339924792832442081
10906281 52 18129397028286092948
11646440 116 18130798871235594657
12592029 89 16950278473467191938
12788726 201 18270697410649816016
13140716 1 18266458895859843337
13533116 47 18340201896197096762
13760787 19 16660644076447957075
14115302 16 18186806919849492430
14341114 176 15647057049052281551
15099037 51 18335139812416525942
15848700 24 18202843262111810220
15848702 151 16988848262958300981
16752209 62 18335696105492573576
16945 1 18410855473013063775
1813 80 18272378572207267076
18186145 218 18338228362096015613
187816 3 18410857663704853992
19141452 34 17131829889222033293
19784866 9 18113613452605694563
200 152 16950282905968490344
20028762 73 18055641861278493167
20600515 1 18340218469921978116
20645477 70 16009301016701038466
21285901 2 17917162606291067244
23175994 123 18333735723499757565
23402539 116 17988639696664490244
23493267 7 17313098635762053785
23557571 272 17489592229515708168
23559900 14 15554438621982335170
266924 87 18194116322357846868
347723 3 18410856551049855057
34934 24 18129105515976021729
3545911 37 15719391732852524422
4072396 5 18261662693185545291
4214541 1 15791727494979709055
465052 167 17240208741576471315
474 4 17917140731779840409
59755656 215 18270402685366324510
633830 44 18342455975941661781
69090 78 17060620005479420895
7226269 152 18410853270196137312
7495541 125 17531535390133293585
77779 3 15719110262139125926
81228 2 18128838385973970688
8272917 22 16660357039657468298
9971528 1 17775283884826915592

> <PUBCHEM_SHAPE_MULTIPOLES>
399.85
10.42
1.74
1.37
0
0
0.06
0
1.28
0
-0.74
0
0
-0.06

> <PUBCHEM_SHAPE_SELFOVERLAP>
850.96

> <PUBCHEM_SHAPE_VOLUME>
224.1

> <PUBCHEM_COORDINATE_TYPE>
2
5
10

> <Energy>
28.3223

> <minimizedAffinity>
-8.69647

> <CNNscore>
0.9308918118

> <CNNaffinity>
8.0799789429

> <CNN_VS>
7.5215864182

> <CNNaffinity_variance>
0.9499878287

$$$$
448537


 22 23  0  0  0  0  0  0  0  0999 V2000
   22.3287    3.7017    6.0120 C   0  0  0  0  0  0  0  0  0  0  0  0
   21.4422    4.5916    5.5002 C   0  0  0  0  0  0  0  0  0  0  0  0
   26.8688    2.1988    3.0438 O   0  0  0  0  0  0  0  0  0  0  0  0
   23.5281    3.3090    5.2445 C   0  0  0  0  0  0  0  0  0  0  0  0
   24.7681    3.9004    5.5209 C   0  0  0  0  0  0  0  0  0  0  0  0
   23.4347    2.3478    4.2299 C   0  0  0  0  0  0  0  0  0  0  0  0
   25.9013    3.5376    4.7886 C   0  0  0  0  0  0  0  0  0  0  0  0
   24.5674    1.9854    3.4989 C   0  0  0  0  0  0  0  0  0  0  0  0
   25.7891    2.5822    3.7838 C   0  0  0  0  0  0  0  0  0  0  0  0
   27.7086    2.5802    3.2082 H   0  0  0  0  0  0  0  0  0  0  0  0
   16.8738    6.0563    8.4442 O   0  0  0  0  0  0  0  0  0  0  0  0
   20.2437    4.9869    6.2684 C   0  0  0  0  0  0  0  0  0  0  0  0
   20.1738    4.7478    7.6467 C   0  0  0  0  0  0  0  0  0  0  0  0
   19.1619    5.5966    5.6196 C   0  0  0  0  0  0  0  0  0  0  0  0
   19.0336    5.1133    8.3642 C   0  0  0  0  0  0  0  0  0  0  0  0
   18.0225    5.9628    6.3371 C   0  0  0  0  0  0  0  0  0  0  0  0
   17.9685    5.7166    7.7053 C   0  0  0  0  0  0  0  0  0  0  0  0
   16.8573    5.8819    9.3646 H   0  0  0  0  0  0  0  0  0  0  0  0
   22.2413    3.0561    7.3836 C   0  0  0  0  0  0  0  0  0  0  0  0
   22.7534    1.6217    7.4025 C   0  0  0  0  0  0  0  0  0  0  0  0
   21.5708    5.2968    4.1618 C   0  0  0  0  0  0  0  0  0  0  0  0
   22.4084    6.5669    4.2353 C   0  0  0  0  0  0  0  0  0  0  0  0
  3  9  1  0
  3 10  1  0
 11 17  1  0
 11 18  1  0
  1  2  2  0
  1 19  1  0
  1  4  1  0
  2 21  1  0
  2 12  1  0
 19 20  1  0
 21 22  1  0
  4  5  2  0
  4  6  1  0
 12 13  2  0
 12 14  1  0
  5  7  1  0
 13 15  1  0
  6  8  2  0
 14 16  2  0
  7  9  2  0
 15 17  2  0
  8  9  1  0
 16 17  1  0
M  END
> <PUBCHEM_COMPOUND_CID>
448537

> <PUBCHEM_CONFORMER_RMSD>
0.6

> <PUBCHEM_CONFORMER_DIVERSEORDER>
1
3
2

> <PUBCHEM_MMFF94_PARTIAL_CHARGES>
28
1 -0.53
11 -0.15
12 -0.15
13 -0.15
14 -0.15
15 -0.15
16 -0.15
17 -0.15
18 -0.15
19 0.08
2 -0.53
20 0.08
3 -0.17
31 0.15
32 0.15
33 0.15
34 0.15
35 0.15
36 0.15
37 0.15
38 0.15
39 0.45
4 -0.17
40 0.45
5 0.14
6 0.14
7 0.03
8 0.03

> <PUBCHEM_EFFECTIVE_ROTOR_COUNT>
4

> <PUBCHEM_PHARMACOPHORE_FEATURES>
6
1 1 donor
1 10 hydrophobe
1 2 donor
1 9 hydrophobe
6 7 11 13 15 17 19 rings
6 8 12 14 16 18 20 rings

> <PUBCHEM_HEAVY_ATOM_COUNT>
20

> <PUBCHEM_ATOM_DEF_STEREO_COUNT>
0

> <PUBCHEM_ATOM_UDEF_STEREO_COUNT>
0

> <PUBCHEM_BOND_DEF_STEREO_COUNT>
1

> <PUBCHEM_BOND_UDEF_STEREO_COUNT>
0

> <PUBCHEM_ISOTOPIC_ATOM_COUNT>
0

> <PUBCHEM_COMPONENT_COUNT>
1

> <PUBCHEM_CACTVS_TAUTO_COUNT>
3

> <PUBCHEM_CONFORMER_ID>
0006D81900000001

> <PUBCHEM_MMFF94_ENERGY>
60.231

> <PUBCHEM_FEATURE_SELFOVERLAP>
30.447

> <PUBCHEM_SHAPE_FINGERPRINT>
10366900 7 18186514428534874893
104564 63 18339924792832442081
10906281 52 18129397028286092948
11646440 116 18130798871235594657
12592029 89 16950278473467191938
12788726 201 18270697410649816016
13140716 1 18266458895859843337
13533116 47 18340201896197096762
13760787 19 16660644076447957075
14115302 16 18186806919849492430
14341114 176 15647057049052281551
15099037 51 18335139812416525942
15848700 24 18202843262111810220
15848702 151 16988848262958300981
16752209 62 18335696105492573576
16945 1 18410855473013063775
1813 80 18272378572207267076
18186145 218 18338228362096015613
187816 3 18410857663704853992
19141452 34 17131829889222033293
19784866 9 18113613452605694563
200 152 16950282905968490344
20028762 73 18055641861278493167
20600515 1 18340218469921978116
20645477 70 16009301016701038466
21285901 2 17917162606291067244
23175994 123 18333735723499757565
23402539 116 17988639696664490244
23493267 7 17313098635762053785
23557571 272 17489592229515708168
23559900 14 15554438621982335170
266924 87 18194116322357846868
347723 3 18410856551049855057
34934 24 18129105515976021729
3545911 37 15719391732852524422
4072396 5 18261662693185545291
4214541 1 15791727494979709055
465052 167 17240208741576471315
474 4 17917140731779840409
59755656 215 18270402685366324510
633830 44 18342455975941661781
69090 78 17060620005479420895
7226269 152 18410853270196137312
7495541 125 17531535390133293585
77779 3 15719110262139125926
81228 2 18128838385973970688
8272917 22 16660357039657468298
9971528 1 17775283884826915592

> <PUBCHEM_SHAPE_MULTIPOLES>
399.85
10.42
1.74
1.37
0
0
0.06
0
1.28
0
-0.74
0
0
-0.06

> <PUBCHEM_SHAPE_SELFOVERLAP>
850.96

> <PUBCHEM_SHAPE_VOLUME>
224.1

> <PUBCHEM_COORDINATE_TYPE>
2
5
10

> <Energy>
28.3223

> <minimizedAffinity>
-8.31130

> <CNNscore>
0.9307416677

> <CNNaffinity>
8.2139997482

> <CNN_VS>
7.6451120377

> <CNNaffinity_variance>
1.0864604712

$$$$
448537


 22 23  0  0  0  0  0  0  0  0999 V2000
   21.5610    4.3274    5.8986 C   0  0  0  0  0  0  0  0  0  0  0  0
   21.9631    3.0648    5.6086 C   0  0  0  0  0  0  0  0  0  0  0  0
   16.1312    5.4690    6.8446 O   0  0  0  0  0  0  0  0  0  0  0  0
   20.1338    4.6269    6.1330 C   0  0  0  0  0  0  0  0  0  0  0  0
   19.4255    5.4365    5.2348 C   0  0  0  0  0  0  0  0  0  0  0  0
   19.4786    4.1102    7.2581 C   0  0  0  0  0  0  0  0  0  0  0  0
   18.0781    5.7293    5.4610 C   0  0  0  0  0  0  0  0  0  0  0  0
   18.1323    4.4027    7.4832 C   0  0  0  0  0  0  0  0  0  0  0  0
   17.4445    5.2084    6.5844 C   0  0  0  0  0  0  0  0  0  0  0  0
   15.6360    6.0085    6.2602 H   0  0  0  0  0  0  0  0  0  0  0  0
   27.3909    1.8849    4.6979 O   0  0  0  0  0  0  0  0  0  0  0  0
   23.3909    2.7641    5.3765 C   0  0  0  0  0  0  0  0  0  0  0  0
   23.8817    2.6151    4.0732 C   0  0  0  0  0  0  0  0  0  0  0  0
   24.2639    2.6159    6.4622 C   0  0  0  0  0  0  0  0  0  0  0  0
   25.2294    2.3195    3.8616 C   0  0  0  0  0  0  0  0  0  0  0  0
   25.6114    2.3213    6.2507 C   0  0  0  0  0  0  0  0  0  0  0  0
   26.0823    2.1748    4.9498 C   0  0  0  0  0  0  0  0  0  0  0  0
   27.6882    1.7903    3.8145 H   0  0  0  0  0  0  0  0  0  0  0  0
   22.4730    5.5310    6.0576 C   0  0  0  0  0  0  0  0  0  0  0  0
   22.8520    6.1731    4.7293 C   0  0  0  0  0  0  0  0  0  0  0  0
   21.0604    1.8468    5.5273 C   0  0  0  0  0  0  0  0  0  0  0  0
   21.7931    0.5419    5.8108 C   0  0  0  0  0  0  0  0  0  0  0  0
  3  9  1  0
  3 10  1  0
 11 17  1  0
 11 18  1  0
  1  2  2  0
  1 19  1  0
  1  4  1  0
  2 21  1  0
  2 12  1  0
 19 20  1  0
 21 22  1  0
  4  5  2  0
  4  6  1  0
 12 13  2  0
 12 14  1  0
  5  7  1  0
 13 15  1  0
  6  8  2  0
 14 16  2  0
  7  9  2  0
 15 17  2  0
  8  9  1  0
 16 17  1  0
M  END
> <PUBCHEM_COMPOUND_CID>
448537

> <PUBCHEM_CONFORMER_RMSD>
0.6

> <PUBCHEM_CONFORMER_DIVERSEORDER>
1
3
2

> <PUBCHEM_MMFF94_PARTIAL_CHARGES>
28
1 -0.53
11 -0.15
12 -0.15
13 -0.15
14 -0.15
15 -0.15
16 -0.15
17 -0.15
18 -0.15
19 0.08
2 -0.53
20 0.08
3 -0.17
31 0.15
32 0.15
33 0.15
34 0.15
35 0.15
36 0.15
37 0.15
38 0.15
39 0.45
4 -0.17
40 0.45
5 0.14
6 0.14
7 0.03
8 0.03

> <PUBCHEM_EFFECTIVE_ROTOR_COUNT>
4

> <PUBCHEM_PHARMACOPHORE_FEATURES>
6
1 1 donor
1 10 hydrophobe
1 2 donor
1 9 hydrophobe
6 7 11 13 15 17 19 rings
6 8 12 14 16 18 20 rings

> <PUBCHEM_HEAVY_ATOM_COUNT>
20

> <PUBCHEM_ATOM_DEF_STEREO_COUNT>
0

> <PUBCHEM_ATOM_UDEF_STEREO_COUNT>
0

> <PUBCHEM_BOND_DEF_STEREO_COUNT>
1

> <PUBCHEM_BOND_UDEF_STEREO_COUNT>
0

> <PUBCHEM_ISOTOPIC_ATOM_COUNT>
0

> <PUBCHEM_COMPONENT_COUNT>
1

> <PUBCHEM_CACTVS_TAUTO_COUNT>
3

> <PUBCHEM_CONFORMER_ID>
0006D81900000001

> <PUBCHEM_MMFF94_ENERGY>
60.231

> <PUBCHEM_FEATURE_SELFOVERLAP>
30.447

> <PUBCHEM_SHAPE_FINGERPRINT>
10366900 7 18186514428534874893
104564 63 18339924792832442081
10906281 52 18129397028286092948
11646440 116 18130798871235594657
12592029 89 16950278473467191938
12788726 201 18270697410649816016
13140716 1 18266458895859843337
13533116 47 18340201896197096762
13760787 19 16660644076447957075
14115302 16 18186806919849492430
14341114 176 15647057049052281551
15099037 51 18335139812416525942
15848700 24 18202843262111810220
15848702 151 16988848262958300981
16752209 62 18335696105492573576
16945 1 18410855473013063775
1813 80 18272378572207267076
18186145 218 18338228362096015613
187816 3 18410857663704853992
19141452 34 17131829889222033293
19784866 9 18113613452605694563
200 152 16950282905968490344
20028762 73 18055641861278493167
20600515 1 18340218469921978116
20645477 70 16009301016701038466
21285901 2 17917162606291067244
23175994 123 18333735723499757565
23402539 116 17988639696664490244
23493267 7 17313098635762053785
23557571 272 17489592229515708168
23559900 14 15554438621982335170
266924 87 18194116322357846868
347723 3 18410856551049855057
34934 24 18129105515976021729
3545911 37 15719391732852524422
4072396 5 18261662693185545291
4214541 1 15791727494979709055
465052 167 17240208741576471315
474 4 17917140731779840409
59755656 215 18270402685366324510
633830 44 18342455975941661781
69090 78 17060620005479420895
7226269 152 18410853270196137312
7495541 125 17531535390133293585
77779 3 15719110262139125926
81228 2 18128838385973970688
8272917 22 16660357039657468298
9971528 1 17775283884826915592

> <PUBCHEM_SHAPE_MULTIPOLES>
399.85
10.42
1.74
1.37
0
0
0.06
0
1.28
0
-0.74
0
0
-0.06

> <PUBCHEM_SHAPE_SELFOVERLAP>
850.96

> <PUBCHEM_SHAPE_VOLUME>
224.1

> <PUBCHEM_COORDINATE_TYPE>
2
5
10

> <Energy>
28.3223

> <minimizedAffinity>
-8.51334

> <CNNscore>
0.9306488037

> <CNNaffinity>
8.0879192352

> <CNN_VS>
7.5270123482

> <CNNaffinity_variance>
0.9918513894

$$$$
448537


 22 23  0  0  0  0  0  0  0  0999 V2000
   22.3219    3.7488    5.9780 C   0  0  0  0  0  0  0  0  0  0  0  0
   21.3772    4.5676    5.4517 C   0  0  0  0  0  0  0  0  0  0  0  0
   26.8516    2.2550    2.9895 O   0  0  0  0  0  0  0  0  0  0  0  0
   23.5023    3.3539    5.1828 C   0  0  0  0  0  0  0  0  0  0  0  0
   23.4096    2.3103    4.2521 C   0  0  0  0  0  0  0  0  0  0  0  0
   24.7253    4.0141    5.3573 C   0  0  0  0  0  0  0  0  0  0  0  0
   24.5281    1.9287    3.5068 C   0  0  0  0  0  0  0  0  0  0  0  0
   25.8423    3.6327    4.6120 C   0  0  0  0  0  0  0  0  0  0  0  0
   25.7347    2.5949    3.6946 C   0  0  0  0  0  0  0  0  0  0  0  0
   26.8160    1.5600    2.3621 H   0  0  0  0  0  0  0  0  0  0  0  0
   16.8864    6.1236    8.4673 O   0  0  0  0  0  0  0  0  0  0  0  0
   20.1975    4.9651    6.2474 C   0  0  0  0  0  0  0  0  0  0  0  0
   19.1289    5.6396    5.6433 C   0  0  0  0  0  0  0  0  0  0  0  0
   20.1440    4.6777    7.6176 C   0  0  0  0  0  0  0  0  0  0  0  0
   18.0226    6.0224    6.4035 C   0  0  0  0  0  0  0  0  0  0  0  0
   19.0376    5.0596    8.3773 C   0  0  0  0  0  0  0  0  0  0  0  0
   17.9854    5.7304    7.7622 C   0  0  0  0  0  0  0  0  0  0  0  0
   16.1884    6.5742    8.0342 H   0  0  0  0  0  0  0  0  0  0  0  0
   22.3213    3.1919    7.3906 C   0  0  0  0  0  0  0  0  0  0  0  0
   22.8462    1.7641    7.4702 C   0  0  0  0  0  0  0  0  0  0  0  0
   21.4177    5.1877    4.0664 C   0  0  0  0  0  0  0  0  0  0  0  0
   22.2301    6.4751    4.0132 C   0  0  0  0  0  0  0  0  0  0  0  0
  3  9  1  0
  3 10  1  0
 11 17  1  0
 11 18  1  0
  1  2  2  0
  1 19  1  0
  1  4  1  0
  2 21  1  0
  2 12  1  0
 19 20  1  0
 21 22  1  0
  4  5  2  0
  4  6  1  0
 12 13  2  0
 12 14  1  0
  5  7  1  0
 13 15  1  0
  6  8  2  0
 14 16  2  0
  7  9  2  0
 15 17  2  0
  8  9  1  0
 16 17  1  0
M  END
> <PUBCHEM_COMPOUND_CID>
448537

> <PUBCHEM_CONFORMER_RMSD>
0.6

> <PUBCHEM_CONFORMER_DIVERSEORDER>
1
3
2

> <PUBCHEM_MMFF94_PARTIAL_CHARGES>
28
1 -0.53
11 -0.15
12 -0.15
13 -0.15
14 -0.15
15 -0.15
16 -0.15
17 -0.15
18 -0.15
19 0.08
2 -0.53
20 0.08
3 -0.17
31 0.15
32 0.15
33 0.15
34 0.15
35 0.15
36 0.15
37 0.15
38 0.15
39 0.45
4 -0.17
40 0.45
5 0.14
6 0.14
7 0.03
8 0.03

> <PUBCHEM_EFFECTIVE_ROTOR_COUNT>
4

> <PUBCHEM_PHARMACOPHORE_FEATURES>
6
1 1 donor
1 10 hydrophobe
1 2 donor
1 9 hydrophobe
6 7 11 13 15 17 19 rings
6 8 12 14 16 18 20 rings

> <PUBCHEM_HEAVY_ATOM_COUNT>
20

> <PUBCHEM_ATOM_DEF_STEREO_COUNT>
0

> <PUBCHEM_ATOM_UDEF_STEREO_COUNT>
0

> <PUBCHEM_BOND_DEF_STEREO_COUNT>
1

> <PUBCHEM_BOND_UDEF_STEREO_COUNT>
0

> <PUBCHEM_ISOTOPIC_ATOM_COUNT>
0

> <PUBCHEM_COMPONENT_COUNT>
1

> <PUBCHEM_CACTVS_TAUTO_COUNT>
3

> <PUBCHEM_CONFORMER_ID>
0006D81900000001

> <PUBCHEM_MMFF94_ENERGY>
60.231

> <PUBCHEM_FEATURE_SELFOVERLAP>
30.447

> <PUBCHEM_SHAPE_FINGERPRINT>
10366900 7 18186514428534874893
104564 63 18339924792832442081
10906281 52 18129397028286092948
11646440 116 18130798871235594657
12592029 89 16950278473467191938
12788726 201 18270697410649816016
13140716 1 18266458895859843337
13533116 47 18340201896197096762
13760787 19 16660644076447957075
14115302 16 18186806919849492430
14341114 176 15647057049052281551
15099037 51 18335139812416525942
15848700 24 18202843262111810220
15848702 151 16988848262958300981
16752209 62 18335696105492573576
16945 1 18410855473013063775
1813 80 18272378572207267076
18186145 218 18338228362096015613
187816 3 18410857663704853992
19141452 34 17131829889222033293
19784866 9 18113613452605694563
200 152 16950282905968490344
20028762 73 18055641861278493167
20600515 1 18340218469921978116
20645477 70 16009301016701038466
21285901 2 17917162606291067244
23175994 123 18333735723499757565
23402539 116 17988639696664490244
23493267 7 17313098635762053785
23557571 272 17489592229515708168
23559900 14 15554438621982335170
266924 87 18194116322357846868
347723 3 18410856551049855057
34934 24 18129105515976021729
3545911 37 15719391732852524422
4072396 5 18261662693185545291
4214541 1 15791727494979709055
465052 167 17240208741576471315
474 4 17917140731779840409
59755656 215 18270402685366324510
633830 44 18342455975941661781
69090 78 17060620005479420895
7226269 152 18410853270196137312
7495541 125 17531535390133293585
77779 3 15719110262139125926
81228 2 18128838385973970688
8272917 22 16660357039657468298
9971528 1 17775283884826915592

> <PUBCHEM_SHAPE_MULTIPOLES>
399.85
10.42
1.74
1.37
0
0
0.06
0
1.28
0
-0.74
0
0
-0.06

> <PUBCHEM_SHAPE_SELFOVERLAP>
850.96

> <PUBCHEM_SHAPE_VOLUME>
224.1

> <PUBCHEM_COORDINATE_TYPE>
2
5
10

> <Energy>
28.3223

> <minimizedAffinity>
-8.35351

> <CNNscore>
0.9043316245

> <CNNaffinity>
8.1182975769

> <CNN_VS>
7.3416333199

> <CNNaffinity_variance>
0.9475951195

$$$$
448537


 22 23  0  0  0  0  0  0  0  0999 V2000
   22.3497    4.2474    4.9437 C   0  0  0  0  0  0  0  0  0  0  0  0
   21.4172    3.6636    5.7372 C   0  0  0  0  0  0  0  0  0  0  0  0
   27.4448    1.9279    4.3595 O   0  0  0  0  0  0  0  0  0  0  0  0
   23.6841    3.6363    4.7769 C   0  0  0  0  0  0  0  0  0  0  0  0
   23.8627    2.5601    3.8973 C   0  0  0  0  0  0  0  0  0  0  0  0
   24.7799    4.1226    5.5012 C   0  0  0  0  0  0  0  0  0  0  0  0
   25.1222    1.9742    3.7464 C   0  0  0  0  0  0  0  0  0  0  0  0
   26.0380    3.5372    5.3496 C   0  0  0  0  0  0  0  0  0  0  0  0
   26.1985    2.4698    4.4751 C   0  0  0  0  0  0  0  0  0  0  0  0
   27.5901    1.2069    3.7791 H   0  0  0  0  0  0  0  0  0  0  0  0
   16.3466    6.0254    6.3641 O   0  0  0  0  0  0  0  0  0  0  0  0
   20.0815    4.2729    5.9025 C   0  0  0  0  0  0  0  0  0  0  0  0
   19.6285    5.2446    5.0011 C   0  0  0  0  0  0  0  0  0  0  0  0
   19.2605    3.8886    6.9708 C   0  0  0  0  0  0  0  0  0  0  0  0
   18.3701    5.8244    5.1701 C   0  0  0  0  0  0  0  0  0  0  0  0
   18.0021    4.4676    7.1391 C   0  0  0  0  0  0  0  0  0  0  0  0
   17.5680    5.4326    6.2358 C   0  0  0  0  0  0  0  0  0  0  0  0
   16.0729    6.6732    5.7450 H   0  0  0  0  0  0  0  0  0  0  0  0
   22.1497    5.5126    4.1283 C   0  0  0  0  0  0  0  0  0  0  0  0
   22.9945    6.6805    4.6206 C   0  0  0  0  0  0  0  0  0  0  0  0
   21.5908    2.3567    6.4902 C   0  0  0  0  0  0  0  0  0  0  0  0
   22.6392    2.4384    7.5921 C   0  0  0  0  0  0  0  0  0  0  0  0
  3  9  1  0
  3 10  1  0
 11 17  1  0
 11 18  1  0
  1  2  2  0
  1 19  1  0
  1  4  1  0
  2 21  1  0
  2 12  1  0
 19 20  1  0
 21 22  1  0
  4  5  2  0
  4  6  1  0
 12 13  2  0
 12 14  1  0
  5  7  1  0
 13 15  1  0
  6  8  2  0
 14 16  2  0
  7  9  2  0
 15 17  2  0
  8  9  1  0
 16 17  1  0
M  END
> <PUBCHEM_COMPOUND_CID>
448537

> <PUBCHEM_CONFORMER_RMSD>
0.6

> <PUBCHEM_CONFORMER_DIVERSEORDER>
1
3
2

> <PUBCHEM_MMFF94_PARTIAL_CHARGES>
28
1 -0.53
11 -0.15
12 -0.15
13 -0.15
14 -0.15
15 -0.15
16 -0.15
17 -0.15
18 -0.15
19 0.08
2 -0.53
20 0.08
3 -0.17
31 0.15
32 0.15
33 0.15
34 0.15
35 0.15
36 0.15
37 0.15
38 0.15
39 0.45
4 -0.17
40 0.45
5 0.14
6 0.14
7 0.03
8 0.03

> <PUBCHEM_EFFECTIVE_ROTOR_COUNT>
4

> <PUBCHEM_PHARMACOPHORE_FEATURES>
6
1 1 donor
1 10 hydrophobe
1 2 donor
1 9 hydrophobe
6 7 11 13 15 17 19 rings
6 8 12 14 16 18 20 rings

> <PUBCHEM_HEAVY_ATOM_COUNT>
20

> <PUBCHEM_ATOM_DEF_STEREO_COUNT>
0

> <PUBCHEM_ATOM_UDEF_STEREO_COUNT>
0

> <PUBCHEM_BOND_DEF_STEREO_COUNT>
1

> <PUBCHEM_BOND_UDEF_STEREO_COUNT>
0

> <PUBCHEM_ISOTOPIC_ATOM_COUNT>
0

> <PUBCHEM_COMPONENT_COUNT>
1

> <PUBCHEM_CACTVS_TAUTO_COUNT>
3

> <PUBCHEM_CONFORMER_ID>
0006D81900000001

> <PUBCHEM_MMFF94_ENERGY>
60.231

> <PUBCHEM_FEATURE_SELFOVERLAP>
30.447

> <PUBCHEM_SHAPE_FINGERPRINT>
10366900 7 18186514428534874893
104564 63 18339924792832442081
10906281 52 18129397028286092948
11646440 116 18130798871235594657
12592029 89 16950278473467191938
12788726 201 18270697410649816016
13140716 1 18266458895859843337
13533116 47 18340201896197096762
13760787 19 16660644076447957075
14115302 16 18186806919849492430
14341114 176 15647057049052281551
15099037 51 18335139812416525942
15848700 24 18202843262111810220
15848702 151 16988848262958300981
16752209 62 18335696105492573576
16945 1 18410855473013063775
1813 80 18272378572207267076
18186145 218 18338228362096015613
187816 3 18410857663704853992
19141452 34 17131829889222033293
19784866 9 18113613452605694563
200 152 16950282905968490344
20028762 73 18055641861278493167
20600515 1 18340218469921978116
20645477 70 16009301016701038466
21285901 2 17917162606291067244
23175994 123 18333735723499757565
23402539 116 17988639696664490244
23493267 7 17313098635762053785
23557571 272 17489592229515708168
23559900 14 15554438621982335170
266924 87 18194116322357846868
347723 3 18410856551049855057
34934 24 18129105515976021729
3545911 37 15719391732852524422
4072396 5 18261662693185545291
4214541 1 15791727494979709055
465052 167 17240208741576471315
474 4 17917140731779840409
59755656 215 18270402685366324510
633830 44 18342455975941661781
69090 78 17060620005479420895
7226269 152 18410853270196137312
7495541 125 17531535390133293585
77779 3 15719110262139125926
81228 2 18128838385973970688
8272917 22 16660357039657468298
9971528 1 17775283884826915592

> <PUBCHEM_SHAPE_MULTIPOLES>
399.85
10.42
1.74
1.37
0
0
0.06
0
1.28
0
-0.74
0
0
-0.06

> <PUBCHEM_SHAPE_SELFOVERLAP>
850.96

> <PUBCHEM_SHAPE_VOLUME>
224.1

> <PUBCHEM_COORDINATE_TYPE>
2
5
10

> <Energy>
28.3223

> <minimizedAffinity>
-8.14695

> <CNNscore>
0.9017373323

> <CNNaffinity>
7.8983345032

> <CNN_VS>
7.1222229004

> <CNNaffinity_variance>
0.6794342399

$$$$
448537


 22 23  0  0  0  0  0  0  0  0999 V2000
   21.9795    3.5166    5.6683 C   0  0  0  0  0  0  0  0  0  0  0  0
   21.0670    4.2477    4.9809 C   0  0  0  0  0  0  0  0  0  0  0  0
   26.9213    2.2084    3.3128 O   0  0  0  0  0  0  0  0  0  0  0  0
   23.2829    3.1779    5.0616 C   0  0  0  0  0  0  0  0  0  0  0  0
   24.4069    3.9766    5.3119 C   0  0  0  0  0  0  0  0  0  0  0  0
   23.4047    2.0603    4.2261 C   0  0  0  0  0  0  0  0  0  0  0  0
   25.6381    3.6635    4.7301 C   0  0  0  0  0  0  0  0  0  0  0  0
   24.6352    1.7477    3.6456 C   0  0  0  0  0  0  0  0  0  0  0  0
   25.7397    2.5505    3.9020 C   0  0  0  0  0  0  0  0  0  0  0  0
   27.6870    2.7269    3.4632 H   0  0  0  0  0  0  0  0  0  0  0  0
   16.1174    5.5898    7.3010 O   0  0  0  0  0  0  0  0  0  0  0  0
   19.7640    4.5890    5.5881 C   0  0  0  0  0  0  0  0  0  0  0  0
   19.0525    5.7149    5.1546 C   0  0  0  0  0  0  0  0  0  0  0  0
   19.2345    3.7918    6.6112 C   0  0  0  0  0  0  0  0  0  0  0  0
   17.8276    6.0380    5.7407 C   0  0  0  0  0  0  0  0  0  0  0  0
   18.0095    4.1142    7.1965 C   0  0  0  0  0  0  0  0  0  0  0  0
   17.3164    5.2371    6.7555 C   0  0  0  0  0  0  0  0  0  0  0  0
   15.6664    6.3498    6.9897 H   0  0  0  0  0  0  0  0  0  0  0  0
   21.8168    3.0112    7.0909 C   0  0  0  0  0  0  0  0  0  0  0  0
   22.7798    1.8833    7.4382 C   0  0  0  0  0  0  0  0  0  0  0  0
   21.2612    4.8198    3.5880 C   0  0  0  0  0  0  0  0  0  0  0  0
   22.0283    6.1357    3.5857 C   0  0  0  0  0  0  0  0  0  0  0  0
  3  9  1  0
  3 10  1  0
 11 17  1  0
 11 18  1  0
  1  2  2  0
  1 19  1  0
  1  4  1  0
  2 21  1  0
  2 12  1  0
 19 20  1  0
 21 22  1  0
  4  5  2  0
  4  6  1  0
 12 13  2  0
 12 14  1  0
  5  7  1  0
 13 15  1  0
  6  8  2  0
 14 16  2  0
  7  9  2  0
 15 17  2  0
  8  9  1  0
 16 17  1  0
M  END
> <PUBCHEM_COMPOUND_CID>
448537

> <PUBCHEM_CONFORMER_RMSD>
0.6

> <PUBCHEM_CONFORMER_DIVERSEORDER>
1
3
2

> <PUBCHEM_MMFF94_PARTIAL_CHARGES>
28
1 -0.53
11 -0.15
12 -0.15
13 -0.15
14 -0.15
15 -0.15
16 -0.15
17 -0.15
18 -0.15
19 0.08
2 -0.53
20 0.08
3 -0.17
31 0.15
32 0.15
33 0.15
34 0.15
35 0.15
36 0.15
37 0.15
38 0.15
39 0.45
4 -0.17
40 0.45
5 0.14
6 0.14
7 0.03
8 0.03

> <PUBCHEM_EFFECTIVE_ROTOR_COUNT>
4

> <PUBCHEM_PHARMACOPHORE_FEATURES>
6
1 1 donor
1 10 hydrophobe
1 2 donor
1 9 hydrophobe
6 7 11 13 15 17 19 rings
6 8 12 14 16 18 20 rings

> <PUBCHEM_HEAVY_ATOM_COUNT>
20

> <PUBCHEM_ATOM_DEF_STEREO_COUNT>
0

> <PUBCHEM_ATOM_UDEF_STEREO_COUNT>
0

> <PUBCHEM_BOND_DEF_STEREO_COUNT>
1

> <PUBCHEM_BOND_UDEF_STEREO_COUNT>
0

> <PUBCHEM_ISOTOPIC_ATOM_COUNT>
0

> <PUBCHEM_COMPONENT_COUNT>
1

> <PUBCHEM_CACTVS_TAUTO_COUNT>
3

> <PUBCHEM_CONFORMER_ID>
0006D81900000001

> <PUBCHEM_MMFF94_ENERGY>
60.231

> <PUBCHEM_FEATURE_SELFOVERLAP>
30.447

> <PUBCHEM_SHAPE_FINGERPRINT>
10366900 7 18186514428534874893
104564 63 18339924792832442081
10906281 52 18129397028286092948
11646440 116 18130798871235594657
12592029 89 16950278473467191938
12788726 201 18270697410649816016
13140716 1 18266458895859843337
13533116 47 18340201896197096762
13760787 19 16660644076447957075
14115302 16 18186806919849492430
14341114 176 15647057049052281551
15099037 51 18335139812416525942
15848700 24 18202843262111810220
15848702 151 16988848262958300981
16752209 62 18335696105492573576
16945 1 18410855473013063775
1813 80 18272378572207267076
18186145 218 18338228362096015613
187816 3 18410857663704853992
19141452 34 17131829889222033293
19784866 9 18113613452605694563
200 152 16950282905968490344
20028762 73 18055641861278493167
20600515 1 18340218469921978116
20645477 70 16009301016701038466
21285901 2 17917162606291067244
23175994 123 18333735723499757565
23402539 116 17988639696664490244
23493267 7 17313098635762053785
23557571 272 17489592229515708168
23559900 14 15554438621982335170
266924 87 18194116322357846868
347723 3 18410856551049855057
34934 24 18129105515976021729
3545911 37 15719391732852524422
4072396 5 18261662693185545291
4214541 1 15791727494979709055
465052 167 17240208741576471315
474 4 17917140731779840409
59755656 215 18270402685366324510
633830 44 18342455975941661781
69090 78 17060620005479420895
7226269 152 18410853270196137312
7495541 125 17531535390133293585
77779 3 15719110262139125926
81228 2 18128838385973970688
8272917 22 16660357039657468298
9971528 1 17775283884826915592

> <PUBCHEM_SHAPE_MULTIPOLES>
399.85
10.42
1.74
1.37
0
0
0.06
0
1.28
0
-0.74
0
0
-0.06

> <PUBCHEM_SHAPE_SELFOVERLAP>
850.96

> <PUBCHEM_SHAPE_VOLUME>
224.1

> <PUBCHEM_COORDINATE_TYPE>
2
5
10

> <Energy>
28.3223

> <minimizedAffinity>
-8.46427

> <CNNscore>
0.8872002959

> <CNNaffinity>
7.9926667213

> <CNN_VS>
7.0910964012

> <CNNaffinity_variance>
0.8511058688

$$$$
