8814


 16 16  0  0  0  0  0  0  0  0999 V2000
   23.2413    4.1964    6.4499 C   0  0  0  0  0  0  0  0  0  0  0  0
   22.0394    3.9586    7.4146 C   0  0  0  0  0  0  0  0  0  0  0  0
   23.6081    5.6868    6.6396 C   0  0  0  0  0  0  0  0  0  0  0  0
   21.4041    2.8068    1.2206 O   0  0  0  0  0  0  0  0  0  0  0  0
   22.7529    3.8485    5.0357 C   0  0  0  0  0  0  0  0  0  0  0  0
   21.4188    3.4361    4.8293 C   0  0  0  0  0  0  0  0  0  0  0  0
   23.5915    3.9136    3.9102 C   0  0  0  0  0  0  0  0  0  0  0  0
   20.9508    3.0855    3.5603 C   0  0  0  0  0  0  0  0  0  0  0  0
   23.1264    3.5619    2.6410 C   0  0  0  0  0  0  0  0  0  0  0  0
   21.8121    3.1477    2.4764 C   0  0  0  0  0  0  0  0  0  0  0  0
   20.5231    2.5230    1.0751 H   0  0  0  0  0  0  0  0  0  0  0  0
   24.4135    3.2686    6.9335 C   0  0  0  0  0  0  0  0  0  0  0  0
   25.1254    3.4317    8.3198 C   0  0  0  0  0  0  0  0  0  0  0  0
   26.5835    2.9423    8.1323 C   0  0  0  0  0  0  0  0  0  0  0  0
   24.4898    2.5746    9.4236 C   0  0  0  0  0  0  0  0  0  0  0  0
   25.2054    4.8864    8.8085 C   0  0  0  0  0  0  0  0  0  0  0  0
  4 10  1  0
  4 11  1  0
  1 12  1  0
  1  5  1  0
  1  2  1  0
  1  3  1  0
 13 12  1  0
 13 14  1  0
 13 15  1  0
 13 16  1  0
  5  6  2  0
  5  7  1  0
  6  8  1  0
  7  9  2  0
  8 10  2  0
  9 10  1  0
M  END
> <PUBCHEM_COMPOUND_CID>
8814

> <PUBCHEM_CONFORMER_RMSD>
0.6

> <PUBCHEM_CONFORMER_DIVERSEORDER>
1
5
4
3
2

> <PUBCHEM_MMFF94_PARTIAL_CHARGES>
13
1 -0.53
11 -0.15
12 -0.15
13 -0.15
14 -0.15
15 0.08
2 0.14
33 0.15
34 0.15
35 0.15
36 0.15
37 0.45
5 -0.14

> <PUBCHEM_EFFECTIVE_ROTOR_COUNT>
3

> <PUBCHEM_PHARMACOPHORE_FEATURES>
4
1 1 donor
3 2 6 7 hydrophobe
4 3 8 9 10 hydrophobe
6 5 11 12 13 14 15 rings

> <PUBCHEM_HEAVY_ATOM_COUNT>
15

> <PUBCHEM_ATOM_DEF_STEREO_COUNT>
0

> <PUBCHEM_ATOM_UDEF_STEREO_COUNT>
0

> <PUBCHEM_BOND_DEF_STEREO_COUNT>
0

> <PUBCHEM_BOND_UDEF_STEREO_COUNT>
0

> <PUBCHEM_ISOTOPIC_ATOM_COUNT>
0

> <PUBCHEM_COMPONENT_COUNT>
1

> <PUBCHEM_CACTVS_TAUTO_COUNT>
2

> <PUBCHEM_CONFORMER_ID>
0000226E00000001

> <PUBCHEM_MMFF94_ENERGY>
60.6732

> <PUBCHEM_FEATURE_SELFOVERLAP>
20.297

> <PUBCHEM_SHAPE_FINGERPRINT>
1 1 18122065299635933247
11471102 22 13984658170435925480
12138202 97 18272929444633088966
12251169 10 14923953348599690641
12423570 1 15084294979065354379
124424 183 18201999928641116818
12491281 212 18273493468196309381
12532896 13 18409735040726507851
13299463 15 16200422598337566991
13538477 17 17822291326855117498
13764800 53 18335714831507604569
13839132 238 18413110537123213324
14817 1 11689340854733718479
15375462 478 15647061443078261877
15775835 57 18339078194495494345
16945 1 17988065786023185643
18186145 218 18200036118541666588
18534176 82 18271243927656786518
19837323 101 18335708272823803859
20525323 117 18337111292773698462
20645476 183 17894351081266785547
21296965 12 18260545576729377063
21501502 16 18271800211963701222
21524375 3 18339638928324873163
21947302 44 18059017168310697110
22802520 49 18199766781279703998
23402539 116 18267296706830970519
23419403 2 17194099544908694927
23557571 272 18198918083120765556
23559900 14 18342742906418193234
25 1 17845383149850037993
2748010 2 18262817159083630983
276578 36 18189342281366350763
305870 269 18040992882718168402
430814 3 18041565736850213531
549884 4 17416683544816290937
6333449 129 18343582975122638285
6442390 28 18269297706777891659
7364860 26 17834677097914689979
81228 2 18191593162379223291

> <PUBCHEM_SHAPE_MULTIPOLES>
302.82
5.29
2.15
1.39
2.11
0.81
0.13
-3.45
0.34
-1.29
-0.24
-0.12
0.26
0.01

> <PUBCHEM_SHAPE_SELFOVERLAP>
615.427

> <PUBCHEM_SHAPE_VOLUME>
178.4

> <PUBCHEM_COORDINATE_TYPE>
2
5
10

> <Energy>
46.4329

> <minimizedAffinity>
-6.43581

> <CNNscore>
0.8887348771

> <CNNaffinity>
7.0562305450

> <CNN_VS>
6.2711181641

> <CNNaffinity_variance>
0.7595660686

$$$$
8814


 16 16  0  0  0  0  0  0  0  0999 V2000
   24.1934    4.6730    6.6446 C   0  0  0  0  0  0  0  0  0  0  0  0
   24.1384    6.2257    6.7781 C   0  0  0  0  0  0  0  0  0  0  0  0
   25.7015    4.3308    6.6604 C   0  0  0  0  0  0  0  0  0  0  0  0
   21.4919    3.2794    1.8060 O   0  0  0  0  0  0  0  0  0  0  0  0
   23.4851    4.3137    5.3297 C   0  0  0  0  0  0  0  0  0  0  0  0
   22.1326    4.6676    5.1349 C   0  0  0  0  0  0  0  0  0  0  0  0
   24.1302    3.6253    4.2885 C   0  0  0  0  0  0  0  0  0  0  0  0
   21.4512    4.3311    3.9623 C   0  0  0  0  0  0  0  0  0  0  0  0
   23.4507    3.2861    3.1163 C   0  0  0  0  0  0  0  0  0  0  0  0
   22.1170    3.6381    2.9637 C   0  0  0  0  0  0  0  0  0  0  0  0
   20.5917    3.5018    1.6713 H   0  0  0  0  0  0  0  0  0  0  0  0
   23.4733    4.0741    7.9062 C   0  0  0  0  0  0  0  0  0  0  0  0
   23.2626    2.5376    8.1295 C   0  0  0  0  0  0  0  0  0  0  0  0
   21.8141    2.2168    7.6824 C   0  0  0  0  0  0  0  0  0  0  0  0
   23.3929    2.1233    9.6020 C   0  0  0  0  0  0  0  0  0  0  0  0
   24.1935    1.6547    7.2837 C   0  0  0  0  0  0  0  0  0  0  0  0
  4 10  1  0
  4 11  1  0
  1 12  1  0
  1  5  1  0
  1  2  1  0
  1  3  1  0
 13 12  1  0
 13 14  1  0
 13 15  1  0
 13 16  1  0
  5  6  2  0
  5  7  1  0
  6  8  1  0
  7  9  2  0
  8 10  2  0
  9 10  1  0
M  END
> <PUBCHEM_COMPOUND_CID>
8814

> <PUBCHEM_CONFORMER_RMSD>
0.6

> <PUBCHEM_CONFORMER_DIVERSEORDER>
1
5
4
3
2

> <PUBCHEM_MMFF94_PARTIAL_CHARGES>
13
1 -0.53
11 -0.15
12 -0.15
13 -0.15
14 -0.15
15 0.08
2 0.14
33 0.15
34 0.15
35 0.15
36 0.15
37 0.45
5 -0.14

> <PUBCHEM_EFFECTIVE_ROTOR_COUNT>
3

> <PUBCHEM_PHARMACOPHORE_FEATURES>
4
1 1 donor
3 2 6 7 hydrophobe
4 3 8 9 10 hydrophobe
6 5 11 12 13 14 15 rings

> <PUBCHEM_HEAVY_ATOM_COUNT>
15

> <PUBCHEM_ATOM_DEF_STEREO_COUNT>
0

> <PUBCHEM_ATOM_UDEF_STEREO_COUNT>
0

> <PUBCHEM_BOND_DEF_STEREO_COUNT>
0

> <PUBCHEM_BOND_UDEF_STEREO_COUNT>
0

> <PUBCHEM_ISOTOPIC_ATOM_COUNT>
0

> <PUBCHEM_COMPONENT_COUNT>
1

> <PUBCHEM_CACTVS_TAUTO_COUNT>
2

> <PUBCHEM_CONFORMER_ID>
0000226E00000001

> <PUBCHEM_MMFF94_ENERGY>
60.6732

> <PUBCHEM_FEATURE_SELFOVERLAP>
20.297

> <PUBCHEM_SHAPE_FINGERPRINT>
1 1 18122065299635933247
11471102 22 13984658170435925480
12138202 97 18272929444633088966
12251169 10 14923953348599690641
12423570 1 15084294979065354379
124424 183 18201999928641116818
12491281 212 18273493468196309381
12532896 13 18409735040726507851
13299463 15 16200422598337566991
13538477 17 17822291326855117498
13764800 53 18335714831507604569
13839132 238 18413110537123213324
14817 1 11689340854733718479
15375462 478 15647061443078261877
15775835 57 18339078194495494345
16945 1 17988065786023185643
18186145 218 18200036118541666588
18534176 82 18271243927656786518
19837323 101 18335708272823803859
20525323 117 18337111292773698462
20645476 183 17894351081266785547
21296965 12 18260545576729377063
21501502 16 18271800211963701222
21524375 3 18339638928324873163
21947302 44 18059017168310697110
22802520 49 18199766781279703998
23402539 116 18267296706830970519
23419403 2 17194099544908694927
23557571 272 18198918083120765556
23559900 14 18342742906418193234
25 1 17845383149850037993
2748010 2 18262817159083630983
276578 36 18189342281366350763
305870 269 18040992882718168402
430814 3 18041565736850213531
549884 4 17416683544816290937
6333449 129 18343582975122638285
6442390 28 18269297706777891659
7364860 26 17834677097914689979
81228 2 18191593162379223291

> <PUBCHEM_SHAPE_MULTIPOLES>
302.82
5.29
2.15
1.39
2.11
0.81
0.13
-3.45
0.34
-1.29
-0.24
-0.12
0.26
0.01

> <PUBCHEM_SHAPE_SELFOVERLAP>
615.427

> <PUBCHEM_SHAPE_VOLUME>
178.4

> <PUBCHEM_COORDINATE_TYPE>
2
5
10

> <Energy>
46.4329

> <minimizedAffinity>
-7.17790

> <CNNscore>
0.8814949989

> <CNNaffinity>
6.7529277802

> <CNN_VS>
5.9526720047

> <CNNaffinity_variance>
0.3469534814

$$$$
8814


 16 16  0  0  0  0  0  0  0  0999 V2000
   23.9160    3.7751    6.4295 C   0  0  0  0  0  0  0  0  0  0  0  0
   25.0873    4.6322    5.8592 C   0  0  0  0  0  0  0  0  0  0  0  0
   24.5049    2.3525    6.5744 C   0  0  0  0  0  0  0  0  0  0  0  0
   19.6179    4.2422    2.6932 O   0  0  0  0  0  0  0  0  0  0  0  0
   22.7606    3.8733    5.4219 C   0  0  0  0  0  0  0  0  0  0  0  0
   22.9269    4.6002    4.2234 C   0  0  0  0  0  0  0  0  0  0  0  0
   21.5123    3.2677    5.6436 C   0  0  0  0  0  0  0  0  0  0  0  0
   21.8871    4.7325    3.2993 C   0  0  0  0  0  0  0  0  0  0  0  0
   20.4710    3.4000    4.7223 C   0  0  0  0  0  0  0  0  0  0  0  0
   20.6649    4.1335    3.5601 C   0  0  0  0  0  0  0  0  0  0  0  0
   19.7156    4.7304    1.8994 H   0  0  0  0  0  0  0  0  0  0  0  0
   23.5483    4.3714    7.8359 C   0  0  0  0  0  0  0  0  0  0  0  0
   24.6147    4.9182    8.8453 C   0  0  0  0  0  0  0  0  0  0  0  0
   24.0075    4.7635   10.2624 C   0  0  0  0  0  0  0  0  0  0  0  0
   24.9275    6.4068    8.6378 C   0  0  0  0  0  0  0  0  0  0  0  0
   25.9345    4.1309    8.8401 C   0  0  0  0  0  0  0  0  0  0  0  0
  4 10  1  0
  4 11  1  0
  1 12  1  0
  1  5  1  0
  1  2  1  0
  1  3  1  0
 13 12  1  0
 13 14  1  0
 13 15  1  0
 13 16  1  0
  5  6  2  0
  5  7  1  0
  6  8  1  0
  7  9  2  0
  8 10  2  0
  9 10  1  0
M  END
> <PUBCHEM_COMPOUND_CID>
8814

> <PUBCHEM_CONFORMER_RMSD>
0.6

> <PUBCHEM_CONFORMER_DIVERSEORDER>
1
5
4
3
2

> <PUBCHEM_MMFF94_PARTIAL_CHARGES>
13
1 -0.53
11 -0.15
12 -0.15
13 -0.15
14 -0.15
15 0.08
2 0.14
33 0.15
34 0.15
35 0.15
36 0.15
37 0.45
5 -0.14

> <PUBCHEM_EFFECTIVE_ROTOR_COUNT>
3

> <PUBCHEM_PHARMACOPHORE_FEATURES>
4
1 1 donor
3 2 6 7 hydrophobe
4 3 8 9 10 hydrophobe
6 5 11 12 13 14 15 rings

> <PUBCHEM_HEAVY_ATOM_COUNT>
15

> <PUBCHEM_ATOM_DEF_STEREO_COUNT>
0

> <PUBCHEM_ATOM_UDEF_STEREO_COUNT>
0

> <PUBCHEM_BOND_DEF_STEREO_COUNT>
0

> <PUBCHEM_BOND_UDEF_STEREO_COUNT>
0

> <PUBCHEM_ISOTOPIC_ATOM_COUNT>
0

> <PUBCHEM_COMPONENT_COUNT>
1

> <PUBCHEM_CACTVS_TAUTO_COUNT>
2

> <PUBCHEM_CONFORMER_ID>
0000226E00000001

> <PUBCHEM_MMFF94_ENERGY>
60.6732

> <PUBCHEM_FEATURE_SELFOVERLAP>
20.297

> <PUBCHEM_SHAPE_FINGERPRINT>
1 1 18122065299635933247
11471102 22 13984658170435925480
12138202 97 18272929444633088966
12251169 10 14923953348599690641
12423570 1 15084294979065354379
124424 183 18201999928641116818
12491281 212 18273493468196309381
12532896 13 18409735040726507851
13299463 15 16200422598337566991
13538477 17 17822291326855117498
13764800 53 18335714831507604569
13839132 238 18413110537123213324
14817 1 11689340854733718479
15375462 478 15647061443078261877
15775835 57 18339078194495494345
16945 1 17988065786023185643
18186145 218 18200036118541666588
18534176 82 18271243927656786518
19837323 101 18335708272823803859
20525323 117 18337111292773698462
20645476 183 17894351081266785547
21296965 12 18260545576729377063
21501502 16 18271800211963701222
21524375 3 18339638928324873163
21947302 44 18059017168310697110
22802520 49 18199766781279703998
23402539 116 18267296706830970519
23419403 2 17194099544908694927
23557571 272 18198918083120765556
23559900 14 18342742906418193234
25 1 17845383149850037993
2748010 2 18262817159083630983
276578 36 18189342281366350763
305870 269 18040992882718168402
430814 3 18041565736850213531
549884 4 17416683544816290937
6333449 129 18343582975122638285
6442390 28 18269297706777891659
7364860 26 17834677097914689979
81228 2 18191593162379223291

> <PUBCHEM_SHAPE_MULTIPOLES>
302.82
5.29
2.15
1.39
2.11
0.81
0.13
-3.45
0.34
-1.29
-0.24
-0.12
0.26
0.01

> <PUBCHEM_SHAPE_SELFOVERLAP>
615.427

> <PUBCHEM_SHAPE_VOLUME>
178.4

> <PUBCHEM_COORDINATE_TYPE>
2
5
10

> <Energy>
46.4329

> <minimizedAffinity>
-7.52470

> <CNNscore>
0.8588858843

> <CNNaffinity>
7.0495400429

> <CNN_VS>
6.0547504425

> <CNNaffinity_variance>
0.7627510428

$$$$
8814


 16 16  0  0  0  0  0  0  0  0999 V2000
   23.6345    4.4129    6.6265 C   0  0  0  0  0  0  0  0  0  0  0  0
   23.9760    5.9242    6.8031 C   0  0  0  0  0  0  0  0  0  0  0  0
   24.9702    3.7548    6.2088 C   0  0  0  0  0  0  0  0  0  0  0  0
   19.5404    3.9911    2.6626 O   0  0  0  0  0  0  0  0  0  0  0  0
   22.5346    4.3268    5.5576 C   0  0  0  0  0  0  0  0  0  0  0  0
   21.2630    3.8128    5.8906 C   0  0  0  0  0  0  0  0  0  0  0  0
   22.7393    4.7366    4.2293 C   0  0  0  0  0  0  0  0  0  0  0  0
   20.2499    3.6948    4.9355 C   0  0  0  0  0  0  0  0  0  0  0  0
   21.7289    4.6179    3.2724 C   0  0  0  0  0  0  0  0  0  0  0  0
   20.4943    4.0953    3.6315 C   0  0  0  0  0  0  0  0  0  0  0  0
   18.6962    3.6424    2.8718 H   0  0  0  0  0  0  0  0  0  0  0  0
   23.1642    3.8780    8.0270 C   0  0  0  0  0  0  0  0  0  0  0  0
   23.2835    2.3770    8.4602 C   0  0  0  0  0  0  0  0  0  0  0  0
   24.1910    2.3463    9.7157 C   0  0  0  0  0  0  0  0  0  0  0  0
   23.9456    1.4962    7.3912 C   0  0  0  0  0  0  0  0  0  0  0  0
   21.9449    1.7401    8.8651 C   0  0  0  0  0  0  0  0  0  0  0  0
  4 10  1  0
  4 11  1  0
  1 12  1  0
  1  5  1  0
  1  2  1  0
  1  3  1  0
 13 12  1  0
 13 14  1  0
 13 15  1  0
 13 16  1  0
  5  6  2  0
  5  7  1  0
  6  8  1  0
  7  9  2  0
  8 10  2  0
  9 10  1  0
M  END
> <PUBCHEM_COMPOUND_CID>
8814

> <PUBCHEM_CONFORMER_RMSD>
0.6

> <PUBCHEM_CONFORMER_DIVERSEORDER>
1
5
4
3
2

> <PUBCHEM_MMFF94_PARTIAL_CHARGES>
13
1 -0.53
11 -0.15
12 -0.15
13 -0.15
14 -0.15
15 0.08
2 0.14
33 0.15
34 0.15
35 0.15
36 0.15
37 0.45
5 -0.14

> <PUBCHEM_EFFECTIVE_ROTOR_COUNT>
3

> <PUBCHEM_PHARMACOPHORE_FEATURES>
4
1 1 donor
3 2 6 7 hydrophobe
4 3 8 9 10 hydrophobe
6 5 11 12 13 14 15 rings

> <PUBCHEM_HEAVY_ATOM_COUNT>
15

> <PUBCHEM_ATOM_DEF_STEREO_COUNT>
0

> <PUBCHEM_ATOM_UDEF_STEREO_COUNT>
0

> <PUBCHEM_BOND_DEF_STEREO_COUNT>
0

> <PUBCHEM_BOND_UDEF_STEREO_COUNT>
0

> <PUBCHEM_ISOTOPIC_ATOM_COUNT>
0

> <PUBCHEM_COMPONENT_COUNT>
1

> <PUBCHEM_CACTVS_TAUTO_COUNT>
2

> <PUBCHEM_CONFORMER_ID>
0000226E00000001

> <PUBCHEM_MMFF94_ENERGY>
60.6732

> <PUBCHEM_FEATURE_SELFOVERLAP>
20.297

> <PUBCHEM_SHAPE_FINGERPRINT>
1 1 18122065299635933247
11471102 22 13984658170435925480
12138202 97 18272929444633088966
12251169 10 14923953348599690641
12423570 1 15084294979065354379
124424 183 18201999928641116818
12491281 212 18273493468196309381
12532896 13 18409735040726507851
13299463 15 16200422598337566991
13538477 17 17822291326855117498
13764800 53 18335714831507604569
13839132 238 18413110537123213324
14817 1 11689340854733718479
15375462 478 15647061443078261877
15775835 57 18339078194495494345
16945 1 17988065786023185643
18186145 218 18200036118541666588
18534176 82 18271243927656786518
19837323 101 18335708272823803859
20525323 117 18337111292773698462
20645476 183 17894351081266785547
21296965 12 18260545576729377063
21501502 16 18271800211963701222
21524375 3 18339638928324873163
21947302 44 18059017168310697110
22802520 49 18199766781279703998
23402539 116 18267296706830970519
23419403 2 17194099544908694927
23557571 272 18198918083120765556
23559900 14 18342742906418193234
25 1 17845383149850037993
2748010 2 18262817159083630983
276578 36 18189342281366350763
305870 269 18040992882718168402
430814 3 18041565736850213531
549884 4 17416683544816290937
6333449 129 18343582975122638285
6442390 28 18269297706777891659
7364860 26 17834677097914689979
81228 2 18191593162379223291

> <PUBCHEM_SHAPE_MULTIPOLES>
302.82
5.29
2.15
1.39
2.11
0.81
0.13
-3.45
0.34
-1.29
-0.24
-0.12
0.26
0.01

> <PUBCHEM_SHAPE_SELFOVERLAP>
615.427

> <PUBCHEM_SHAPE_VOLUME>
178.4

> <PUBCHEM_COORDINATE_TYPE>
2
5
10

> <Energy>
46.4329

> <minimizedAffinity>
-7.43174

> <CNNscore>
0.8543532491

> <CNNaffinity>
6.8475327492

> <CNN_VS>
5.8502116203

> <CNNaffinity_variance>
0.4194314480

$$$$
8814


 16 16  0  0  0  0  0  0  0  0999 V2000
   23.6506    4.4254    6.6826 C   0  0  0  0  0  0  0  0  0  0  0  0
   24.7762    3.4233    6.2822 C   0  0  0  0  0  0  0  0  0  0  0  0
   23.2155    3.9817    8.0988 C   0  0  0  0  0  0  0  0  0  0  0  0
   19.5411    4.0662    2.7285 O   0  0  0  0  0  0  0  0  0  0  0  0
   22.5460    4.3015    5.6223 C   0  0  0  0  0  0  0  0  0  0  0  0
   22.7729    4.7610    4.3072 C   0  0  0  0  0  0  0  0  0  0  0  0
   21.2863    3.7474    5.9059 C   0  0  0  0  0  0  0  0  0  0  0  0
   21.7799    4.6887    3.3268 C   0  0  0  0  0  0  0  0  0  0  0  0
   20.2916    3.6758    4.9282 C   0  0  0  0  0  0  0  0  0  0  0  0
   20.5444    4.1496    3.6484 C   0  0  0  0  0  0  0  0  0  0  0  0
   19.6790    4.3771    1.8554 H   0  0  0  0  0  0  0  0  0  0  0  0
   24.2977    5.8567    6.7218 C   0  0  0  0  0  0  0  0  0  0  0  0
   25.3694    6.2889    7.7800 C   0  0  0  0  0  0  0  0  0  0  0  0
   26.0487    7.5680    7.2294 C   0  0  0  0  0  0  0  0  0  0  0  0
   26.4673    5.2356    7.9848 C   0  0  0  0  0  0  0  0  0  0  0  0
   24.7760    6.6564    9.1491 C   0  0  0  0  0  0  0  0  0  0  0  0
  4 10  1  0
  4 11  1  0
  1 12  1  0
  1  5  1  0
  1  2  1  0
  1  3  1  0
 13 12  1  0
 13 14  1  0
 13 15  1  0
 13 16  1  0
  5  6  2  0
  5  7  1  0
  6  8  1  0
  7  9  2  0
  8 10  2  0
  9 10  1  0
M  END
> <PUBCHEM_COMPOUND_CID>
8814

> <PUBCHEM_CONFORMER_RMSD>
0.6

> <PUBCHEM_CONFORMER_DIVERSEORDER>
1
5
4
3
2

> <PUBCHEM_MMFF94_PARTIAL_CHARGES>
13
1 -0.53
11 -0.15
12 -0.15
13 -0.15
14 -0.15
15 0.08
2 0.14
33 0.15
34 0.15
35 0.15
36 0.15
37 0.45
5 -0.14

> <PUBCHEM_EFFECTIVE_ROTOR_COUNT>
3

> <PUBCHEM_PHARMACOPHORE_FEATURES>
4
1 1 donor
3 2 6 7 hydrophobe
4 3 8 9 10 hydrophobe
6 5 11 12 13 14 15 rings

> <PUBCHEM_HEAVY_ATOM_COUNT>
15

> <PUBCHEM_ATOM_DEF_STEREO_COUNT>
0

> <PUBCHEM_ATOM_UDEF_STEREO_COUNT>
0

> <PUBCHEM_BOND_DEF_STEREO_COUNT>
0

> <PUBCHEM_BOND_UDEF_STEREO_COUNT>
0

> <PUBCHEM_ISOTOPIC_ATOM_COUNT>
0

> <PUBCHEM_COMPONENT_COUNT>
1

> <PUBCHEM_CACTVS_TAUTO_COUNT>
2

> <PUBCHEM_CONFORMER_ID>
0000226E00000001

> <PUBCHEM_MMFF94_ENERGY>
60.6732

> <PUBCHEM_FEATURE_SELFOVERLAP>
20.297

> <PUBCHEM_SHAPE_FINGERPRINT>
1 1 18122065299635933247
11471102 22 13984658170435925480
12138202 97 18272929444633088966
12251169 10 14923953348599690641
12423570 1 15084294979065354379
124424 183 18201999928641116818
12491281 212 18273493468196309381
12532896 13 18409735040726507851
13299463 15 16200422598337566991
13538477 17 17822291326855117498
13764800 53 18335714831507604569
13839132 238 18413110537123213324
14817 1 11689340854733718479
15375462 478 15647061443078261877
15775835 57 18339078194495494345
16945 1 17988065786023185643
18186145 218 18200036118541666588
18534176 82 18271243927656786518
19837323 101 18335708272823803859
20525323 117 18337111292773698462
20645476 183 17894351081266785547
21296965 12 18260545576729377063
21501502 16 18271800211963701222
21524375 3 18339638928324873163
21947302 44 18059017168310697110
22802520 49 18199766781279703998
23402539 116 18267296706830970519
23419403 2 17194099544908694927
23557571 272 18198918083120765556
23559900 14 18342742906418193234
25 1 17845383149850037993
2748010 2 18262817159083630983
276578 36 18189342281366350763
305870 269 18040992882718168402
430814 3 18041565736850213531
549884 4 17416683544816290937
6333449 129 18343582975122638285
6442390 28 18269297706777891659
7364860 26 17834677097914689979
81228 2 18191593162379223291

> <PUBCHEM_SHAPE_MULTIPOLES>
302.82
5.29
2.15
1.39
2.11
0.81
0.13
-3.45
0.34
-1.29
-0.24
-0.12
0.26
0.01

> <PUBCHEM_SHAPE_SELFOVERLAP>
615.427

> <PUBCHEM_SHAPE_VOLUME>
178.4

> <PUBCHEM_COORDINATE_TYPE>
2
5
10

> <Energy>
46.4329

> <minimizedAffinity>
-8.08156

> <CNNscore>
0.8440216780

> <CNNaffinity>
6.7612876892

> <CNN_VS>
5.7066731453

> <CNNaffinity_variance>
0.3716650903

$$$$
8814


 16 16  0  0  0  0  0  0  0  0999 V2000
   23.6524    4.4506    6.6977 C   0  0  0  0  0  0  0  0  0  0  0  0
   24.8352    3.5414    6.2438 C   0  0  0  0  0  0  0  0  0  0  0  0
   23.2507    3.9069    8.0886 C   0  0  0  0  0  0  0  0  0  0  0  0
   19.5601    4.0512    2.7296 O   0  0  0  0  0  0  0  0  0  0  0  0
   22.5532    4.3158    5.6331 C   0  0  0  0  0  0  0  0  0  0  0  0
   22.7689    4.8061    4.3272 C   0  0  0  0  0  0  0  0  0  0  0  0
   21.3091    3.7215    5.9038 C   0  0  0  0  0  0  0  0  0  0  0  0
   21.7797    4.7245    3.3437 C   0  0  0  0  0  0  0  0  0  0  0  0
   20.3180    3.6405    4.9230 C   0  0  0  0  0  0  0  0  0  0  0  0
   20.5593    4.1452    3.6528 C   0  0  0  0  0  0  0  0  0  0  0  0
   19.6905    4.3821    1.8627 H   0  0  0  0  0  0  0  0  0  0  0  0
   24.2114    5.9145    6.8122 C   0  0  0  0  0  0  0  0  0  0  0  0
   25.3930    6.3137    7.7606 C   0  0  0  0  0  0  0  0  0  0  0  0
   24.7604    6.7083    9.1188 C   0  0  0  0  0  0  0  0  0  0  0  0
   26.1858    7.5259    7.2518 C   0  0  0  0  0  0  0  0  0  0  0  0
   26.3745    5.1660    8.0454 C   0  0  0  0  0  0  0  0  0  0  0  0
  4 10  1  0
  4 11  1  0
  1 12  1  0
  1  5  1  0
  1  2  1  0
  1  3  1  0
 13 12  1  0
 13 14  1  0
 13 15  1  0
 13 16  1  0
  5  6  2  0
  5  7  1  0
  6  8  1  0
  7  9  2  0
  8 10  2  0
  9 10  1  0
M  END
> <PUBCHEM_COMPOUND_CID>
8814

> <PUBCHEM_CONFORMER_RMSD>
0.6

> <PUBCHEM_CONFORMER_DIVERSEORDER>
1
5
4
3
2

> <PUBCHEM_MMFF94_PARTIAL_CHARGES>
13
1 -0.53
11 -0.15
12 -0.15
13 -0.15
14 -0.15
15 0.08
2 0.14
33 0.15
34 0.15
35 0.15
36 0.15
37 0.45
5 -0.14

> <PUBCHEM_EFFECTIVE_ROTOR_COUNT>
3

> <PUBCHEM_PHARMACOPHORE_FEATURES>
4
1 1 donor
3 2 6 7 hydrophobe
4 3 8 9 10 hydrophobe
6 5 11 12 13 14 15 rings

> <PUBCHEM_HEAVY_ATOM_COUNT>
15

> <PUBCHEM_ATOM_DEF_STEREO_COUNT>
0

> <PUBCHEM_ATOM_UDEF_STEREO_COUNT>
0

> <PUBCHEM_BOND_DEF_STEREO_COUNT>
0

> <PUBCHEM_BOND_UDEF_STEREO_COUNT>
0

> <PUBCHEM_ISOTOPIC_ATOM_COUNT>
0

> <PUBCHEM_COMPONENT_COUNT>
1

> <PUBCHEM_CACTVS_TAUTO_COUNT>
2

> <PUBCHEM_CONFORMER_ID>
0000226E00000001

> <PUBCHEM_MMFF94_ENERGY>
60.6732

> <PUBCHEM_FEATURE_SELFOVERLAP>
20.297

> <PUBCHEM_SHAPE_FINGERPRINT>
1 1 18122065299635933247
11471102 22 13984658170435925480
12138202 97 18272929444633088966
12251169 10 14923953348599690641
12423570 1 15084294979065354379
124424 183 18201999928641116818
12491281 212 18273493468196309381
12532896 13 18409735040726507851
13299463 15 16200422598337566991
13538477 17 17822291326855117498
13764800 53 18335714831507604569
13839132 238 18413110537123213324
14817 1 11689340854733718479
15375462 478 15647061443078261877
15775835 57 18339078194495494345
16945 1 17988065786023185643
18186145 218 18200036118541666588
18534176 82 18271243927656786518
19837323 101 18335708272823803859
20525323 117 18337111292773698462
20645476 183 17894351081266785547
21296965 12 18260545576729377063
21501502 16 18271800211963701222
21524375 3 18339638928324873163
21947302 44 18059017168310697110
22802520 49 18199766781279703998
23402539 116 18267296706830970519
23419403 2 17194099544908694927
23557571 272 18198918083120765556
23559900 14 18342742906418193234
25 1 17845383149850037993
2748010 2 18262817159083630983
276578 36 18189342281366350763
305870 269 18040992882718168402
430814 3 18041565736850213531
549884 4 17416683544816290937
6333449 129 18343582975122638285
6442390 28 18269297706777891659
7364860 26 17834677097914689979
81228 2 18191593162379223291

> <PUBCHEM_SHAPE_MULTIPOLES>
302.82
5.29
2.15
1.39
2.11
0.81
0.13
-3.45
0.34
-1.29
-0.24
-0.12
0.26
0.01

> <PUBCHEM_SHAPE_SELFOVERLAP>
615.427

> <PUBCHEM_SHAPE_VOLUME>
178.4

> <PUBCHEM_COORDINATE_TYPE>
2
5
10

> <Energy>
46.4329

> <minimizedAffinity>
-8.08570

> <CNNscore>
0.8404607773

> <CNNaffinity>
6.7575974464

> <CNN_VS>
5.6794958115

> <CNNaffinity_variance>
0.3828536570

$$$$
8814


 16 16  0  0  0  0  0  0  0  0999 V2000
   23.6579    3.0956    7.0995 C   0  0  0  0  0  0  0  0  0  0  0  0
   24.9948    2.2953    7.1613 C   0  0  0  0  0  0  0  0  0  0  0  0
   22.5745    2.0850    7.5429 C   0  0  0  0  0  0  0  0  0  0  0  0
   22.9705    4.8911    1.7185 O   0  0  0  0  0  0  0  0  0  0  0  0
   23.4993    3.5867    5.6527 C   0  0  0  0  0  0  0  0  0  0  0  0
   22.5603    4.5952    5.3466 C   0  0  0  0  0  0  0  0  0  0  0  0
   24.2553    3.0626    4.5906 C   0  0  0  0  0  0  0  0  0  0  0  0
   22.3716    5.0442    4.0370 C   0  0  0  0  0  0  0  0  0  0  0  0
   24.0671    3.5085    3.2804 C   0  0  0  0  0  0  0  0  0  0  0  0
   23.1254    4.4923    3.0133 C   0  0  0  0  0  0  0  0  0  0  0  0
   22.3432    5.5534    1.5041 H   0  0  0  0  0  0  0  0  0  0  0  0
   23.7758    4.2742    8.1320 C   0  0  0  0  0  0  0  0  0  0  0  0
   24.9948    5.2574    8.1813 C   0  0  0  0  0  0  0  0  0  0  0  0
   24.6080    6.4900    7.3258 C   0  0  0  0  0  0  0  0  0  0  0  0
   26.2720    4.6584    7.5757 C   0  0  0  0  0  0  0  0  0  0  0  0
   25.3142    5.7789    9.5911 C   0  0  0  0  0  0  0  0  0  0  0  0
  4 10  1  0
  4 11  1  0
  1 12  1  0
  1  5  1  0
  1  2  1  0
  1  3  1  0
 13 12  1  0
 13 14  1  0
 13 15  1  0
 13 16  1  0
  5  6  2  0
  5  7  1  0
  6  8  1  0
  7  9  2  0
  8 10  2  0
  9 10  1  0
M  END
> <PUBCHEM_COMPOUND_CID>
8814

> <PUBCHEM_CONFORMER_RMSD>
0.6

> <PUBCHEM_CONFORMER_DIVERSEORDER>
1
5
4
3
2

> <PUBCHEM_MMFF94_PARTIAL_CHARGES>
13
1 -0.53
11 -0.15
12 -0.15
13 -0.15
14 -0.15
15 0.08
2 0.14
33 0.15
34 0.15
35 0.15
36 0.15
37 0.45
5 -0.14

> <PUBCHEM_EFFECTIVE_ROTOR_COUNT>
3

> <PUBCHEM_PHARMACOPHORE_FEATURES>
4
1 1 donor
3 2 6 7 hydrophobe
4 3 8 9 10 hydrophobe
6 5 11 12 13 14 15 rings

> <PUBCHEM_HEAVY_ATOM_COUNT>
15

> <PUBCHEM_ATOM_DEF_STEREO_COUNT>
0

> <PUBCHEM_ATOM_UDEF_STEREO_COUNT>
0

> <PUBCHEM_BOND_DEF_STEREO_COUNT>
0

> <PUBCHEM_BOND_UDEF_STEREO_COUNT>
0

> <PUBCHEM_ISOTOPIC_ATOM_COUNT>
0

> <PUBCHEM_COMPONENT_COUNT>
1

> <PUBCHEM_CACTVS_TAUTO_COUNT>
2

> <PUBCHEM_CONFORMER_ID>
0000226E00000001

> <PUBCHEM_MMFF94_ENERGY>
60.6732

> <PUBCHEM_FEATURE_SELFOVERLAP>
20.297

> <PUBCHEM_SHAPE_FINGERPRINT>
1 1 18122065299635933247
11471102 22 13984658170435925480
12138202 97 18272929444633088966
12251169 10 14923953348599690641
12423570 1 15084294979065354379
124424 183 18201999928641116818
12491281 212 18273493468196309381
12532896 13 18409735040726507851
13299463 15 16200422598337566991
13538477 17 17822291326855117498
13764800 53 18335714831507604569
13839132 238 18413110537123213324
14817 1 11689340854733718479
15375462 478 15647061443078261877
15775835 57 18339078194495494345
16945 1 17988065786023185643
18186145 218 18200036118541666588
18534176 82 18271243927656786518
19837323 101 18335708272823803859
20525323 117 18337111292773698462
20645476 183 17894351081266785547
21296965 12 18260545576729377063
21501502 16 18271800211963701222
21524375 3 18339638928324873163
21947302 44 18059017168310697110
22802520 49 18199766781279703998
23402539 116 18267296706830970519
23419403 2 17194099544908694927
23557571 272 18198918083120765556
23559900 14 18342742906418193234
25 1 17845383149850037993
2748010 2 18262817159083630983
276578 36 18189342281366350763
305870 269 18040992882718168402
430814 3 18041565736850213531
549884 4 17416683544816290937
6333449 129 18343582975122638285
6442390 28 18269297706777891659
7364860 26 17834677097914689979
81228 2 18191593162379223291

> <PUBCHEM_SHAPE_MULTIPOLES>
302.82
5.29
2.15
1.39
2.11
0.81
0.13
-3.45
0.34
-1.29
-0.24
-0.12
0.26
0.01

> <PUBCHEM_SHAPE_SELFOVERLAP>
615.427

> <PUBCHEM_SHAPE_VOLUME>
178.4

> <PUBCHEM_COORDINATE_TYPE>
2
5
10

> <Energy>
46.4329

> <minimizedAffinity>
-7.22644

> <CNNscore>
0.8286710978

> <CNNaffinity>
6.7709059715

> <CNN_VS>
5.6108541489

> <CNNaffinity_variance>
0.5208614469

$$$$
8814


 16 16  0  0  0  0  0  0  0  0999 V2000
   23.6184    4.4322    6.6984 C   0  0  0  0  0  0  0  0  0  0  0  0
   24.7285    3.4148    6.2928 C   0  0  0  0  0  0  0  0  0  0  0  0
   23.1566    3.9711    8.1005 C   0  0  0  0  0  0  0  0  0  0  0  0
   19.5525    4.0270    2.7039 O   0  0  0  0  0  0  0  0  0  0  0  0
   22.5251    4.3507    5.6225 C   0  0  0  0  0  0  0  0  0  0  0  0
   21.2737    3.7733    5.9276 C   0  0  0  0  0  0  0  0  0  0  0  0
   22.7165    4.8264    4.3143 C   0  0  0  0  0  0  0  0  0  0  0  0
   20.2681    3.6584    4.9643 C   0  0  0  0  0  0  0  0  0  0  0  0
   21.7135    4.7110    3.3493 C   0  0  0  0  0  0  0  0  0  0  0  0
   20.4995    4.1254    3.6802 C   0  0  0  0  0  0  0  0  0  0  0  0
   18.7221    3.6369    2.8943 H   0  0  0  0  0  0  0  0  0  0  0  0
   24.2939    5.8489    6.7726 C   0  0  0  0  0  0  0  0  0  0  0  0
   25.3646    6.2375    7.8485 C   0  0  0  0  0  0  0  0  0  0  0  0
   26.0998    7.4918    7.3128 C   0  0  0  0  0  0  0  0  0  0  0  0
   26.4189    5.1431    8.0663 C   0  0  0  0  0  0  0  0  0  0  0  0
   24.7644    6.6230    9.2097 C   0  0  0  0  0  0  0  0  0  0  0  0
  4 10  1  0
  4 11  1  0
  1 12  1  0
  1  5  1  0
  1  2  1  0
  1  3  1  0
 13 12  1  0
 13 14  1  0
 13 15  1  0
 13 16  1  0
  5  6  2  0
  5  7  1  0
  6  8  1  0
  7  9  2  0
  8 10  2  0
  9 10  1  0
M  END
> <PUBCHEM_COMPOUND_CID>
8814

> <PUBCHEM_CONFORMER_RMSD>
0.6

> <PUBCHEM_CONFORMER_DIVERSEORDER>
1
5
4
3
2

> <PUBCHEM_MMFF94_PARTIAL_CHARGES>
13
1 -0.53
11 -0.15
12 -0.15
13 -0.15
14 -0.15
15 0.08
2 0.14
33 0.15
34 0.15
35 0.15
36 0.15
37 0.45
5 -0.14

> <PUBCHEM_EFFECTIVE_ROTOR_COUNT>
3

> <PUBCHEM_PHARMACOPHORE_FEATURES>
4
1 1 donor
3 2 6 7 hydrophobe
4 3 8 9 10 hydrophobe
6 5 11 12 13 14 15 rings

> <PUBCHEM_HEAVY_ATOM_COUNT>
15

> <PUBCHEM_ATOM_DEF_STEREO_COUNT>
0

> <PUBCHEM_ATOM_UDEF_STEREO_COUNT>
0

> <PUBCHEM_BOND_DEF_STEREO_COUNT>
0

> <PUBCHEM_BOND_UDEF_STEREO_COUNT>
0

> <PUBCHEM_ISOTOPIC_ATOM_COUNT>
0

> <PUBCHEM_COMPONENT_COUNT>
1

> <PUBCHEM_CACTVS_TAUTO_COUNT>
2

> <PUBCHEM_CONFORMER_ID>
0000226E00000001

> <PUBCHEM_MMFF94_ENERGY>
60.6732

> <PUBCHEM_FEATURE_SELFOVERLAP>
20.297

> <PUBCHEM_SHAPE_FINGERPRINT>
1 1 18122065299635933247
11471102 22 13984658170435925480
12138202 97 18272929444633088966
12251169 10 14923953348599690641
12423570 1 15084294979065354379
124424 183 18201999928641116818
12491281 212 18273493468196309381
12532896 13 18409735040726507851
13299463 15 16200422598337566991
13538477 17 17822291326855117498
13764800 53 18335714831507604569
13839132 238 18413110537123213324
14817 1 11689340854733718479
15375462 478 15647061443078261877
15775835 57 18339078194495494345
16945 1 17988065786023185643
18186145 218 18200036118541666588
18534176 82 18271243927656786518
19837323 101 18335708272823803859
20525323 117 18337111292773698462
20645476 183 17894351081266785547
21296965 12 18260545576729377063
21501502 16 18271800211963701222
21524375 3 18339638928324873163
21947302 44 18059017168310697110
22802520 49 18199766781279703998
23402539 116 18267296706830970519
23419403 2 17194099544908694927
23557571 272 18198918083120765556
23559900 14 18342742906418193234
25 1 17845383149850037993
2748010 2 18262817159083630983
276578 36 18189342281366350763
305870 269 18040992882718168402
430814 3 18041565736850213531
549884 4 17416683544816290937
6333449 129 18343582975122638285
6442390 28 18269297706777891659
7364860 26 17834677097914689979
81228 2 18191593162379223291

> <PUBCHEM_SHAPE_MULTIPOLES>
302.82
5.29
2.15
1.39
2.11
0.81
0.13
-3.45
0.34
-1.29
-0.24
-0.12
0.26
0.01

> <PUBCHEM_SHAPE_SELFOVERLAP>
615.427

> <PUBCHEM_SHAPE_VOLUME>
178.4

> <PUBCHEM_COORDINATE_TYPE>
2
5
10

> <Energy>
46.4329

> <minimizedAffinity>
-8.10286

> <CNNscore>
0.8265736103

> <CNNaffinity>
6.7093644142

> <CNN_VS>
5.5457835197

> <CNNaffinity_variance>
0.3357204497

$$$$
8814


 16 16  0  0  0  0  0  0  0  0999 V2000
   24.1886    3.9249    6.6100 C   0  0  0  0  0  0  0  0  0  0  0  0
   25.4426    4.4989    5.8821 C   0  0  0  0  0  0  0  0  0  0  0  0
   24.5673    2.4650    6.9522 C   0  0  0  0  0  0  0  0  0  0  0  0
   19.7965    4.2951    2.9735 O   0  0  0  0  0  0  0  0  0  0  0  0
   23.0098    4.0519    5.6333 C   0  0  0  0  0  0  0  0  0  0  0  0
   21.7412    3.5429    5.9854 C   0  0  0  0  0  0  0  0  0  0  0  0
   23.1369    4.6569    4.3715 C   0  0  0  0  0  0  0  0  0  0  0  0
   20.6556    3.6171    5.1089 C   0  0  0  0  0  0  0  0  0  0  0  0
   22.0537    4.7306    3.4929 C   0  0  0  0  0  0  0  0  0  0  0  0
   20.8235    4.2076    3.8664 C   0  0  0  0  0  0  0  0  0  0  0  0
   18.9531    3.9519    3.1944 H   0  0  0  0  0  0  0  0  0  0  0  0
   23.9867    4.7694    7.9196 C   0  0  0  0  0  0  0  0  0  0  0  0
   25.0662    5.7546    8.4843 C   0  0  0  0  0  0  0  0  0  0  0  0
   26.3906    4.9562    8.5818 C   0  0  0  0  0  0  0  0  0  0  0  0
   24.7316    6.2661    9.8926 C   0  0  0  0  0  0  0  0  0  0  0  0
   25.3419    6.9610    7.5733 C   0  0  0  0  0  0  0  0  0  0  0  0
  4 10  1  0
  4 11  1  0
  1 12  1  0
  1  5  1  0
  1  2  1  0
  1  3  1  0
 13 12  1  0
 13 14  1  0
 13 15  1  0
 13 16  1  0
  5  6  2  0
  5  7  1  0
  6  8  1  0
  7  9  2  0
  8 10  2  0
  9 10  1  0
M  END
> <PUBCHEM_COMPOUND_CID>
8814

> <PUBCHEM_CONFORMER_RMSD>
0.6

> <PUBCHEM_CONFORMER_DIVERSEORDER>
1
5
4
3
2

> <PUBCHEM_MMFF94_PARTIAL_CHARGES>
13
1 -0.53
11 -0.15
12 -0.15
13 -0.15
14 -0.15
15 0.08
2 0.14
33 0.15
34 0.15
35 0.15
36 0.15
37 0.45
5 -0.14

> <PUBCHEM_EFFECTIVE_ROTOR_COUNT>
3

> <PUBCHEM_PHARMACOPHORE_FEATURES>
4
1 1 donor
3 2 6 7 hydrophobe
4 3 8 9 10 hydrophobe
6 5 11 12 13 14 15 rings

> <PUBCHEM_HEAVY_ATOM_COUNT>
15

> <PUBCHEM_ATOM_DEF_STEREO_COUNT>
0

> <PUBCHEM_ATOM_UDEF_STEREO_COUNT>
0

> <PUBCHEM_BOND_DEF_STEREO_COUNT>
0

> <PUBCHEM_BOND_UDEF_STEREO_COUNT>
0

> <PUBCHEM_ISOTOPIC_ATOM_COUNT>
0

> <PUBCHEM_COMPONENT_COUNT>
1

> <PUBCHEM_CACTVS_TAUTO_COUNT>
2

> <PUBCHEM_CONFORMER_ID>
0000226E00000001

> <PUBCHEM_MMFF94_ENERGY>
60.6732

> <PUBCHEM_FEATURE_SELFOVERLAP>
20.297

> <PUBCHEM_SHAPE_FINGERPRINT>
1 1 18122065299635933247
11471102 22 13984658170435925480
12138202 97 18272929444633088966
12251169 10 14923953348599690641
12423570 1 15084294979065354379
124424 183 18201999928641116818
12491281 212 18273493468196309381
12532896 13 18409735040726507851
13299463 15 16200422598337566991
13538477 17 17822291326855117498
13764800 53 18335714831507604569
13839132 238 18413110537123213324
14817 1 11689340854733718479
15375462 478 15647061443078261877
15775835 57 18339078194495494345
16945 1 17988065786023185643
18186145 218 18200036118541666588
18534176 82 18271243927656786518
19837323 101 18335708272823803859
20525323 117 18337111292773698462
20645476 183 17894351081266785547
21296965 12 18260545576729377063
21501502 16 18271800211963701222
21524375 3 18339638928324873163
21947302 44 18059017168310697110
22802520 49 18199766781279703998
23402539 116 18267296706830970519
23419403 2 17194099544908694927
23557571 272 18198918083120765556
23559900 14 18342742906418193234
25 1 17845383149850037993
2748010 2 18262817159083630983
276578 36 18189342281366350763
305870 269 18040992882718168402
430814 3 18041565736850213531
549884 4 17416683544816290937
6333449 129 18343582975122638285
6442390 28 18269297706777891659
7364860 26 17834677097914689979
81228 2 18191593162379223291

> <PUBCHEM_SHAPE_MULTIPOLES>
302.82
5.29
2.15
1.39
2.11
0.81
0.13
-3.45
0.34
-1.29
-0.24
-0.12
0.26
0.01

> <PUBCHEM_SHAPE_SELFOVERLAP>
615.427

> <PUBCHEM_SHAPE_VOLUME>
178.4

> <PUBCHEM_COORDINATE_TYPE>
2
5
10

> <Energy>
46.4329

> <minimizedAffinity>
-7.63914

> <CNNscore>
0.8247229457

> <CNNaffinity>
6.7248129845

> <CNN_VS>
5.5461077690

> <CNNaffinity_variance>
0.4238429964

$$$$
