6013


 22 25  0  0  0  0  0  0  0  0999 V2000
   11.3512   41.7279  132.3436 O   0  0  0  0  0  0  0  0  0  0  0  0
    5.7341   50.7765  130.2424 O   0  0  0  0  0  0  0  0  0  0  0  0
   10.6041   45.3039  132.4036 C   0  0  0  0  0  0  0  0  0  0  0  0
   10.5359   43.9613  131.6502 C   0  0  0  0  0  0  0  0  0  0  0  0
   10.2921   46.5018  131.5016 C   0  0  0  0  0  0  0  0  0  0  0  0
    8.8501   46.3356  130.9265 C   0  0  0  0  0  0  0  0  0  0  0  0
    8.4126   47.5442  130.0135 C   0  0  0  0  0  0  0  0  0  0  0  0
    9.0967   43.7692  131.1547 C   0  0  0  0  0  0  0  0  0  0  0  0
    8.6449   44.9433  130.2673 C   0  0  0  0  0  0  0  0  0  0  0  0
   10.9572   43.0117  132.7900 C   0  0  0  0  0  0  0  0  0  0  0  0
   11.9513   45.2429  133.1191 C   0  0  0  0  0  0  0  0  0  0  0  0
   10.4045   47.8249  132.2696 C   0  0  0  0  0  0  0  0  0  0  0  0
   12.1086   43.7584  133.4943 C   0  0  0  0  0  0  0  0  0  0  0  0
    8.6988   48.8648  130.7421 C   0  0  0  0  0  0  0  0  0  0  0  0
   10.0618   49.0106  131.3772 C   0  0  0  0  0  0  0  0  0  0  0  0
   11.5152   43.8385  130.4564 C   0  0  0  0  0  0  0  0  0  0  0  0
    6.8873   47.4149  129.7271 C   0  0  0  0  0  0  0  0  0  0  0  0
    9.1744   47.5620  128.6694 C   0  0  0  0  0  0  0  0  0  0  0  0
    6.2556   48.6881  129.1840 C   0  0  0  0  0  0  0  0  0  0  0  0
    7.8223   49.8807  130.8198 C   0  0  0  0  0  0  0  0  0  0  0  0
    6.5193   49.8417  130.1151 C   0  0  0  0  0  0  0  0  0  0  0  0
   10.6018   41.2929  131.9079 H   0  0  0  0  0  0  0  0  0  0  0  0
  1 10  1  0
  1 22  1  0
  2 21  2  0
  3  4  1  0
  3  5  1  0
  3 11  1  0
  4  8  1  0
  4 10  1  0
  4 16  1  0
  5  6  1  0
  5 12  1  0
  6  7  1  0
  6  9  1  0
  7 14  1  0
  7 17  1  0
  7 18  1  0
  8  9  1  0
 10 13  1  0
 11 13  1  0
 12 15  1  0
 14 15  1  0
 14 20  2  0
 17 19  1  0
 19 21  1  0
 20 21  1  0
M  END
> <PUBCHEM_COMPOUND_CID>
6013

> <PUBCHEM_CONFORMER_RMSD>
0.6

> <PUBCHEM_CONFORMER_DIVERSEORDER>
1

> <PUBCHEM_MMFF94_PARTIAL_CHARGES>
11
1 -0.68
10 0.28
14 -0.28
15 0.14
19 0.06
2 -0.57
20 -0.14
21 0.49
48 0.15
49 0.4
7 0.14

> <PUBCHEM_EFFECTIVE_ROTOR_COUNT>
1.8

> <PUBCHEM_PHARMACOPHORE_FEATURES>
7
1 1 acceptor
1 1 donor
1 2 acceptor
5 3 4 10 11 13 rings
6 3 4 5 6 8 9 rings
6 5 6 7 12 14 15 rings
6 7 14 17 19 20 21 rings

> <PUBCHEM_HEAVY_ATOM_COUNT>
21

> <PUBCHEM_ATOM_DEF_STEREO_COUNT>
6

> <PUBCHEM_ATOM_UDEF_STEREO_COUNT>
0

> <PUBCHEM_BOND_DEF_STEREO_COUNT>
0

> <PUBCHEM_BOND_UDEF_STEREO_COUNT>
0

> <PUBCHEM_ISOTOPIC_ATOM_COUNT>
0

> <PUBCHEM_COMPONENT_COUNT>
1

> <PUBCHEM_CACTVS_TAUTO_COUNT>
5

> <PUBCHEM_CONFORMER_ID>
0000177D00000001

> <PUBCHEM_MMFF94_ENERGY>
67.5416

> <PUBCHEM_FEATURE_SELFOVERLAP>
35.618

> <PUBCHEM_SHAPE_FINGERPRINT>
10062212 137 18336825385559829163
10759866 29 17897457309511876188
10967382 1 18412548682291571786
11132069 177 18410018732180467827
11370993 70 18410569557056084199
11578080 2 16735503067342509174
12011746 2 18412547592124142406
12236239 1 18040155136873436768
12251169 10 18410008845387181634
12403259 226 18410006624652160988
12403259 415 18408880746209696412
12403260 363 18340481291412090749
12403814 3 17894914044785590877
12507557 5 18408881845467772304
12633257 1 18341888602346167976
12839892 36 18340758291450253690
13140716 1 18339643467883616216
13214271 11 18272369780793716703
13224815 77 18411987974316295335
13675066 3 18187087269080573787
14178342 30 18338527339117458393
14223421 5 18341052895787930134
14341114 176 18411985737129035682
14787075 74 18339640165090922602
14790565 3 18050014594947639924
15163728 17 14691189929019880809
15196674 1 18411420639180230811
15375358 24 18413110541697833299
15536298 74 18272376330249831326
15788980 27 17167859768361771669
16945 1 18267308633664624303
17349148 13 18260547844245275310
17492 89 18410012108956776131
1813 80 17168144512515476742
18186145 218 18411423903503023558
18522853 276 18412546492037592553
19050596 39 18410858775858764633
19784866 9 18412265021155473810
200 152 18202274819337965375
20715895 44 18116989984517715477
21033648 29 18262779827106925672
21267235 1 18410302427354843602
21421861 104 18042966467372004754
21637258 2 15647319828885568714
22182313 1 18189614934485510503
22854114 111 18409735070690792279
22854114 59 18343022189864506130
23402539 116 18272925046486162621
23557571 272 18059303161493107767
23559900 14 18343023255612643838
26918003 58 18409728456589012017
2748010 2 18410304609229794207
2838139 119 14835541671104639250
296302 2 16343984710473737934
335352 9 18411702045432157758
34934 24 18341610383102269379
350125 39 18410857681354741304
351380 180 18413386540454065762
3545911 37 18411703166439727155
42 15 18260548935156425576
5104073 3 18410294747868572393
59755656 215 18339930311854621398
633830 44 17988931080225984300
69090 78 18413386557386229218
7364860 26 18200601276388112774
9709674 26 18341058445033876271

> <PUBCHEM_SHAPE_MULTIPOLES>
420.43
9.43
2.1
1.06
1.16
0.42
0.43
-0.59
-2.56
-0.22
0.02
0.09
-0.22
0.11

> <PUBCHEM_SHAPE_SELFOVERLAP>
902.625

> <PUBCHEM_SHAPE_VOLUME>
230.1

> <PUBCHEM_COORDINATE_TYPE>
2
5
10

> <Energy>
71.9966

> <minimizedAffinity>
-9.98065

> <CNNscore>
0.8797892332

> <CNNaffinity>
7.9082646370

> <CNN_VS>
6.9576063156

> <CNNaffinity_variance>
0.6632694602

$$$$
6013


 22 25  0  0  0  0  0  0  0  0999 V2000
    6.8472   49.1037  127.6879 O   0  0  0  0  0  0  0  0  0  0  0  0
   13.1732   43.4677  134.4747 O   0  0  0  0  0  0  0  0  0  0  0  0
    8.5024   48.2988  130.8441 C   0  0  0  0  0  0  0  0  0  0  0  0
    7.8456   47.8005  129.5422 C   0  0  0  0  0  0  0  0  0  0  0  0
    8.6920   47.1807  131.8735 C   0  0  0  0  0  0  0  0  0  0  0  0
    9.6071   46.0775  131.2543 C   0  0  0  0  0  0  0  0  0  0  0  0
    9.9008   44.8944  132.2542 C   0  0  0  0  0  0  0  0  0  0  0  0
    8.7872   46.7735  128.9000 C   0  0  0  0  0  0  0  0  0  0  0  0
    9.0951   45.6123  129.8627 C   0  0  0  0  0  0  0  0  0  0  0  0
    7.7403   49.1399  128.7849 C   0  0  0  0  0  0  0  0  0  0  0  0
    7.6679   49.5210  131.2189 C   0  0  0  0  0  0  0  0  0  0  0  0
    9.3124   47.7139  133.1711 C   0  0  0  0  0  0  0  0  0  0  0  0
    7.2914   50.1467  129.8640 C   0  0  0  0  0  0  0  0  0  0  0  0
   10.3556   45.4670  133.6040 C   0  0  0  0  0  0  0  0  0  0  0  0
    9.5289   46.5930  134.1792 C   0  0  0  0  0  0  0  0  0  0  0  0
    6.4416   47.1725  129.7247 C   0  0  0  0  0  0  0  0  0  0  0  0
   11.0275   44.0076  131.6462 C   0  0  0  0  0  0  0  0  0  0  0  0
    8.6521   44.0183  132.4999 C   0  0  0  0  0  0  0  0  0  0  0  0
   11.6712   43.0616  132.6492 C   0  0  0  0  0  0  0  0  0  0  0  0
   11.4161   45.0089  134.2910 C   0  0  0  0  0  0  0  0  0  0  0  0
   12.1902   43.8303  133.8354 C   0  0  0  0  0  0  0  0  0  0  0  0
    7.1639   48.4609  127.0341 H   0  0  0  0  0  0  0  0  0  0  0  0
  1 10  1  0
  1 22  1  0
  2 21  2  0
  3  4  1  0
  3  5  1  0
  3 11  1  0
  4  8  1  0
  4 10  1  0
  4 16  1  0
  5  6  1  0
  5 12  1  0
  6  7  1  0
  6  9  1  0
  7 14  1  0
  7 17  1  0
  7 18  1  0
  8  9  1  0
 10 13  1  0
 11 13  1  0
 12 15  1  0
 14 15  1  0
 14 20  2  0
 17 19  1  0
 19 21  1  0
 20 21  1  0
M  END
> <PUBCHEM_COMPOUND_CID>
6013

> <PUBCHEM_CONFORMER_RMSD>
0.6

> <PUBCHEM_CONFORMER_DIVERSEORDER>
1

> <PUBCHEM_MMFF94_PARTIAL_CHARGES>
11
1 -0.68
10 0.28
14 -0.28
15 0.14
19 0.06
2 -0.57
20 -0.14
21 0.49
48 0.15
49 0.4
7 0.14

> <PUBCHEM_EFFECTIVE_ROTOR_COUNT>
1.8

> <PUBCHEM_PHARMACOPHORE_FEATURES>
7
1 1 acceptor
1 1 donor
1 2 acceptor
5 3 4 10 11 13 rings
6 3 4 5 6 8 9 rings
6 5 6 7 12 14 15 rings
6 7 14 17 19 20 21 rings

> <PUBCHEM_HEAVY_ATOM_COUNT>
21

> <PUBCHEM_ATOM_DEF_STEREO_COUNT>
6

> <PUBCHEM_ATOM_UDEF_STEREO_COUNT>
0

> <PUBCHEM_BOND_DEF_STEREO_COUNT>
0

> <PUBCHEM_BOND_UDEF_STEREO_COUNT>
0

> <PUBCHEM_ISOTOPIC_ATOM_COUNT>
0

> <PUBCHEM_COMPONENT_COUNT>
1

> <PUBCHEM_CACTVS_TAUTO_COUNT>
5

> <PUBCHEM_CONFORMER_ID>
0000177D00000001

> <PUBCHEM_MMFF94_ENERGY>
67.5416

> <PUBCHEM_FEATURE_SELFOVERLAP>
35.618

> <PUBCHEM_SHAPE_FINGERPRINT>
10062212 137 18336825385559829163
10759866 29 17897457309511876188
10967382 1 18412548682291571786
11132069 177 18410018732180467827
11370993 70 18410569557056084199
11578080 2 16735503067342509174
12011746 2 18412547592124142406
12236239 1 18040155136873436768
12251169 10 18410008845387181634
12403259 226 18410006624652160988
12403259 415 18408880746209696412
12403260 363 18340481291412090749
12403814 3 17894914044785590877
12507557 5 18408881845467772304
12633257 1 18341888602346167976
12839892 36 18340758291450253690
13140716 1 18339643467883616216
13214271 11 18272369780793716703
13224815 77 18411987974316295335
13675066 3 18187087269080573787
14178342 30 18338527339117458393
14223421 5 18341052895787930134
14341114 176 18411985737129035682
14787075 74 18339640165090922602
14790565 3 18050014594947639924
15163728 17 14691189929019880809
15196674 1 18411420639180230811
15375358 24 18413110541697833299
15536298 74 18272376330249831326
15788980 27 17167859768361771669
16945 1 18267308633664624303
17349148 13 18260547844245275310
17492 89 18410012108956776131
1813 80 17168144512515476742
18186145 218 18411423903503023558
18522853 276 18412546492037592553
19050596 39 18410858775858764633
19784866 9 18412265021155473810
200 152 18202274819337965375
20715895 44 18116989984517715477
21033648 29 18262779827106925672
21267235 1 18410302427354843602
21421861 104 18042966467372004754
21637258 2 15647319828885568714
22182313 1 18189614934485510503
22854114 111 18409735070690792279
22854114 59 18343022189864506130
23402539 116 18272925046486162621
23557571 272 18059303161493107767
23559900 14 18343023255612643838
26918003 58 18409728456589012017
2748010 2 18410304609229794207
2838139 119 14835541671104639250
296302 2 16343984710473737934
335352 9 18411702045432157758
34934 24 18341610383102269379
350125 39 18410857681354741304
351380 180 18413386540454065762
3545911 37 18411703166439727155
42 15 18260548935156425576
5104073 3 18410294747868572393
59755656 215 18339930311854621398
633830 44 17988931080225984300
69090 78 18413386557386229218
7364860 26 18200601276388112774
9709674 26 18341058445033876271

> <PUBCHEM_SHAPE_MULTIPOLES>
420.43
9.43
2.1
1.06
1.16
0.42
0.43
-0.59
-2.56
-0.22
0.02
0.09
-0.22
0.11

> <PUBCHEM_SHAPE_SELFOVERLAP>
902.625

> <PUBCHEM_SHAPE_VOLUME>
230.1

> <PUBCHEM_COORDINATE_TYPE>
2
5
10

> <Energy>
71.9966

> <minimizedAffinity>
-8.47364

> <CNNscore>
0.8023953438

> <CNNaffinity>
7.9095845222

> <CNN_VS>
6.3466138840

> <CNNaffinity_variance>
0.9219222665

$$$$
6013


 22 25  0  0  0  0  0  0  0  0999 V2000
    7.1500   50.6705  128.3908 O   0  0  0  0  0  0  0  0  0  0  0  0
   12.6104   42.3876  132.7976 O   0  0  0  0  0  0  0  0  0  0  0  0
    8.6383   48.6776  131.0671 C   0  0  0  0  0  0  0  0  0  0  0  0
    7.9471   48.7188  129.6904 C   0  0  0  0  0  0  0  0  0  0  0  0
    8.6700   47.2693  131.6683 C   0  0  0  0  0  0  0  0  0  0  0  0
    9.4515   46.3268  130.6993 C   0  0  0  0  0  0  0  0  0  0  0  0
    9.5790   44.8545  131.2487 C   0  0  0  0  0  0  0  0  0  0  0  0
    8.7647   47.8519  128.7241 C   0  0  0  0  0  0  0  0  0  0  0  0
    8.9096   46.4106  129.2453 C   0  0  0  0  0  0  0  0  0  0  0  0
    8.0218   50.2347  129.4167 C   0  0  0  0  0  0  0  0  0  0  0  0
    7.9557   49.8018  131.8422 C   0  0  0  0  0  0  0  0  0  0  0  0
    9.3296   47.2666  133.0531 C   0  0  0  0  0  0  0  0  0  0  0  0
    7.6830   50.8787  130.7768 C   0  0  0  0  0  0  0  0  0  0  0  0
   10.0782   44.8920  132.7000 C   0  0  0  0  0  0  0  0  0  0  0  0
    9.3880   45.8594  133.6327 C   0  0  0  0  0  0  0  0  0  0  0  0
    6.4730   48.2432  129.6918 C   0  0  0  0  0  0  0  0  0  0  0  0
   10.5970   44.0850  130.3561 C   0  0  0  0  0  0  0  0  0  0  0  0
    8.2271   44.1068  131.2247 C   0  0  0  0  0  0  0  0  0  0  0  0
   11.1011   42.7907  130.9775 C   0  0  0  0  0  0  0  0  0  0  0  0
   11.0617   44.1073  133.1725 C   0  0  0  0  0  0  0  0  0  0  0  0
   11.6912   43.0578  132.3369 C   0  0  0  0  0  0  0  0  0  0  0  0
    7.3955   50.2441  127.5549 H   0  0  0  0  0  0  0  0  0  0  0  0
  1 10  1  0
  1 22  1  0
  2 21  2  0
  3  4  1  0
  3  5  1  0
  3 11  1  0
  4  8  1  0
  4 10  1  0
  4 16  1  0
  5  6  1  0
  5 12  1  0
  6  7  1  0
  6  9  1  0
  7 14  1  0
  7 17  1  0
  7 18  1  0
  8  9  1  0
 10 13  1  0
 11 13  1  0
 12 15  1  0
 14 15  1  0
 14 20  2  0
 17 19  1  0
 19 21  1  0
 20 21  1  0
M  END
> <PUBCHEM_COMPOUND_CID>
6013

> <PUBCHEM_CONFORMER_RMSD>
0.6

> <PUBCHEM_CONFORMER_DIVERSEORDER>
1

> <PUBCHEM_MMFF94_PARTIAL_CHARGES>
11
1 -0.68
10 0.28
14 -0.28
15 0.14
19 0.06
2 -0.57
20 -0.14
21 0.49
48 0.15
49 0.4
7 0.14

> <PUBCHEM_EFFECTIVE_ROTOR_COUNT>
1.8

> <PUBCHEM_PHARMACOPHORE_FEATURES>
7
1 1 acceptor
1 1 donor
1 2 acceptor
5 3 4 10 11 13 rings
6 3 4 5 6 8 9 rings
6 5 6 7 12 14 15 rings
6 7 14 17 19 20 21 rings

> <PUBCHEM_HEAVY_ATOM_COUNT>
21

> <PUBCHEM_ATOM_DEF_STEREO_COUNT>
6

> <PUBCHEM_ATOM_UDEF_STEREO_COUNT>
0

> <PUBCHEM_BOND_DEF_STEREO_COUNT>
0

> <PUBCHEM_BOND_UDEF_STEREO_COUNT>
0

> <PUBCHEM_ISOTOPIC_ATOM_COUNT>
0

> <PUBCHEM_COMPONENT_COUNT>
1

> <PUBCHEM_CACTVS_TAUTO_COUNT>
5

> <PUBCHEM_CONFORMER_ID>
0000177D00000001

> <PUBCHEM_MMFF94_ENERGY>
67.5416

> <PUBCHEM_FEATURE_SELFOVERLAP>
35.618

> <PUBCHEM_SHAPE_FINGERPRINT>
10062212 137 18336825385559829163
10759866 29 17897457309511876188
10967382 1 18412548682291571786
11132069 177 18410018732180467827
11370993 70 18410569557056084199
11578080 2 16735503067342509174
12011746 2 18412547592124142406
12236239 1 18040155136873436768
12251169 10 18410008845387181634
12403259 226 18410006624652160988
12403259 415 18408880746209696412
12403260 363 18340481291412090749
12403814 3 17894914044785590877
12507557 5 18408881845467772304
12633257 1 18341888602346167976
12839892 36 18340758291450253690
13140716 1 18339643467883616216
13214271 11 18272369780793716703
13224815 77 18411987974316295335
13675066 3 18187087269080573787
14178342 30 18338527339117458393
14223421 5 18341052895787930134
14341114 176 18411985737129035682
14787075 74 18339640165090922602
14790565 3 18050014594947639924
15163728 17 14691189929019880809
15196674 1 18411420639180230811
15375358 24 18413110541697833299
15536298 74 18272376330249831326
15788980 27 17167859768361771669
16945 1 18267308633664624303
17349148 13 18260547844245275310
17492 89 18410012108956776131
1813 80 17168144512515476742
18186145 218 18411423903503023558
18522853 276 18412546492037592553
19050596 39 18410858775858764633
19784866 9 18412265021155473810
200 152 18202274819337965375
20715895 44 18116989984517715477
21033648 29 18262779827106925672
21267235 1 18410302427354843602
21421861 104 18042966467372004754
21637258 2 15647319828885568714
22182313 1 18189614934485510503
22854114 111 18409735070690792279
22854114 59 18343022189864506130
23402539 116 18272925046486162621
23557571 272 18059303161493107767
23559900 14 18343023255612643838
26918003 58 18409728456589012017
2748010 2 18410304609229794207
2838139 119 14835541671104639250
296302 2 16343984710473737934
335352 9 18411702045432157758
34934 24 18341610383102269379
350125 39 18410857681354741304
351380 180 18413386540454065762
3545911 37 18411703166439727155
42 15 18260548935156425576
5104073 3 18410294747868572393
59755656 215 18339930311854621398
633830 44 17988931080225984300
69090 78 18413386557386229218
7364860 26 18200601276388112774
9709674 26 18341058445033876271

> <PUBCHEM_SHAPE_MULTIPOLES>
420.43
9.43
2.1
1.06
1.16
0.42
0.43
-0.59
-2.56
-0.22
0.02
0.09
-0.22
0.11

> <PUBCHEM_SHAPE_SELFOVERLAP>
902.625

> <PUBCHEM_SHAPE_VOLUME>
230.1

> <PUBCHEM_COORDINATE_TYPE>
2
5
10

> <Energy>
71.9966

> <minimizedAffinity>
-7.01515

> <CNNscore>
0.6100707054

> <CNNaffinity>
7.1344909668

> <CNN_VS>
4.3525438309

> <CNNaffinity_variance>
0.2951086760

$$$$
6013


 22 25  0  0  0  0  0  0  0  0999 V2000
    7.0610   50.9823  130.6863 O   0  0  0  0  0  0  0  0  0  0  0  0
   11.1554   41.0479  132.2309 O   0  0  0  0  0  0  0  0  0  0  0  0
    8.3290   47.6903  129.7355 C   0  0  0  0  0  0  0  0  0  0  0  0
    8.3825   48.8879  130.7039 C   0  0  0  0  0  0  0  0  0  0  0  0
    9.5283   46.7509  129.8938 C   0  0  0  0  0  0  0  0  0  0  0  0
    9.5452   46.1994  131.3545 C   0  0  0  0  0  0  0  0  0  0  0  0
   10.7233   45.1835  131.6111 C   0  0  0  0  0  0  0  0  0  0  0  0
    8.3206   48.3415  132.1362 C   0  0  0  0  0  0  0  0  0  0  0  0
    9.4579   47.3397  132.4066 C   0  0  0  0  0  0  0  0  0  0  0  0
    7.1158   49.6388  130.2455 C   0  0  0  0  0  0  0  0  0  0  0  0
    8.0676   48.3404  128.3792 C   0  0  0  0  0  0  0  0  0  0  0  0
    9.4664   45.5906  128.8924 C   0  0  0  0  0  0  0  0  0  0  0  0
    7.1545   49.5354  128.7068 C   0  0  0  0  0  0  0  0  0  0  0  0
   10.7430   44.1311  130.4936 C   0  0  0  0  0  0  0  0  0  0  0  0
   10.6436   44.6418  129.0754 C   0  0  0  0  0  0  0  0  0  0  0  0
    9.6310   49.7912  130.5478 C   0  0  0  0  0  0  0  0  0  0  0  0
   10.4845   44.4938  132.9867 C   0  0  0  0  0  0  0  0  0  0  0  0
   12.0998   45.8849  131.6351 C   0  0  0  0  0  0  0  0  0  0  0  0
   11.3179   43.2379  133.1955 C   0  0  0  0  0  0  0  0  0  0  0  0
   10.8641   42.8105  130.7128 C   0  0  0  0  0  0  0  0  0  0  0  0
   11.0859   42.2629  132.0718 C   0  0  0  0  0  0  0  0  0  0  0  0
    7.0381   51.0040  131.6557 H   0  0  0  0  0  0  0  0  0  0  0  0
  1 10  1  0
  1 22  1  0
  2 21  2  0
  3  4  1  0
  3  5  1  0
  3 11  1  0
  4  8  1  0
  4 10  1  0
  4 16  1  0
  5  6  1  0
  5 12  1  0
  6  7  1  0
  6  9  1  0
  7 14  1  0
  7 17  1  0
  7 18  1  0
  8  9  1  0
 10 13  1  0
 11 13  1  0
 12 15  1  0
 14 15  1  0
 14 20  2  0
 17 19  1  0
 19 21  1  0
 20 21  1  0
M  END
> <PUBCHEM_COMPOUND_CID>
6013

> <PUBCHEM_CONFORMER_RMSD>
0.6

> <PUBCHEM_CONFORMER_DIVERSEORDER>
1

> <PUBCHEM_MMFF94_PARTIAL_CHARGES>
11
1 -0.68
10 0.28
14 -0.28
15 0.14
19 0.06
2 -0.57
20 -0.14
21 0.49
48 0.15
49 0.4
7 0.14

> <PUBCHEM_EFFECTIVE_ROTOR_COUNT>
1.8

> <PUBCHEM_PHARMACOPHORE_FEATURES>
7
1 1 acceptor
1 1 donor
1 2 acceptor
5 3 4 10 11 13 rings
6 3 4 5 6 8 9 rings
6 5 6 7 12 14 15 rings
6 7 14 17 19 20 21 rings

> <PUBCHEM_HEAVY_ATOM_COUNT>
21

> <PUBCHEM_ATOM_DEF_STEREO_COUNT>
6

> <PUBCHEM_ATOM_UDEF_STEREO_COUNT>
0

> <PUBCHEM_BOND_DEF_STEREO_COUNT>
0

> <PUBCHEM_BOND_UDEF_STEREO_COUNT>
0

> <PUBCHEM_ISOTOPIC_ATOM_COUNT>
0

> <PUBCHEM_COMPONENT_COUNT>
1

> <PUBCHEM_CACTVS_TAUTO_COUNT>
5

> <PUBCHEM_CONFORMER_ID>
0000177D00000001

> <PUBCHEM_MMFF94_ENERGY>
67.5416

> <PUBCHEM_FEATURE_SELFOVERLAP>
35.618

> <PUBCHEM_SHAPE_FINGERPRINT>
10062212 137 18336825385559829163
10759866 29 17897457309511876188
10967382 1 18412548682291571786
11132069 177 18410018732180467827
11370993 70 18410569557056084199
11578080 2 16735503067342509174
12011746 2 18412547592124142406
12236239 1 18040155136873436768
12251169 10 18410008845387181634
12403259 226 18410006624652160988
12403259 415 18408880746209696412
12403260 363 18340481291412090749
12403814 3 17894914044785590877
12507557 5 18408881845467772304
12633257 1 18341888602346167976
12839892 36 18340758291450253690
13140716 1 18339643467883616216
13214271 11 18272369780793716703
13224815 77 18411987974316295335
13675066 3 18187087269080573787
14178342 30 18338527339117458393
14223421 5 18341052895787930134
14341114 176 18411985737129035682
14787075 74 18339640165090922602
14790565 3 18050014594947639924
15163728 17 14691189929019880809
15196674 1 18411420639180230811
15375358 24 18413110541697833299
15536298 74 18272376330249831326
15788980 27 17167859768361771669
16945 1 18267308633664624303
17349148 13 18260547844245275310
17492 89 18410012108956776131
1813 80 17168144512515476742
18186145 218 18411423903503023558
18522853 276 18412546492037592553
19050596 39 18410858775858764633
19784866 9 18412265021155473810
200 152 18202274819337965375
20715895 44 18116989984517715477
21033648 29 18262779827106925672
21267235 1 18410302427354843602
21421861 104 18042966467372004754
21637258 2 15647319828885568714
22182313 1 18189614934485510503
22854114 111 18409735070690792279
22854114 59 18343022189864506130
23402539 116 18272925046486162621
23557571 272 18059303161493107767
23559900 14 18343023255612643838
26918003 58 18409728456589012017
2748010 2 18410304609229794207
2838139 119 14835541671104639250
296302 2 16343984710473737934
335352 9 18411702045432157758
34934 24 18341610383102269379
350125 39 18410857681354741304
351380 180 18413386540454065762
3545911 37 18411703166439727155
42 15 18260548935156425576
5104073 3 18410294747868572393
59755656 215 18339930311854621398
633830 44 17988931080225984300
69090 78 18413386557386229218
7364860 26 18200601276388112774
9709674 26 18341058445033876271

> <PUBCHEM_SHAPE_MULTIPOLES>
420.43
9.43
2.1
1.06
1.16
0.42
0.43
-0.59
-2.56
-0.22
0.02
0.09
-0.22
0.11

> <PUBCHEM_SHAPE_SELFOVERLAP>
902.625

> <PUBCHEM_SHAPE_VOLUME>
230.1

> <PUBCHEM_COORDINATE_TYPE>
2
5
10

> <Energy>
71.9966

> <minimizedAffinity>
-8.01577

> <CNNscore>
0.5903121829

> <CNNaffinity>
7.2713913918

> <CNN_VS>
4.2923908234

> <CNNaffinity_variance>
0.3687086999

$$$$
6013


 22 25  0  0  0  0  0  0  0  0999 V2000
    6.5762   50.5953  128.9681 O   0  0  0  0  0  0  0  0  0  0  0  0
   11.6028   43.2097  135.1348 O   0  0  0  0  0  0  0  0  0  0  0  0
    7.1820   47.3092  130.4458 C   0  0  0  0  0  0  0  0  0  0  0  0
    7.7588   48.6347  129.9119 C   0  0  0  0  0  0  0  0  0  0  0  0
    8.2549   46.2319  130.6302 C   0  0  0  0  0  0  0  0  0  0  0  0
    9.3171   46.7500  131.6506 C   0  0  0  0  0  0  0  0  0  0  0  0
   10.4493   45.6930  131.9447 C   0  0  0  0  0  0  0  0  0  0  0  0
    8.7441   49.1766  130.9556 C   0  0  0  0  0  0  0  0  0  0  0  0
    9.8546   48.1563  131.2651 C   0  0  0  0  0  0  0  0  0  0  0  0
    6.4518   49.4425  129.7792 C   0  0  0  0  0  0  0  0  0  0  0  0
    6.0034   47.0332  129.5155 C   0  0  0  0  0  0  0  0  0  0  0  0
    7.6457   44.9143  131.1262 C   0  0  0  0  0  0  0  0  0  0  0  0
    5.4430   48.4310  129.1970 C   0  0  0  0  0  0  0  0  0  0  0  0
    9.8094   44.3359  132.2696 C   0  0  0  0  0  0  0  0  0  0  0  0
    8.7203   43.8563  131.3390 C   0  0  0  0  0  0  0  0  0  0  0  0
    8.4671   48.5258  128.5387 C   0  0  0  0  0  0  0  0  0  0  0  0
   11.2821   46.1930  133.1619 C   0  0  0  0  0  0  0  0  0  0  0  0
   11.3935   45.5022  130.7367 C   0  0  0  0  0  0  0  0  0  0  0  0
   12.1559   45.1173  133.7901 C   0  0  0  0  0  0  0  0  0  0  0  0
   10.1800   43.5638  133.3055 C   0  0  0  0  0  0  0  0  0  0  0  0
   11.3213   43.9258  134.1786 C   0  0  0  0  0  0  0  0  0  0  0  0
    7.2173   51.2040  129.3673 H   0  0  0  0  0  0  0  0  0  0  0  0
  1 10  1  0
  1 22  1  0
  2 21  2  0
  3  4  1  0
  3  5  1  0
  3 11  1  0
  4  8  1  0
  4 10  1  0
  4 16  1  0
  5  6  1  0
  5 12  1  0
  6  7  1  0
  6  9  1  0
  7 14  1  0
  7 17  1  0
  7 18  1  0
  8  9  1  0
 10 13  1  0
 11 13  1  0
 12 15  1  0
 14 15  1  0
 14 20  2  0
 17 19  1  0
 19 21  1  0
 20 21  1  0
M  END
> <PUBCHEM_COMPOUND_CID>
6013

> <PUBCHEM_CONFORMER_RMSD>
0.6

> <PUBCHEM_CONFORMER_DIVERSEORDER>
1

> <PUBCHEM_MMFF94_PARTIAL_CHARGES>
11
1 -0.68
10 0.28
14 -0.28
15 0.14
19 0.06
2 -0.57
20 -0.14
21 0.49
48 0.15
49 0.4
7 0.14

> <PUBCHEM_EFFECTIVE_ROTOR_COUNT>
1.8

> <PUBCHEM_PHARMACOPHORE_FEATURES>
7
1 1 acceptor
1 1 donor
1 2 acceptor
5 3 4 10 11 13 rings
6 3 4 5 6 8 9 rings
6 5 6 7 12 14 15 rings
6 7 14 17 19 20 21 rings

> <PUBCHEM_HEAVY_ATOM_COUNT>
21

> <PUBCHEM_ATOM_DEF_STEREO_COUNT>
6

> <PUBCHEM_ATOM_UDEF_STEREO_COUNT>
0

> <PUBCHEM_BOND_DEF_STEREO_COUNT>
0

> <PUBCHEM_BOND_UDEF_STEREO_COUNT>
0

> <PUBCHEM_ISOTOPIC_ATOM_COUNT>
0

> <PUBCHEM_COMPONENT_COUNT>
1

> <PUBCHEM_CACTVS_TAUTO_COUNT>
5

> <PUBCHEM_CONFORMER_ID>
0000177D00000001

> <PUBCHEM_MMFF94_ENERGY>
67.5416

> <PUBCHEM_FEATURE_SELFOVERLAP>
35.618

> <PUBCHEM_SHAPE_FINGERPRINT>
10062212 137 18336825385559829163
10759866 29 17897457309511876188
10967382 1 18412548682291571786
11132069 177 18410018732180467827
11370993 70 18410569557056084199
11578080 2 16735503067342509174
12011746 2 18412547592124142406
12236239 1 18040155136873436768
12251169 10 18410008845387181634
12403259 226 18410006624652160988
12403259 415 18408880746209696412
12403260 363 18340481291412090749
12403814 3 17894914044785590877
12507557 5 18408881845467772304
12633257 1 18341888602346167976
12839892 36 18340758291450253690
13140716 1 18339643467883616216
13214271 11 18272369780793716703
13224815 77 18411987974316295335
13675066 3 18187087269080573787
14178342 30 18338527339117458393
14223421 5 18341052895787930134
14341114 176 18411985737129035682
14787075 74 18339640165090922602
14790565 3 18050014594947639924
15163728 17 14691189929019880809
15196674 1 18411420639180230811
15375358 24 18413110541697833299
15536298 74 18272376330249831326
15788980 27 17167859768361771669
16945 1 18267308633664624303
17349148 13 18260547844245275310
17492 89 18410012108956776131
1813 80 17168144512515476742
18186145 218 18411423903503023558
18522853 276 18412546492037592553
19050596 39 18410858775858764633
19784866 9 18412265021155473810
200 152 18202274819337965375
20715895 44 18116989984517715477
21033648 29 18262779827106925672
21267235 1 18410302427354843602
21421861 104 18042966467372004754
21637258 2 15647319828885568714
22182313 1 18189614934485510503
22854114 111 18409735070690792279
22854114 59 18343022189864506130
23402539 116 18272925046486162621
23557571 272 18059303161493107767
23559900 14 18343023255612643838
26918003 58 18409728456589012017
2748010 2 18410304609229794207
2838139 119 14835541671104639250
296302 2 16343984710473737934
335352 9 18411702045432157758
34934 24 18341610383102269379
350125 39 18410857681354741304
351380 180 18413386540454065762
3545911 37 18411703166439727155
42 15 18260548935156425576
5104073 3 18410294747868572393
59755656 215 18339930311854621398
633830 44 17988931080225984300
69090 78 18413386557386229218
7364860 26 18200601276388112774
9709674 26 18341058445033876271

> <PUBCHEM_SHAPE_MULTIPOLES>
420.43
9.43
2.1
1.06
1.16
0.42
0.43
-0.59
-2.56
-0.22
0.02
0.09
-0.22
0.11

> <PUBCHEM_SHAPE_SELFOVERLAP>
902.625

> <PUBCHEM_SHAPE_VOLUME>
230.1

> <PUBCHEM_COORDINATE_TYPE>
2
5
10

> <Energy>
71.9966

> <minimizedAffinity>
-8.91742

> <CNNscore>
0.5902758837

> <CNNaffinity>
7.4330711365

> <CNN_VS>
4.3875627518

> <CNNaffinity_variance>
0.4150620401

$$$$
6013


 22 25  0  0  0  0  0  0  0  0999 V2000
    5.5630   47.8383  128.2022 O   0  0  0  0  0  0  0  0  0  0  0  0
   13.6099   43.6009  134.1298 O   0  0  0  0  0  0  0  0  0  0  0  0
    8.3868   47.8472  130.5208 C   0  0  0  0  0  0  0  0  0  0  0  0
    7.1481   47.1189  129.9640 C   0  0  0  0  0  0  0  0  0  0  0  0
    8.9003   47.2245  131.8224 C   0  0  0  0  0  0  0  0  0  0  0  0
    9.2884   45.7370  131.5489 C   0  0  0  0  0  0  0  0  0  0  0  0
    9.8723   45.0132  132.8221 C   0  0  0  0  0  0  0  0  0  0  0  0
    7.5577   45.6798  129.6253 C   0  0  0  0  0  0  0  0  0  0  0  0
    8.1393   44.9558  130.8531 C   0  0  0  0  0  0  0  0  0  0  0  0
    6.8604   48.0120  128.7399 C   0  0  0  0  0  0  0  0  0  0  0  0
    7.9700   49.3158  130.5129 C   0  0  0  0  0  0  0  0  0  0  0  0
   10.1091   47.9927  132.3716 C   0  0  0  0  0  0  0  0  0  0  0  0
    7.0838   49.4465  129.2612 C   0  0  0  0  0  0  0  0  0  0  0  0
   10.9644   45.8891  133.4520 C   0  0  0  0  0  0  0  0  0  0  0  0
   10.6362   47.3506  133.6481 C   0  0  0  0  0  0  0  0  0  0  0  0
    5.9264   47.0992  130.9160 C   0  0  0  0  0  0  0  0  0  0  0  0
   10.4766   43.6490  132.3760 C   0  0  0  0  0  0  0  0  0  0  0  0
    8.7875   44.7544  133.8913 C   0  0  0  0  0  0  0  0  0  0  0  0
   11.3969   43.0186  133.4109 C   0  0  0  0  0  0  0  0  0  0  0  0
   12.1610   45.4224  133.8478 C   0  0  0  0  0  0  0  0  0  0  0  0
   12.4923   43.9791  133.7914 C   0  0  0  0  0  0  0  0  0  0  0  0
    5.4631   46.9266  127.8866 H   0  0  0  0  0  0  0  0  0  0  0  0
  1 10  1  0
  1 22  1  0
  2 21  2  0
  3  4  1  0
  3  5  1  0
  3 11  1  0
  4  8  1  0
  4 10  1  0
  4 16  1  0
  5  6  1  0
  5 12  1  0
  6  7  1  0
  6  9  1  0
  7 14  1  0
  7 17  1  0
  7 18  1  0
  8  9  1  0
 10 13  1  0
 11 13  1  0
 12 15  1  0
 14 15  1  0
 14 20  2  0
 17 19  1  0
 19 21  1  0
 20 21  1  0
M  END
> <PUBCHEM_COMPOUND_CID>
6013

> <PUBCHEM_CONFORMER_RMSD>
0.6

> <PUBCHEM_CONFORMER_DIVERSEORDER>
1

> <PUBCHEM_MMFF94_PARTIAL_CHARGES>
11
1 -0.68
10 0.28
14 -0.28
15 0.14
19 0.06
2 -0.57
20 -0.14
21 0.49
48 0.15
49 0.4
7 0.14

> <PUBCHEM_EFFECTIVE_ROTOR_COUNT>
1.8

> <PUBCHEM_PHARMACOPHORE_FEATURES>
7
1 1 acceptor
1 1 donor
1 2 acceptor
5 3 4 10 11 13 rings
6 3 4 5 6 8 9 rings
6 5 6 7 12 14 15 rings
6 7 14 17 19 20 21 rings

> <PUBCHEM_HEAVY_ATOM_COUNT>
21

> <PUBCHEM_ATOM_DEF_STEREO_COUNT>
6

> <PUBCHEM_ATOM_UDEF_STEREO_COUNT>
0

> <PUBCHEM_BOND_DEF_STEREO_COUNT>
0

> <PUBCHEM_BOND_UDEF_STEREO_COUNT>
0

> <PUBCHEM_ISOTOPIC_ATOM_COUNT>
0

> <PUBCHEM_COMPONENT_COUNT>
1

> <PUBCHEM_CACTVS_TAUTO_COUNT>
5

> <PUBCHEM_CONFORMER_ID>
0000177D00000001

> <PUBCHEM_MMFF94_ENERGY>
67.5416

> <PUBCHEM_FEATURE_SELFOVERLAP>
35.618

> <PUBCHEM_SHAPE_FINGERPRINT>
10062212 137 18336825385559829163
10759866 29 17897457309511876188
10967382 1 18412548682291571786
11132069 177 18410018732180467827
11370993 70 18410569557056084199
11578080 2 16735503067342509174
12011746 2 18412547592124142406
12236239 1 18040155136873436768
12251169 10 18410008845387181634
12403259 226 18410006624652160988
12403259 415 18408880746209696412
12403260 363 18340481291412090749
12403814 3 17894914044785590877
12507557 5 18408881845467772304
12633257 1 18341888602346167976
12839892 36 18340758291450253690
13140716 1 18339643467883616216
13214271 11 18272369780793716703
13224815 77 18411987974316295335
13675066 3 18187087269080573787
14178342 30 18338527339117458393
14223421 5 18341052895787930134
14341114 176 18411985737129035682
14787075 74 18339640165090922602
14790565 3 18050014594947639924
15163728 17 14691189929019880809
15196674 1 18411420639180230811
15375358 24 18413110541697833299
15536298 74 18272376330249831326
15788980 27 17167859768361771669
16945 1 18267308633664624303
17349148 13 18260547844245275310
17492 89 18410012108956776131
1813 80 17168144512515476742
18186145 218 18411423903503023558
18522853 276 18412546492037592553
19050596 39 18410858775858764633
19784866 9 18412265021155473810
200 152 18202274819337965375
20715895 44 18116989984517715477
21033648 29 18262779827106925672
21267235 1 18410302427354843602
21421861 104 18042966467372004754
21637258 2 15647319828885568714
22182313 1 18189614934485510503
22854114 111 18409735070690792279
22854114 59 18343022189864506130
23402539 116 18272925046486162621
23557571 272 18059303161493107767
23559900 14 18343023255612643838
26918003 58 18409728456589012017
2748010 2 18410304609229794207
2838139 119 14835541671104639250
296302 2 16343984710473737934
335352 9 18411702045432157758
34934 24 18341610383102269379
350125 39 18410857681354741304
351380 180 18413386540454065762
3545911 37 18411703166439727155
42 15 18260548935156425576
5104073 3 18410294747868572393
59755656 215 18339930311854621398
633830 44 17988931080225984300
69090 78 18413386557386229218
7364860 26 18200601276388112774
9709674 26 18341058445033876271

> <PUBCHEM_SHAPE_MULTIPOLES>
420.43
9.43
2.1
1.06
1.16
0.42
0.43
-0.59
-2.56
-0.22
0.02
0.09
-0.22
0.11

> <PUBCHEM_SHAPE_SELFOVERLAP>
902.625

> <PUBCHEM_SHAPE_VOLUME>
230.1

> <PUBCHEM_COORDINATE_TYPE>
2
5
10

> <Energy>
71.9966

> <minimizedAffinity>
-5.62951

> <CNNscore>
0.4833385944

> <CNNaffinity>
7.5531406403

> <CNN_VS>
3.6507244110

> <CNNaffinity_variance>
0.8521483541

$$$$
6013


 22 25  0  0  0  0  0  0  0  0999 V2000
   12.9631   42.6914  132.8466 O   0  0  0  0  0  0  0  0  0  0  0  0
    7.0148   50.7569  128.6743 O   0  0  0  0  0  0  0  0  0  0  0  0
   10.0787   44.2430  131.2271 C   0  0  0  0  0  0  0  0  0  0  0  0
   11.2320   44.3565  132.2429 C   0  0  0  0  0  0  0  0  0  0  0  0
    9.0398   45.3565  131.3888 C   0  0  0  0  0  0  0  0  0  0  0  0
    9.7433   46.7345  131.1792 C   0  0  0  0  0  0  0  0  0  0  0  0
    8.7470   47.9521  131.2832 C   0  0  0  0  0  0  0  0  0  0  0  0
   11.9662   45.6776  131.9797 C   0  0  0  0  0  0  0  0  0  0  0  0
   11.0099   46.8808  132.0677 C   0  0  0  0  0  0  0  0  0  0  0  0
   12.0271   43.0908  131.8632 C   0  0  0  0  0  0  0  0  0  0  0  0
    9.6349   42.7877  131.3533 C   0  0  0  0  0  0  0  0  0  0  0  0
    7.8866   45.1955  130.3902 C   0  0  0  0  0  0  0  0  0  0  0  0
   10.9406   42.0210  131.6298 C   0  0  0  0  0  0  0  0  0  0  0  0
    7.5177   47.6830  130.4039 C   0  0  0  0  0  0  0  0  0  0  0  0
    6.8728   46.3230  130.5330 C   0  0  0  0  0  0  0  0  0  0  0  0
   10.7953   44.2937  133.7276 C   0  0  0  0  0  0  0  0  0  0  0  0
    9.4841   49.2318  130.7890 C   0  0  0  0  0  0  0  0  0  0  0  0
    8.2609   48.1823  132.7315 C   0  0  0  0  0  0  0  0  0  0  0  0
    8.5527   50.3944  130.4789 C   0  0  0  0  0  0  0  0  0  0  0  0
    6.9887   48.5872  129.5619 C   0  0  0  0  0  0  0  0  0  0  0  0
    7.5047   49.9741  129.4828 C   0  0  0  0  0  0  0  0  0  0  0  0
   13.6270   43.3888  132.9634 H   0  0  0  0  0  0  0  0  0  0  0  0
  1 10  1  0
  1 22  1  0
  2 21  2  0
  3  4  1  0
  3  5  1  0
  3 11  1  0
  4  8  1  0
  4 10  1  0
  4 16  1  0
  5  6  1  0
  5 12  1  0
  6  7  1  0
  6  9  1  0
  7 14  1  0
  7 17  1  0
  7 18  1  0
  8  9  1  0
 10 13  1  0
 11 13  1  0
 12 15  1  0
 14 15  1  0
 14 20  2  0
 17 19  1  0
 19 21  1  0
 20 21  1  0
M  END
> <PUBCHEM_COMPOUND_CID>
6013

> <PUBCHEM_CONFORMER_RMSD>
0.6

> <PUBCHEM_CONFORMER_DIVERSEORDER>
1

> <PUBCHEM_MMFF94_PARTIAL_CHARGES>
11
1 -0.68
10 0.28
14 -0.28
15 0.14
19 0.06
2 -0.57
20 -0.14
21 0.49
48 0.15
49 0.4
7 0.14

> <PUBCHEM_EFFECTIVE_ROTOR_COUNT>
1.8

> <PUBCHEM_PHARMACOPHORE_FEATURES>
7
1 1 acceptor
1 1 donor
1 2 acceptor
5 3 4 10 11 13 rings
6 3 4 5 6 8 9 rings
6 5 6 7 12 14 15 rings
6 7 14 17 19 20 21 rings

> <PUBCHEM_HEAVY_ATOM_COUNT>
21

> <PUBCHEM_ATOM_DEF_STEREO_COUNT>
6

> <PUBCHEM_ATOM_UDEF_STEREO_COUNT>
0

> <PUBCHEM_BOND_DEF_STEREO_COUNT>
0

> <PUBCHEM_BOND_UDEF_STEREO_COUNT>
0

> <PUBCHEM_ISOTOPIC_ATOM_COUNT>
0

> <PUBCHEM_COMPONENT_COUNT>
1

> <PUBCHEM_CACTVS_TAUTO_COUNT>
5

> <PUBCHEM_CONFORMER_ID>
0000177D00000001

> <PUBCHEM_MMFF94_ENERGY>
67.5416

> <PUBCHEM_FEATURE_SELFOVERLAP>
35.618

> <PUBCHEM_SHAPE_FINGERPRINT>
10062212 137 18336825385559829163
10759866 29 17897457309511876188
10967382 1 18412548682291571786
11132069 177 18410018732180467827
11370993 70 18410569557056084199
11578080 2 16735503067342509174
12011746 2 18412547592124142406
12236239 1 18040155136873436768
12251169 10 18410008845387181634
12403259 226 18410006624652160988
12403259 415 18408880746209696412
12403260 363 18340481291412090749
12403814 3 17894914044785590877
12507557 5 18408881845467772304
12633257 1 18341888602346167976
12839892 36 18340758291450253690
13140716 1 18339643467883616216
13214271 11 18272369780793716703
13224815 77 18411987974316295335
13675066 3 18187087269080573787
14178342 30 18338527339117458393
14223421 5 18341052895787930134
14341114 176 18411985737129035682
14787075 74 18339640165090922602
14790565 3 18050014594947639924
15163728 17 14691189929019880809
15196674 1 18411420639180230811
15375358 24 18413110541697833299
15536298 74 18272376330249831326
15788980 27 17167859768361771669
16945 1 18267308633664624303
17349148 13 18260547844245275310
17492 89 18410012108956776131
1813 80 17168144512515476742
18186145 218 18411423903503023558
18522853 276 18412546492037592553
19050596 39 18410858775858764633
19784866 9 18412265021155473810
200 152 18202274819337965375
20715895 44 18116989984517715477
21033648 29 18262779827106925672
21267235 1 18410302427354843602
21421861 104 18042966467372004754
21637258 2 15647319828885568714
22182313 1 18189614934485510503
22854114 111 18409735070690792279
22854114 59 18343022189864506130
23402539 116 18272925046486162621
23557571 272 18059303161493107767
23559900 14 18343023255612643838
26918003 58 18409728456589012017
2748010 2 18410304609229794207
2838139 119 14835541671104639250
296302 2 16343984710473737934
335352 9 18411702045432157758
34934 24 18341610383102269379
350125 39 18410857681354741304
351380 180 18413386540454065762
3545911 37 18411703166439727155
42 15 18260548935156425576
5104073 3 18410294747868572393
59755656 215 18339930311854621398
633830 44 17988931080225984300
69090 78 18413386557386229218
7364860 26 18200601276388112774
9709674 26 18341058445033876271

> <PUBCHEM_SHAPE_MULTIPOLES>
420.43
9.43
2.1
1.06
1.16
0.42
0.43
-0.59
-2.56
-0.22
0.02
0.09
-0.22
0.11

> <PUBCHEM_SHAPE_SELFOVERLAP>
902.625

> <PUBCHEM_SHAPE_VOLUME>
230.1

> <PUBCHEM_COORDINATE_TYPE>
2
5
10

> <Energy>
71.9966

> <minimizedAffinity>
-10.15720

> <CNNscore>
0.3484217525

> <CNNaffinity>
7.0350260735

> <CNN_VS>
2.4511561394

> <CNNaffinity_variance>
0.1989997774

$$$$
6013


 22 25  0  0  0  0  0  0  0  0999 V2000
   10.6215   41.8543  132.0893 O   0  0  0  0  0  0  0  0  0  0  0  0
    6.1426   51.5774  130.2881 O   0  0  0  0  0  0  0  0  0  0  0  0
   10.5408   45.4043  131.2284 C   0  0  0  0  0  0  0  0  0  0  0  0
    9.8436   44.0303  131.1983 C   0  0  0  0  0  0  0  0  0  0  0  0
    9.8858   46.4178  130.2853 C   0  0  0  0  0  0  0  0  0  0  0  0
    8.3974   46.6142  130.7142 C   0  0  0  0  0  0  0  0  0  0  0  0
    7.6407   47.6763  129.8281 C   0  0  0  0  0  0  0  0  0  0  0  0
    8.4043   44.2189  131.6948 C   0  0  0  0  0  0  0  0  0  0  0  0
    7.6483   45.2593  130.8485 C   0  0  0  0  0  0  0  0  0  0  0  0
   10.7636   43.2601  132.1673 C   0  0  0  0  0  0  0  0  0  0  0  0
   12.0161   45.0593  131.0407 C   0  0  0  0  0  0  0  0  0  0  0  0
   10.6236   47.7624  130.3090 C   0  0  0  0  0  0  0  0  0  0  0  0
   12.1845   43.7206  131.7815 C   0  0  0  0  0  0  0  0  0  0  0  0
    8.4866   48.9535  129.7273 C   0  0  0  0  0  0  0  0  0  0  0  0
    9.9495   48.7767  129.3944 C   0  0  0  0  0  0  0  0  0  0  0  0
    9.8267   43.3433  129.8102 C   0  0  0  0  0  0  0  0  0  0  0  0
    6.2750   47.9954  130.5052 C   0  0  0  0  0  0  0  0  0  0  0  0
    7.3803   47.1580  128.3961 C   0  0  0  0  0  0  0  0  0  0  0  0
    5.6105   49.2591  129.9791 C   0  0  0  0  0  0  0  0  0  0  0  0
    7.9928   50.1921  129.8953 C   0  0  0  0  0  0  0  0  0  0  0  0
    6.5455   50.4328  130.1036 C   0  0  0  0  0  0  0  0  0  0  0  0
    9.7175   41.6064  132.3385 H   0  0  0  0  0  0  0  0  0  0  0  0
  1 10  1  0
  1 22  1  0
  2 21  2  0
  3  4  1  0
  3  5  1  0
  3 11  1  0
  4  8  1  0
  4 10  1  0
  4 16  1  0
  5  6  1  0
  5 12  1  0
  6  7  1  0
  6  9  1  0
  7 14  1  0
  7 17  1  0
  7 18  1  0
  8  9  1  0
 10 13  1  0
 11 13  1  0
 12 15  1  0
 14 15  1  0
 14 20  2  0
 17 19  1  0
 19 21  1  0
 20 21  1  0
M  END
> <PUBCHEM_COMPOUND_CID>
6013

> <PUBCHEM_CONFORMER_RMSD>
0.6

> <PUBCHEM_CONFORMER_DIVERSEORDER>
1

> <PUBCHEM_MMFF94_PARTIAL_CHARGES>
11
1 -0.68
10 0.28
14 -0.28
15 0.14
19 0.06
2 -0.57
20 -0.14
21 0.49
48 0.15
49 0.4
7 0.14

> <PUBCHEM_EFFECTIVE_ROTOR_COUNT>
1.8

> <PUBCHEM_PHARMACOPHORE_FEATURES>
7
1 1 acceptor
1 1 donor
1 2 acceptor
5 3 4 10 11 13 rings
6 3 4 5 6 8 9 rings
6 5 6 7 12 14 15 rings
6 7 14 17 19 20 21 rings

> <PUBCHEM_HEAVY_ATOM_COUNT>
21

> <PUBCHEM_ATOM_DEF_STEREO_COUNT>
6

> <PUBCHEM_ATOM_UDEF_STEREO_COUNT>
0

> <PUBCHEM_BOND_DEF_STEREO_COUNT>
0

> <PUBCHEM_BOND_UDEF_STEREO_COUNT>
0

> <PUBCHEM_ISOTOPIC_ATOM_COUNT>
0

> <PUBCHEM_COMPONENT_COUNT>
1

> <PUBCHEM_CACTVS_TAUTO_COUNT>
5

> <PUBCHEM_CONFORMER_ID>
0000177D00000001

> <PUBCHEM_MMFF94_ENERGY>
67.5416

> <PUBCHEM_FEATURE_SELFOVERLAP>
35.618

> <PUBCHEM_SHAPE_FINGERPRINT>
10062212 137 18336825385559829163
10759866 29 17897457309511876188
10967382 1 18412548682291571786
11132069 177 18410018732180467827
11370993 70 18410569557056084199
11578080 2 16735503067342509174
12011746 2 18412547592124142406
12236239 1 18040155136873436768
12251169 10 18410008845387181634
12403259 226 18410006624652160988
12403259 415 18408880746209696412
12403260 363 18340481291412090749
12403814 3 17894914044785590877
12507557 5 18408881845467772304
12633257 1 18341888602346167976
12839892 36 18340758291450253690
13140716 1 18339643467883616216
13214271 11 18272369780793716703
13224815 77 18411987974316295335
13675066 3 18187087269080573787
14178342 30 18338527339117458393
14223421 5 18341052895787930134
14341114 176 18411985737129035682
14787075 74 18339640165090922602
14790565 3 18050014594947639924
15163728 17 14691189929019880809
15196674 1 18411420639180230811
15375358 24 18413110541697833299
15536298 74 18272376330249831326
15788980 27 17167859768361771669
16945 1 18267308633664624303
17349148 13 18260547844245275310
17492 89 18410012108956776131
1813 80 17168144512515476742
18186145 218 18411423903503023558
18522853 276 18412546492037592553
19050596 39 18410858775858764633
19784866 9 18412265021155473810
200 152 18202274819337965375
20715895 44 18116989984517715477
21033648 29 18262779827106925672
21267235 1 18410302427354843602
21421861 104 18042966467372004754
21637258 2 15647319828885568714
22182313 1 18189614934485510503
22854114 111 18409735070690792279
22854114 59 18343022189864506130
23402539 116 18272925046486162621
23557571 272 18059303161493107767
23559900 14 18343023255612643838
26918003 58 18409728456589012017
2748010 2 18410304609229794207
2838139 119 14835541671104639250
296302 2 16343984710473737934
335352 9 18411702045432157758
34934 24 18341610383102269379
350125 39 18410857681354741304
351380 180 18413386540454065762
3545911 37 18411703166439727155
42 15 18260548935156425576
5104073 3 18410294747868572393
59755656 215 18339930311854621398
633830 44 17988931080225984300
69090 78 18413386557386229218
7364860 26 18200601276388112774
9709674 26 18341058445033876271

> <PUBCHEM_SHAPE_MULTIPOLES>
420.43
9.43
2.1
1.06
1.16
0.42
0.43
-0.59
-2.56
-0.22
0.02
0.09
-0.22
0.11

> <PUBCHEM_SHAPE_SELFOVERLAP>
902.625

> <PUBCHEM_SHAPE_VOLUME>
230.1

> <PUBCHEM_COORDINATE_TYPE>
2
5
10

> <Energy>
71.9966

> <minimizedAffinity>
-3.85727

> <CNNscore>
0.3089735806

> <CNNaffinity>
6.8478202820

> <CNN_VS>
2.1157956123

> <CNNaffinity_variance>
0.5527806878

$$$$
6013


 22 25  0  0  0  0  0  0  0  0999 V2000
    5.3854   50.1133  128.7788 O   0  0  0  0  0  0  0  0  0  0  0  0
   14.2208   43.9774  130.2378 O   0  0  0  0  0  0  0  0  0  0  0  0
    8.3143   48.8109  130.5323 C   0  0  0  0  0  0  0  0  0  0  0  0
    7.1455   48.5563  129.5608 C   0  0  0  0  0  0  0  0  0  0  0  0
    8.9747   47.5148  131.0115 C   0  0  0  0  0  0  0  0  0  0  0  0
    9.5276   46.7441  129.7713 C   0  0  0  0  0  0  0  0  0  0  0  0
   10.2685   45.4083  130.1617 C   0  0  0  0  0  0  0  0  0  0  0  0
    7.7100   47.8682  128.3112 C   0  0  0  0  0  0  0  0  0  0  0  0
    8.4460   46.5645  128.6699 C   0  0  0  0  0  0  0  0  0  0  0  0
    6.6799   50.0101  129.3410 C   0  0  0  0  0  0  0  0  0  0  0  0
    7.7192   49.7674  131.5626 C   0  0  0  0  0  0  0  0  0  0  0  0
   10.1086   47.7985  132.0049 C   0  0  0  0  0  0  0  0  0  0  0  0
    6.7535   50.6441  130.7453 C   0  0  0  0  0  0  0  0  0  0  0  0
   11.2780   45.6927  131.2827 C   0  0  0  0  0  0  0  0  0  0  0  0
   10.7833   46.5089  132.4536 C   0  0  0  0  0  0  0  0  0  0  0  0
    5.9922   47.7034  130.1452 C   0  0  0  0  0  0  0  0  0  0  0  0
   11.0104   44.8733  128.9013 C   0  0  0  0  0  0  0  0  0  0  0  0
    9.2871   44.3250  130.6621 C   0  0  0  0  0  0  0  0  0  0  0  0
   12.0594   43.8153  129.2106 C   0  0  0  0  0  0  0  0  0  0  0  0
   12.5439   45.2410  131.2807 C   0  0  0  0  0  0  0  0  0  0  0  0
   13.0475   44.3372  130.2198 C   0  0  0  0  0  0  0  0  0  0  0  0
    5.3811   49.7043  127.8993 H   0  0  0  0  0  0  0  0  0  0  0  0
  1 10  1  0
  1 22  1  0
  2 21  2  0
  3  4  1  0
  3  5  1  0
  3 11  1  0
  4  8  1  0
  4 10  1  0
  4 16  1  0
  5  6  1  0
  5 12  1  0
  6  7  1  0
  6  9  1  0
  7 14  1  0
  7 17  1  0
  7 18  1  0
  8  9  1  0
 10 13  1  0
 11 13  1  0
 12 15  1  0
 14 15  1  0
 14 20  2  0
 17 19  1  0
 19 21  1  0
 20 21  1  0
M  END
> <PUBCHEM_COMPOUND_CID>
6013

> <PUBCHEM_CONFORMER_RMSD>
0.6

> <PUBCHEM_CONFORMER_DIVERSEORDER>
1

> <PUBCHEM_MMFF94_PARTIAL_CHARGES>
11
1 -0.68
10 0.28
14 -0.28
15 0.14
19 0.06
2 -0.57
20 -0.14
21 0.49
48 0.15
49 0.4
7 0.14

> <PUBCHEM_EFFECTIVE_ROTOR_COUNT>
1.8

> <PUBCHEM_PHARMACOPHORE_FEATURES>
7
1 1 acceptor
1 1 donor
1 2 acceptor
5 3 4 10 11 13 rings
6 3 4 5 6 8 9 rings
6 5 6 7 12 14 15 rings
6 7 14 17 19 20 21 rings

> <PUBCHEM_HEAVY_ATOM_COUNT>
21

> <PUBCHEM_ATOM_DEF_STEREO_COUNT>
6

> <PUBCHEM_ATOM_UDEF_STEREO_COUNT>
0

> <PUBCHEM_BOND_DEF_STEREO_COUNT>
0

> <PUBCHEM_BOND_UDEF_STEREO_COUNT>
0

> <PUBCHEM_ISOTOPIC_ATOM_COUNT>
0

> <PUBCHEM_COMPONENT_COUNT>
1

> <PUBCHEM_CACTVS_TAUTO_COUNT>
5

> <PUBCHEM_CONFORMER_ID>
0000177D00000001

> <PUBCHEM_MMFF94_ENERGY>
67.5416

> <PUBCHEM_FEATURE_SELFOVERLAP>
35.618

> <PUBCHEM_SHAPE_FINGERPRINT>
10062212 137 18336825385559829163
10759866 29 17897457309511876188
10967382 1 18412548682291571786
11132069 177 18410018732180467827
11370993 70 18410569557056084199
11578080 2 16735503067342509174
12011746 2 18412547592124142406
12236239 1 18040155136873436768
12251169 10 18410008845387181634
12403259 226 18410006624652160988
12403259 415 18408880746209696412
12403260 363 18340481291412090749
12403814 3 17894914044785590877
12507557 5 18408881845467772304
12633257 1 18341888602346167976
12839892 36 18340758291450253690
13140716 1 18339643467883616216
13214271 11 18272369780793716703
13224815 77 18411987974316295335
13675066 3 18187087269080573787
14178342 30 18338527339117458393
14223421 5 18341052895787930134
14341114 176 18411985737129035682
14787075 74 18339640165090922602
14790565 3 18050014594947639924
15163728 17 14691189929019880809
15196674 1 18411420639180230811
15375358 24 18413110541697833299
15536298 74 18272376330249831326
15788980 27 17167859768361771669
16945 1 18267308633664624303
17349148 13 18260547844245275310
17492 89 18410012108956776131
1813 80 17168144512515476742
18186145 218 18411423903503023558
18522853 276 18412546492037592553
19050596 39 18410858775858764633
19784866 9 18412265021155473810
200 152 18202274819337965375
20715895 44 18116989984517715477
21033648 29 18262779827106925672
21267235 1 18410302427354843602
21421861 104 18042966467372004754
21637258 2 15647319828885568714
22182313 1 18189614934485510503
22854114 111 18409735070690792279
22854114 59 18343022189864506130
23402539 116 18272925046486162621
23557571 272 18059303161493107767
23559900 14 18343023255612643838
26918003 58 18409728456589012017
2748010 2 18410304609229794207
2838139 119 14835541671104639250
296302 2 16343984710473737934
335352 9 18411702045432157758
34934 24 18341610383102269379
350125 39 18410857681354741304
351380 180 18413386540454065762
3545911 37 18411703166439727155
42 15 18260548935156425576
5104073 3 18410294747868572393
59755656 215 18339930311854621398
633830 44 17988931080225984300
69090 78 18413386557386229218
7364860 26 18200601276388112774
9709674 26 18341058445033876271

> <PUBCHEM_SHAPE_MULTIPOLES>
420.43
9.43
2.1
1.06
1.16
0.42
0.43
-0.59
-2.56
-0.22
0.02
0.09
-0.22
0.11

> <PUBCHEM_SHAPE_SELFOVERLAP>
902.625

> <PUBCHEM_SHAPE_VOLUME>
230.1

> <PUBCHEM_COORDINATE_TYPE>
2
5
10

> <Energy>
71.9966

> <minimizedAffinity>
-4.45855

> <CNNscore>
0.3064736426

> <CNNaffinity>
7.0880446434

> <CNN_VS>
2.1722989082

> <CNNaffinity_variance>
0.5908091068

$$$$
