448537


 22 23  0  0  0  0  0  0  0  0999 V2000
  104.4822   14.8615   24.4349 C   0  0  0  0  0  0  0  0  0  0  0  0
  104.4912   14.0226   23.3690 C   0  0  0  0  0  0  0  0  0  0  0  0
  100.0022   18.0781   25.5590 O   0  0  0  0  0  0  0  0  0  0  0  0
  103.2982   15.6952   24.7257 C   0  0  0  0  0  0  0  0  0  0  0  0
  102.1543   15.6019   23.9215 C   0  0  0  0  0  0  0  0  0  0  0  0
  103.3113   16.5906   25.8027 C   0  0  0  0  0  0  0  0  0  0  0  0
  101.0374   16.3976   24.1890 C   0  0  0  0  0  0  0  0  0  0  0  0
  102.1949   17.3849   26.0698 C   0  0  0  0  0  0  0  0  0  0  0  0
  101.0692   17.2821   25.2621 C   0  0  0  0  0  0  0  0  0  0  0  0
   99.2261   18.0355   25.0359 H   0  0  0  0  0  0  0  0  0  0  0  0
  109.0129   10.8436   22.3059 O   0  0  0  0  0  0  0  0  0  0  0  0
  105.6743   13.1864   23.0790 C   0  0  0  0  0  0  0  0  0  0  0  0
  106.0230   12.1309   23.9311 C   0  0  0  0  0  0  0  0  0  0  0  0
  106.4630   13.4507   21.9516 C   0  0  0  0  0  0  0  0  0  0  0  0
  107.1487   11.3523   23.6573 C   0  0  0  0  0  0  0  0  0  0  0  0
  107.5878   12.6717   21.6774 C   0  0  0  0  0  0  0  0  0  0  0  0
  107.9213   11.6282   22.5350 C   0  0  0  0  0  0  0  0  0  0  0  0
  109.2203   10.1456   22.8955 H   0  0  0  0  0  0  0  0  0  0  0  0
  105.6048   15.0191   25.4451 C   0  0  0  0  0  0  0  0  0  0  0  0
  106.8070   15.7720   24.8898 C   0  0  0  0  0  0  0  0  0  0  0  0
  103.3386   13.8070   22.4045 C   0  0  0  0  0  0  0  0  0  0  0  0
  103.5580   14.4772   21.0544 C   0  0  0  0  0  0  0  0  0  0  0  0
  3  9  1  0
  3 10  1  0
 11 17  1  0
 11 18  1  0
  1  2  2  0
  1 19  1  0
  1  4  1  0
  2 21  1  0
  2 12  1  0
 19 20  1  0
 21 22  1  0
  4  5  2  0
  4  6  1  0
 12 13  2  0
 12 14  1  0
  5  7  1  0
 13 15  1  0
  6  8  2  0
 14 16  2  0
  7  9  2  0
 15 17  2  0
  8  9  1  0
 16 17  1  0
M  END
> <PUBCHEM_COMPOUND_CID>
448537

> <PUBCHEM_CONFORMER_RMSD>
0.6

> <PUBCHEM_CONFORMER_DIVERSEORDER>
1
3
2

> <PUBCHEM_MMFF94_PARTIAL_CHARGES>
28
1 -0.53
11 -0.15
12 -0.15
13 -0.15
14 -0.15
15 -0.15
16 -0.15
17 -0.15
18 -0.15
19 0.08
2 -0.53
20 0.08
3 -0.17
31 0.15
32 0.15
33 0.15
34 0.15
35 0.15
36 0.15
37 0.15
38 0.15
39 0.45
4 -0.17
40 0.45
5 0.14
6 0.14
7 0.03
8 0.03

> <PUBCHEM_EFFECTIVE_ROTOR_COUNT>
4

> <PUBCHEM_PHARMACOPHORE_FEATURES>
6
1 1 donor
1 10 hydrophobe
1 2 donor
1 9 hydrophobe
6 7 11 13 15 17 19 rings
6 8 12 14 16 18 20 rings

> <PUBCHEM_HEAVY_ATOM_COUNT>
20

> <PUBCHEM_ATOM_DEF_STEREO_COUNT>
0

> <PUBCHEM_ATOM_UDEF_STEREO_COUNT>
0

> <PUBCHEM_BOND_DEF_STEREO_COUNT>
1

> <PUBCHEM_BOND_UDEF_STEREO_COUNT>
0

> <PUBCHEM_ISOTOPIC_ATOM_COUNT>
0

> <PUBCHEM_COMPONENT_COUNT>
1

> <PUBCHEM_CACTVS_TAUTO_COUNT>
3

> <PUBCHEM_CONFORMER_ID>
0006D81900000001

> <PUBCHEM_MMFF94_ENERGY>
60.231

> <PUBCHEM_FEATURE_SELFOVERLAP>
30.447

> <PUBCHEM_SHAPE_FINGERPRINT>
10366900 7 18186514428534874893
104564 63 18339924792832442081
10906281 52 18129397028286092948
11646440 116 18130798871235594657
12592029 89 16950278473467191938
12788726 201 18270697410649816016
13140716 1 18266458895859843337
13533116 47 18340201896197096762
13760787 19 16660644076447957075
14115302 16 18186806919849492430
14341114 176 15647057049052281551
15099037 51 18335139812416525942
15848700 24 18202843262111810220
15848702 151 16988848262958300981
16752209 62 18335696105492573576
16945 1 18410855473013063775
1813 80 18272378572207267076
18186145 218 18338228362096015613
187816 3 18410857663704853992
19141452 34 17131829889222033293
19784866 9 18113613452605694563
200 152 16950282905968490344
20028762 73 18055641861278493167
20600515 1 18340218469921978116
20645477 70 16009301016701038466
21285901 2 17917162606291067244
23175994 123 18333735723499757565
23402539 116 17988639696664490244
23493267 7 17313098635762053785
23557571 272 17489592229515708168
23559900 14 15554438621982335170
266924 87 18194116322357846868
347723 3 18410856551049855057
34934 24 18129105515976021729
3545911 37 15719391732852524422
4072396 5 18261662693185545291
4214541 1 15791727494979709055
465052 167 17240208741576471315
474 4 17917140731779840409
59755656 215 18270402685366324510
633830 44 18342455975941661781
69090 78 17060620005479420895
7226269 152 18410853270196137312
7495541 125 17531535390133293585
77779 3 15719110262139125926
81228 2 18128838385973970688
8272917 22 16660357039657468298
9971528 1 17775283884826915592

> <PUBCHEM_SHAPE_MULTIPOLES>
399.85
10.42
1.74
1.37
0
0
0.06
0
1.28
0
-0.74
0
0
-0.06

> <PUBCHEM_SHAPE_SELFOVERLAP>
850.96

> <PUBCHEM_SHAPE_VOLUME>
224.1

> <PUBCHEM_COORDINATE_TYPE>
2
5
10

> <Energy>
28.3223

> <minimizedAffinity>
-8.14331

> <CNNscore>
0.8961530924

> <CNNaffinity>
8.2362546921

> <CNN_VS>
7.3809452057

> <CNNaffinity_variance>
1.2590728998

$$$$
448537


 22 23  0  0  0  0  0  0  0  0999 V2000
  104.6200   14.0015   23.4515 C   0  0  0  0  0  0  0  0  0  0  0  0
  104.5970   14.8137   24.5376 C   0  0  0  0  0  0  0  0  0  0  0  0
  109.0743   10.7255   22.3989 O   0  0  0  0  0  0  0  0  0  0  0  0
  105.7963   13.1532   23.1717 C   0  0  0  0  0  0  0  0  0  0  0  0
  106.6753   13.4856   22.1321 C   0  0  0  0  0  0  0  0  0  0  0  0
  106.0391   12.0062   23.9382 C   0  0  0  0  0  0  0  0  0  0  0  0
  107.7825   12.6782   21.8595 C   0  0  0  0  0  0  0  0  0  0  0  0
  107.1458   11.2003   23.6657 C   0  0  0  0  0  0  0  0  0  0  0  0
  108.0068   11.5423   22.6304 C   0  0  0  0  0  0  0  0  0  0  0  0
  109.6759   10.9252   21.7089 H   0  0  0  0  0  0  0  0  0  0  0  0
  100.1075   18.0487   25.5679 O   0  0  0  0  0  0  0  0  0  0  0  0
  103.4197   15.6607   24.8195 C   0  0  0  0  0  0  0  0  0  0  0  0
  102.2196   15.4609   24.1256 C   0  0  0  0  0  0  0  0  0  0  0  0
  103.4991   16.6786   25.7789 C   0  0  0  0  0  0  0  0  0  0  0  0
  101.1147   16.2723   24.3888 C   0  0  0  0  0  0  0  0  0  0  0  0
  102.3943   17.4892   26.0426 C   0  0  0  0  0  0  0  0  0  0  0  0
  101.2103   17.2786   25.3431 C   0  0  0  0  0  0  0  0  0  0  0  0
   99.3195   17.8906   25.0862 H   0  0  0  0  0  0  0  0  0  0  0  0
  103.4885   13.8272   22.4540 C   0  0  0  0  0  0  0  0  0  0  0  0
  103.6046   14.7541   21.2509 C   0  0  0  0  0  0  0  0  0  0  0  0
  105.6966   14.9291   25.5781 C   0  0  0  0  0  0  0  0  0  0  0  0
  106.9106   15.7021   25.0792 C   0  0  0  0  0  0  0  0  0  0  0  0
  3  9  1  0
  3 10  1  0
 11 17  1  0
 11 18  1  0
  1  2  2  0
  1 19  1  0
  1  4  1  0
  2 21  1  0
  2 12  1  0
 19 20  1  0
 21 22  1  0
  4  5  2  0
  4  6  1  0
 12 13  2  0
 12 14  1  0
  5  7  1  0
 13 15  1  0
  6  8  2  0
 14 16  2  0
  7  9  2  0
 15 17  2  0
  8  9  1  0
 16 17  1  0
M  END
> <PUBCHEM_COMPOUND_CID>
448537

> <PUBCHEM_CONFORMER_RMSD>
0.6

> <PUBCHEM_CONFORMER_DIVERSEORDER>
1
3
2

> <PUBCHEM_MMFF94_PARTIAL_CHARGES>
28
1 -0.53
11 -0.15
12 -0.15
13 -0.15
14 -0.15
15 -0.15
16 -0.15
17 -0.15
18 -0.15
19 0.08
2 -0.53
20 0.08
3 -0.17
31 0.15
32 0.15
33 0.15
34 0.15
35 0.15
36 0.15
37 0.15
38 0.15
39 0.45
4 -0.17
40 0.45
5 0.14
6 0.14
7 0.03
8 0.03

> <PUBCHEM_EFFECTIVE_ROTOR_COUNT>
4

> <PUBCHEM_PHARMACOPHORE_FEATURES>
6
1 1 donor
1 10 hydrophobe
1 2 donor
1 9 hydrophobe
6 7 11 13 15 17 19 rings
6 8 12 14 16 18 20 rings

> <PUBCHEM_HEAVY_ATOM_COUNT>
20

> <PUBCHEM_ATOM_DEF_STEREO_COUNT>
0

> <PUBCHEM_ATOM_UDEF_STEREO_COUNT>
0

> <PUBCHEM_BOND_DEF_STEREO_COUNT>
1

> <PUBCHEM_BOND_UDEF_STEREO_COUNT>
0

> <PUBCHEM_ISOTOPIC_ATOM_COUNT>
0

> <PUBCHEM_COMPONENT_COUNT>
1

> <PUBCHEM_CACTVS_TAUTO_COUNT>
3

> <PUBCHEM_CONFORMER_ID>
0006D81900000001

> <PUBCHEM_MMFF94_ENERGY>
60.231

> <PUBCHEM_FEATURE_SELFOVERLAP>
30.447

> <PUBCHEM_SHAPE_FINGERPRINT>
10366900 7 18186514428534874893
104564 63 18339924792832442081
10906281 52 18129397028286092948
11646440 116 18130798871235594657
12592029 89 16950278473467191938
12788726 201 18270697410649816016
13140716 1 18266458895859843337
13533116 47 18340201896197096762
13760787 19 16660644076447957075
14115302 16 18186806919849492430
14341114 176 15647057049052281551
15099037 51 18335139812416525942
15848700 24 18202843262111810220
15848702 151 16988848262958300981
16752209 62 18335696105492573576
16945 1 18410855473013063775
1813 80 18272378572207267076
18186145 218 18338228362096015613
187816 3 18410857663704853992
19141452 34 17131829889222033293
19784866 9 18113613452605694563
200 152 16950282905968490344
20028762 73 18055641861278493167
20600515 1 18340218469921978116
20645477 70 16009301016701038466
21285901 2 17917162606291067244
23175994 123 18333735723499757565
23402539 116 17988639696664490244
23493267 7 17313098635762053785
23557571 272 17489592229515708168
23559900 14 15554438621982335170
266924 87 18194116322357846868
347723 3 18410856551049855057
34934 24 18129105515976021729
3545911 37 15719391732852524422
4072396 5 18261662693185545291
4214541 1 15791727494979709055
465052 167 17240208741576471315
474 4 17917140731779840409
59755656 215 18270402685366324510
633830 44 18342455975941661781
69090 78 17060620005479420895
7226269 152 18410853270196137312
7495541 125 17531535390133293585
77779 3 15719110262139125926
81228 2 18128838385973970688
8272917 22 16660357039657468298
9971528 1 17775283884826915592

> <PUBCHEM_SHAPE_MULTIPOLES>
399.85
10.42
1.74
1.37
0
0
0.06
0
1.28
0
-0.74
0
0
-0.06

> <PUBCHEM_SHAPE_SELFOVERLAP>
850.96

> <PUBCHEM_SHAPE_VOLUME>
224.1

> <PUBCHEM_COORDINATE_TYPE>
2
5
10

> <Energy>
28.3223

> <minimizedAffinity>
-7.80762

> <CNNscore>
0.8582367301

> <CNNaffinity>
8.1524276733

> <CNN_VS>
6.9967126846

> <CNNaffinity_variance>
1.2846990824

$$$$
448537


 22 23  0  0  0  0  0  0  0  0999 V2000
  104.4687   15.1345   23.6810 C   0  0  0  0  0  0  0  0  0  0  0  0
  105.3338   14.5225   24.5277 C   0  0  0  0  0  0  0  0  0  0  0  0
   99.8364   17.6634   25.6374 O   0  0  0  0  0  0  0  0  0  0  0  0
  103.2608   15.8091   24.1983 C   0  0  0  0  0  0  0  0  0  0  0  0
  103.3397   16.6241   25.3356 C   0  0  0  0  0  0  0  0  0  0  0  0
  102.0258   15.6346   23.5608 C   0  0  0  0  0  0  0  0  0  0  0  0
  102.1959   17.2544   25.8322 C   0  0  0  0  0  0  0  0  0  0  0  0
  100.8836   16.2650   24.0571 C   0  0  0  0  0  0  0  0  0  0  0  0
  100.9779   17.0682   25.1867 C   0  0  0  0  0  0  0  0  0  0  0  0
   99.8624   18.2120   26.3965 H   0  0  0  0  0  0  0  0  0  0  0  0
  109.9418   11.9313   22.5951 O   0  0  0  0  0  0  0  0  0  0  0  0
  106.5436   13.8497   24.0112 C   0  0  0  0  0  0  0  0  0  0  0  0
  106.5734   12.4569   23.8663 C   0  0  0  0  0  0  0  0  0  0  0  0
  107.6757   14.6018   23.6712 C   0  0  0  0  0  0  0  0  0  0  0  0
  107.7238   11.8267   23.3887 C   0  0  0  0  0  0  0  0  0  0  0  0
  108.8253   13.9719   23.1929 C   0  0  0  0  0  0  0  0  0  0  0  0
  108.8390   12.5874   23.0566 C   0  0  0  0  0  0  0  0  0  0  0  0
  109.9306   10.9983   22.5105 H   0  0  0  0  0  0  0  0  0  0  0  0
  104.6337   15.2441   22.1756 C   0  0  0  0  0  0  0  0  0  0  0  0
  104.0586   14.0512   21.4230 C   0  0  0  0  0  0  0  0  0  0  0  0
  105.2095   14.4809   26.0403 C   0  0  0  0  0  0  0  0  0  0  0  0
  106.3895   13.7952   26.7167 C   0  0  0  0  0  0  0  0  0  0  0  0
  3  9  1  0
  3 10  1  0
 11 17  1  0
 11 18  1  0
  1  2  2  0
  1 19  1  0
  1  4  1  0
  2 21  1  0
  2 12  1  0
 19 20  1  0
 21 22  1  0
  4  5  2  0
  4  6  1  0
 12 13  2  0
 12 14  1  0
  5  7  1  0
 13 15  1  0
  6  8  2  0
 14 16  2  0
  7  9  2  0
 15 17  2  0
  8  9  1  0
 16 17  1  0
M  END
> <PUBCHEM_COMPOUND_CID>
448537

> <PUBCHEM_CONFORMER_RMSD>
0.6

> <PUBCHEM_CONFORMER_DIVERSEORDER>
1
3
2

> <PUBCHEM_MMFF94_PARTIAL_CHARGES>
28
1 -0.53
11 -0.15
12 -0.15
13 -0.15
14 -0.15
15 -0.15
16 -0.15
17 -0.15
18 -0.15
19 0.08
2 -0.53
20 0.08
3 -0.17
31 0.15
32 0.15
33 0.15
34 0.15
35 0.15
36 0.15
37 0.15
38 0.15
39 0.45
4 -0.17
40 0.45
5 0.14
6 0.14
7 0.03
8 0.03

> <PUBCHEM_EFFECTIVE_ROTOR_COUNT>
4

> <PUBCHEM_PHARMACOPHORE_FEATURES>
6
1 1 donor
1 10 hydrophobe
1 2 donor
1 9 hydrophobe
6 7 11 13 15 17 19 rings
6 8 12 14 16 18 20 rings

> <PUBCHEM_HEAVY_ATOM_COUNT>
20

> <PUBCHEM_ATOM_DEF_STEREO_COUNT>
0

> <PUBCHEM_ATOM_UDEF_STEREO_COUNT>
0

> <PUBCHEM_BOND_DEF_STEREO_COUNT>
1

> <PUBCHEM_BOND_UDEF_STEREO_COUNT>
0

> <PUBCHEM_ISOTOPIC_ATOM_COUNT>
0

> <PUBCHEM_COMPONENT_COUNT>
1

> <PUBCHEM_CACTVS_TAUTO_COUNT>
3

> <PUBCHEM_CONFORMER_ID>
0006D81900000001

> <PUBCHEM_MMFF94_ENERGY>
60.231

> <PUBCHEM_FEATURE_SELFOVERLAP>
30.447

> <PUBCHEM_SHAPE_FINGERPRINT>
10366900 7 18186514428534874893
104564 63 18339924792832442081
10906281 52 18129397028286092948
11646440 116 18130798871235594657
12592029 89 16950278473467191938
12788726 201 18270697410649816016
13140716 1 18266458895859843337
13533116 47 18340201896197096762
13760787 19 16660644076447957075
14115302 16 18186806919849492430
14341114 176 15647057049052281551
15099037 51 18335139812416525942
15848700 24 18202843262111810220
15848702 151 16988848262958300981
16752209 62 18335696105492573576
16945 1 18410855473013063775
1813 80 18272378572207267076
18186145 218 18338228362096015613
187816 3 18410857663704853992
19141452 34 17131829889222033293
19784866 9 18113613452605694563
200 152 16950282905968490344
20028762 73 18055641861278493167
20600515 1 18340218469921978116
20645477 70 16009301016701038466
21285901 2 17917162606291067244
23175994 123 18333735723499757565
23402539 116 17988639696664490244
23493267 7 17313098635762053785
23557571 272 17489592229515708168
23559900 14 15554438621982335170
266924 87 18194116322357846868
347723 3 18410856551049855057
34934 24 18129105515976021729
3545911 37 15719391732852524422
4072396 5 18261662693185545291
4214541 1 15791727494979709055
465052 167 17240208741576471315
474 4 17917140731779840409
59755656 215 18270402685366324510
633830 44 18342455975941661781
69090 78 17060620005479420895
7226269 152 18410853270196137312
7495541 125 17531535390133293585
77779 3 15719110262139125926
81228 2 18128838385973970688
8272917 22 16660357039657468298
9971528 1 17775283884826915592

> <PUBCHEM_SHAPE_MULTIPOLES>
399.85
10.42
1.74
1.37
0
0
0.06
0
1.28
0
-0.74
0
0
-0.06

> <PUBCHEM_SHAPE_SELFOVERLAP>
850.96

> <PUBCHEM_SHAPE_VOLUME>
224.1

> <PUBCHEM_COORDINATE_TYPE>
2
5
10

> <Energy>
28.3223

> <minimizedAffinity>
-8.65673

> <CNNscore>
0.8579754829

> <CNNaffinity>
8.0704202652

> <CNN_VS>
6.9242229462

> <CNNaffinity_variance>
1.1450934410

$$$$
448537


 22 23  0  0  0  0  0  0  0  0999 V2000
  105.2896   14.8786   23.2958 C   0  0  0  0  0  0  0  0  0  0  0  0
  104.8792   15.3422   24.5027 C   0  0  0  0  0  0  0  0  0  0  0  0
  110.4780   12.7876   22.6721 O   0  0  0  0  0  0  0  0  0  0  0  0
  106.6457   14.3180   23.1271 C   0  0  0  0  0  0  0  0  0  0  0  0
  106.8744   12.9503   23.3294 C   0  0  0  0  0  0  0  0  0  0  0  0
  107.7151   15.1495   22.7706 C   0  0  0  0  0  0  0  0  0  0  0  0
  108.1587   12.4205   23.1805 C   0  0  0  0  0  0  0  0  0  0  0  0
  108.9978   14.6194   22.6215 C   0  0  0  0  0  0  0  0  0  0  0  0
  109.2087   13.2618   22.8274 C   0  0  0  0  0  0  0  0  0  0  0  0
  110.6572   11.8773   22.8029 H   0  0  0  0  0  0  0  0  0  0  0  0
   99.7100   17.4595   25.1940 O   0  0  0  0  0  0  0  0  0  0  0  0
  103.5220   15.9007   24.6727 C   0  0  0  0  0  0  0  0  0  0  0  0
  103.2604   16.8334   25.6844 C   0  0  0  0  0  0  0  0  0  0  0  0
  102.4825   15.4926   23.8268 C   0  0  0  0  0  0  0  0  0  0  0  0
  101.9732   17.3482   25.8467 C   0  0  0  0  0  0  0  0  0  0  0  0
  101.1958   16.0080   23.9885 C   0  0  0  0  0  0  0  0  0  0  0  0
  100.9525   16.9322   24.9995 C   0  0  0  0  0  0  0  0  0  0  0  0
   99.5669   18.0808   25.8806 H   0  0  0  0  0  0  0  0  0  0  0  0
  104.4469   14.8325   22.0335 C   0  0  0  0  0  0  0  0  0  0  0  0
  104.0757   13.4160   21.6143 C   0  0  0  0  0  0  0  0  0  0  0  0
  105.6946   15.3157   25.7831 C   0  0  0  0  0  0  0  0  0  0  0  0
  105.6587   13.9643   26.4849 C   0  0  0  0  0  0  0  0  0  0  0  0
  3  9  1  0
  3 10  1  0
 11 17  1  0
 11 18  1  0
  1  2  2  0
  1 19  1  0
  1  4  1  0
  2 21  1  0
  2 12  1  0
 19 20  1  0
 21 22  1  0
  4  5  2  0
  4  6  1  0
 12 13  2  0
 12 14  1  0
  5  7  1  0
 13 15  1  0
  6  8  2  0
 14 16  2  0
  7  9  2  0
 15 17  2  0
  8  9  1  0
 16 17  1  0
M  END
> <PUBCHEM_COMPOUND_CID>
448537

> <PUBCHEM_CONFORMER_RMSD>
0.6

> <PUBCHEM_CONFORMER_DIVERSEORDER>
1
3
2

> <PUBCHEM_MMFF94_PARTIAL_CHARGES>
28
1 -0.53
11 -0.15
12 -0.15
13 -0.15
14 -0.15
15 -0.15
16 -0.15
17 -0.15
18 -0.15
19 0.08
2 -0.53
20 0.08
3 -0.17
31 0.15
32 0.15
33 0.15
34 0.15
35 0.15
36 0.15
37 0.15
38 0.15
39 0.45
4 -0.17
40 0.45
5 0.14
6 0.14
7 0.03
8 0.03

> <PUBCHEM_EFFECTIVE_ROTOR_COUNT>
4

> <PUBCHEM_PHARMACOPHORE_FEATURES>
6
1 1 donor
1 10 hydrophobe
1 2 donor
1 9 hydrophobe
6 7 11 13 15 17 19 rings
6 8 12 14 16 18 20 rings

> <PUBCHEM_HEAVY_ATOM_COUNT>
20

> <PUBCHEM_ATOM_DEF_STEREO_COUNT>
0

> <PUBCHEM_ATOM_UDEF_STEREO_COUNT>
0

> <PUBCHEM_BOND_DEF_STEREO_COUNT>
1

> <PUBCHEM_BOND_UDEF_STEREO_COUNT>
0

> <PUBCHEM_ISOTOPIC_ATOM_COUNT>
0

> <PUBCHEM_COMPONENT_COUNT>
1

> <PUBCHEM_CACTVS_TAUTO_COUNT>
3

> <PUBCHEM_CONFORMER_ID>
0006D81900000001

> <PUBCHEM_MMFF94_ENERGY>
60.231

> <PUBCHEM_FEATURE_SELFOVERLAP>
30.447

> <PUBCHEM_SHAPE_FINGERPRINT>
10366900 7 18186514428534874893
104564 63 18339924792832442081
10906281 52 18129397028286092948
11646440 116 18130798871235594657
12592029 89 16950278473467191938
12788726 201 18270697410649816016
13140716 1 18266458895859843337
13533116 47 18340201896197096762
13760787 19 16660644076447957075
14115302 16 18186806919849492430
14341114 176 15647057049052281551
15099037 51 18335139812416525942
15848700 24 18202843262111810220
15848702 151 16988848262958300981
16752209 62 18335696105492573576
16945 1 18410855473013063775
1813 80 18272378572207267076
18186145 218 18338228362096015613
187816 3 18410857663704853992
19141452 34 17131829889222033293
19784866 9 18113613452605694563
200 152 16950282905968490344
20028762 73 18055641861278493167
20600515 1 18340218469921978116
20645477 70 16009301016701038466
21285901 2 17917162606291067244
23175994 123 18333735723499757565
23402539 116 17988639696664490244
23493267 7 17313098635762053785
23557571 272 17489592229515708168
23559900 14 15554438621982335170
266924 87 18194116322357846868
347723 3 18410856551049855057
34934 24 18129105515976021729
3545911 37 15719391732852524422
4072396 5 18261662693185545291
4214541 1 15791727494979709055
465052 167 17240208741576471315
474 4 17917140731779840409
59755656 215 18270402685366324510
633830 44 18342455975941661781
69090 78 17060620005479420895
7226269 152 18410853270196137312
7495541 125 17531535390133293585
77779 3 15719110262139125926
81228 2 18128838385973970688
8272917 22 16660357039657468298
9971528 1 17775283884826915592

> <PUBCHEM_SHAPE_MULTIPOLES>
399.85
10.42
1.74
1.37
0
0
0.06
0
1.28
0
-0.74
0
0
-0.06

> <PUBCHEM_SHAPE_SELFOVERLAP>
850.96

> <PUBCHEM_SHAPE_VOLUME>
224.1

> <PUBCHEM_COORDINATE_TYPE>
2
5
10

> <Energy>
28.3223

> <minimizedAffinity>
-7.74815

> <CNNscore>
0.8481693268

> <CNNaffinity>
8.0036096573

> <CNN_VS>
6.7884163857

> <CNNaffinity_variance>
0.9165933728

$$$$
448537


 22 23  0  0  0  0  0  0  0  0999 V2000
  105.0777   14.2368   24.1384 C   0  0  0  0  0  0  0  0  0  0  0  0
  103.8855   14.4329   23.5218 C   0  0  0  0  0  0  0  0  0  0  0  0
  108.8626   10.6370   22.0417 O   0  0  0  0  0  0  0  0  0  0  0  0
  106.0699   13.2985   23.5757 C   0  0  0  0  0  0  0  0  0  0  0  0
  105.9608   12.8690   22.2462 C   0  0  0  0  0  0  0  0  0  0  0  0
  107.1235   12.8248   24.3679 C   0  0  0  0  0  0  0  0  0  0  0  0
  106.8926   11.9732   21.7158 C   0  0  0  0  0  0  0  0  0  0  0  0
  108.0545   11.9302   23.8372 C   0  0  0  0  0  0  0  0  0  0  0  0
  107.9315   11.5125   22.5179 C   0  0  0  0  0  0  0  0  0  0  0  0
  108.8111   10.3339   21.1567 H   0  0  0  0  0  0  0  0  0  0  0  0
  100.1139   17.9989   25.6992 O   0  0  0  0  0  0  0  0  0  0  0  0
  102.8936   15.3733   24.0826 C   0  0  0  0  0  0  0  0  0  0  0  0
  103.2210   16.1779   25.1813 C   0  0  0  0  0  0  0  0  0  0  0  0
  101.6119   15.4598   23.5235 C   0  0  0  0  0  0  0  0  0  0  0  0
  102.2751   17.0558   25.7134 C   0  0  0  0  0  0  0  0  0  0  0  0
  100.6666   16.3380   24.0547 C   0  0  0  0  0  0  0  0  0  0  0  0
  101.0074   17.1289   25.1474 C   0  0  0  0  0  0  0  0  0  0  0  0
  100.3632   18.5227   26.4349 H   0  0  0  0  0  0  0  0  0  0  0  0
  105.5500   14.9460   25.3952 C   0  0  0  0  0  0  0  0  0  0  0  0
  105.7002   14.0109   26.5882 C   0  0  0  0  0  0  0  0  0  0  0  0
  103.4454   13.7828   22.2223 C   0  0  0  0  0  0  0  0  0  0  0  0
  103.7427   14.6379   20.9973 C   0  0  0  0  0  0  0  0  0  0  0  0
  3  9  1  0
  3 10  1  0
 11 17  1  0
 11 18  1  0
  1  2  2  0
  1 19  1  0
  1  4  1  0
  2 21  1  0
  2 12  1  0
 19 20  1  0
 21 22  1  0
  4  5  2  0
  4  6  1  0
 12 13  2  0
 12 14  1  0
  5  7  1  0
 13 15  1  0
  6  8  2  0
 14 16  2  0
  7  9  2  0
 15 17  2  0
  8  9  1  0
 16 17  1  0
M  END
> <PUBCHEM_COMPOUND_CID>
448537

> <PUBCHEM_CONFORMER_RMSD>
0.6

> <PUBCHEM_CONFORMER_DIVERSEORDER>
1
3
2

> <PUBCHEM_MMFF94_PARTIAL_CHARGES>
28
1 -0.53
11 -0.15
12 -0.15
13 -0.15
14 -0.15
15 -0.15
16 -0.15
17 -0.15
18 -0.15
19 0.08
2 -0.53
20 0.08
3 -0.17
31 0.15
32 0.15
33 0.15
34 0.15
35 0.15
36 0.15
37 0.15
38 0.15
39 0.45
4 -0.17
40 0.45
5 0.14
6 0.14
7 0.03
8 0.03

> <PUBCHEM_EFFECTIVE_ROTOR_COUNT>
4

> <PUBCHEM_PHARMACOPHORE_FEATURES>
6
1 1 donor
1 10 hydrophobe
1 2 donor
1 9 hydrophobe
6 7 11 13 15 17 19 rings
6 8 12 14 16 18 20 rings

> <PUBCHEM_HEAVY_ATOM_COUNT>
20

> <PUBCHEM_ATOM_DEF_STEREO_COUNT>
0

> <PUBCHEM_ATOM_UDEF_STEREO_COUNT>
0

> <PUBCHEM_BOND_DEF_STEREO_COUNT>
1

> <PUBCHEM_BOND_UDEF_STEREO_COUNT>
0

> <PUBCHEM_ISOTOPIC_ATOM_COUNT>
0

> <PUBCHEM_COMPONENT_COUNT>
1

> <PUBCHEM_CACTVS_TAUTO_COUNT>
3

> <PUBCHEM_CONFORMER_ID>
0006D81900000001

> <PUBCHEM_MMFF94_ENERGY>
60.231

> <PUBCHEM_FEATURE_SELFOVERLAP>
30.447

> <PUBCHEM_SHAPE_FINGERPRINT>
10366900 7 18186514428534874893
104564 63 18339924792832442081
10906281 52 18129397028286092948
11646440 116 18130798871235594657
12592029 89 16950278473467191938
12788726 201 18270697410649816016
13140716 1 18266458895859843337
13533116 47 18340201896197096762
13760787 19 16660644076447957075
14115302 16 18186806919849492430
14341114 176 15647057049052281551
15099037 51 18335139812416525942
15848700 24 18202843262111810220
15848702 151 16988848262958300981
16752209 62 18335696105492573576
16945 1 18410855473013063775
1813 80 18272378572207267076
18186145 218 18338228362096015613
187816 3 18410857663704853992
19141452 34 17131829889222033293
19784866 9 18113613452605694563
200 152 16950282905968490344
20028762 73 18055641861278493167
20600515 1 18340218469921978116
20645477 70 16009301016701038466
21285901 2 17917162606291067244
23175994 123 18333735723499757565
23402539 116 17988639696664490244
23493267 7 17313098635762053785
23557571 272 17489592229515708168
23559900 14 15554438621982335170
266924 87 18194116322357846868
347723 3 18410856551049855057
34934 24 18129105515976021729
3545911 37 15719391732852524422
4072396 5 18261662693185545291
4214541 1 15791727494979709055
465052 167 17240208741576471315
474 4 17917140731779840409
59755656 215 18270402685366324510
633830 44 18342455975941661781
69090 78 17060620005479420895
7226269 152 18410853270196137312
7495541 125 17531535390133293585
77779 3 15719110262139125926
81228 2 18128838385973970688
8272917 22 16660357039657468298
9971528 1 17775283884826915592

> <PUBCHEM_SHAPE_MULTIPOLES>
399.85
10.42
1.74
1.37
0
0
0.06
0
1.28
0
-0.74
0
0
-0.06

> <PUBCHEM_SHAPE_SELFOVERLAP>
850.96

> <PUBCHEM_SHAPE_VOLUME>
224.1

> <PUBCHEM_COORDINATE_TYPE>
2
5
10

> <Energy>
28.3223

> <minimizedAffinity>
-8.21818

> <CNNscore>
0.8438365459

> <CNNaffinity>
8.1606292725

> <CNN_VS>
6.8862371445

> <CNNaffinity_variance>
1.2581084967

$$$$
448537


 22 23  0  0  0  0  0  0  0  0999 V2000
  104.5653   14.7947   24.4640 C   0  0  0  0  0  0  0  0  0  0  0  0
  104.5343   13.9321   23.4176 C   0  0  0  0  0  0  0  0  0  0  0  0
  100.0751   17.9761   25.6461 O   0  0  0  0  0  0  0  0  0  0  0  0
  103.3954   15.6406   24.7761 C   0  0  0  0  0  0  0  0  0  0  0  0
  103.4973   16.6625   25.7297 C   0  0  0  0  0  0  0  0  0  0  0  0
  102.1731   15.4241   24.1271 C   0  0  0  0  0  0  0  0  0  0  0  0
  102.3886   17.4565   26.0336 C   0  0  0  0  0  0  0  0  0  0  0  0
  101.0659   16.2181   24.4309 C   0  0  0  0  0  0  0  0  0  0  0  0
  101.1826   17.2259   25.3800 C   0  0  0  0  0  0  0  0  0  0  0  0
  100.1169   18.6645   26.2803 H   0  0  0  0  0  0  0  0  0  0  0  0
  108.9619   10.6750   22.2055 O   0  0  0  0  0  0  0  0  0  0  0  0
  105.7032   13.0839   23.1064 C   0  0  0  0  0  0  0  0  0  0  0  0
  106.0359   12.7946   21.7769 C   0  0  0  0  0  0  0  0  0  0  0  0
  106.4833   12.5537   24.1424 C   0  0  0  0  0  0  0  0  0  0  0  0
  107.1347   11.9829   21.4905 C   0  0  0  0  0  0  0  0  0  0  0  0
  107.5824   11.7431   23.8560 C   0  0  0  0  0  0  0  0  0  0  0  0
  107.8980   11.4640   22.5301 C   0  0  0  0  0  0  0  0  0  0  0  0
  109.1577   10.4991   21.3063 H   0  0  0  0  0  0  0  0  0  0  0  0
  105.7224   14.9694   25.4315 C   0  0  0  0  0  0  0  0  0  0  0  0
  105.6086   14.0834   26.6653 C   0  0  0  0  0  0  0  0  0  0  0  0
  103.3485   13.7008   22.4981 C   0  0  0  0  0  0  0  0  0  0  0  0
  103.3942   14.5573   21.2394 C   0  0  0  0  0  0  0  0  0  0  0  0
  3  9  1  0
  3 10  1  0
 11 17  1  0
 11 18  1  0
  1  2  2  0
  1 19  1  0
  1  4  1  0
  2 21  1  0
  2 12  1  0
 19 20  1  0
 21 22  1  0
  4  5  2  0
  4  6  1  0
 12 13  2  0
 12 14  1  0
  5  7  1  0
 13 15  1  0
  6  8  2  0
 14 16  2  0
  7  9  2  0
 15 17  2  0
  8  9  1  0
 16 17  1  0
M  END
> <PUBCHEM_COMPOUND_CID>
448537

> <PUBCHEM_CONFORMER_RMSD>
0.6

> <PUBCHEM_CONFORMER_DIVERSEORDER>
1
3
2

> <PUBCHEM_MMFF94_PARTIAL_CHARGES>
28
1 -0.53
11 -0.15
12 -0.15
13 -0.15
14 -0.15
15 -0.15
16 -0.15
17 -0.15
18 -0.15
19 0.08
2 -0.53
20 0.08
3 -0.17
31 0.15
32 0.15
33 0.15
34 0.15
35 0.15
36 0.15
37 0.15
38 0.15
39 0.45
4 -0.17
40 0.45
5 0.14
6 0.14
7 0.03
8 0.03

> <PUBCHEM_EFFECTIVE_ROTOR_COUNT>
4

> <PUBCHEM_PHARMACOPHORE_FEATURES>
6
1 1 donor
1 10 hydrophobe
1 2 donor
1 9 hydrophobe
6 7 11 13 15 17 19 rings
6 8 12 14 16 18 20 rings

> <PUBCHEM_HEAVY_ATOM_COUNT>
20

> <PUBCHEM_ATOM_DEF_STEREO_COUNT>
0

> <PUBCHEM_ATOM_UDEF_STEREO_COUNT>
0

> <PUBCHEM_BOND_DEF_STEREO_COUNT>
1

> <PUBCHEM_BOND_UDEF_STEREO_COUNT>
0

> <PUBCHEM_ISOTOPIC_ATOM_COUNT>
0

> <PUBCHEM_COMPONENT_COUNT>
1

> <PUBCHEM_CACTVS_TAUTO_COUNT>
3

> <PUBCHEM_CONFORMER_ID>
0006D81900000001

> <PUBCHEM_MMFF94_ENERGY>
60.231

> <PUBCHEM_FEATURE_SELFOVERLAP>
30.447

> <PUBCHEM_SHAPE_FINGERPRINT>
10366900 7 18186514428534874893
104564 63 18339924792832442081
10906281 52 18129397028286092948
11646440 116 18130798871235594657
12592029 89 16950278473467191938
12788726 201 18270697410649816016
13140716 1 18266458895859843337
13533116 47 18340201896197096762
13760787 19 16660644076447957075
14115302 16 18186806919849492430
14341114 176 15647057049052281551
15099037 51 18335139812416525942
15848700 24 18202843262111810220
15848702 151 16988848262958300981
16752209 62 18335696105492573576
16945 1 18410855473013063775
1813 80 18272378572207267076
18186145 218 18338228362096015613
187816 3 18410857663704853992
19141452 34 17131829889222033293
19784866 9 18113613452605694563
200 152 16950282905968490344
20028762 73 18055641861278493167
20600515 1 18340218469921978116
20645477 70 16009301016701038466
21285901 2 17917162606291067244
23175994 123 18333735723499757565
23402539 116 17988639696664490244
23493267 7 17313098635762053785
23557571 272 17489592229515708168
23559900 14 15554438621982335170
266924 87 18194116322357846868
347723 3 18410856551049855057
34934 24 18129105515976021729
3545911 37 15719391732852524422
4072396 5 18261662693185545291
4214541 1 15791727494979709055
465052 167 17240208741576471315
474 4 17917140731779840409
59755656 215 18270402685366324510
633830 44 18342455975941661781
69090 78 17060620005479420895
7226269 152 18410853270196137312
7495541 125 17531535390133293585
77779 3 15719110262139125926
81228 2 18128838385973970688
8272917 22 16660357039657468298
9971528 1 17775283884826915592

> <PUBCHEM_SHAPE_MULTIPOLES>
399.85
10.42
1.74
1.37
0
0
0.06
0
1.28
0
-0.74
0
0
-0.06

> <PUBCHEM_SHAPE_SELFOVERLAP>
850.96

> <PUBCHEM_SHAPE_VOLUME>
224.1

> <PUBCHEM_COORDINATE_TYPE>
2
5
10

> <Energy>
28.3223

> <minimizedAffinity>
-8.18264

> <CNNscore>
0.8408160806

> <CNNaffinity>
8.1589365005

> <CNN_VS>
6.8601651192

> <CNNaffinity_variance>
1.2235096693

$$$$
448537


 22 23  0  0  0  0  0  0  0  0999 V2000
  105.3463   14.4796   24.6224 C   0  0  0  0  0  0  0  0  0  0  0  0
  104.5517   15.1830   23.7777 C   0  0  0  0  0  0  0  0  0  0  0  0
  109.9435   11.8678   22.6924 O   0  0  0  0  0  0  0  0  0  0  0  0
  106.5607   13.8026   24.1238 C   0  0  0  0  0  0  0  0  0  0  0  0
  107.7432   14.5284   23.9271 C   0  0  0  0  0  0  0  0  0  0  0  0
  106.5386   12.4317   23.8370 C   0  0  0  0  0  0  0  0  0  0  0  0
  108.8897   13.8914   23.4454 C   0  0  0  0  0  0  0  0  0  0  0  0
  107.6845   11.7958   23.3563 C   0  0  0  0  0  0  0  0  0  0  0  0
  108.8485   12.5296   23.1648 C   0  0  0  0  0  0  0  0  0  0  0  0
  110.7458   12.3307   22.5512 H   0  0  0  0  0  0  0  0  0  0  0  0
   99.9165   17.7807   25.6348 O   0  0  0  0  0  0  0  0  0  0  0  0
  103.3382   15.8626   24.2762 C   0  0  0  0  0  0  0  0  0  0  0  0
  102.0771   15.5249   23.7690 C   0  0  0  0  0  0  0  0  0  0  0  0
  103.4423   16.8590   25.2556 C   0  0  0  0  0  0  0  0  0  0  0  0
  100.9360   16.1792   24.2362 C   0  0  0  0  0  0  0  0  0  0  0  0
  102.3015   17.5124   25.7233 C   0  0  0  0  0  0  0  0  0  0  0  0
  101.0566   17.1663   25.2077 C   0  0  0  0  0  0  0  0  0  0  0  0
   99.0877   17.5330   25.2749 H   0  0  0  0  0  0  0  0  0  0  0  0
  105.1358   14.3349   26.1193 C   0  0  0  0  0  0  0  0  0  0  0  0
  106.3474   13.7580   26.8400 C   0  0  0  0  0  0  0  0  0  0  0  0
  104.8051   15.3931   22.2955 C   0  0  0  0  0  0  0  0  0  0  0  0
  104.1089   14.3596   21.4195 C   0  0  0  0  0  0  0  0  0  0  0  0
  3  9  1  0
  3 10  1  0
 11 17  1  0
 11 18  1  0
  1  2  2  0
  1 19  1  0
  1  4  1  0
  2 21  1  0
  2 12  1  0
 19 20  1  0
 21 22  1  0
  4  5  2  0
  4  6  1  0
 12 13  2  0
 12 14  1  0
  5  7  1  0
 13 15  1  0
  6  8  2  0
 14 16  2  0
  7  9  2  0
 15 17  2  0
  8  9  1  0
 16 17  1  0
M  END
> <PUBCHEM_COMPOUND_CID>
448537

> <PUBCHEM_CONFORMER_RMSD>
0.6

> <PUBCHEM_CONFORMER_DIVERSEORDER>
1
3
2

> <PUBCHEM_MMFF94_PARTIAL_CHARGES>
28
1 -0.53
11 -0.15
12 -0.15
13 -0.15
14 -0.15
15 -0.15
16 -0.15
17 -0.15
18 -0.15
19 0.08
2 -0.53
20 0.08
3 -0.17
31 0.15
32 0.15
33 0.15
34 0.15
35 0.15
36 0.15
37 0.15
38 0.15
39 0.45
4 -0.17
40 0.45
5 0.14
6 0.14
7 0.03
8 0.03

> <PUBCHEM_EFFECTIVE_ROTOR_COUNT>
4

> <PUBCHEM_PHARMACOPHORE_FEATURES>
6
1 1 donor
1 10 hydrophobe
1 2 donor
1 9 hydrophobe
6 7 11 13 15 17 19 rings
6 8 12 14 16 18 20 rings

> <PUBCHEM_HEAVY_ATOM_COUNT>
20

> <PUBCHEM_ATOM_DEF_STEREO_COUNT>
0

> <PUBCHEM_ATOM_UDEF_STEREO_COUNT>
0

> <PUBCHEM_BOND_DEF_STEREO_COUNT>
1

> <PUBCHEM_BOND_UDEF_STEREO_COUNT>
0

> <PUBCHEM_ISOTOPIC_ATOM_COUNT>
0

> <PUBCHEM_COMPONENT_COUNT>
1

> <PUBCHEM_CACTVS_TAUTO_COUNT>
3

> <PUBCHEM_CONFORMER_ID>
0006D81900000001

> <PUBCHEM_MMFF94_ENERGY>
60.231

> <PUBCHEM_FEATURE_SELFOVERLAP>
30.447

> <PUBCHEM_SHAPE_FINGERPRINT>
10366900 7 18186514428534874893
104564 63 18339924792832442081
10906281 52 18129397028286092948
11646440 116 18130798871235594657
12592029 89 16950278473467191938
12788726 201 18270697410649816016
13140716 1 18266458895859843337
13533116 47 18340201896197096762
13760787 19 16660644076447957075
14115302 16 18186806919849492430
14341114 176 15647057049052281551
15099037 51 18335139812416525942
15848700 24 18202843262111810220
15848702 151 16988848262958300981
16752209 62 18335696105492573576
16945 1 18410855473013063775
1813 80 18272378572207267076
18186145 218 18338228362096015613
187816 3 18410857663704853992
19141452 34 17131829889222033293
19784866 9 18113613452605694563
200 152 16950282905968490344
20028762 73 18055641861278493167
20600515 1 18340218469921978116
20645477 70 16009301016701038466
21285901 2 17917162606291067244
23175994 123 18333735723499757565
23402539 116 17988639696664490244
23493267 7 17313098635762053785
23557571 272 17489592229515708168
23559900 14 15554438621982335170
266924 87 18194116322357846868
347723 3 18410856551049855057
34934 24 18129105515976021729
3545911 37 15719391732852524422
4072396 5 18261662693185545291
4214541 1 15791727494979709055
465052 167 17240208741576471315
474 4 17917140731779840409
59755656 215 18270402685366324510
633830 44 18342455975941661781
69090 78 17060620005479420895
7226269 152 18410853270196137312
7495541 125 17531535390133293585
77779 3 15719110262139125926
81228 2 18128838385973970688
8272917 22 16660357039657468298
9971528 1 17775283884826915592

> <PUBCHEM_SHAPE_MULTIPOLES>
399.85
10.42
1.74
1.37
0
0
0.06
0
1.28
0
-0.74
0
0
-0.06

> <PUBCHEM_SHAPE_SELFOVERLAP>
850.96

> <PUBCHEM_SHAPE_VOLUME>
224.1

> <PUBCHEM_COORDINATE_TYPE>
2
5
10

> <Energy>
28.3223

> <minimizedAffinity>
-8.10574

> <CNNscore>
0.8352931738

> <CNNaffinity>
8.0509376526

> <CNN_VS>
6.7248930931

> <CNNaffinity_variance>
1.2159786224

$$$$
448537


 22 23  0  0  0  0  0  0  0  0999 V2000
  104.9266   15.3101   24.5161 C   0  0  0  0  0  0  0  0  0  0  0  0
  105.3789   14.8865   23.3095 C   0  0  0  0  0  0  0  0  0  0  0  0
   99.7265   17.3894   25.0780 O   0  0  0  0  0  0  0  0  0  0  0  0
  103.5567   15.8430   24.6609 C   0  0  0  0  0  0  0  0  0  0  0  0
  102.5165   15.3417   23.8668 C   0  0  0  0  0  0  0  0  0  0  0  0
  103.2874   16.8583   25.5876 C   0  0  0  0  0  0  0  0  0  0  0  0
  101.2223   15.8523   23.9953 C   0  0  0  0  0  0  0  0  0  0  0  0
  101.9941   17.3676   25.7158 C   0  0  0  0  0  0  0  0  0  0  0  0
  100.9741   16.8614   24.9200 C   0  0  0  0  0  0  0  0  0  0  0  0
   99.0144   17.0723   24.5583 H   0  0  0  0  0  0  0  0  0  0  0  0
  110.5895   12.8212   22.7937 O   0  0  0  0  0  0  0  0  0  0  0  0
  106.7481   14.3508   23.1645 C   0  0  0  0  0  0  0  0  0  0  0  0
  106.9761   12.9692   23.1930 C   0  0  0  0  0  0  0  0  0  0  0  0
  107.8320   15.2245   23.0066 C   0  0  0  0  0  0  0  0  0  0  0  0
  108.2738   12.4705   23.0670 C   0  0  0  0  0  0  0  0  0  0  0  0
  109.1291   14.7259   22.8797 C   0  0  0  0  0  0  0  0  0  0  0  0
  109.3384   13.3509   22.9120 C   0  0  0  0  0  0  0  0  0  0  0  0
  110.7092   11.8923   22.8178 H   0  0  0  0  0  0  0  0  0  0  0  0
  105.7038   15.2574   25.8196 C   0  0  0  0  0  0  0  0  0  0  0  0
  105.6618   13.8881   26.4854 C   0  0  0  0  0  0  0  0  0  0  0  0
  104.5745   14.8660   22.0220 C   0  0  0  0  0  0  0  0  0  0  0  0
  105.4459   14.7721   20.7762 C   0  0  0  0  0  0  0  0  0  0  0  0
  3  9  1  0
  3 10  1  0
 11 17  1  0
 11 18  1  0
  1  2  2  0
  1 19  1  0
  1  4  1  0
  2 21  1  0
  2 12  1  0
 19 20  1  0
 21 22  1  0
  4  5  2  0
  4  6  1  0
 12 13  2  0
 12 14  1  0
  5  7  1  0
 13 15  1  0
  6  8  2  0
 14 16  2  0
  7  9  2  0
 15 17  2  0
  8  9  1  0
 16 17  1  0
M  END
> <PUBCHEM_COMPOUND_CID>
448537

> <PUBCHEM_CONFORMER_RMSD>
0.6

> <PUBCHEM_CONFORMER_DIVERSEORDER>
1
3
2

> <PUBCHEM_MMFF94_PARTIAL_CHARGES>
28
1 -0.53
11 -0.15
12 -0.15
13 -0.15
14 -0.15
15 -0.15
16 -0.15
17 -0.15
18 -0.15
19 0.08
2 -0.53
20 0.08
3 -0.17
31 0.15
32 0.15
33 0.15
34 0.15
35 0.15
36 0.15
37 0.15
38 0.15
39 0.45
4 -0.17
40 0.45
5 0.14
6 0.14
7 0.03
8 0.03

> <PUBCHEM_EFFECTIVE_ROTOR_COUNT>
4

> <PUBCHEM_PHARMACOPHORE_FEATURES>
6
1 1 donor
1 10 hydrophobe
1 2 donor
1 9 hydrophobe
6 7 11 13 15 17 19 rings
6 8 12 14 16 18 20 rings

> <PUBCHEM_HEAVY_ATOM_COUNT>
20

> <PUBCHEM_ATOM_DEF_STEREO_COUNT>
0

> <PUBCHEM_ATOM_UDEF_STEREO_COUNT>
0

> <PUBCHEM_BOND_DEF_STEREO_COUNT>
1

> <PUBCHEM_BOND_UDEF_STEREO_COUNT>
0

> <PUBCHEM_ISOTOPIC_ATOM_COUNT>
0

> <PUBCHEM_COMPONENT_COUNT>
1

> <PUBCHEM_CACTVS_TAUTO_COUNT>
3

> <PUBCHEM_CONFORMER_ID>
0006D81900000001

> <PUBCHEM_MMFF94_ENERGY>
60.231

> <PUBCHEM_FEATURE_SELFOVERLAP>
30.447

> <PUBCHEM_SHAPE_FINGERPRINT>
10366900 7 18186514428534874893
104564 63 18339924792832442081
10906281 52 18129397028286092948
11646440 116 18130798871235594657
12592029 89 16950278473467191938
12788726 201 18270697410649816016
13140716 1 18266458895859843337
13533116 47 18340201896197096762
13760787 19 16660644076447957075
14115302 16 18186806919849492430
14341114 176 15647057049052281551
15099037 51 18335139812416525942
15848700 24 18202843262111810220
15848702 151 16988848262958300981
16752209 62 18335696105492573576
16945 1 18410855473013063775
1813 80 18272378572207267076
18186145 218 18338228362096015613
187816 3 18410857663704853992
19141452 34 17131829889222033293
19784866 9 18113613452605694563
200 152 16950282905968490344
20028762 73 18055641861278493167
20600515 1 18340218469921978116
20645477 70 16009301016701038466
21285901 2 17917162606291067244
23175994 123 18333735723499757565
23402539 116 17988639696664490244
23493267 7 17313098635762053785
23557571 272 17489592229515708168
23559900 14 15554438621982335170
266924 87 18194116322357846868
347723 3 18410856551049855057
34934 24 18129105515976021729
3545911 37 15719391732852524422
4072396 5 18261662693185545291
4214541 1 15791727494979709055
465052 167 17240208741576471315
474 4 17917140731779840409
59755656 215 18270402685366324510
633830 44 18342455975941661781
69090 78 17060620005479420895
7226269 152 18410853270196137312
7495541 125 17531535390133293585
77779 3 15719110262139125926
81228 2 18128838385973970688
8272917 22 16660357039657468298
9971528 1 17775283884826915592

> <PUBCHEM_SHAPE_MULTIPOLES>
399.85
10.42
1.74
1.37
0
0
0.06
0
1.28
0
-0.74
0
0
-0.06

> <PUBCHEM_SHAPE_SELFOVERLAP>
850.96

> <PUBCHEM_SHAPE_VOLUME>
224.1

> <PUBCHEM_COORDINATE_TYPE>
2
5
10

> <Energy>
28.3223

> <minimizedAffinity>
-7.67823

> <CNNscore>
0.8349938989

> <CNNaffinity>
7.8680615425

> <CNN_VS>
6.5697832108

> <CNNaffinity_variance>
0.8015483022

$$$$
448537


 22 23  0  0  0  0  0  0  0  0999 V2000
  105.6356   14.8226   23.2511 C   0  0  0  0  0  0  0  0  0  0  0  0
  105.1198   15.2207   24.4408 C   0  0  0  0  0  0  0  0  0  0  0  0
  110.9236   12.9172   22.9549 O   0  0  0  0  0  0  0  0  0  0  0  0
  107.0192   14.3129   23.1641 C   0  0  0  0  0  0  0  0  0  0  0  0
  107.2571   12.9435   22.9848 C   0  0  0  0  0  0  0  0  0  0  0  0
  108.1044   15.1925   23.2671 C   0  0  0  0  0  0  0  0  0  0  0  0
  108.5655   12.4586   22.9130 C   0  0  0  0  0  0  0  0  0  0  0  0
  109.4113   14.7074   23.1948 C   0  0  0  0  0  0  0  0  0  0  0  0
  109.6307   13.3470   23.0187 C   0  0  0  0  0  0  0  0  0  0  0  0
  111.1092   12.0065   22.8367 H   0  0  0  0  0  0  0  0  0  0  0  0
   99.8432   17.1584   24.7321 O   0  0  0  0  0  0  0  0  0  0  0  0
  103.7351   15.7282   24.5289 C   0  0  0  0  0  0  0  0  0  0  0  0
  102.7215   15.1643   23.7437 C   0  0  0  0  0  0  0  0  0  0  0  0
  103.4277   16.7865   25.3940 C   0  0  0  0  0  0  0  0  0  0  0  0
  101.4178   15.6565   23.8236 C   0  0  0  0  0  0  0  0  0  0  0  0
  102.1241   17.2780   25.4745 C   0  0  0  0  0  0  0  0  0  0  0  0
  101.1295   16.7077   24.6864 C   0  0  0  0  0  0  0  0  0  0  0  0
   99.1880   16.7607   24.1933 H   0  0  0  0  0  0  0  0  0  0  0  0
  104.8922   14.8041   21.9272 C   0  0  0  0  0  0  0  0  0  0  0  0
  105.7570   15.2364   20.7502 C   0  0  0  0  0  0  0  0  0  0  0  0
  105.8371   15.1652   25.7777 C   0  0  0  0  0  0  0  0  0  0  0  0
  105.7959   13.7843   26.4194 C   0  0  0  0  0  0  0  0  0  0  0  0
  3  9  1  0
  3 10  1  0
 11 17  1  0
 11 18  1  0
  1  2  2  0
  1 19  1  0
  1  4  1  0
  2 21  1  0
  2 12  1  0
 19 20  1  0
 21 22  1  0
  4  5  2  0
  4  6  1  0
 12 13  2  0
 12 14  1  0
  5  7  1  0
 13 15  1  0
  6  8  2  0
 14 16  2  0
  7  9  2  0
 15 17  2  0
  8  9  1  0
 16 17  1  0
M  END
> <PUBCHEM_COMPOUND_CID>
448537

> <PUBCHEM_CONFORMER_RMSD>
0.6

> <PUBCHEM_CONFORMER_DIVERSEORDER>
1
3
2

> <PUBCHEM_MMFF94_PARTIAL_CHARGES>
28
1 -0.53
11 -0.15
12 -0.15
13 -0.15
14 -0.15
15 -0.15
16 -0.15
17 -0.15
18 -0.15
19 0.08
2 -0.53
20 0.08
3 -0.17
31 0.15
32 0.15
33 0.15
34 0.15
35 0.15
36 0.15
37 0.15
38 0.15
39 0.45
4 -0.17
40 0.45
5 0.14
6 0.14
7 0.03
8 0.03

> <PUBCHEM_EFFECTIVE_ROTOR_COUNT>
4

> <PUBCHEM_PHARMACOPHORE_FEATURES>
6
1 1 donor
1 10 hydrophobe
1 2 donor
1 9 hydrophobe
6 7 11 13 15 17 19 rings
6 8 12 14 16 18 20 rings

> <PUBCHEM_HEAVY_ATOM_COUNT>
20

> <PUBCHEM_ATOM_DEF_STEREO_COUNT>
0

> <PUBCHEM_ATOM_UDEF_STEREO_COUNT>
0

> <PUBCHEM_BOND_DEF_STEREO_COUNT>
1

> <PUBCHEM_BOND_UDEF_STEREO_COUNT>
0

> <PUBCHEM_ISOTOPIC_ATOM_COUNT>
0

> <PUBCHEM_COMPONENT_COUNT>
1

> <PUBCHEM_CACTVS_TAUTO_COUNT>
3

> <PUBCHEM_CONFORMER_ID>
0006D81900000001

> <PUBCHEM_MMFF94_ENERGY>
60.231

> <PUBCHEM_FEATURE_SELFOVERLAP>
30.447

> <PUBCHEM_SHAPE_FINGERPRINT>
10366900 7 18186514428534874893
104564 63 18339924792832442081
10906281 52 18129397028286092948
11646440 116 18130798871235594657
12592029 89 16950278473467191938
12788726 201 18270697410649816016
13140716 1 18266458895859843337
13533116 47 18340201896197096762
13760787 19 16660644076447957075
14115302 16 18186806919849492430
14341114 176 15647057049052281551
15099037 51 18335139812416525942
15848700 24 18202843262111810220
15848702 151 16988848262958300981
16752209 62 18335696105492573576
16945 1 18410855473013063775
1813 80 18272378572207267076
18186145 218 18338228362096015613
187816 3 18410857663704853992
19141452 34 17131829889222033293
19784866 9 18113613452605694563
200 152 16950282905968490344
20028762 73 18055641861278493167
20600515 1 18340218469921978116
20645477 70 16009301016701038466
21285901 2 17917162606291067244
23175994 123 18333735723499757565
23402539 116 17988639696664490244
23493267 7 17313098635762053785
23557571 272 17489592229515708168
23559900 14 15554438621982335170
266924 87 18194116322357846868
347723 3 18410856551049855057
34934 24 18129105515976021729
3545911 37 15719391732852524422
4072396 5 18261662693185545291
4214541 1 15791727494979709055
465052 167 17240208741576471315
474 4 17917140731779840409
59755656 215 18270402685366324510
633830 44 18342455975941661781
69090 78 17060620005479420895
7226269 152 18410853270196137312
7495541 125 17531535390133293585
77779 3 15719110262139125926
81228 2 18128838385973970688
8272917 22 16660357039657468298
9971528 1 17775283884826915592

> <PUBCHEM_SHAPE_MULTIPOLES>
399.85
10.42
1.74
1.37
0
0
0.06
0
1.28
0
-0.74
0
0
-0.06

> <PUBCHEM_SHAPE_SELFOVERLAP>
850.96

> <PUBCHEM_SHAPE_VOLUME>
224.1

> <PUBCHEM_COORDINATE_TYPE>
2
5
10

> <Energy>
28.3223

> <minimizedAffinity>
-7.69368

> <CNNscore>
0.8207689524

> <CNNaffinity>
7.7689166069

> <CNN_VS>
6.3764853477

> <CNNaffinity_variance>
0.7097726464

$$$$
