448537


 22 23  0  0  0  0  0  0  0  0999 V2000
   23.6468   -2.7906    6.5685 C   0  0  0  0  0  0  0  0  0  0  0  0
   24.3162   -1.7516    7.1271 C   0  0  0  0  0  0  0  0  0  0  0  0
   20.1129   -1.9504    2.2689 O   0  0  0  0  0  0  0  0  0  0  0  0
   22.7302   -2.5703    5.4313 C   0  0  0  0  0  0  0  0  0  0  0  0
   23.1382   -1.7987    4.3350 C   0  0  0  0  0  0  0  0  0  0  0  0
   21.4439   -3.1247    5.4424 C   0  0  0  0  0  0  0  0  0  0  0  0
   22.2685   -1.5807    3.2634 C   0  0  0  0  0  0  0  0  0  0  0  0
   20.5757   -2.9070    4.3713 C   0  0  0  0  0  0  0  0  0  0  0  0
   20.9944   -2.1381    3.2926 C   0  0  0  0  0  0  0  0  0  0  0  0
   20.3610   -1.4375    1.5251 H   0  0  0  0  0  0  0  0  0  0  0  0
   27.8079   -2.5484   11.4694 O   0  0  0  0  0  0  0  0  0  0  0  0
   25.2351   -1.9715    8.2630 C   0  0  0  0  0  0  0  0  0  0  0  0
   24.8129   -1.7239    9.5753 C   0  0  0  0  0  0  0  0  0  0  0  0
   26.5420   -2.4214    8.0334 C   0  0  0  0  0  0  0  0  0  0  0  0
   25.6900   -1.9228   10.6427 C   0  0  0  0  0  0  0  0  0  0  0  0
   27.4185   -2.6211    9.1006 C   0  0  0  0  0  0  0  0  0  0  0  0
   26.9838   -2.3686   10.3979 C   0  0  0  0  0  0  0  0  0  0  0  0
   27.4958   -2.3728   12.3352 H   0  0  0  0  0  0  0  0  0  0  0  0
   23.7721   -4.2467    6.9804 C   0  0  0  0  0  0  0  0  0  0  0  0
   22.9174   -4.6011    8.1904 C   0  0  0  0  0  0  0  0  0  0  0  0
   24.2508   -0.3071    6.6642 C   0  0  0  0  0  0  0  0  0  0  0  0
   25.3244    0.5702    7.2951 C   0  0  0  0  0  0  0  0  0  0  0  0
  3  9  1  0
  3 10  1  0
 11 17  1  0
 11 18  1  0
  1  2  2  0
  1 19  1  0
  1  4  1  0
  2 21  1  0
  2 12  1  0
 19 20  1  0
 21 22  1  0
  4  5  2  0
  4  6  1  0
 12 13  2  0
 12 14  1  0
  5  7  1  0
 13 15  1  0
  6  8  2  0
 14 16  2  0
  7  9  2  0
 15 17  2  0
  8  9  1  0
 16 17  1  0
M  END
> <PUBCHEM_COMPOUND_CID>
448537

> <PUBCHEM_CONFORMER_RMSD>
0.6

> <PUBCHEM_CONFORMER_DIVERSEORDER>
1
3
2

> <PUBCHEM_MMFF94_PARTIAL_CHARGES>
28
1 -0.53
11 -0.15
12 -0.15
13 -0.15
14 -0.15
15 -0.15
16 -0.15
17 -0.15
18 -0.15
19 0.08
2 -0.53
20 0.08
3 -0.17
31 0.15
32 0.15
33 0.15
34 0.15
35 0.15
36 0.15
37 0.15
38 0.15
39 0.45
4 -0.17
40 0.45
5 0.14
6 0.14
7 0.03
8 0.03

> <PUBCHEM_EFFECTIVE_ROTOR_COUNT>
4

> <PUBCHEM_PHARMACOPHORE_FEATURES>
6
1 1 donor
1 10 hydrophobe
1 2 donor
1 9 hydrophobe
6 7 11 13 15 17 19 rings
6 8 12 14 16 18 20 rings

> <PUBCHEM_HEAVY_ATOM_COUNT>
20

> <PUBCHEM_ATOM_DEF_STEREO_COUNT>
0

> <PUBCHEM_ATOM_UDEF_STEREO_COUNT>
0

> <PUBCHEM_BOND_DEF_STEREO_COUNT>
1

> <PUBCHEM_BOND_UDEF_STEREO_COUNT>
0

> <PUBCHEM_ISOTOPIC_ATOM_COUNT>
0

> <PUBCHEM_COMPONENT_COUNT>
1

> <PUBCHEM_CACTVS_TAUTO_COUNT>
3

> <PUBCHEM_CONFORMER_ID>
0006D81900000001

> <PUBCHEM_MMFF94_ENERGY>
60.231

> <PUBCHEM_FEATURE_SELFOVERLAP>
30.447

> <PUBCHEM_SHAPE_FINGERPRINT>
10366900 7 18186514428534874893
104564 63 18339924792832442081
10906281 52 18129397028286092948
11646440 116 18130798871235594657
12592029 89 16950278473467191938
12788726 201 18270697410649816016
13140716 1 18266458895859843337
13533116 47 18340201896197096762
13760787 19 16660644076447957075
14115302 16 18186806919849492430
14341114 176 15647057049052281551
15099037 51 18335139812416525942
15848700 24 18202843262111810220
15848702 151 16988848262958300981
16752209 62 18335696105492573576
16945 1 18410855473013063775
1813 80 18272378572207267076
18186145 218 18338228362096015613
187816 3 18410857663704853992
19141452 34 17131829889222033293
19784866 9 18113613452605694563
200 152 16950282905968490344
20028762 73 18055641861278493167
20600515 1 18340218469921978116
20645477 70 16009301016701038466
21285901 2 17917162606291067244
23175994 123 18333735723499757565
23402539 116 17988639696664490244
23493267 7 17313098635762053785
23557571 272 17489592229515708168
23559900 14 15554438621982335170
266924 87 18194116322357846868
347723 3 18410856551049855057
34934 24 18129105515976021729
3545911 37 15719391732852524422
4072396 5 18261662693185545291
4214541 1 15791727494979709055
465052 167 17240208741576471315
474 4 17917140731779840409
59755656 215 18270402685366324510
633830 44 18342455975941661781
69090 78 17060620005479420895
7226269 152 18410853270196137312
7495541 125 17531535390133293585
77779 3 15719110262139125926
81228 2 18128838385973970688
8272917 22 16660357039657468298
9971528 1 17775283884826915592

> <PUBCHEM_SHAPE_MULTIPOLES>
399.85
10.42
1.74
1.37
0
0
0.06
0
1.28
0
-0.74
0
0
-0.06

> <PUBCHEM_SHAPE_SELFOVERLAP>
850.96

> <PUBCHEM_SHAPE_VOLUME>
224.1

> <PUBCHEM_COORDINATE_TYPE>
2
5
10

> <Energy>
28.3223

> <minimizedAffinity>
-8.59519

> <CNNscore>
0.9339916706

> <CNNaffinity>
8.1023616791

> <CNN_VS>
7.5675382614

> <CNNaffinity_variance>
0.8659348488

$$$$
448537


 22 23  0  0  0  0  0  0  0  0999 V2000
   23.6842   -2.7865    6.5673 C   0  0  0  0  0  0  0  0  0  0  0  0
   24.3267   -1.7441    7.1509 C   0  0  0  0  0  0  0  0  0  0  0  0
   20.1411   -1.9354    2.2774 O   0  0  0  0  0  0  0  0  0  0  0  0
   22.7653   -2.5634    5.4327 C   0  0  0  0  0  0  0  0  0  0  0  0
   23.1734   -1.7950    4.3341 C   0  0  0  0  0  0  0  0  0  0  0  0
   21.4765   -3.1120    5.4483 C   0  0  0  0  0  0  0  0  0  0  0  0
   22.3015   -1.5743    3.2649 C   0  0  0  0  0  0  0  0  0  0  0  0
   20.6060   -2.8916    4.3796 C   0  0  0  0  0  0  0  0  0  0  0  0
   21.0249   -2.1259    3.2987 C   0  0  0  0  0  0  0  0  0  0  0  0
   20.3894   -1.4246    1.5323 H   0  0  0  0  0  0  0  0  0  0  0  0
   27.8483   -2.6318   11.4511 O   0  0  0  0  0  0  0  0  0  0  0  0
   25.2480   -1.9667    8.2842 C   0  0  0  0  0  0  0  0  0  0  0  0
   26.5812   -2.3290    8.0539 C   0  0  0  0  0  0  0  0  0  0  0  0
   24.7902   -1.8260    9.6008 C   0  0  0  0  0  0  0  0  0  0  0  0
   27.4431   -2.5491    9.1296 C   0  0  0  0  0  0  0  0  0  0  0  0
   25.6521   -2.0451   10.6761 C   0  0  0  0  0  0  0  0  0  0  0  0
   26.9730   -2.4061   10.4301 C   0  0  0  0  0  0  0  0  0  0  0  0
   28.7338   -2.8740   11.2642 H   0  0  0  0  0  0  0  0  0  0  0  0
   23.8443   -4.2479    6.9471 C   0  0  0  0  0  0  0  0  0  0  0  0
   22.9502   -4.6651    8.1077 C   0  0  0  0  0  0  0  0  0  0  0  0
   24.2270   -0.2917    6.7199 C   0  0  0  0  0  0  0  0  0  0  0  0
   25.2965    0.5916    7.3494 C   0  0  0  0  0  0  0  0  0  0  0  0
  3  9  1  0
  3 10  1  0
 11 17  1  0
 11 18  1  0
  1  2  2  0
  1 19  1  0
  1  4  1  0
  2 21  1  0
  2 12  1  0
 19 20  1  0
 21 22  1  0
  4  5  2  0
  4  6  1  0
 12 13  2  0
 12 14  1  0
  5  7  1  0
 13 15  1  0
  6  8  2  0
 14 16  2  0
  7  9  2  0
 15 17  2  0
  8  9  1  0
 16 17  1  0
M  END
> <PUBCHEM_COMPOUND_CID>
448537

> <PUBCHEM_CONFORMER_RMSD>
0.6

> <PUBCHEM_CONFORMER_DIVERSEORDER>
1
3
2

> <PUBCHEM_MMFF94_PARTIAL_CHARGES>
28
1 -0.53
11 -0.15
12 -0.15
13 -0.15
14 -0.15
15 -0.15
16 -0.15
17 -0.15
18 -0.15
19 0.08
2 -0.53
20 0.08
3 -0.17
31 0.15
32 0.15
33 0.15
34 0.15
35 0.15
36 0.15
37 0.15
38 0.15
39 0.45
4 -0.17
40 0.45
5 0.14
6 0.14
7 0.03
8 0.03

> <PUBCHEM_EFFECTIVE_ROTOR_COUNT>
4

> <PUBCHEM_PHARMACOPHORE_FEATURES>
6
1 1 donor
1 10 hydrophobe
1 2 donor
1 9 hydrophobe
6 7 11 13 15 17 19 rings
6 8 12 14 16 18 20 rings

> <PUBCHEM_HEAVY_ATOM_COUNT>
20

> <PUBCHEM_ATOM_DEF_STEREO_COUNT>
0

> <PUBCHEM_ATOM_UDEF_STEREO_COUNT>
0

> <PUBCHEM_BOND_DEF_STEREO_COUNT>
1

> <PUBCHEM_BOND_UDEF_STEREO_COUNT>
0

> <PUBCHEM_ISOTOPIC_ATOM_COUNT>
0

> <PUBCHEM_COMPONENT_COUNT>
1

> <PUBCHEM_CACTVS_TAUTO_COUNT>
3

> <PUBCHEM_CONFORMER_ID>
0006D81900000001

> <PUBCHEM_MMFF94_ENERGY>
60.231

> <PUBCHEM_FEATURE_SELFOVERLAP>
30.447

> <PUBCHEM_SHAPE_FINGERPRINT>
10366900 7 18186514428534874893
104564 63 18339924792832442081
10906281 52 18129397028286092948
11646440 116 18130798871235594657
12592029 89 16950278473467191938
12788726 201 18270697410649816016
13140716 1 18266458895859843337
13533116 47 18340201896197096762
13760787 19 16660644076447957075
14115302 16 18186806919849492430
14341114 176 15647057049052281551
15099037 51 18335139812416525942
15848700 24 18202843262111810220
15848702 151 16988848262958300981
16752209 62 18335696105492573576
16945 1 18410855473013063775
1813 80 18272378572207267076
18186145 218 18338228362096015613
187816 3 18410857663704853992
19141452 34 17131829889222033293
19784866 9 18113613452605694563
200 152 16950282905968490344
20028762 73 18055641861278493167
20600515 1 18340218469921978116
20645477 70 16009301016701038466
21285901 2 17917162606291067244
23175994 123 18333735723499757565
23402539 116 17988639696664490244
23493267 7 17313098635762053785
23557571 272 17489592229515708168
23559900 14 15554438621982335170
266924 87 18194116322357846868
347723 3 18410856551049855057
34934 24 18129105515976021729
3545911 37 15719391732852524422
4072396 5 18261662693185545291
4214541 1 15791727494979709055
465052 167 17240208741576471315
474 4 17917140731779840409
59755656 215 18270402685366324510
633830 44 18342455975941661781
69090 78 17060620005479420895
7226269 152 18410853270196137312
7495541 125 17531535390133293585
77779 3 15719110262139125926
81228 2 18128838385973970688
8272917 22 16660357039657468298
9971528 1 17775283884826915592

> <PUBCHEM_SHAPE_MULTIPOLES>
399.85
10.42
1.74
1.37
0
0
0.06
0
1.28
0
-0.74
0
0
-0.06

> <PUBCHEM_SHAPE_SELFOVERLAP>
850.96

> <PUBCHEM_SHAPE_VOLUME>
224.1

> <PUBCHEM_COORDINATE_TYPE>
2
5
10

> <Energy>
28.3223

> <minimizedAffinity>
-8.56985

> <CNNscore>
0.9320241809

> <CNNaffinity>
8.1657276154

> <CNN_VS>
7.6106557846

> <CNNaffinity_variance>
0.9993636608

$$$$
448537


 22 23  0  0  0  0  0  0  0  0999 V2000
   24.3227   -1.7649    7.1220 C   0  0  0  0  0  0  0  0  0  0  0  0
   23.6715   -2.8119    6.5567 C   0  0  0  0  0  0  0  0  0  0  0  0
   27.8994   -2.5566   11.3953 O   0  0  0  0  0  0  0  0  0  0  0  0
   25.2508   -1.9777    8.2512 C   0  0  0  0  0  0  0  0  0  0  0  0
   24.8103   -1.8020    9.5699 C   0  0  0  0  0  0  0  0  0  0  0  0
   26.5800   -2.3499    8.0132 C   0  0  0  0  0  0  0  0  0  0  0  0
   25.6899   -1.9927   10.6385 C   0  0  0  0  0  0  0  0  0  0  0  0
   27.4582   -2.5408    9.0814 C   0  0  0  0  0  0  0  0  0  0  0  0
   27.0068   -2.3608   10.3828 C   0  0  0  0  0  0  0  0  0  0  0  0
   27.6300   -2.4442   12.2856 H   0  0  0  0  0  0  0  0  0  0  0  0
   20.1481   -1.9609    2.2504 O   0  0  0  0  0  0  0  0  0  0  0  0
   22.7449   -2.6001    5.4255 C   0  0  0  0  0  0  0  0  0  0  0  0
   23.1283   -1.8127    4.3324 C   0  0  0  0  0  0  0  0  0  0  0  0
   21.4693   -3.1793    5.4433 C   0  0  0  0  0  0  0  0  0  0  0  0
   22.2435   -1.6073    3.2725 C   0  0  0  0  0  0  0  0  0  0  0  0
   20.5852   -2.9747    4.3833 C   0  0  0  0  0  0  0  0  0  0  0  0
   20.9810   -2.1884    3.3059 C   0  0  0  0  0  0  0  0  0  0  0  0
   20.4338   -1.4284    1.5344 H   0  0  0  0  0  0  0  0  0  0  0  0
   24.2289   -0.3180    6.6712 C   0  0  0  0  0  0  0  0  0  0  0  0
   25.2600    0.5835    7.3377 C   0  0  0  0  0  0  0  0  0  0  0  0
   23.8256   -4.2684    6.9565 C   0  0  0  0  0  0  0  0  0  0  0  0
   22.9421   -4.6601    8.1338 C   0  0  0  0  0  0  0  0  0  0  0  0
  3  9  1  0
  3 10  1  0
 11 17  1  0
 11 18  1  0
  1  2  2  0
  1 19  1  0
  1  4  1  0
  2 21  1  0
  2 12  1  0
 19 20  1  0
 21 22  1  0
  4  5  2  0
  4  6  1  0
 12 13  2  0
 12 14  1  0
  5  7  1  0
 13 15  1  0
  6  8  2  0
 14 16  2  0
  7  9  2  0
 15 17  2  0
  8  9  1  0
 16 17  1  0
M  END
> <PUBCHEM_COMPOUND_CID>
448537

> <PUBCHEM_CONFORMER_RMSD>
0.6

> <PUBCHEM_CONFORMER_DIVERSEORDER>
1
3
2

> <PUBCHEM_MMFF94_PARTIAL_CHARGES>
28
1 -0.53
11 -0.15
12 -0.15
13 -0.15
14 -0.15
15 -0.15
16 -0.15
17 -0.15
18 -0.15
19 0.08
2 -0.53
20 0.08
3 -0.17
31 0.15
32 0.15
33 0.15
34 0.15
35 0.15
36 0.15
37 0.15
38 0.15
39 0.45
4 -0.17
40 0.45
5 0.14
6 0.14
7 0.03
8 0.03

> <PUBCHEM_EFFECTIVE_ROTOR_COUNT>
4

> <PUBCHEM_PHARMACOPHORE_FEATURES>
6
1 1 donor
1 10 hydrophobe
1 2 donor
1 9 hydrophobe
6 7 11 13 15 17 19 rings
6 8 12 14 16 18 20 rings

> <PUBCHEM_HEAVY_ATOM_COUNT>
20

> <PUBCHEM_ATOM_DEF_STEREO_COUNT>
0

> <PUBCHEM_ATOM_UDEF_STEREO_COUNT>
0

> <PUBCHEM_BOND_DEF_STEREO_COUNT>
1

> <PUBCHEM_BOND_UDEF_STEREO_COUNT>
0

> <PUBCHEM_ISOTOPIC_ATOM_COUNT>
0

> <PUBCHEM_COMPONENT_COUNT>
1

> <PUBCHEM_CACTVS_TAUTO_COUNT>
3

> <PUBCHEM_CONFORMER_ID>
0006D81900000001

> <PUBCHEM_MMFF94_ENERGY>
60.231

> <PUBCHEM_FEATURE_SELFOVERLAP>
30.447

> <PUBCHEM_SHAPE_FINGERPRINT>
10366900 7 18186514428534874893
104564 63 18339924792832442081
10906281 52 18129397028286092948
11646440 116 18130798871235594657
12592029 89 16950278473467191938
12788726 201 18270697410649816016
13140716 1 18266458895859843337
13533116 47 18340201896197096762
13760787 19 16660644076447957075
14115302 16 18186806919849492430
14341114 176 15647057049052281551
15099037 51 18335139812416525942
15848700 24 18202843262111810220
15848702 151 16988848262958300981
16752209 62 18335696105492573576
16945 1 18410855473013063775
1813 80 18272378572207267076
18186145 218 18338228362096015613
187816 3 18410857663704853992
19141452 34 17131829889222033293
19784866 9 18113613452605694563
200 152 16950282905968490344
20028762 73 18055641861278493167
20600515 1 18340218469921978116
20645477 70 16009301016701038466
21285901 2 17917162606291067244
23175994 123 18333735723499757565
23402539 116 17988639696664490244
23493267 7 17313098635762053785
23557571 272 17489592229515708168
23559900 14 15554438621982335170
266924 87 18194116322357846868
347723 3 18410856551049855057
34934 24 18129105515976021729
3545911 37 15719391732852524422
4072396 5 18261662693185545291
4214541 1 15791727494979709055
465052 167 17240208741576471315
474 4 17917140731779840409
59755656 215 18270402685366324510
633830 44 18342455975941661781
69090 78 17060620005479420895
7226269 152 18410853270196137312
7495541 125 17531535390133293585
77779 3 15719110262139125926
81228 2 18128838385973970688
8272917 22 16660357039657468298
9971528 1 17775283884826915592

> <PUBCHEM_SHAPE_MULTIPOLES>
399.85
10.42
1.74
1.37
0
0
0.06
0
1.28
0
-0.74
0
0
-0.06

> <PUBCHEM_SHAPE_SELFOVERLAP>
850.96

> <PUBCHEM_SHAPE_VOLUME>
224.1

> <PUBCHEM_COORDINATE_TYPE>
2
5
10

> <Energy>
28.3223

> <minimizedAffinity>
-8.64787

> <CNNscore>
0.9306848049

> <CNNaffinity>
8.0990324020

> <CNN_VS>
7.5376462936

> <CNNaffinity_variance>
0.8832904696

$$$$
448537


 22 23  0  0  0  0  0  0  0  0999 V2000
   24.3104   -1.7738    7.1179 C   0  0  0  0  0  0  0  0  0  0  0  0
   23.6172   -2.8073    6.5781 C   0  0  0  0  0  0  0  0  0  0  0  0
   27.8716   -2.6068   11.3963 O   0  0  0  0  0  0  0  0  0  0  0  0
   25.2343   -1.9971    8.2485 C   0  0  0  0  0  0  0  0  0  0  0  0
   24.8015   -1.7904    9.5652 C   0  0  0  0  0  0  0  0  0  0  0  0
   26.5520   -2.4102    8.0137 C   0  0  0  0  0  0  0  0  0  0  0  0
   25.6775   -1.9909   10.6351 C   0  0  0  0  0  0  0  0  0  0  0  0
   27.4265   -2.6109    9.0830 C   0  0  0  0  0  0  0  0  0  0  0  0
   26.9829   -2.3999   10.3825 C   0  0  0  0  0  0  0  0  0  0  0  0
   27.6072   -2.4743   12.2853 H   0  0  0  0  0  0  0  0  0  0  0  0
   20.0974   -2.0052    2.2596 O   0  0  0  0  0  0  0  0  0  0  0  0
   22.6948   -2.5852    5.4456 C   0  0  0  0  0  0  0  0  0  0  0  0
   21.4285   -3.1835    5.4341 C   0  0  0  0  0  0  0  0  0  0  0  0
   23.0856   -1.7799    4.3678 C   0  0  0  0  0  0  0  0  0  0  0  0
   20.5666   -2.9788    4.3554 C   0  0  0  0  0  0  0  0  0  0  0  0
   22.2236   -1.5744    3.2898 C   0  0  0  0  0  0  0  0  0  0  0  0
   20.9700   -2.1776    3.2933 C   0  0  0  0  0  0  0  0  0  0  0  0
   19.2576   -2.4202    2.2812 H   0  0  0  0  0  0  0  0  0  0  0  0
   24.2703   -0.3347    6.6352 C   0  0  0  0  0  0  0  0  0  0  0  0
   25.2572    0.5678    7.3644 C   0  0  0  0  0  0  0  0  0  0  0  0
   23.7171   -4.2594    7.0098 C   0  0  0  0  0  0  0  0  0  0  0  0
   22.8222   -4.5913    8.1969 C   0  0  0  0  0  0  0  0  0  0  0  0
  3  9  1  0
  3 10  1  0
 11 17  1  0
 11 18  1  0
  1  2  2  0
  1 19  1  0
  1  4  1  0
  2 21  1  0
  2 12  1  0
 19 20  1  0
 21 22  1  0
  4  5  2  0
  4  6  1  0
 12 13  2  0
 12 14  1  0
  5  7  1  0
 13 15  1  0
  6  8  2  0
 14 16  2  0
  7  9  2  0
 15 17  2  0
  8  9  1  0
 16 17  1  0
M  END
> <PUBCHEM_COMPOUND_CID>
448537

> <PUBCHEM_CONFORMER_RMSD>
0.6

> <PUBCHEM_CONFORMER_DIVERSEORDER>
1
3
2

> <PUBCHEM_MMFF94_PARTIAL_CHARGES>
28
1 -0.53
11 -0.15
12 -0.15
13 -0.15
14 -0.15
15 -0.15
16 -0.15
17 -0.15
18 -0.15
19 0.08
2 -0.53
20 0.08
3 -0.17
31 0.15
32 0.15
33 0.15
34 0.15
35 0.15
36 0.15
37 0.15
38 0.15
39 0.45
4 -0.17
40 0.45
5 0.14
6 0.14
7 0.03
8 0.03

> <PUBCHEM_EFFECTIVE_ROTOR_COUNT>
4

> <PUBCHEM_PHARMACOPHORE_FEATURES>
6
1 1 donor
1 10 hydrophobe
1 2 donor
1 9 hydrophobe
6 7 11 13 15 17 19 rings
6 8 12 14 16 18 20 rings

> <PUBCHEM_HEAVY_ATOM_COUNT>
20

> <PUBCHEM_ATOM_DEF_STEREO_COUNT>
0

> <PUBCHEM_ATOM_UDEF_STEREO_COUNT>
0

> <PUBCHEM_BOND_DEF_STEREO_COUNT>
1

> <PUBCHEM_BOND_UDEF_STEREO_COUNT>
0

> <PUBCHEM_ISOTOPIC_ATOM_COUNT>
0

> <PUBCHEM_COMPONENT_COUNT>
1

> <PUBCHEM_CACTVS_TAUTO_COUNT>
3

> <PUBCHEM_CONFORMER_ID>
0006D81900000001

> <PUBCHEM_MMFF94_ENERGY>
60.231

> <PUBCHEM_FEATURE_SELFOVERLAP>
30.447

> <PUBCHEM_SHAPE_FINGERPRINT>
10366900 7 18186514428534874893
104564 63 18339924792832442081
10906281 52 18129397028286092948
11646440 116 18130798871235594657
12592029 89 16950278473467191938
12788726 201 18270697410649816016
13140716 1 18266458895859843337
13533116 47 18340201896197096762
13760787 19 16660644076447957075
14115302 16 18186806919849492430
14341114 176 15647057049052281551
15099037 51 18335139812416525942
15848700 24 18202843262111810220
15848702 151 16988848262958300981
16752209 62 18335696105492573576
16945 1 18410855473013063775
1813 80 18272378572207267076
18186145 218 18338228362096015613
187816 3 18410857663704853992
19141452 34 17131829889222033293
19784866 9 18113613452605694563
200 152 16950282905968490344
20028762 73 18055641861278493167
20600515 1 18340218469921978116
20645477 70 16009301016701038466
21285901 2 17917162606291067244
23175994 123 18333735723499757565
23402539 116 17988639696664490244
23493267 7 17313098635762053785
23557571 272 17489592229515708168
23559900 14 15554438621982335170
266924 87 18194116322357846868
347723 3 18410856551049855057
34934 24 18129105515976021729
3545911 37 15719391732852524422
4072396 5 18261662693185545291
4214541 1 15791727494979709055
465052 167 17240208741576471315
474 4 17917140731779840409
59755656 215 18270402685366324510
633830 44 18342455975941661781
69090 78 17060620005479420895
7226269 152 18410853270196137312
7495541 125 17531535390133293585
77779 3 15719110262139125926
81228 2 18128838385973970688
8272917 22 16660357039657468298
9971528 1 17775283884826915592

> <PUBCHEM_SHAPE_MULTIPOLES>
399.85
10.42
1.74
1.37
0
0
0.06
0
1.28
0
-0.74
0
0
-0.06

> <PUBCHEM_SHAPE_SELFOVERLAP>
850.96

> <PUBCHEM_SHAPE_VOLUME>
224.1

> <PUBCHEM_COORDINATE_TYPE>
2
5
10

> <Energy>
28.3223

> <minimizedAffinity>
-8.61790

> <CNNscore>
0.9302168489

> <CNNaffinity>
8.0724554062

> <CNN_VS>
7.5091338158

> <CNNaffinity_variance>
0.7896838188

$$$$
448537


 22 23  0  0  0  0  0  0  0  0999 V2000
   23.6759   -2.8090    6.5558 C   0  0  0  0  0  0  0  0  0  0  0  0
   24.2909   -1.7668    7.1684 C   0  0  0  0  0  0  0  0  0  0  0  0
   20.1816   -1.9316    2.2314 O   0  0  0  0  0  0  0  0  0  0  0  0
   22.7481   -2.5784    5.4299 C   0  0  0  0  0  0  0  0  0  0  0  0
   21.4583   -3.1258    5.4546 C   0  0  0  0  0  0  0  0  0  0  0  0
   23.1519   -1.8171    4.3257 C   0  0  0  0  0  0  0  0  0  0  0  0
   20.5832   -2.9173    4.3854 C   0  0  0  0  0  0  0  0  0  0  0  0
   22.2770   -1.6088    3.2581 C   0  0  0  0  0  0  0  0  0  0  0  0
   21.0022   -2.1596    3.2967 C   0  0  0  0  0  0  0  0  0  0  0  0
   19.3149   -2.2876    2.2231 H   0  0  0  0  0  0  0  0  0  0  0  0
   27.8245   -2.6030   11.4692 O   0  0  0  0  0  0  0  0  0  0  0  0
   25.2211   -1.9969    8.2930 C   0  0  0  0  0  0  0  0  0  0  0  0
   24.7993   -1.8001    9.6141 C   0  0  0  0  0  0  0  0  0  0  0  0
   26.5380   -2.4053    8.0442 C   0  0  0  0  0  0  0  0  0  0  0  0
   25.6868   -2.0082   10.6712 C   0  0  0  0  0  0  0  0  0  0  0  0
   27.4249   -2.6142    9.1010 C   0  0  0  0  0  0  0  0  0  0  0  0
   26.9905   -2.4125   10.4072 C   0  0  0  0  0  0  0  0  0  0  0  0
   27.5124   -2.4619   12.3413 H   0  0  0  0  0  0  0  0  0  0  0  0
   23.8773   -4.2760    6.8924 C   0  0  0  0  0  0  0  0  0  0  0  0
   23.0615   -4.7303    8.0958 C   0  0  0  0  0  0  0  0  0  0  0  0
   24.1500   -0.3057    6.7804 C   0  0  0  0  0  0  0  0  0  0  0  0
   25.3653    0.5312    7.1581 C   0  0  0  0  0  0  0  0  0  0  0  0
  3  9  1  0
  3 10  1  0
 11 17  1  0
 11 18  1  0
  1  2  2  0
  1 19  1  0
  1  4  1  0
  2 21  1  0
  2 12  1  0
 19 20  1  0
 21 22  1  0
  4  5  2  0
  4  6  1  0
 12 13  2  0
 12 14  1  0
  5  7  1  0
 13 15  1  0
  6  8  2  0
 14 16  2  0
  7  9  2  0
 15 17  2  0
  8  9  1  0
 16 17  1  0
M  END
> <PUBCHEM_COMPOUND_CID>
448537

> <PUBCHEM_CONFORMER_RMSD>
0.6

> <PUBCHEM_CONFORMER_DIVERSEORDER>
1
3
2

> <PUBCHEM_MMFF94_PARTIAL_CHARGES>
28
1 -0.53
11 -0.15
12 -0.15
13 -0.15
14 -0.15
15 -0.15
16 -0.15
17 -0.15
18 -0.15
19 0.08
2 -0.53
20 0.08
3 -0.17
31 0.15
32 0.15
33 0.15
34 0.15
35 0.15
36 0.15
37 0.15
38 0.15
39 0.45
4 -0.17
40 0.45
5 0.14
6 0.14
7 0.03
8 0.03

> <PUBCHEM_EFFECTIVE_ROTOR_COUNT>
4

> <PUBCHEM_PHARMACOPHORE_FEATURES>
6
1 1 donor
1 10 hydrophobe
1 2 donor
1 9 hydrophobe
6 7 11 13 15 17 19 rings
6 8 12 14 16 18 20 rings

> <PUBCHEM_HEAVY_ATOM_COUNT>
20

> <PUBCHEM_ATOM_DEF_STEREO_COUNT>
0

> <PUBCHEM_ATOM_UDEF_STEREO_COUNT>
0

> <PUBCHEM_BOND_DEF_STEREO_COUNT>
1

> <PUBCHEM_BOND_UDEF_STEREO_COUNT>
0

> <PUBCHEM_ISOTOPIC_ATOM_COUNT>
0

> <PUBCHEM_COMPONENT_COUNT>
1

> <PUBCHEM_CACTVS_TAUTO_COUNT>
3

> <PUBCHEM_CONFORMER_ID>
0006D81900000001

> <PUBCHEM_MMFF94_ENERGY>
60.231

> <PUBCHEM_FEATURE_SELFOVERLAP>
30.447

> <PUBCHEM_SHAPE_FINGERPRINT>
10366900 7 18186514428534874893
104564 63 18339924792832442081
10906281 52 18129397028286092948
11646440 116 18130798871235594657
12592029 89 16950278473467191938
12788726 201 18270697410649816016
13140716 1 18266458895859843337
13533116 47 18340201896197096762
13760787 19 16660644076447957075
14115302 16 18186806919849492430
14341114 176 15647057049052281551
15099037 51 18335139812416525942
15848700 24 18202843262111810220
15848702 151 16988848262958300981
16752209 62 18335696105492573576
16945 1 18410855473013063775
1813 80 18272378572207267076
18186145 218 18338228362096015613
187816 3 18410857663704853992
19141452 34 17131829889222033293
19784866 9 18113613452605694563
200 152 16950282905968490344
20028762 73 18055641861278493167
20600515 1 18340218469921978116
20645477 70 16009301016701038466
21285901 2 17917162606291067244
23175994 123 18333735723499757565
23402539 116 17988639696664490244
23493267 7 17313098635762053785
23557571 272 17489592229515708168
23559900 14 15554438621982335170
266924 87 18194116322357846868
347723 3 18410856551049855057
34934 24 18129105515976021729
3545911 37 15719391732852524422
4072396 5 18261662693185545291
4214541 1 15791727494979709055
465052 167 17240208741576471315
474 4 17917140731779840409
59755656 215 18270402685366324510
633830 44 18342455975941661781
69090 78 17060620005479420895
7226269 152 18410853270196137312
7495541 125 17531535390133293585
77779 3 15719110262139125926
81228 2 18128838385973970688
8272917 22 16660357039657468298
9971528 1 17775283884826915592

> <PUBCHEM_SHAPE_MULTIPOLES>
399.85
10.42
1.74
1.37
0
0
0.06
0
1.28
0
-0.74
0
0
-0.06

> <PUBCHEM_SHAPE_SELFOVERLAP>
850.96

> <PUBCHEM_SHAPE_VOLUME>
224.1

> <PUBCHEM_COORDINATE_TYPE>
2
5
10

> <Energy>
28.3223

> <minimizedAffinity>
-8.47805

> <CNNscore>
0.9266968369

> <CNNaffinity>
8.0689401627

> <CNN_VS>
7.4774613380

> <CNNaffinity_variance>
0.8586880565

$$$$
448537


 22 23  0  0  0  0  0  0  0  0999 V2000
   23.8630   -2.1951    6.5710 C   0  0  0  0  0  0  0  0  0  0  0  0
   23.8283   -2.9444    7.7012 C   0  0  0  0  0  0  0  0  0  0  0  0
   19.7707   -2.5671    2.7244 O   0  0  0  0  0  0  0  0  0  0  0  0
   22.7795   -2.2910    5.5717 C   0  0  0  0  0  0  0  0  0  0  0  0
   21.5613   -2.8971    5.9071 C   0  0  0  0  0  0  0  0  0  0  0  0
   22.9631   -1.7835    4.2791 C   0  0  0  0  0  0  0  0  0  0  0  0
   20.5394   -2.9980    4.9596 C   0  0  0  0  0  0  0  0  0  0  0  0
   21.9415   -1.8841    3.3331 C   0  0  0  0  0  0  0  0  0  0  0  0
   20.7403   -2.4895    3.6805 C   0  0  0  0  0  0  0  0  0  0  0  0
   18.9479   -2.9686    2.9232 H   0  0  0  0  0  0  0  0  0  0  0  0
   27.9524   -2.6183   11.5179 O   0  0  0  0  0  0  0  0  0  0  0  0
   24.9104   -2.8471    8.7024 C   0  0  0  0  0  0  0  0  0  0  0  0
   26.0987   -3.5693    8.5350 C   0  0  0  0  0  0  0  0  0  0  0  0
   24.7506   -2.0368    9.8341 C   0  0  0  0  0  0  0  0  0  0  0  0
   27.1122   -3.4817    9.4908 C   0  0  0  0  0  0  0  0  0  0  0  0
   25.7642   -1.9485   10.7891 C   0  0  0  0  0  0  0  0  0  0  0  0
   26.9376   -2.6738   10.6086 C   0  0  0  0  0  0  0  0  0  0  0  0
   28.7347   -3.1145   11.3778 H   0  0  0  0  0  0  0  0  0  0  0  0
   24.9346   -1.1795    6.2163 C   0  0  0  0  0  0  0  0  0  0  0  0
   24.7522    0.1549    6.9278 C   0  0  0  0  0  0  0  0  0  0  0  0
   22.7169   -3.9017    8.0928 C   0  0  0  0  0  0  0  0  0  0  0  0
   23.2006   -5.3349    8.2728 C   0  0  0  0  0  0  0  0  0  0  0  0
  3  9  1  0
  3 10  1  0
 11 17  1  0
 11 18  1  0
  1  2  2  0
  1 19  1  0
  1  4  1  0
  2 21  1  0
  2 12  1  0
 19 20  1  0
 21 22  1  0
  4  5  2  0
  4  6  1  0
 12 13  2  0
 12 14  1  0
  5  7  1  0
 13 15  1  0
  6  8  2  0
 14 16  2  0
  7  9  2  0
 15 17  2  0
  8  9  1  0
 16 17  1  0
M  END
> <PUBCHEM_COMPOUND_CID>
448537

> <PUBCHEM_CONFORMER_RMSD>
0.6

> <PUBCHEM_CONFORMER_DIVERSEORDER>
1
3
2

> <PUBCHEM_MMFF94_PARTIAL_CHARGES>
28
1 -0.53
11 -0.15
12 -0.15
13 -0.15
14 -0.15
15 -0.15
16 -0.15
17 -0.15
18 -0.15
19 0.08
2 -0.53
20 0.08
3 -0.17
31 0.15
32 0.15
33 0.15
34 0.15
35 0.15
36 0.15
37 0.15
38 0.15
39 0.45
4 -0.17
40 0.45
5 0.14
6 0.14
7 0.03
8 0.03

> <PUBCHEM_EFFECTIVE_ROTOR_COUNT>
4

> <PUBCHEM_PHARMACOPHORE_FEATURES>
6
1 1 donor
1 10 hydrophobe
1 2 donor
1 9 hydrophobe
6 7 11 13 15 17 19 rings
6 8 12 14 16 18 20 rings

> <PUBCHEM_HEAVY_ATOM_COUNT>
20

> <PUBCHEM_ATOM_DEF_STEREO_COUNT>
0

> <PUBCHEM_ATOM_UDEF_STEREO_COUNT>
0

> <PUBCHEM_BOND_DEF_STEREO_COUNT>
1

> <PUBCHEM_BOND_UDEF_STEREO_COUNT>
0

> <PUBCHEM_ISOTOPIC_ATOM_COUNT>
0

> <PUBCHEM_COMPONENT_COUNT>
1

> <PUBCHEM_CACTVS_TAUTO_COUNT>
3

> <PUBCHEM_CONFORMER_ID>
0006D81900000001

> <PUBCHEM_MMFF94_ENERGY>
60.231

> <PUBCHEM_FEATURE_SELFOVERLAP>
30.447

> <PUBCHEM_SHAPE_FINGERPRINT>
10366900 7 18186514428534874893
104564 63 18339924792832442081
10906281 52 18129397028286092948
11646440 116 18130798871235594657
12592029 89 16950278473467191938
12788726 201 18270697410649816016
13140716 1 18266458895859843337
13533116 47 18340201896197096762
13760787 19 16660644076447957075
14115302 16 18186806919849492430
14341114 176 15647057049052281551
15099037 51 18335139812416525942
15848700 24 18202843262111810220
15848702 151 16988848262958300981
16752209 62 18335696105492573576
16945 1 18410855473013063775
1813 80 18272378572207267076
18186145 218 18338228362096015613
187816 3 18410857663704853992
19141452 34 17131829889222033293
19784866 9 18113613452605694563
200 152 16950282905968490344
20028762 73 18055641861278493167
20600515 1 18340218469921978116
20645477 70 16009301016701038466
21285901 2 17917162606291067244
23175994 123 18333735723499757565
23402539 116 17988639696664490244
23493267 7 17313098635762053785
23557571 272 17489592229515708168
23559900 14 15554438621982335170
266924 87 18194116322357846868
347723 3 18410856551049855057
34934 24 18129105515976021729
3545911 37 15719391732852524422
4072396 5 18261662693185545291
4214541 1 15791727494979709055
465052 167 17240208741576471315
474 4 17917140731779840409
59755656 215 18270402685366324510
633830 44 18342455975941661781
69090 78 17060620005479420895
7226269 152 18410853270196137312
7495541 125 17531535390133293585
77779 3 15719110262139125926
81228 2 18128838385973970688
8272917 22 16660357039657468298
9971528 1 17775283884826915592

> <PUBCHEM_SHAPE_MULTIPOLES>
399.85
10.42
1.74
1.37
0
0
0.06
0
1.28
0
-0.74
0
0
-0.06

> <PUBCHEM_SHAPE_SELFOVERLAP>
850.96

> <PUBCHEM_SHAPE_VOLUME>
224.1

> <PUBCHEM_COORDINATE_TYPE>
2
5
10

> <Energy>
28.3223

> <minimizedAffinity>
-8.25216

> <CNNscore>
0.9221147895

> <CNNaffinity>
8.0127782822

> <CNN_VS>
7.3887014389

> <CNNaffinity_variance>
0.6214773059

$$$$
448537


 22 23  0  0  0  0  0  0  0  0999 V2000
   23.9093   -2.2685    6.4380 C   0  0  0  0  0  0  0  0  0  0  0  0
   23.7111   -2.7573    7.6877 C   0  0  0  0  0  0  0  0  0  0  0  0
   19.7831   -2.5320    2.6189 O   0  0  0  0  0  0  0  0  0  0  0  0
   22.8356   -2.3340    5.4258 C   0  0  0  0  0  0  0  0  0  0  0  0
   22.8272   -1.4399    4.3467 C   0  0  0  0  0  0  0  0  0  0  0  0
   21.8137   -3.2851    5.5398 C   0  0  0  0  0  0  0  0  0  0  0  0
   21.8063   -1.4938    3.3943 C   0  0  0  0  0  0  0  0  0  0  0  0
   20.7944   -3.3388    4.5876 C   0  0  0  0  0  0  0  0  0  0  0  0
   20.7991   -2.4443    3.5247 C   0  0  0  0  0  0  0  0  0  0  0  0
   19.7540   -1.9450    1.8893 H   0  0  0  0  0  0  0  0  0  0  0  0
   27.8114   -2.4613   11.5324 O   0  0  0  0  0  0  0  0  0  0  0  0
   24.7837   -2.6898    8.7014 C   0  0  0  0  0  0  0  0  0  0  0  0
   24.9593   -1.5338    9.4725 C   0  0  0  0  0  0  0  0  0  0  0  0
   25.6410   -3.7814    8.8920 C   0  0  0  0  0  0  0  0  0  0  0  0
   25.9821   -1.4726   10.4204 C   0  0  0  0  0  0  0  0  0  0  0  0
   26.6630   -3.7206    9.8402 C   0  0  0  0  0  0  0  0  0  0  0  0
   26.8248   -2.5641   10.5966 C   0  0  0  0  0  0  0  0  0  0  0  0
   27.9036   -1.6737   12.0314 H   0  0  0  0  0  0  0  0  0  0  0  0
   25.1731   -1.5852    5.9464 C   0  0  0  0  0  0  0  0  0  0  0  0
   26.4468   -2.2856    6.4016 C   0  0  0  0  0  0  0  0  0  0  0  0
   22.4206   -3.3693    8.2026 C   0  0  0  0  0  0  0  0  0  0  0  0
   22.5941   -4.8007    8.6937 C   0  0  0  0  0  0  0  0  0  0  0  0
  3  9  1  0
  3 10  1  0
 11 17  1  0
 11 18  1  0
  1  2  2  0
  1 19  1  0
  1  4  1  0
  2 21  1  0
  2 12  1  0
 19 20  1  0
 21 22  1  0
  4  5  2  0
  4  6  1  0
 12 13  2  0
 12 14  1  0
  5  7  1  0
 13 15  1  0
  6  8  2  0
 14 16  2  0
  7  9  2  0
 15 17  2  0
  8  9  1  0
 16 17  1  0
M  END
> <PUBCHEM_COMPOUND_CID>
448537

> <PUBCHEM_CONFORMER_RMSD>
0.6

> <PUBCHEM_CONFORMER_DIVERSEORDER>
1
3
2

> <PUBCHEM_MMFF94_PARTIAL_CHARGES>
28
1 -0.53
11 -0.15
12 -0.15
13 -0.15
14 -0.15
15 -0.15
16 -0.15
17 -0.15
18 -0.15
19 0.08
2 -0.53
20 0.08
3 -0.17
31 0.15
32 0.15
33 0.15
34 0.15
35 0.15
36 0.15
37 0.15
38 0.15
39 0.45
4 -0.17
40 0.45
5 0.14
6 0.14
7 0.03
8 0.03

> <PUBCHEM_EFFECTIVE_ROTOR_COUNT>
4

> <PUBCHEM_PHARMACOPHORE_FEATURES>
6
1 1 donor
1 10 hydrophobe
1 2 donor
1 9 hydrophobe
6 7 11 13 15 17 19 rings
6 8 12 14 16 18 20 rings

> <PUBCHEM_HEAVY_ATOM_COUNT>
20

> <PUBCHEM_ATOM_DEF_STEREO_COUNT>
0

> <PUBCHEM_ATOM_UDEF_STEREO_COUNT>
0

> <PUBCHEM_BOND_DEF_STEREO_COUNT>
1

> <PUBCHEM_BOND_UDEF_STEREO_COUNT>
0

> <PUBCHEM_ISOTOPIC_ATOM_COUNT>
0

> <PUBCHEM_COMPONENT_COUNT>
1

> <PUBCHEM_CACTVS_TAUTO_COUNT>
3

> <PUBCHEM_CONFORMER_ID>
0006D81900000001

> <PUBCHEM_MMFF94_ENERGY>
60.231

> <PUBCHEM_FEATURE_SELFOVERLAP>
30.447

> <PUBCHEM_SHAPE_FINGERPRINT>
10366900 7 18186514428534874893
104564 63 18339924792832442081
10906281 52 18129397028286092948
11646440 116 18130798871235594657
12592029 89 16950278473467191938
12788726 201 18270697410649816016
13140716 1 18266458895859843337
13533116 47 18340201896197096762
13760787 19 16660644076447957075
14115302 16 18186806919849492430
14341114 176 15647057049052281551
15099037 51 18335139812416525942
15848700 24 18202843262111810220
15848702 151 16988848262958300981
16752209 62 18335696105492573576
16945 1 18410855473013063775
1813 80 18272378572207267076
18186145 218 18338228362096015613
187816 3 18410857663704853992
19141452 34 17131829889222033293
19784866 9 18113613452605694563
200 152 16950282905968490344
20028762 73 18055641861278493167
20600515 1 18340218469921978116
20645477 70 16009301016701038466
21285901 2 17917162606291067244
23175994 123 18333735723499757565
23402539 116 17988639696664490244
23493267 7 17313098635762053785
23557571 272 17489592229515708168
23559900 14 15554438621982335170
266924 87 18194116322357846868
347723 3 18410856551049855057
34934 24 18129105515976021729
3545911 37 15719391732852524422
4072396 5 18261662693185545291
4214541 1 15791727494979709055
465052 167 17240208741576471315
474 4 17917140731779840409
59755656 215 18270402685366324510
633830 44 18342455975941661781
69090 78 17060620005479420895
7226269 152 18410853270196137312
7495541 125 17531535390133293585
77779 3 15719110262139125926
81228 2 18128838385973970688
8272917 22 16660357039657468298
9971528 1 17775283884826915592

> <PUBCHEM_SHAPE_MULTIPOLES>
399.85
10.42
1.74
1.37
0
0
0.06
0
1.28
0
-0.74
0
0
-0.06

> <PUBCHEM_SHAPE_SELFOVERLAP>
850.96

> <PUBCHEM_SHAPE_VOLUME>
224.1

> <PUBCHEM_COORDINATE_TYPE>
2
5
10

> <Energy>
28.3223

> <minimizedAffinity>
-8.02355

> <CNNscore>
0.7828149199

> <CNNaffinity>
7.8961791992

> <CNN_VS>
6.1812467575

> <CNNaffinity_variance>
0.7312551141

$$$$
448537


 22 23  0  0  0  0  0  0  0  0999 V2000
   23.6510   -2.7162    7.7785 C   0  0  0  0  0  0  0  0  0  0  0  0
   23.8787   -2.2541    6.5237 C   0  0  0  0  0  0  0  0  0  0  0  0
   27.7133   -2.4989   11.6685 O   0  0  0  0  0  0  0  0  0  0  0  0
   24.7089   -2.6510    8.8072 C   0  0  0  0  0  0  0  0  0  0  0  0
   24.8967   -1.4798    9.5535 C   0  0  0  0  0  0  0  0  0  0  0  0
   25.5373   -3.7562    9.0405 C   0  0  0  0  0  0  0  0  0  0  0  0
   25.9039   -1.4131   10.5196 C   0  0  0  0  0  0  0  0  0  0  0  0
   26.5430   -3.6891   10.0062 C   0  0  0  0  0  0  0  0  0  0  0  0
   26.7177   -2.5202   10.7364 C   0  0  0  0  0  0  0  0  0  0  0  0
   27.8600   -1.7275   12.1796 H   0  0  0  0  0  0  0  0  0  0  0  0
   19.8404   -2.4481    2.6074 O   0  0  0  0  0  0  0  0  0  0  0  0
   22.8201   -2.3166    5.4948 C   0  0  0  0  0  0  0  0  0  0  0  0
   22.8598   -1.4650    4.3836 C   0  0  0  0  0  0  0  0  0  0  0  0
   21.7614   -3.2243    5.6293 C   0  0  0  0  0  0  0  0  0  0  0  0
   21.8502   -1.5215    3.4213 C   0  0  0  0  0  0  0  0  0  0  0  0
   20.7526   -3.2814    4.6669 C   0  0  0  0  0  0  0  0  0  0  0  0
   20.8061   -2.4272    3.5701 C   0  0  0  0  0  0  0  0  0  0  0  0
   19.8949   -1.8646    1.8764 H   0  0  0  0  0  0  0  0  0  0  0  0
   22.3397   -3.2905    8.2846 C   0  0  0  0  0  0  0  0  0  0  0  0
   22.4689   -4.7228    8.7867 C   0  0  0  0  0  0  0  0  0  0  0  0
   25.1644   -1.6078    6.0398 C   0  0  0  0  0  0  0  0  0  0  0  0
   26.3992   -2.4548    6.3192 C   0  0  0  0  0  0  0  0  0  0  0  0
  3  9  1  0
  3 10  1  0
 11 17  1  0
 11 18  1  0
  1  2  2  0
  1 19  1  0
  1  4  1  0
  2 21  1  0
  2 12  1  0
 19 20  1  0
 21 22  1  0
  4  5  2  0
  4  6  1  0
 12 13  2  0
 12 14  1  0
  5  7  1  0
 13 15  1  0
  6  8  2  0
 14 16  2  0
  7  9  2  0
 15 17  2  0
  8  9  1  0
 16 17  1  0
M  END
> <PUBCHEM_COMPOUND_CID>
448537

> <PUBCHEM_CONFORMER_RMSD>
0.6

> <PUBCHEM_CONFORMER_DIVERSEORDER>
1
3
2

> <PUBCHEM_MMFF94_PARTIAL_CHARGES>
28
1 -0.53
11 -0.15
12 -0.15
13 -0.15
14 -0.15
15 -0.15
16 -0.15
17 -0.15
18 -0.15
19 0.08
2 -0.53
20 0.08
3 -0.17
31 0.15
32 0.15
33 0.15
34 0.15
35 0.15
36 0.15
37 0.15
38 0.15
39 0.45
4 -0.17
40 0.45
5 0.14
6 0.14
7 0.03
8 0.03

> <PUBCHEM_EFFECTIVE_ROTOR_COUNT>
4

> <PUBCHEM_PHARMACOPHORE_FEATURES>
6
1 1 donor
1 10 hydrophobe
1 2 donor
1 9 hydrophobe
6 7 11 13 15 17 19 rings
6 8 12 14 16 18 20 rings

> <PUBCHEM_HEAVY_ATOM_COUNT>
20

> <PUBCHEM_ATOM_DEF_STEREO_COUNT>
0

> <PUBCHEM_ATOM_UDEF_STEREO_COUNT>
0

> <PUBCHEM_BOND_DEF_STEREO_COUNT>
1

> <PUBCHEM_BOND_UDEF_STEREO_COUNT>
0

> <PUBCHEM_ISOTOPIC_ATOM_COUNT>
0

> <PUBCHEM_COMPONENT_COUNT>
1

> <PUBCHEM_CACTVS_TAUTO_COUNT>
3

> <PUBCHEM_CONFORMER_ID>
0006D81900000001

> <PUBCHEM_MMFF94_ENERGY>
60.231

> <PUBCHEM_FEATURE_SELFOVERLAP>
30.447

> <PUBCHEM_SHAPE_FINGERPRINT>
10366900 7 18186514428534874893
104564 63 18339924792832442081
10906281 52 18129397028286092948
11646440 116 18130798871235594657
12592029 89 16950278473467191938
12788726 201 18270697410649816016
13140716 1 18266458895859843337
13533116 47 18340201896197096762
13760787 19 16660644076447957075
14115302 16 18186806919849492430
14341114 176 15647057049052281551
15099037 51 18335139812416525942
15848700 24 18202843262111810220
15848702 151 16988848262958300981
16752209 62 18335696105492573576
16945 1 18410855473013063775
1813 80 18272378572207267076
18186145 218 18338228362096015613
187816 3 18410857663704853992
19141452 34 17131829889222033293
19784866 9 18113613452605694563
200 152 16950282905968490344
20028762 73 18055641861278493167
20600515 1 18340218469921978116
20645477 70 16009301016701038466
21285901 2 17917162606291067244
23175994 123 18333735723499757565
23402539 116 17988639696664490244
23493267 7 17313098635762053785
23557571 272 17489592229515708168
23559900 14 15554438621982335170
266924 87 18194116322357846868
347723 3 18410856551049855057
34934 24 18129105515976021729
3545911 37 15719391732852524422
4072396 5 18261662693185545291
4214541 1 15791727494979709055
465052 167 17240208741576471315
474 4 17917140731779840409
59755656 215 18270402685366324510
633830 44 18342455975941661781
69090 78 17060620005479420895
7226269 152 18410853270196137312
7495541 125 17531535390133293585
77779 3 15719110262139125926
81228 2 18128838385973970688
8272917 22 16660357039657468298
9971528 1 17775283884826915592

> <PUBCHEM_SHAPE_MULTIPOLES>
399.85
10.42
1.74
1.37
0
0
0.06
0
1.28
0
-0.74
0
0
-0.06

> <PUBCHEM_SHAPE_SELFOVERLAP>
850.96

> <PUBCHEM_SHAPE_VOLUME>
224.1

> <PUBCHEM_COORDINATE_TYPE>
2
5
10

> <Energy>
28.3223

> <minimizedAffinity>
-7.85308

> <CNNscore>
0.7694384456

> <CNNaffinity>
7.9177536964

> <CNN_VS>
6.0922241211

> <CNNaffinity_variance>
0.8130556941

$$$$
448537


 22 23  0  0  0  0  0  0  0  0999 V2000
   23.7183   -3.0305    7.1826 C   0  0  0  0  0  0  0  0  0  0  0  0
   22.5367   -3.5200    6.7308 C   0  0  0  0  0  0  0  0  0  0  0  0
   25.9895   -4.8921   11.9844 O   0  0  0  0  0  0  0  0  0  0  0  0
   24.3015   -3.5220    8.4475 C   0  0  0  0  0  0  0  0  0  0  0  0
   23.6234   -3.3305    9.6589 C   0  0  0  0  0  0  0  0  0  0  0  0
   25.5396   -4.1769    8.4477 C   0  0  0  0  0  0  0  0  0  0  0  0
   24.1789   -3.7855   10.8575 C   0  0  0  0  0  0  0  0  0  0  0  0
   26.0938   -4.6317    9.6454 C   0  0  0  0  0  0  0  0  0  0  0  0
   25.4101   -4.4326   10.8383 C   0  0  0  0  0  0  0  0  0  0  0  0
   25.5570   -4.7754   12.8072 H   0  0  0  0  0  0  0  0  0  0  0  0
   20.3196   -1.6972    1.8889 O   0  0  0  0  0  0  0  0  0  0  0  0
   21.9540   -3.0307    5.4644 C   0  0  0  0  0  0  0  0  0  0  0  0
   20.8601   -3.6873    4.8865 C   0  0  0  0  0  0  0  0  0  0  0  0
   22.4996   -1.9091    4.8262 C   0  0  0  0  0  0  0  0  0  0  0  0
   20.3219   -3.2265    3.6838 C   0  0  0  0  0  0  0  0  0  0  0  0
   21.9610   -1.4479    3.6244 C   0  0  0  0  0  0  0  0  0  0  0  0
   20.8755   -2.1127    3.0628 C   0  0  0  0  0  0  0  0  0  0  0  0
   19.5888   -2.1587    1.5273 H   0  0  0  0  0  0  0  0  0  0  0  0
   24.5788   -2.0015    6.4710 C   0  0  0  0  0  0  0  0  0  0  0  0
   24.8560   -0.7661    7.3177 C   0  0  0  0  0  0  0  0  0  0  0  0
   21.7153   -4.6058    7.4027 C   0  0  0  0  0  0  0  0  0  0  0  0
   20.3838   -4.0988    7.9414 C   0  0  0  0  0  0  0  0  0  0  0  0
  3  9  1  0
  3 10  1  0
 11 17  1  0
 11 18  1  0
  1  2  2  0
  1 19  1  0
  1  4  1  0
  2 21  1  0
  2 12  1  0
 19 20  1  0
 21 22  1  0
  4  5  2  0
  4  6  1  0
 12 13  2  0
 12 14  1  0
  5  7  1  0
 13 15  1  0
  6  8  2  0
 14 16  2  0
  7  9  2  0
 15 17  2  0
  8  9  1  0
 16 17  1  0
M  END
> <PUBCHEM_COMPOUND_CID>
448537

> <PUBCHEM_CONFORMER_RMSD>
0.6

> <PUBCHEM_CONFORMER_DIVERSEORDER>
1
3
2

> <PUBCHEM_MMFF94_PARTIAL_CHARGES>
28
1 -0.53
11 -0.15
12 -0.15
13 -0.15
14 -0.15
15 -0.15
16 -0.15
17 -0.15
18 -0.15
19 0.08
2 -0.53
20 0.08
3 -0.17
31 0.15
32 0.15
33 0.15
34 0.15
35 0.15
36 0.15
37 0.15
38 0.15
39 0.45
4 -0.17
40 0.45
5 0.14
6 0.14
7 0.03
8 0.03

> <PUBCHEM_EFFECTIVE_ROTOR_COUNT>
4

> <PUBCHEM_PHARMACOPHORE_FEATURES>
6
1 1 donor
1 10 hydrophobe
1 2 donor
1 9 hydrophobe
6 7 11 13 15 17 19 rings
6 8 12 14 16 18 20 rings

> <PUBCHEM_HEAVY_ATOM_COUNT>
20

> <PUBCHEM_ATOM_DEF_STEREO_COUNT>
0

> <PUBCHEM_ATOM_UDEF_STEREO_COUNT>
0

> <PUBCHEM_BOND_DEF_STEREO_COUNT>
1

> <PUBCHEM_BOND_UDEF_STEREO_COUNT>
0

> <PUBCHEM_ISOTOPIC_ATOM_COUNT>
0

> <PUBCHEM_COMPONENT_COUNT>
1

> <PUBCHEM_CACTVS_TAUTO_COUNT>
3

> <PUBCHEM_CONFORMER_ID>
0006D81900000001

> <PUBCHEM_MMFF94_ENERGY>
60.231

> <PUBCHEM_FEATURE_SELFOVERLAP>
30.447

> <PUBCHEM_SHAPE_FINGERPRINT>
10366900 7 18186514428534874893
104564 63 18339924792832442081
10906281 52 18129397028286092948
11646440 116 18130798871235594657
12592029 89 16950278473467191938
12788726 201 18270697410649816016
13140716 1 18266458895859843337
13533116 47 18340201896197096762
13760787 19 16660644076447957075
14115302 16 18186806919849492430
14341114 176 15647057049052281551
15099037 51 18335139812416525942
15848700 24 18202843262111810220
15848702 151 16988848262958300981
16752209 62 18335696105492573576
16945 1 18410855473013063775
1813 80 18272378572207267076
18186145 218 18338228362096015613
187816 3 18410857663704853992
19141452 34 17131829889222033293
19784866 9 18113613452605694563
200 152 16950282905968490344
20028762 73 18055641861278493167
20600515 1 18340218469921978116
20645477 70 16009301016701038466
21285901 2 17917162606291067244
23175994 123 18333735723499757565
23402539 116 17988639696664490244
23493267 7 17313098635762053785
23557571 272 17489592229515708168
23559900 14 15554438621982335170
266924 87 18194116322357846868
347723 3 18410856551049855057
34934 24 18129105515976021729
3545911 37 15719391732852524422
4072396 5 18261662693185545291
4214541 1 15791727494979709055
465052 167 17240208741576471315
474 4 17917140731779840409
59755656 215 18270402685366324510
633830 44 18342455975941661781
69090 78 17060620005479420895
7226269 152 18410853270196137312
7495541 125 17531535390133293585
77779 3 15719110262139125926
81228 2 18128838385973970688
8272917 22 16660357039657468298
9971528 1 17775283884826915592

> <PUBCHEM_SHAPE_MULTIPOLES>
399.85
10.42
1.74
1.37
0
0
0.06
0
1.28
0
-0.74
0
0
-0.06

> <PUBCHEM_SHAPE_SELFOVERLAP>
850.96

> <PUBCHEM_SHAPE_VOLUME>
224.1

> <PUBCHEM_COORDINATE_TYPE>
2
5
10

> <Energy>
28.3223

> <minimizedAffinity>
-6.73616

> <CNNscore>
0.7274271250

> <CNNaffinity>
7.7206320763

> <CNN_VS>
5.6161971092

> <CNNaffinity_variance>
0.9030435085

$$$$
