2519


 14 15  0  0  0  0  0  0  0  0999 V2000
   -5.0380   -3.4633   22.6097 O   0  0  0  0  0  0  0  0  0  0  0  0
   -4.1420   -4.6476   18.2245 O   0  0  0  0  0  0  0  0  0  0  0  0
   -2.3548   -4.1986   19.6063 N   0  0  0  0  0  0  0  0  0  0  0  0
   -2.0742   -3.2591   22.9505 N   0  0  0  0  0  0  0  0  0  0  0  0
   -4.6111   -4.0598   20.4034 N   0  0  0  0  0  0  0  0  0  0  0  0
   -0.6604   -3.6712   21.2832 N   0  0  0  0  0  0  0  0  0  0  0  0
   -2.8383   -3.5881   21.8680 C   0  0  0  0  0  0  0  0  0  0  0  0
   -1.9474   -3.8333   20.8681 C   0  0  0  0  0  0  0  0  0  0  0  0
   -4.2450   -3.6862   21.7000 C   0  0  0  0  0  0  0  0  0  0  0  0
   -3.7206   -4.3227   19.3391 C   0  0  0  0  0  0  0  0  0  0  0  0
   -0.7655   -3.3224   22.5504 C   0  0  0  0  0  0  0  0  0  0  0  0
   -1.3687   -4.4507   18.5699 C   0  0  0  0  0  0  0  0  0  0  0  0
   -2.5454   -2.9106   24.2665 C   0  0  0  0  0  0  0  0  0  0  0  0
   -6.0253   -4.1936   20.1116 C   0  0  0  0  0  0  0  0  0  0  0  0
  1  9  2  0
  2 10  2  0
  3  8  1  0
  3 10  1  0
  3 12  1  0
  4  7  1  0
  4 11  1  0
  4 13  1  0
  5  9  1  0
  5 10  1  0
  5 14  1  0
  6  8  1  0
  6 11  2  0
  7  8  2  0
  7  9  1  0
M  END
> <PUBCHEM_COMPOUND_CID>
2519

> <PUBCHEM_CONFORMER_RMSD>
0.4

> <PUBCHEM_CONFORMER_DIVERSEORDER>
1

> <PUBCHEM_MMFF94_PARTIAL_CHARGES>
15
1 -0.57
10 0.69
11 0.04
12 0.3
13 0.26
14 0.3
15 0.15
2 -0.57
3 -0.42
4 0.05
5 -0.42
6 -0.57
7 -0.24
8 0.29
9 0.71

> <PUBCHEM_EFFECTIVE_ROTOR_COUNT>
0

> <PUBCHEM_PHARMACOPHORE_FEATURES>
5
1 1 acceptor
1 2 acceptor
3 4 6 11 cation
5 4 6 7 8 11 rings
6 3 5 7 8 9 10 rings

> <PUBCHEM_HEAVY_ATOM_COUNT>
14

> <PUBCHEM_ATOM_DEF_STEREO_COUNT>
0

> <PUBCHEM_ATOM_UDEF_STEREO_COUNT>
0

> <PUBCHEM_BOND_DEF_STEREO_COUNT>
0

> <PUBCHEM_BOND_UDEF_STEREO_COUNT>
0

> <PUBCHEM_ISOTOPIC_ATOM_COUNT>
0

> <PUBCHEM_COMPONENT_COUNT>
1

> <PUBCHEM_CACTVS_TAUTO_COUNT>
1

> <PUBCHEM_CONFORMER_ID>
000009D700000001

> <PUBCHEM_MMFF94_ENERGY>
22.901

> <PUBCHEM_FEATURE_SELFOVERLAP>
25.487

> <PUBCHEM_SHAPE_FINGERPRINT>
10967382 1 18338799025773621285
11132069 177 18339075025094499008
12524768 44 18342463625094026902
13140716 1 17978511158789908153
16945 1 18338517550775811621
193761 8 15816500986559935910
20588541 1 18339082691204868851
21501502 16 18338796715286957384
22802520 49 18128840606503503494
2334 1 18338516344016692929
23402539 116 18270382932679789735
23552423 10 18262240993325675966
23559900 14 18199193898169584358
241688 4 18266458702623303353
2748010 2 18266180539182415717
5084963 1 17698433339235542986
528886 8 18267580380709240570
53812653 166 18198902694142226312
66348 1 18339079396917369615

> <PUBCHEM_SHAPE_MULTIPOLES>
256.45
4.01
2.83
0.58
0.71
0.08
0
-0.48
0
-0.81
0
0.01
0
0

> <PUBCHEM_SHAPE_SELFOVERLAP>
550.88

> <PUBCHEM_SHAPE_VOLUME>
143.9

> <PUBCHEM_COORDINATE_TYPE>
2
5
10

> <Energy>
-122.511

> <minimizedAffinity>
-5.56507

> <CNNscore>
0.7520253658

> <CNNaffinity>
5.3746886253

> <CNN_VS>
4.0419020653

> <CNNaffinity_variance>
0.0522735156

$$$$
2519


 14 15  0  0  0  0  0  0  0  0999 V2000
   -3.3035   -2.8294   23.8869 O   0  0  0  0  0  0  0  0  0  0  0  0
   -4.2432   -4.5117   19.6771 O   0  0  0  0  0  0  0  0  0  0  0  0
   -2.0318   -4.3187   20.2917 N   0  0  0  0  0  0  0  0  0  0  0  0
   -0.4230   -3.1917   23.1704 N   0  0  0  0  0  0  0  0  0  0  0  0
   -3.7983   -3.6717   21.7770 N   0  0  0  0  0  0  0  0  0  0  0  0
    0.2126   -4.0073   21.2007 N   0  0  0  0  0  0  0  0  0  0  0  0
   -1.5669   -3.4471   22.4702 C   0  0  0  0  0  0  0  0  0  0  0  0
   -1.1457   -3.9428   21.2741 C   0  0  0  0  0  0  0  0  0  0  0  0
   -2.9364   -3.2768   22.8047 C   0  0  0  0  0  0  0  0  0  0  0  0
   -3.4036   -4.1897   20.5238 C   0  0  0  0  0  0  0  0  0  0  0  0
    0.6268   -3.5453   22.3642 C   0  0  0  0  0  0  0  0  0  0  0  0
   -1.5374   -4.8429   19.0304 C   0  0  0  0  0  0  0  0  0  0  0  0
   -0.3281   -2.6534   24.5033 C   0  0  0  0  0  0  0  0  0  0  0  0
   -5.2250   -3.5445   22.0041 C   0  0  0  0  0  0  0  0  0  0  0  0
  1  9  2  0
  2 10  2  0
  3  8  1  0
  3 10  1  0
  3 12  1  0
  4  7  1  0
  4 11  1  0
  4 13  1  0
  5  9  1  0
  5 10  1  0
  5 14  1  0
  6  8  1  0
  6 11  2  0
  7  8  2  0
  7  9  1  0
M  END
> <PUBCHEM_COMPOUND_CID>
2519

> <PUBCHEM_CONFORMER_RMSD>
0.4

> <PUBCHEM_CONFORMER_DIVERSEORDER>
1

> <PUBCHEM_MMFF94_PARTIAL_CHARGES>
15
1 -0.57
10 0.69
11 0.04
12 0.3
13 0.26
14 0.3
15 0.15
2 -0.57
3 -0.42
4 0.05
5 -0.42
6 -0.57
7 -0.24
8 0.29
9 0.71

> <PUBCHEM_EFFECTIVE_ROTOR_COUNT>
0

> <PUBCHEM_PHARMACOPHORE_FEATURES>
5
1 1 acceptor
1 2 acceptor
3 4 6 11 cation
5 4 6 7 8 11 rings
6 3 5 7 8 9 10 rings

> <PUBCHEM_HEAVY_ATOM_COUNT>
14

> <PUBCHEM_ATOM_DEF_STEREO_COUNT>
0

> <PUBCHEM_ATOM_UDEF_STEREO_COUNT>
0

> <PUBCHEM_BOND_DEF_STEREO_COUNT>
0

> <PUBCHEM_BOND_UDEF_STEREO_COUNT>
0

> <PUBCHEM_ISOTOPIC_ATOM_COUNT>
0

> <PUBCHEM_COMPONENT_COUNT>
1

> <PUBCHEM_CACTVS_TAUTO_COUNT>
1

> <PUBCHEM_CONFORMER_ID>
000009D700000001

> <PUBCHEM_MMFF94_ENERGY>
22.901

> <PUBCHEM_FEATURE_SELFOVERLAP>
25.487

> <PUBCHEM_SHAPE_FINGERPRINT>
10967382 1 18338799025773621285
11132069 177 18339075025094499008
12524768 44 18342463625094026902
13140716 1 17978511158789908153
16945 1 18338517550775811621
193761 8 15816500986559935910
20588541 1 18339082691204868851
21501502 16 18338796715286957384
22802520 49 18128840606503503494
2334 1 18338516344016692929
23402539 116 18270382932679789735
23552423 10 18262240993325675966
23559900 14 18199193898169584358
241688 4 18266458702623303353
2748010 2 18266180539182415717
5084963 1 17698433339235542986
528886 8 18267580380709240570
53812653 166 18198902694142226312
66348 1 18339079396917369615

> <PUBCHEM_SHAPE_MULTIPOLES>
256.45
4.01
2.83
0.58
0.71
0.08
0
-0.48
0
-0.81
0
0.01
0
0

> <PUBCHEM_SHAPE_SELFOVERLAP>
550.88

> <PUBCHEM_SHAPE_VOLUME>
143.9

> <PUBCHEM_COORDINATE_TYPE>
2
5
10

> <Energy>
-122.511

> <minimizedAffinity>
-5.55697

> <CNNscore>
0.5481325388

> <CNNaffinity>
5.0775861740

> <CNN_VS>
2.7831902504

> <CNNaffinity_variance>
0.1751092821

$$$$
2519


 14 15  0  0  0  0  0  0  0  0999 V2000
   -0.8356   -3.1380   20.9920 O   0  0  0  0  0  0  0  0  0  0  0  0
   -3.5844   -4.8937   17.7061 O   0  0  0  0  0  0  0  0  0  0  0  0
   -4.5671   -4.1665   19.6582 N   0  0  0  0  0  0  0  0  0  0  0  0
   -3.3317   -2.7474   22.5916 N   0  0  0  0  0  0  0  0  0  0  0  0
   -2.1972   -4.0235   19.3283 N   0  0  0  0  0  0  0  0  0  0  0  0
   -5.3357   -3.3238   21.8169 N   0  0  0  0  0  0  0  0  0  0  0  0
   -3.1302   -3.2631   21.3437 C   0  0  0  0  0  0  0  0  0  0  0  0
   -4.3704   -3.6055   20.8985 C   0  0  0  0  0  0  0  0  0  0  0  0
   -1.9481   -3.4515   20.5796 C   0  0  0  0  0  0  0  0  0  0  0  0
   -3.4657   -4.3930   18.8289 C   0  0  0  0  0  0  0  0  0  0  0  0
   -4.6786   -2.8043   22.8352 C   0  0  0  0  0  0  0  0  0  0  0  0
   -5.9086   -4.5159   19.2243 C   0  0  0  0  0  0  0  0  0  0  0  0
   -2.3259   -2.2378   23.4884 C   0  0  0  0  0  0  0  0  0  0  0  0
   -1.0636   -4.2635   18.4563 C   0  0  0  0  0  0  0  0  0  0  0  0
  1  9  2  0
  2 10  2  0
  3  8  1  0
  3 10  1  0
  3 12  1  0
  4  7  1  0
  4 11  1  0
  4 13  1  0
  5  9  1  0
  5 10  1  0
  5 14  1  0
  6  8  1  0
  6 11  2  0
  7  8  2  0
  7  9  1  0
M  END
> <PUBCHEM_COMPOUND_CID>
2519

> <PUBCHEM_CONFORMER_RMSD>
0.4

> <PUBCHEM_CONFORMER_DIVERSEORDER>
1

> <PUBCHEM_MMFF94_PARTIAL_CHARGES>
15
1 -0.57
10 0.69
11 0.04
12 0.3
13 0.26
14 0.3
15 0.15
2 -0.57
3 -0.42
4 0.05
5 -0.42
6 -0.57
7 -0.24
8 0.29
9 0.71

> <PUBCHEM_EFFECTIVE_ROTOR_COUNT>
0

> <PUBCHEM_PHARMACOPHORE_FEATURES>
5
1 1 acceptor
1 2 acceptor
3 4 6 11 cation
5 4 6 7 8 11 rings
6 3 5 7 8 9 10 rings

> <PUBCHEM_HEAVY_ATOM_COUNT>
14

> <PUBCHEM_ATOM_DEF_STEREO_COUNT>
0

> <PUBCHEM_ATOM_UDEF_STEREO_COUNT>
0

> <PUBCHEM_BOND_DEF_STEREO_COUNT>
0

> <PUBCHEM_BOND_UDEF_STEREO_COUNT>
0

> <PUBCHEM_ISOTOPIC_ATOM_COUNT>
0

> <PUBCHEM_COMPONENT_COUNT>
1

> <PUBCHEM_CACTVS_TAUTO_COUNT>
1

> <PUBCHEM_CONFORMER_ID>
000009D700000001

> <PUBCHEM_MMFF94_ENERGY>
22.901

> <PUBCHEM_FEATURE_SELFOVERLAP>
25.487

> <PUBCHEM_SHAPE_FINGERPRINT>
10967382 1 18338799025773621285
11132069 177 18339075025094499008
12524768 44 18342463625094026902
13140716 1 17978511158789908153
16945 1 18338517550775811621
193761 8 15816500986559935910
20588541 1 18339082691204868851
21501502 16 18338796715286957384
22802520 49 18128840606503503494
2334 1 18338516344016692929
23402539 116 18270382932679789735
23552423 10 18262240993325675966
23559900 14 18199193898169584358
241688 4 18266458702623303353
2748010 2 18266180539182415717
5084963 1 17698433339235542986
528886 8 18267580380709240570
53812653 166 18198902694142226312
66348 1 18339079396917369615

> <PUBCHEM_SHAPE_MULTIPOLES>
256.45
4.01
2.83
0.58
0.71
0.08
0
-0.48
0
-0.81
0
0.01
0
0

> <PUBCHEM_SHAPE_SELFOVERLAP>
550.88

> <PUBCHEM_SHAPE_VOLUME>
143.9

> <PUBCHEM_COORDINATE_TYPE>
2
5
10

> <Energy>
-122.511

> <minimizedAffinity>
-5.65246

> <CNNscore>
0.5225314498

> <CNNaffinity>
5.0730738640

> <CNN_VS>
2.6508407593

> <CNNaffinity_variance>
0.1593861580

$$$$
2519


 14 15  0  0  0  0  0  0  0  0999 V2000
   -0.5238   -4.6023   19.7798 O   0  0  0  0  0  0  0  0  0  0  0  0
   -4.8409   -3.0764   19.0944 O   0  0  0  0  0  0  0  0  0  0  0  0
   -3.7169   -2.3282   20.9604 N   0  0  0  0  0  0  0  0  0  0  0  0
   -0.5348   -2.9203   22.2523 N   0  0  0  0  0  0  0  0  0  0  0  0
   -2.6931   -3.8489   19.4161 N   0  0  0  0  0  0  0  0  0  0  0  0
   -2.2986   -1.7020   22.8465 N   0  0  0  0  0  0  0  0  0  0  0  0
   -1.4879   -3.1282   21.2972 C   0  0  0  0  0  0  0  0  0  0  0  0
   -2.5506   -2.3724   21.6881 C   0  0  0  0  0  0  0  0  0  0  0  0
   -1.4887   -3.9255   20.1220 C   0  0  0  0  0  0  0  0  0  0  0  0
   -3.8178   -3.0788   19.7862 C   0  0  0  0  0  0  0  0  0  0  0  0
   -1.0687   -2.0523   23.1678 C   0  0  0  0  0  0  0  0  0  0  0  0
   -4.8255   -1.5073   21.4154 C   0  0  0  0  0  0  0  0  0  0  0  0
    0.7838   -3.4988   22.2969 C   0  0  0  0  0  0  0  0  0  0  0  0
   -2.8120   -4.6218   18.1948 C   0  0  0  0  0  0  0  0  0  0  0  0
  1  9  2  0
  2 10  2  0
  3  8  1  0
  3 10  1  0
  3 12  1  0
  4  7  1  0
  4 11  1  0
  4 13  1  0
  5  9  1  0
  5 10  1  0
  5 14  1  0
  6  8  1  0
  6 11  2  0
  7  8  2  0
  7  9  1  0
M  END
> <PUBCHEM_COMPOUND_CID>
2519

> <PUBCHEM_CONFORMER_RMSD>
0.4

> <PUBCHEM_CONFORMER_DIVERSEORDER>
1

> <PUBCHEM_MMFF94_PARTIAL_CHARGES>
15
1 -0.57
10 0.69
11 0.04
12 0.3
13 0.26
14 0.3
15 0.15
2 -0.57
3 -0.42
4 0.05
5 -0.42
6 -0.57
7 -0.24
8 0.29
9 0.71

> <PUBCHEM_EFFECTIVE_ROTOR_COUNT>
0

> <PUBCHEM_PHARMACOPHORE_FEATURES>
5
1 1 acceptor
1 2 acceptor
3 4 6 11 cation
5 4 6 7 8 11 rings
6 3 5 7 8 9 10 rings

> <PUBCHEM_HEAVY_ATOM_COUNT>
14

> <PUBCHEM_ATOM_DEF_STEREO_COUNT>
0

> <PUBCHEM_ATOM_UDEF_STEREO_COUNT>
0

> <PUBCHEM_BOND_DEF_STEREO_COUNT>
0

> <PUBCHEM_BOND_UDEF_STEREO_COUNT>
0

> <PUBCHEM_ISOTOPIC_ATOM_COUNT>
0

> <PUBCHEM_COMPONENT_COUNT>
1

> <PUBCHEM_CACTVS_TAUTO_COUNT>
1

> <PUBCHEM_CONFORMER_ID>
000009D700000001

> <PUBCHEM_MMFF94_ENERGY>
22.901

> <PUBCHEM_FEATURE_SELFOVERLAP>
25.487

> <PUBCHEM_SHAPE_FINGERPRINT>
10967382 1 18338799025773621285
11132069 177 18339075025094499008
12524768 44 18342463625094026902
13140716 1 17978511158789908153
16945 1 18338517550775811621
193761 8 15816500986559935910
20588541 1 18339082691204868851
21501502 16 18338796715286957384
22802520 49 18128840606503503494
2334 1 18338516344016692929
23402539 116 18270382932679789735
23552423 10 18262240993325675966
23559900 14 18199193898169584358
241688 4 18266458702623303353
2748010 2 18266180539182415717
5084963 1 17698433339235542986
528886 8 18267580380709240570
53812653 166 18198902694142226312
66348 1 18339079396917369615

> <PUBCHEM_SHAPE_MULTIPOLES>
256.45
4.01
2.83
0.58
0.71
0.08
0
-0.48
0
-0.81
0
0.01
0
0

> <PUBCHEM_SHAPE_SELFOVERLAP>
550.88

> <PUBCHEM_SHAPE_VOLUME>
143.9

> <PUBCHEM_COORDINATE_TYPE>
2
5
10

> <Energy>
-122.511

> <minimizedAffinity>
-5.66229

> <CNNscore>
0.5078951120

> <CNNaffinity>
4.7764601707

> <CNN_VS>
2.4259407520

> <CNNaffinity_variance>
0.4351862669

$$$$
2519


 14 15  0  0  0  0  0  0  0  0999 V2000
   -1.9889   -1.5225   23.2632 O   0  0  0  0  0  0  0  0  0  0  0  0
    0.5318   -4.7172   21.0551 O   0  0  0  0  0  0  0  0  0  0  0  0
   -1.4442   -4.0422   20.0827 N   0  0  0  0  0  0  0  0  0  0  0  0
   -3.9174   -1.7610   20.9904 N   0  0  0  0  0  0  0  0  0  0  0  0
   -0.7072   -3.1261   22.1716 N   0  0  0  0  0  0  0  0  0  0  0  0
   -3.5710   -3.1470   19.2852 N   0  0  0  0  0  0  0  0  0  0  0  0
   -2.7323   -2.3914   21.2391 C   0  0  0  0  0  0  0  0  0  0  0  0
   -2.5494   -3.2297   20.1820 C   0  0  0  0  0  0  0  0  0  0  0  0
   -1.8130   -2.2828   22.3160 C   0  0  0  0  0  0  0  0  0  0  0  0
   -0.4796   -4.0093   21.0931 C   0  0  0  0  0  0  0  0  0  0  0  0
   -4.3879   -2.2490   19.7998 C   0  0  0  0  0  0  0  0  0  0  0  0
   -1.2902   -4.9211   18.9364 C   0  0  0  0  0  0  0  0  0  0  0  0
   -4.5587   -0.7701   21.8163 C   0  0  0  0  0  0  0  0  0  0  0  0
    0.3027   -3.1020   23.2121 C   0  0  0  0  0  0  0  0  0  0  0  0
  1  9  2  0
  2 10  2  0
  3  8  1  0
  3 10  1  0
  3 12  1  0
  4  7  1  0
  4 11  1  0
  4 13  1  0
  5  9  1  0
  5 10  1  0
  5 14  1  0
  6  8  1  0
  6 11  2  0
  7  8  2  0
  7  9  1  0
M  END
> <PUBCHEM_COMPOUND_CID>
2519

> <PUBCHEM_CONFORMER_RMSD>
0.4

> <PUBCHEM_CONFORMER_DIVERSEORDER>
1

> <PUBCHEM_MMFF94_PARTIAL_CHARGES>
15
1 -0.57
10 0.69
11 0.04
12 0.3
13 0.26
14 0.3
15 0.15
2 -0.57
3 -0.42
4 0.05
5 -0.42
6 -0.57
7 -0.24
8 0.29
9 0.71

> <PUBCHEM_EFFECTIVE_ROTOR_COUNT>
0

> <PUBCHEM_PHARMACOPHORE_FEATURES>
5
1 1 acceptor
1 2 acceptor
3 4 6 11 cation
5 4 6 7 8 11 rings
6 3 5 7 8 9 10 rings

> <PUBCHEM_HEAVY_ATOM_COUNT>
14

> <PUBCHEM_ATOM_DEF_STEREO_COUNT>
0

> <PUBCHEM_ATOM_UDEF_STEREO_COUNT>
0

> <PUBCHEM_BOND_DEF_STEREO_COUNT>
0

> <PUBCHEM_BOND_UDEF_STEREO_COUNT>
0

> <PUBCHEM_ISOTOPIC_ATOM_COUNT>
0

> <PUBCHEM_COMPONENT_COUNT>
1

> <PUBCHEM_CACTVS_TAUTO_COUNT>
1

> <PUBCHEM_CONFORMER_ID>
000009D700000001

> <PUBCHEM_MMFF94_ENERGY>
22.901

> <PUBCHEM_FEATURE_SELFOVERLAP>
25.487

> <PUBCHEM_SHAPE_FINGERPRINT>
10967382 1 18338799025773621285
11132069 177 18339075025094499008
12524768 44 18342463625094026902
13140716 1 17978511158789908153
16945 1 18338517550775811621
193761 8 15816500986559935910
20588541 1 18339082691204868851
21501502 16 18338796715286957384
22802520 49 18128840606503503494
2334 1 18338516344016692929
23402539 116 18270382932679789735
23552423 10 18262240993325675966
23559900 14 18199193898169584358
241688 4 18266458702623303353
2748010 2 18266180539182415717
5084963 1 17698433339235542986
528886 8 18267580380709240570
53812653 166 18198902694142226312
66348 1 18339079396917369615

> <PUBCHEM_SHAPE_MULTIPOLES>
256.45
4.01
2.83
0.58
0.71
0.08
0
-0.48
0
-0.81
0
0.01
0
0

> <PUBCHEM_SHAPE_SELFOVERLAP>
550.88

> <PUBCHEM_SHAPE_VOLUME>
143.9

> <PUBCHEM_COORDINATE_TYPE>
2
5
10

> <Energy>
-122.511

> <minimizedAffinity>
-5.46899

> <CNNscore>
0.4884618223

> <CNNaffinity>
4.7149085999

> <CNN_VS>
2.3030529022

> <CNNaffinity_variance>
0.2695784867

$$$$
2519


 14 15  0  0  0  0  0  0  0  0999 V2000
   -3.4860   -4.8996   17.7084 O   0  0  0  0  0  0  0  0  0  0  0  0
   -6.7423   -3.9168   20.8496 O   0  0  0  0  0  0  0  0  0  0  0  0
   -4.5554   -3.4159   21.3713 N   0  0  0  0  0  0  0  0  0  0  0  0
   -1.5313   -3.7888   19.6800 N   0  0  0  0  0  0  0  0  0  0  0  0
   -5.1376   -4.4147   19.2714 N   0  0  0  0  0  0  0  0  0  0  0  0
   -2.1679   -2.9938   21.6577 N   0  0  0  0  0  0  0  0  0  0  0  0
   -2.8879   -3.9315   19.7357 C   0  0  0  0  0  0  0  0  0  0  0  0
   -3.2453   -3.4383   20.9533 C   0  0  0  0  0  0  0  0  0  0  0  0
   -3.8208   -4.4583   18.8036 C   0  0  0  0  0  0  0  0  0  0  0  0
   -5.5505   -3.9125   20.5253 C   0  0  0  0  0  0  0  0  0  0  0  0
   -1.1402   -3.2184   20.8626 C   0  0  0  0  0  0  0  0  0  0  0  0
   -4.8909   -2.8799   22.6790 C   0  0  0  0  0  0  0  0  0  0  0  0
   -0.6674   -4.1634   18.5897 C   0  0  0  0  0  0  0  0  0  0  0  0
   -6.1813   -4.9257   18.4038 C   0  0  0  0  0  0  0  0  0  0  0  0
  1  9  2  0
  2 10  2  0
  3  8  1  0
  3 10  1  0
  3 12  1  0
  4  7  1  0
  4 11  1  0
  4 13  1  0
  5  9  1  0
  5 10  1  0
  5 14  1  0
  6  8  1  0
  6 11  2  0
  7  8  2  0
  7  9  1  0
M  END
> <PUBCHEM_COMPOUND_CID>
2519

> <PUBCHEM_CONFORMER_RMSD>
0.4

> <PUBCHEM_CONFORMER_DIVERSEORDER>
1

> <PUBCHEM_MMFF94_PARTIAL_CHARGES>
15
1 -0.57
10 0.69
11 0.04
12 0.3
13 0.26
14 0.3
15 0.15
2 -0.57
3 -0.42
4 0.05
5 -0.42
6 -0.57
7 -0.24
8 0.29
9 0.71

> <PUBCHEM_EFFECTIVE_ROTOR_COUNT>
0

> <PUBCHEM_PHARMACOPHORE_FEATURES>
5
1 1 acceptor
1 2 acceptor
3 4 6 11 cation
5 4 6 7 8 11 rings
6 3 5 7 8 9 10 rings

> <PUBCHEM_HEAVY_ATOM_COUNT>
14

> <PUBCHEM_ATOM_DEF_STEREO_COUNT>
0

> <PUBCHEM_ATOM_UDEF_STEREO_COUNT>
0

> <PUBCHEM_BOND_DEF_STEREO_COUNT>
0

> <PUBCHEM_BOND_UDEF_STEREO_COUNT>
0

> <PUBCHEM_ISOTOPIC_ATOM_COUNT>
0

> <PUBCHEM_COMPONENT_COUNT>
1

> <PUBCHEM_CACTVS_TAUTO_COUNT>
1

> <PUBCHEM_CONFORMER_ID>
000009D700000001

> <PUBCHEM_MMFF94_ENERGY>
22.901

> <PUBCHEM_FEATURE_SELFOVERLAP>
25.487

> <PUBCHEM_SHAPE_FINGERPRINT>
10967382 1 18338799025773621285
11132069 177 18339075025094499008
12524768 44 18342463625094026902
13140716 1 17978511158789908153
16945 1 18338517550775811621
193761 8 15816500986559935910
20588541 1 18339082691204868851
21501502 16 18338796715286957384
22802520 49 18128840606503503494
2334 1 18338516344016692929
23402539 116 18270382932679789735
23552423 10 18262240993325675966
23559900 14 18199193898169584358
241688 4 18266458702623303353
2748010 2 18266180539182415717
5084963 1 17698433339235542986
528886 8 18267580380709240570
53812653 166 18198902694142226312
66348 1 18339079396917369615

> <PUBCHEM_SHAPE_MULTIPOLES>
256.45
4.01
2.83
0.58
0.71
0.08
0
-0.48
0
-0.81
0
0.01
0
0

> <PUBCHEM_SHAPE_SELFOVERLAP>
550.88

> <PUBCHEM_SHAPE_VOLUME>
143.9

> <PUBCHEM_COORDINATE_TYPE>
2
5
10

> <Energy>
-122.511

> <minimizedAffinity>
-4.68701

> <CNNscore>
0.4784939587

> <CNNaffinity>
4.8180031776

> <CNN_VS>
2.3053853512

> <CNNaffinity_variance>
0.1698616594

$$$$
2519


 14 15  0  0  0  0  0  0  0  0999 V2000
    0.7848   -3.7861   21.5348 O   0  0  0  0  0  0  0  0  0  0  0  0
   -3.6677   -4.4204   20.4355 O   0  0  0  0  0  0  0  0  0  0  0  0
   -3.1892   -3.2620   22.3680 N   0  0  0  0  0  0  0  0  0  0  0  0
   -0.2239   -2.3326   23.9455 N   0  0  0  0  0  0  0  0  0  0  0  0
   -1.4447   -4.1165   20.9636 N   0  0  0  0  0  0  0  0  0  0  0  0
   -2.3964   -2.0759   24.3492 N   0  0  0  0  0  0  0  0  0  0  0  0
   -0.8831   -2.9451   22.9188 C   0  0  0  0  0  0  0  0  0  0  0  0
   -2.2051   -2.7715   23.1941 C   0  0  0  0  0  0  0  0  0  0  0  0
   -0.4100   -3.6368   21.7723 C   0  0  0  0  0  0  0  0  0  0  0  0
   -2.8260   -3.9586   21.2125 C   0  0  0  0  0  0  0  0  0  0  0  0
   -1.1783   -1.8220   24.7854 C   0  0  0  0  0  0  0  0  0  0  0  0
   -4.5875   -3.0528   22.7012 C   0  0  0  0  0  0  0  0  0  0  0  0
    1.2027   -2.2363   24.1207 C   0  0  0  0  0  0  0  0  0  0  0  0
   -1.0828   -4.8406   19.7603 C   0  0  0  0  0  0  0  0  0  0  0  0
  1  9  2  0
  2 10  2  0
  3  8  1  0
  3 10  1  0
  3 12  1  0
  4  7  1  0
  4 11  1  0
  4 13  1  0
  5  9  1  0
  5 10  1  0
  5 14  1  0
  6  8  1  0
  6 11  2  0
  7  8  2  0
  7  9  1  0
M  END
> <PUBCHEM_COMPOUND_CID>
2519

> <PUBCHEM_CONFORMER_RMSD>
0.4

> <PUBCHEM_CONFORMER_DIVERSEORDER>
1

> <PUBCHEM_MMFF94_PARTIAL_CHARGES>
15
1 -0.57
10 0.69
11 0.04
12 0.3
13 0.26
14 0.3
15 0.15
2 -0.57
3 -0.42
4 0.05
5 -0.42
6 -0.57
7 -0.24
8 0.29
9 0.71

> <PUBCHEM_EFFECTIVE_ROTOR_COUNT>
0

> <PUBCHEM_PHARMACOPHORE_FEATURES>
5
1 1 acceptor
1 2 acceptor
3 4 6 11 cation
5 4 6 7 8 11 rings
6 3 5 7 8 9 10 rings

> <PUBCHEM_HEAVY_ATOM_COUNT>
14

> <PUBCHEM_ATOM_DEF_STEREO_COUNT>
0

> <PUBCHEM_ATOM_UDEF_STEREO_COUNT>
0

> <PUBCHEM_BOND_DEF_STEREO_COUNT>
0

> <PUBCHEM_BOND_UDEF_STEREO_COUNT>
0

> <PUBCHEM_ISOTOPIC_ATOM_COUNT>
0

> <PUBCHEM_COMPONENT_COUNT>
1

> <PUBCHEM_CACTVS_TAUTO_COUNT>
1

> <PUBCHEM_CONFORMER_ID>
000009D700000001

> <PUBCHEM_MMFF94_ENERGY>
22.901

> <PUBCHEM_FEATURE_SELFOVERLAP>
25.487

> <PUBCHEM_SHAPE_FINGERPRINT>
10967382 1 18338799025773621285
11132069 177 18339075025094499008
12524768 44 18342463625094026902
13140716 1 17978511158789908153
16945 1 18338517550775811621
193761 8 15816500986559935910
20588541 1 18339082691204868851
21501502 16 18338796715286957384
22802520 49 18128840606503503494
2334 1 18338516344016692929
23402539 116 18270382932679789735
23552423 10 18262240993325675966
23559900 14 18199193898169584358
241688 4 18266458702623303353
2748010 2 18266180539182415717
5084963 1 17698433339235542986
528886 8 18267580380709240570
53812653 166 18198902694142226312
66348 1 18339079396917369615

> <PUBCHEM_SHAPE_MULTIPOLES>
256.45
4.01
2.83
0.58
0.71
0.08
0
-0.48
0
-0.81
0
0.01
0
0

> <PUBCHEM_SHAPE_SELFOVERLAP>
550.88

> <PUBCHEM_SHAPE_VOLUME>
143.9

> <PUBCHEM_COORDINATE_TYPE>
2
5
10

> <Energy>
-122.511

> <minimizedAffinity>
-5.51721

> <CNNscore>
0.4661613703

> <CNNaffinity>
4.8168048859

> <CNN_VS>
2.2454082966

> <CNNaffinity_variance>
0.2864121497

$$$$
2519


 14 15  0  0  0  0  0  0  0  0999 V2000
   -2.2250   -4.9522   19.6896 O   0  0  0  0  0  0  0  0  0  0  0  0
    0.3914   -3.4709   23.2103 O   0  0  0  0  0  0  0  0  0  0  0  0
   -1.8696   -3.0391   23.2917 N   0  0  0  0  0  0  0  0  0  0  0  0
   -4.5340   -3.7496   21.1606 N   0  0  0  0  0  0  0  0  0  0  0  0
   -0.8920   -4.2171   21.4471 N   0  0  0  0  0  0  0  0  0  0  0  0
   -4.2841   -2.7214   23.1174 N   0  0  0  0  0  0  0  0  0  0  0  0
   -3.2042   -3.8121   21.4632 C   0  0  0  0  0  0  0  0  0  0  0  0
   -3.0842   -3.1765   22.6612 C   0  0  0  0  0  0  0  0  0  0  0  0
   -2.1037   -4.3810   20.7690 C   0  0  0  0  0  0  0  0  0  0  0  0
   -0.7242   -3.5655   22.6889 C   0  0  0  0  0  0  0  0  0  0  0  0
   -5.1470   -3.0819   22.1879 C   0  0  0  0  0  0  0  0  0  0  0  0
   -1.7887   -2.3533   24.5696 C   0  0  0  0  0  0  0  0  0  0  0  0
   -5.1788   -4.2816   19.9873 C   0  0  0  0  0  0  0  0  0  0  0  0
    0.3052   -4.7592   20.8340 C   0  0  0  0  0  0  0  0  0  0  0  0
  1  9  2  0
  2 10  2  0
  3  8  1  0
  3 10  1  0
  3 12  1  0
  4  7  1  0
  4 11  1  0
  4 13  1  0
  5  9  1  0
  5 10  1  0
  5 14  1  0
  6  8  1  0
  6 11  2  0
  7  8  2  0
  7  9  1  0
M  END
> <PUBCHEM_COMPOUND_CID>
2519

> <PUBCHEM_CONFORMER_RMSD>
0.4

> <PUBCHEM_CONFORMER_DIVERSEORDER>
1

> <PUBCHEM_MMFF94_PARTIAL_CHARGES>
15
1 -0.57
10 0.69
11 0.04
12 0.3
13 0.26
14 0.3
15 0.15
2 -0.57
3 -0.42
4 0.05
5 -0.42
6 -0.57
7 -0.24
8 0.29
9 0.71

> <PUBCHEM_EFFECTIVE_ROTOR_COUNT>
0

> <PUBCHEM_PHARMACOPHORE_FEATURES>
5
1 1 acceptor
1 2 acceptor
3 4 6 11 cation
5 4 6 7 8 11 rings
6 3 5 7 8 9 10 rings

> <PUBCHEM_HEAVY_ATOM_COUNT>
14

> <PUBCHEM_ATOM_DEF_STEREO_COUNT>
0

> <PUBCHEM_ATOM_UDEF_STEREO_COUNT>
0

> <PUBCHEM_BOND_DEF_STEREO_COUNT>
0

> <PUBCHEM_BOND_UDEF_STEREO_COUNT>
0

> <PUBCHEM_ISOTOPIC_ATOM_COUNT>
0

> <PUBCHEM_COMPONENT_COUNT>
1

> <PUBCHEM_CACTVS_TAUTO_COUNT>
1

> <PUBCHEM_CONFORMER_ID>
000009D700000001

> <PUBCHEM_MMFF94_ENERGY>
22.901

> <PUBCHEM_FEATURE_SELFOVERLAP>
25.487

> <PUBCHEM_SHAPE_FINGERPRINT>
10967382 1 18338799025773621285
11132069 177 18339075025094499008
12524768 44 18342463625094026902
13140716 1 17978511158789908153
16945 1 18338517550775811621
193761 8 15816500986559935910
20588541 1 18339082691204868851
21501502 16 18338796715286957384
22802520 49 18128840606503503494
2334 1 18338516344016692929
23402539 116 18270382932679789735
23552423 10 18262240993325675966
23559900 14 18199193898169584358
241688 4 18266458702623303353
2748010 2 18266180539182415717
5084963 1 17698433339235542986
528886 8 18267580380709240570
53812653 166 18198902694142226312
66348 1 18339079396917369615

> <PUBCHEM_SHAPE_MULTIPOLES>
256.45
4.01
2.83
0.58
0.71
0.08
0
-0.48
0
-0.81
0
0.01
0
0

> <PUBCHEM_SHAPE_SELFOVERLAP>
550.88

> <PUBCHEM_SHAPE_VOLUME>
143.9

> <PUBCHEM_COORDINATE_TYPE>
2
5
10

> <Energy>
-122.511

> <minimizedAffinity>
-5.41624

> <CNNscore>
0.4223223031

> <CNNaffinity>
4.7121329308

> <CNN_VS>
1.9900388718

> <CNNaffinity_variance>
0.5570036173

$$$$
2519


 14 15  0  0  0  0  0  0  0  0999 V2000
   -4.1415   -3.0519   23.1877 O   0  0  0  0  0  0  0  0  0  0  0  0
    0.3701   -3.0091   24.2264 O   0  0  0  0  0  0  0  0  0  0  0  0
   -0.2458   -3.7312   22.1277 N   0  0  0  0  0  0  0  0  0  0  0  0
   -3.3116   -4.0948   20.5109 N   0  0  0  0  0  0  0  0  0  0  0  0
   -1.8809   -3.0224   23.7308 N   0  0  0  0  0  0  0  0  0  0  0  0
   -1.1781   -4.4448   19.9871 N   0  0  0  0  0  0  0  0  0  0  0  0
   -2.5812   -3.7463   21.6105 C   0  0  0  0  0  0  0  0  0  0  0  0
   -1.2851   -3.9714   21.2596 C   0  0  0  0  0  0  0  0  0  0  0  0
   -2.9694   -3.2513   22.8836 C   0  0  0  0  0  0  0  0  0  0  0  0
   -0.5239   -3.2423   23.4068 C   0  0  0  0  0  0  0  0  0  0  0  0
   -2.4222   -4.5108   19.5554 C   0  0  0  0  0  0  0  0  0  0  0  0
    1.1220   -3.9856   21.7104 C   0  0  0  0  0  0  0  0  0  0  0  0
   -4.7444   -4.0388   20.3724 C   0  0  0  0  0  0  0  0  0  0  0  0
   -2.1542   -2.5140   25.0612 C   0  0  0  0  0  0  0  0  0  0  0  0
  1  9  2  0
  2 10  2  0
  3  8  1  0
  3 10  1  0
  3 12  1  0
  4  7  1  0
  4 11  1  0
  4 13  1  0
  5  9  1  0
  5 10  1  0
  5 14  1  0
  6  8  1  0
  6 11  2  0
  7  8  2  0
  7  9  1  0
M  END
> <PUBCHEM_COMPOUND_CID>
2519

> <PUBCHEM_CONFORMER_RMSD>
0.4

> <PUBCHEM_CONFORMER_DIVERSEORDER>
1

> <PUBCHEM_MMFF94_PARTIAL_CHARGES>
15
1 -0.57
10 0.69
11 0.04
12 0.3
13 0.26
14 0.3
15 0.15
2 -0.57
3 -0.42
4 0.05
5 -0.42
6 -0.57
7 -0.24
8 0.29
9 0.71

> <PUBCHEM_EFFECTIVE_ROTOR_COUNT>
0

> <PUBCHEM_PHARMACOPHORE_FEATURES>
5
1 1 acceptor
1 2 acceptor
3 4 6 11 cation
5 4 6 7 8 11 rings
6 3 5 7 8 9 10 rings

> <PUBCHEM_HEAVY_ATOM_COUNT>
14

> <PUBCHEM_ATOM_DEF_STEREO_COUNT>
0

> <PUBCHEM_ATOM_UDEF_STEREO_COUNT>
0

> <PUBCHEM_BOND_DEF_STEREO_COUNT>
0

> <PUBCHEM_BOND_UDEF_STEREO_COUNT>
0

> <PUBCHEM_ISOTOPIC_ATOM_COUNT>
0

> <PUBCHEM_COMPONENT_COUNT>
1

> <PUBCHEM_CACTVS_TAUTO_COUNT>
1

> <PUBCHEM_CONFORMER_ID>
000009D700000001

> <PUBCHEM_MMFF94_ENERGY>
22.901

> <PUBCHEM_FEATURE_SELFOVERLAP>
25.487

> <PUBCHEM_SHAPE_FINGERPRINT>
10967382 1 18338799025773621285
11132069 177 18339075025094499008
12524768 44 18342463625094026902
13140716 1 17978511158789908153
16945 1 18338517550775811621
193761 8 15816500986559935910
20588541 1 18339082691204868851
21501502 16 18338796715286957384
22802520 49 18128840606503503494
2334 1 18338516344016692929
23402539 116 18270382932679789735
23552423 10 18262240993325675966
23559900 14 18199193898169584358
241688 4 18266458702623303353
2748010 2 18266180539182415717
5084963 1 17698433339235542986
528886 8 18267580380709240570
53812653 166 18198902694142226312
66348 1 18339079396917369615

> <PUBCHEM_SHAPE_MULTIPOLES>
256.45
4.01
2.83
0.58
0.71
0.08
0
-0.48
0
-0.81
0
0.01
0
0

> <PUBCHEM_SHAPE_SELFOVERLAP>
550.88

> <PUBCHEM_SHAPE_VOLUME>
143.9

> <PUBCHEM_COORDINATE_TYPE>
2
5
10

> <Energy>
-122.511

> <minimizedAffinity>
-5.35205

> <CNNscore>
0.4088357091

> <CNNaffinity>
4.9088139534

> <CNN_VS>
2.0068984032

> <CNNaffinity_variance>
0.1358384341

$$$$
