8814


 16 16  0  0  0  0  0  0  0  0999 V2000
   -4.6097   -4.5309   21.2912 C   0  0  0  0  0  0  0  0  0  0  0  0
   -4.1963   -5.9802   21.6918 C   0  0  0  0  0  0  0  0  0  0  0  0
   -5.5985   -4.7153   20.1165 C   0  0  0  0  0  0  0  0  0  0  0  0
    0.2135   -1.8469   19.8132 O   0  0  0  0  0  0  0  0  0  0  0  0
   -3.3195   -3.7888   20.9111 C   0  0  0  0  0  0  0  0  0  0  0  0
   -3.1027   -3.3851   19.5761 C   0  0  0  0  0  0  0  0  0  0  0  0
   -2.3154   -3.4923   21.8480 C   0  0  0  0  0  0  0  0  0  0  0  0
   -1.9278   -2.7335   19.1918 C   0  0  0  0  0  0  0  0  0  0  0  0
   -1.1394   -2.8427   21.4660 C   0  0  0  0  0  0  0  0  0  0  0  0
   -0.9532   -2.4718   20.1417 C   0  0  0  0  0  0  0  0  0  0  0  0
    0.3706   -1.5833   18.9278 H   0  0  0  0  0  0  0  0  0  0  0  0
   -5.3327   -3.8958   22.5333 C   0  0  0  0  0  0  0  0  0  0  0  0
   -5.8408   -2.4141   22.5696 C   0  0  0  0  0  0  0  0  0  0  0  0
   -6.2498   -2.0476   21.1207 C   0  0  0  0  0  0  0  0  0  0  0  0
   -4.7562   -1.4199   23.0079 C   0  0  0  0  0  0  0  0  0  0  0  0
   -7.0849   -2.2064   23.4474 C   0  0  0  0  0  0  0  0  0  0  0  0
  4 10  1  0
  4 11  1  0
  1 12  1  0
  1  5  1  0
  1  2  1  0
  1  3  1  0
 13 12  1  0
 13 14  1  0
 13 15  1  0
 13 16  1  0
  5  6  2  0
  5  7  1  0
  6  8  1  0
  7  9  2  0
  8 10  2  0
  9 10  1  0
M  END
> <PUBCHEM_COMPOUND_CID>
8814

> <PUBCHEM_CONFORMER_RMSD>
0.6

> <PUBCHEM_CONFORMER_DIVERSEORDER>
1
5
4
3
2

> <PUBCHEM_MMFF94_PARTIAL_CHARGES>
13
1 -0.53
11 -0.15
12 -0.15
13 -0.15
14 -0.15
15 0.08
2 0.14
33 0.15
34 0.15
35 0.15
36 0.15
37 0.45
5 -0.14

> <PUBCHEM_EFFECTIVE_ROTOR_COUNT>
3

> <PUBCHEM_PHARMACOPHORE_FEATURES>
4
1 1 donor
3 2 6 7 hydrophobe
4 3 8 9 10 hydrophobe
6 5 11 12 13 14 15 rings

> <PUBCHEM_HEAVY_ATOM_COUNT>
15

> <PUBCHEM_ATOM_DEF_STEREO_COUNT>
0

> <PUBCHEM_ATOM_UDEF_STEREO_COUNT>
0

> <PUBCHEM_BOND_DEF_STEREO_COUNT>
0

> <PUBCHEM_BOND_UDEF_STEREO_COUNT>
0

> <PUBCHEM_ISOTOPIC_ATOM_COUNT>
0

> <PUBCHEM_COMPONENT_COUNT>
1

> <PUBCHEM_CACTVS_TAUTO_COUNT>
2

> <PUBCHEM_CONFORMER_ID>
0000226E00000001

> <PUBCHEM_MMFF94_ENERGY>
60.6732

> <PUBCHEM_FEATURE_SELFOVERLAP>
20.297

> <PUBCHEM_SHAPE_FINGERPRINT>
1 1 18122065299635933247
11471102 22 13984658170435925480
12138202 97 18272929444633088966
12251169 10 14923953348599690641
12423570 1 15084294979065354379
124424 183 18201999928641116818
12491281 212 18273493468196309381
12532896 13 18409735040726507851
13299463 15 16200422598337566991
13538477 17 17822291326855117498
13764800 53 18335714831507604569
13839132 238 18413110537123213324
14817 1 11689340854733718479
15375462 478 15647061443078261877
15775835 57 18339078194495494345
16945 1 17988065786023185643
18186145 218 18200036118541666588
18534176 82 18271243927656786518
19837323 101 18335708272823803859
20525323 117 18337111292773698462
20645476 183 17894351081266785547
21296965 12 18260545576729377063
21501502 16 18271800211963701222
21524375 3 18339638928324873163
21947302 44 18059017168310697110
22802520 49 18199766781279703998
23402539 116 18267296706830970519
23419403 2 17194099544908694927
23557571 272 18198918083120765556
23559900 14 18342742906418193234
25 1 17845383149850037993
2748010 2 18262817159083630983
276578 36 18189342281366350763
305870 269 18040992882718168402
430814 3 18041565736850213531
549884 4 17416683544816290937
6333449 129 18343582975122638285
6442390 28 18269297706777891659
7364860 26 17834677097914689979
81228 2 18191593162379223291

> <PUBCHEM_SHAPE_MULTIPOLES>
302.82
5.29
2.15
1.39
2.11
0.81
0.13
-3.45
0.34
-1.29
-0.24
-0.12
0.26
0.01

> <PUBCHEM_SHAPE_SELFOVERLAP>
615.427

> <PUBCHEM_SHAPE_VOLUME>
178.4

> <PUBCHEM_COORDINATE_TYPE>
2
5
10

> <Energy>
46.4329

> <minimizedAffinity>
-7.32026

> <CNNscore>
0.9458463192

> <CNNaffinity>
7.0918216705

> <CNN_VS>
6.7077732086

> <CNNaffinity_variance>
0.4866611063

$$$$
8814


 16 16  0  0  0  0  0  0  0  0999 V2000
   -4.6853   -4.6071   21.2208 C   0  0  0  0  0  0  0  0  0  0  0  0
   -4.2729   -6.0449   21.6617 C   0  0  0  0  0  0  0  0  0  0  0  0
   -5.7054   -4.8241   20.0788 C   0  0  0  0  0  0  0  0  0  0  0  0
    0.0771   -1.8646   19.6554 O   0  0  0  0  0  0  0  0  0  0  0  0
   -3.3996   -3.8899   20.7819 C   0  0  0  0  0  0  0  0  0  0  0  0
   -2.3678   -3.6530   21.7154 C   0  0  0  0  0  0  0  0  0  0  0  0
   -3.1984   -3.4390   19.4665 C   0  0  0  0  0  0  0  0  0  0  0  0
   -1.1981   -2.9787   21.3555 C   0  0  0  0  0  0  0  0  0  0  0  0
   -2.0309   -2.7631   19.1048 C   0  0  0  0  0  0  0  0  0  0  0  0
   -1.0422   -2.5352   20.0518 C   0  0  0  0  0  0  0  0  0  0  0  0
    0.7636   -1.6944   20.2701 H   0  0  0  0  0  0  0  0  0  0  0  0
   -5.3712   -3.9226   22.4576 C   0  0  0  0  0  0  0  0  0  0  0  0
   -5.8291   -2.4242   22.4687 C   0  0  0  0  0  0  0  0  0  0  0  0
   -7.0578   -2.3407   23.4091 C   0  0  0  0  0  0  0  0  0  0  0  0
   -6.2716   -1.9231   21.0867 C   0  0  0  0  0  0  0  0  0  0  0  0
   -4.7746   -1.4576   23.0301 C   0  0  0  0  0  0  0  0  0  0  0  0
  4 10  1  0
  4 11  1  0
  1 12  1  0
  1  5  1  0
  1  2  1  0
  1  3  1  0
 13 12  1  0
 13 14  1  0
 13 15  1  0
 13 16  1  0
  5  6  2  0
  5  7  1  0
  6  8  1  0
  7  9  2  0
  8 10  2  0
  9 10  1  0
M  END
> <PUBCHEM_COMPOUND_CID>
8814

> <PUBCHEM_CONFORMER_RMSD>
0.6

> <PUBCHEM_CONFORMER_DIVERSEORDER>
1
5
4
3
2

> <PUBCHEM_MMFF94_PARTIAL_CHARGES>
13
1 -0.53
11 -0.15
12 -0.15
13 -0.15
14 -0.15
15 0.08
2 0.14
33 0.15
34 0.15
35 0.15
36 0.15
37 0.45
5 -0.14

> <PUBCHEM_EFFECTIVE_ROTOR_COUNT>
3

> <PUBCHEM_PHARMACOPHORE_FEATURES>
4
1 1 donor
3 2 6 7 hydrophobe
4 3 8 9 10 hydrophobe
6 5 11 12 13 14 15 rings

> <PUBCHEM_HEAVY_ATOM_COUNT>
15

> <PUBCHEM_ATOM_DEF_STEREO_COUNT>
0

> <PUBCHEM_ATOM_UDEF_STEREO_COUNT>
0

> <PUBCHEM_BOND_DEF_STEREO_COUNT>
0

> <PUBCHEM_BOND_UDEF_STEREO_COUNT>
0

> <PUBCHEM_ISOTOPIC_ATOM_COUNT>
0

> <PUBCHEM_COMPONENT_COUNT>
1

> <PUBCHEM_CACTVS_TAUTO_COUNT>
2

> <PUBCHEM_CONFORMER_ID>
0000226E00000001

> <PUBCHEM_MMFF94_ENERGY>
60.6732

> <PUBCHEM_FEATURE_SELFOVERLAP>
20.297

> <PUBCHEM_SHAPE_FINGERPRINT>
1 1 18122065299635933247
11471102 22 13984658170435925480
12138202 97 18272929444633088966
12251169 10 14923953348599690641
12423570 1 15084294979065354379
124424 183 18201999928641116818
12491281 212 18273493468196309381
12532896 13 18409735040726507851
13299463 15 16200422598337566991
13538477 17 17822291326855117498
13764800 53 18335714831507604569
13839132 238 18413110537123213324
14817 1 11689340854733718479
15375462 478 15647061443078261877
15775835 57 18339078194495494345
16945 1 17988065786023185643
18186145 218 18200036118541666588
18534176 82 18271243927656786518
19837323 101 18335708272823803859
20525323 117 18337111292773698462
20645476 183 17894351081266785547
21296965 12 18260545576729377063
21501502 16 18271800211963701222
21524375 3 18339638928324873163
21947302 44 18059017168310697110
22802520 49 18199766781279703998
23402539 116 18267296706830970519
23419403 2 17194099544908694927
23557571 272 18198918083120765556
23559900 14 18342742906418193234
25 1 17845383149850037993
2748010 2 18262817159083630983
276578 36 18189342281366350763
305870 269 18040992882718168402
430814 3 18041565736850213531
549884 4 17416683544816290937
6333449 129 18343582975122638285
6442390 28 18269297706777891659
7364860 26 17834677097914689979
81228 2 18191593162379223291

> <PUBCHEM_SHAPE_MULTIPOLES>
302.82
5.29
2.15
1.39
2.11
0.81
0.13
-3.45
0.34
-1.29
-0.24
-0.12
0.26
0.01

> <PUBCHEM_SHAPE_SELFOVERLAP>
615.427

> <PUBCHEM_SHAPE_VOLUME>
178.4

> <PUBCHEM_COORDINATE_TYPE>
2
5
10

> <Energy>
46.4329

> <minimizedAffinity>
-7.31800

> <CNNscore>
0.9456278682

> <CNNaffinity>
7.0925068855

> <CNN_VS>
6.7068719864

> <CNNaffinity_variance>
0.5119521022

$$$$
8814


 16 16  0  0  0  0  0  0  0  0999 V2000
   -4.8415   -3.5529   21.6054 C   0  0  0  0  0  0  0  0  0  0  0  0
   -5.1836   -4.9997   21.1347 C   0  0  0  0  0  0  0  0  0  0  0  0
   -5.7029   -2.6341   20.7079 C   0  0  0  0  0  0  0  0  0  0  0  0
    0.7742   -2.7695   20.8968 O   0  0  0  0  0  0  0  0  0  0  0  0
   -3.3280   -3.3695   21.4170 C   0  0  0  0  0  0  0  0  0  0  0  0
   -2.5870   -2.6058   22.3443 C   0  0  0  0  0  0  0  0  0  0  0  0
   -2.6286   -3.9310   20.3354 C   0  0  0  0  0  0  0  0  0  0  0  0
   -1.2145   -2.3963   22.1865 C   0  0  0  0  0  0  0  0  0  0  0  0
   -1.2571   -3.7214   20.1746 C   0  0  0  0  0  0  0  0  0  0  0  0
   -0.5619   -2.9537   21.0984 C   0  0  0  0  0  0  0  0  0  0  0  0
    1.2729   -2.2564   21.5018 H   0  0  0  0  0  0  0  0  0  0  0  0
   -5.2852   -3.4382   23.1083 C   0  0  0  0  0  0  0  0  0  0  0  0
   -6.7178   -2.9836   23.5513 C   0  0  0  0  0  0  0  0  0  0  0  0
   -7.7109   -3.5684   22.5157 C   0  0  0  0  0  0  0  0  0  0  0  0
   -6.8904   -1.4581   23.5451 C   0  0  0  0  0  0  0  0  0  0  0  0
   -7.1421   -3.5230   24.9262 C   0  0  0  0  0  0  0  0  0  0  0  0
  4 10  1  0
  4 11  1  0
  1 12  1  0
  1  5  1  0
  1  2  1  0
  1  3  1  0
 13 12  1  0
 13 14  1  0
 13 15  1  0
 13 16  1  0
  5  6  2  0
  5  7  1  0
  6  8  1  0
  7  9  2  0
  8 10  2  0
  9 10  1  0
M  END
> <PUBCHEM_COMPOUND_CID>
8814

> <PUBCHEM_CONFORMER_RMSD>
0.6

> <PUBCHEM_CONFORMER_DIVERSEORDER>
1
5
4
3
2

> <PUBCHEM_MMFF94_PARTIAL_CHARGES>
13
1 -0.53
11 -0.15
12 -0.15
13 -0.15
14 -0.15
15 0.08
2 0.14
33 0.15
34 0.15
35 0.15
36 0.15
37 0.45
5 -0.14

> <PUBCHEM_EFFECTIVE_ROTOR_COUNT>
3

> <PUBCHEM_PHARMACOPHORE_FEATURES>
4
1 1 donor
3 2 6 7 hydrophobe
4 3 8 9 10 hydrophobe
6 5 11 12 13 14 15 rings

> <PUBCHEM_HEAVY_ATOM_COUNT>
15

> <PUBCHEM_ATOM_DEF_STEREO_COUNT>
0

> <PUBCHEM_ATOM_UDEF_STEREO_COUNT>
0

> <PUBCHEM_BOND_DEF_STEREO_COUNT>
0

> <PUBCHEM_BOND_UDEF_STEREO_COUNT>
0

> <PUBCHEM_ISOTOPIC_ATOM_COUNT>
0

> <PUBCHEM_COMPONENT_COUNT>
1

> <PUBCHEM_CACTVS_TAUTO_COUNT>
2

> <PUBCHEM_CONFORMER_ID>
0000226E00000001

> <PUBCHEM_MMFF94_ENERGY>
60.6732

> <PUBCHEM_FEATURE_SELFOVERLAP>
20.297

> <PUBCHEM_SHAPE_FINGERPRINT>
1 1 18122065299635933247
11471102 22 13984658170435925480
12138202 97 18272929444633088966
12251169 10 14923953348599690641
12423570 1 15084294979065354379
124424 183 18201999928641116818
12491281 212 18273493468196309381
12532896 13 18409735040726507851
13299463 15 16200422598337566991
13538477 17 17822291326855117498
13764800 53 18335714831507604569
13839132 238 18413110537123213324
14817 1 11689340854733718479
15375462 478 15647061443078261877
15775835 57 18339078194495494345
16945 1 17988065786023185643
18186145 218 18200036118541666588
18534176 82 18271243927656786518
19837323 101 18335708272823803859
20525323 117 18337111292773698462
20645476 183 17894351081266785547
21296965 12 18260545576729377063
21501502 16 18271800211963701222
21524375 3 18339638928324873163
21947302 44 18059017168310697110
22802520 49 18199766781279703998
23402539 116 18267296706830970519
23419403 2 17194099544908694927
23557571 272 18198918083120765556
23559900 14 18342742906418193234
25 1 17845383149850037993
2748010 2 18262817159083630983
276578 36 18189342281366350763
305870 269 18040992882718168402
430814 3 18041565736850213531
549884 4 17416683544816290937
6333449 129 18343582975122638285
6442390 28 18269297706777891659
7364860 26 17834677097914689979
81228 2 18191593162379223291

> <PUBCHEM_SHAPE_MULTIPOLES>
302.82
5.29
2.15
1.39
2.11
0.81
0.13
-3.45
0.34
-1.29
-0.24
-0.12
0.26
0.01

> <PUBCHEM_SHAPE_SELFOVERLAP>
615.427

> <PUBCHEM_SHAPE_VOLUME>
178.4

> <PUBCHEM_COORDINATE_TYPE>
2
5
10

> <Energy>
46.4329

> <minimizedAffinity>
-7.42852

> <CNNscore>
0.9439693093

> <CNNaffinity>
6.9364776611

> <CNN_VS>
6.5478219986

> <CNNaffinity_variance>
0.3715047538

$$$$
8814


 16 16  0  0  0  0  0  0  0  0999 V2000
   -4.9294   -3.5752   21.4906 C   0  0  0  0  0  0  0  0  0  0  0  0
   -5.2490   -4.9622   20.8535 C   0  0  0  0  0  0  0  0  0  0  0  0
   -5.8020   -2.5707   20.7024 C   0  0  0  0  0  0  0  0  0  0  0  0
    0.7058   -2.8369   20.8977 O   0  0  0  0  0  0  0  0  0  0  0  0
   -3.4183   -3.3495   21.3311 C   0  0  0  0  0  0  0  0  0  0  0  0
   -2.7440   -3.8500   20.1966 C   0  0  0  0  0  0  0  0  0  0  0  0
   -2.6532   -2.6598   22.2866 C   0  0  0  0  0  0  0  0  0  0  0  0
   -1.3658   -3.6864   20.0350 C   0  0  0  0  0  0  0  0  0  0  0  0
   -1.2752   -2.4965   22.1282 C   0  0  0  0  0  0  0  0  0  0  0  0
   -0.6421   -3.0135   21.0066 C   0  0  0  0  0  0  0  0  0  0  0  0
    1.1638   -3.1736   20.1528 H   0  0  0  0  0  0  0  0  0  0  0  0
   -5.3785   -3.6423   22.9948 C   0  0  0  0  0  0  0  0  0  0  0  0
   -6.7569   -3.1016   23.5072 C   0  0  0  0  0  0  0  0  0  0  0  0
   -7.8339   -3.6228   22.5228 C   0  0  0  0  0  0  0  0  0  0  0  0
   -6.8359   -1.5684   23.5073 C   0  0  0  0  0  0  0  0  0  0  0  0
   -7.1452   -3.6162   24.9022 C   0  0  0  0  0  0  0  0  0  0  0  0
  4 10  1  0
  4 11  1  0
  1 12  1  0
  1  5  1  0
  1  2  1  0
  1  3  1  0
 13 12  1  0
 13 14  1  0
 13 15  1  0
 13 16  1  0
  5  6  2  0
  5  7  1  0
  6  8  1  0
  7  9  2  0
  8 10  2  0
  9 10  1  0
M  END
> <PUBCHEM_COMPOUND_CID>
8814

> <PUBCHEM_CONFORMER_RMSD>
0.6

> <PUBCHEM_CONFORMER_DIVERSEORDER>
1
5
4
3
2

> <PUBCHEM_MMFF94_PARTIAL_CHARGES>
13
1 -0.53
11 -0.15
12 -0.15
13 -0.15
14 -0.15
15 0.08
2 0.14
33 0.15
34 0.15
35 0.15
36 0.15
37 0.45
5 -0.14

> <PUBCHEM_EFFECTIVE_ROTOR_COUNT>
3

> <PUBCHEM_PHARMACOPHORE_FEATURES>
4
1 1 donor
3 2 6 7 hydrophobe
4 3 8 9 10 hydrophobe
6 5 11 12 13 14 15 rings

> <PUBCHEM_HEAVY_ATOM_COUNT>
15

> <PUBCHEM_ATOM_DEF_STEREO_COUNT>
0

> <PUBCHEM_ATOM_UDEF_STEREO_COUNT>
0

> <PUBCHEM_BOND_DEF_STEREO_COUNT>
0

> <PUBCHEM_BOND_UDEF_STEREO_COUNT>
0

> <PUBCHEM_ISOTOPIC_ATOM_COUNT>
0

> <PUBCHEM_COMPONENT_COUNT>
1

> <PUBCHEM_CACTVS_TAUTO_COUNT>
2

> <PUBCHEM_CONFORMER_ID>
0000226E00000001

> <PUBCHEM_MMFF94_ENERGY>
60.6732

> <PUBCHEM_FEATURE_SELFOVERLAP>
20.297

> <PUBCHEM_SHAPE_FINGERPRINT>
1 1 18122065299635933247
11471102 22 13984658170435925480
12138202 97 18272929444633088966
12251169 10 14923953348599690641
12423570 1 15084294979065354379
124424 183 18201999928641116818
12491281 212 18273493468196309381
12532896 13 18409735040726507851
13299463 15 16200422598337566991
13538477 17 17822291326855117498
13764800 53 18335714831507604569
13839132 238 18413110537123213324
14817 1 11689340854733718479
15375462 478 15647061443078261877
15775835 57 18339078194495494345
16945 1 17988065786023185643
18186145 218 18200036118541666588
18534176 82 18271243927656786518
19837323 101 18335708272823803859
20525323 117 18337111292773698462
20645476 183 17894351081266785547
21296965 12 18260545576729377063
21501502 16 18271800211963701222
21524375 3 18339638928324873163
21947302 44 18059017168310697110
22802520 49 18199766781279703998
23402539 116 18267296706830970519
23419403 2 17194099544908694927
23557571 272 18198918083120765556
23559900 14 18342742906418193234
25 1 17845383149850037993
2748010 2 18262817159083630983
276578 36 18189342281366350763
305870 269 18040992882718168402
430814 3 18041565736850213531
549884 4 17416683544816290937
6333449 129 18343582975122638285
6442390 28 18269297706777891659
7364860 26 17834677097914689979
81228 2 18191593162379223291

> <PUBCHEM_SHAPE_MULTIPOLES>
302.82
5.29
2.15
1.39
2.11
0.81
0.13
-3.45
0.34
-1.29
-0.24
-0.12
0.26
0.01

> <PUBCHEM_SHAPE_SELFOVERLAP>
615.427

> <PUBCHEM_SHAPE_VOLUME>
178.4

> <PUBCHEM_COORDINATE_TYPE>
2
5
10

> <Energy>
46.4329

> <minimizedAffinity>
-7.40506

> <CNNscore>
0.9410970211

> <CNNaffinity>
6.9725437164

> <CNN_VS>
6.5618400574

> <CNNaffinity_variance>
0.4126128256

$$$$
8814


 16 16  0  0  0  0  0  0  0  0999 V2000
   -5.0935   -3.4623   21.2917 C   0  0  0  0  0  0  0  0  0  0  0  0
   -5.4579   -4.6692   20.3738 C   0  0  0  0  0  0  0  0  0  0  0  0
   -5.9112   -2.2779   20.7259 C   0  0  0  0  0  0  0  0  0  0  0  0
    0.5545   -2.6607   20.9599 O   0  0  0  0  0  0  0  0  0  0  0  0
   -3.5720   -3.2734   21.1959 C   0  0  0  0  0  0  0  0  0  0  0  0
   -2.8367   -2.8668   22.3300 C   0  0  0  0  0  0  0  0  0  0  0  0
   -2.8592   -3.4819   20.0031 C   0  0  0  0  0  0  0  0  0  0  0  0
   -1.4563   -2.6587   22.2693 C   0  0  0  0  0  0  0  0  0  0  0  0
   -1.4798   -3.2727   19.9394 C   0  0  0  0  0  0  0  0  0  0  0  0
   -0.7901   -2.8599   21.0708 C   0  0  0  0  0  0  0  0  0  0  0  0
    1.0498   -2.3819   21.7049 H   0  0  0  0  0  0  0  0  0  0  0  0
   -5.5706   -3.8250   22.7442 C   0  0  0  0  0  0  0  0  0  0  0  0
   -6.8769   -3.2496   23.3906 C   0  0  0  0  0  0  0  0  0  0  0  0
   -7.0148   -3.9142   24.7835 C   0  0  0  0  0  0  0  0  0  0  0  0
   -8.1415   -3.5907   22.5898 C   0  0  0  0  0  0  0  0  0  0  0  0
   -6.8357   -1.7315   23.6258 C   0  0  0  0  0  0  0  0  0  0  0  0
  4 10  1  0
  4 11  1  0
  1 12  1  0
  1  5  1  0
  1  2  1  0
  1  3  1  0
 13 12  1  0
 13 14  1  0
 13 15  1  0
 13 16  1  0
  5  6  2  0
  5  7  1  0
  6  8  1  0
  7  9  2  0
  8 10  2  0
  9 10  1  0
M  END
> <PUBCHEM_COMPOUND_CID>
8814

> <PUBCHEM_CONFORMER_RMSD>
0.6

> <PUBCHEM_CONFORMER_DIVERSEORDER>
1
5
4
3
2

> <PUBCHEM_MMFF94_PARTIAL_CHARGES>
13
1 -0.53
11 -0.15
12 -0.15
13 -0.15
14 -0.15
15 0.08
2 0.14
33 0.15
34 0.15
35 0.15
36 0.15
37 0.45
5 -0.14

> <PUBCHEM_EFFECTIVE_ROTOR_COUNT>
3

> <PUBCHEM_PHARMACOPHORE_FEATURES>
4
1 1 donor
3 2 6 7 hydrophobe
4 3 8 9 10 hydrophobe
6 5 11 12 13 14 15 rings

> <PUBCHEM_HEAVY_ATOM_COUNT>
15

> <PUBCHEM_ATOM_DEF_STEREO_COUNT>
0

> <PUBCHEM_ATOM_UDEF_STEREO_COUNT>
0

> <PUBCHEM_BOND_DEF_STEREO_COUNT>
0

> <PUBCHEM_BOND_UDEF_STEREO_COUNT>
0

> <PUBCHEM_ISOTOPIC_ATOM_COUNT>
0

> <PUBCHEM_COMPONENT_COUNT>
1

> <PUBCHEM_CACTVS_TAUTO_COUNT>
2

> <PUBCHEM_CONFORMER_ID>
0000226E00000001

> <PUBCHEM_MMFF94_ENERGY>
60.6732

> <PUBCHEM_FEATURE_SELFOVERLAP>
20.297

> <PUBCHEM_SHAPE_FINGERPRINT>
1 1 18122065299635933247
11471102 22 13984658170435925480
12138202 97 18272929444633088966
12251169 10 14923953348599690641
12423570 1 15084294979065354379
124424 183 18201999928641116818
12491281 212 18273493468196309381
12532896 13 18409735040726507851
13299463 15 16200422598337566991
13538477 17 17822291326855117498
13764800 53 18335714831507604569
13839132 238 18413110537123213324
14817 1 11689340854733718479
15375462 478 15647061443078261877
15775835 57 18339078194495494345
16945 1 17988065786023185643
18186145 218 18200036118541666588
18534176 82 18271243927656786518
19837323 101 18335708272823803859
20525323 117 18337111292773698462
20645476 183 17894351081266785547
21296965 12 18260545576729377063
21501502 16 18271800211963701222
21524375 3 18339638928324873163
21947302 44 18059017168310697110
22802520 49 18199766781279703998
23402539 116 18267296706830970519
23419403 2 17194099544908694927
23557571 272 18198918083120765556
23559900 14 18342742906418193234
25 1 17845383149850037993
2748010 2 18262817159083630983
276578 36 18189342281366350763
305870 269 18040992882718168402
430814 3 18041565736850213531
549884 4 17416683544816290937
6333449 129 18343582975122638285
6442390 28 18269297706777891659
7364860 26 17834677097914689979
81228 2 18191593162379223291

> <PUBCHEM_SHAPE_MULTIPOLES>
302.82
5.29
2.15
1.39
2.11
0.81
0.13
-3.45
0.34
-1.29
-0.24
-0.12
0.26
0.01

> <PUBCHEM_SHAPE_SELFOVERLAP>
615.427

> <PUBCHEM_SHAPE_VOLUME>
178.4

> <PUBCHEM_COORDINATE_TYPE>
2
5
10

> <Energy>
46.4329

> <minimizedAffinity>
-7.35309

> <CNNscore>
0.9263760448

> <CNNaffinity>
6.8250823021

> <CNN_VS>
6.3225927353

> <CNNaffinity_variance>
0.3279018700

$$$$
8814


 16 16  0  0  0  0  0  0  0  0999 V2000
   -3.5950   -3.9612   21.7727 C   0  0  0  0  0  0  0  0  0  0  0  0
   -3.1565   -3.6568   23.2379 C   0  0  0  0  0  0  0  0  0  0  0  0
   -3.5493   -5.5030   21.6615 C   0  0  0  0  0  0  0  0  0  0  0  0
    0.1300   -1.3639   18.3042 O   0  0  0  0  0  0  0  0  0  0  0  0
   -2.6008   -3.2387   20.8511 C   0  0  0  0  0  0  0  0  0  0  0  0
   -2.7486   -3.3187   19.4496 C   0  0  0  0  0  0  0  0  0  0  0  0
   -1.5194   -2.4906   21.3461 C   0  0  0  0  0  0  0  0  0  0  0  0
   -1.8456   -2.6968   18.5834 C   0  0  0  0  0  0  0  0  0  0  0  0
   -0.6145   -1.8696   20.4823 C   0  0  0  0  0  0  0  0  0  0  0  0
   -0.7822   -1.9802   19.1091 C   0  0  0  0  0  0  0  0  0  0  0  0
    0.0457   -1.4190   17.3726 H   0  0  0  0  0  0  0  0  0  0  0  0
   -5.0666   -3.4347   21.6112 C   0  0  0  0  0  0  0  0  0  0  0  0
   -5.6125   -2.1639   22.3474 C   0  0  0  0  0  0  0  0  0  0  0  0
   -6.4690   -2.6705   23.5351 C   0  0  0  0  0  0  0  0  0  0  0  0
   -6.5203   -1.3013   21.4594 C   0  0  0  0  0  0  0  0  0  0  0  0
   -4.5122   -1.2717   22.9431 C   0  0  0  0  0  0  0  0  0  0  0  0
  4 10  1  0
  4 11  1  0
  1 12  1  0
  1  5  1  0
  1  2  1  0
  1  3  1  0
 13 12  1  0
 13 14  1  0
 13 15  1  0
 13 16  1  0
  5  6  2  0
  5  7  1  0
  6  8  1  0
  7  9  2  0
  8 10  2  0
  9 10  1  0
M  END
> <PUBCHEM_COMPOUND_CID>
8814

> <PUBCHEM_CONFORMER_RMSD>
0.6

> <PUBCHEM_CONFORMER_DIVERSEORDER>
1
5
4
3
2

> <PUBCHEM_MMFF94_PARTIAL_CHARGES>
13
1 -0.53
11 -0.15
12 -0.15
13 -0.15
14 -0.15
15 0.08
2 0.14
33 0.15
34 0.15
35 0.15
36 0.15
37 0.45
5 -0.14

> <PUBCHEM_EFFECTIVE_ROTOR_COUNT>
3

> <PUBCHEM_PHARMACOPHORE_FEATURES>
4
1 1 donor
3 2 6 7 hydrophobe
4 3 8 9 10 hydrophobe
6 5 11 12 13 14 15 rings

> <PUBCHEM_HEAVY_ATOM_COUNT>
15

> <PUBCHEM_ATOM_DEF_STEREO_COUNT>
0

> <PUBCHEM_ATOM_UDEF_STEREO_COUNT>
0

> <PUBCHEM_BOND_DEF_STEREO_COUNT>
0

> <PUBCHEM_BOND_UDEF_STEREO_COUNT>
0

> <PUBCHEM_ISOTOPIC_ATOM_COUNT>
0

> <PUBCHEM_COMPONENT_COUNT>
1

> <PUBCHEM_CACTVS_TAUTO_COUNT>
2

> <PUBCHEM_CONFORMER_ID>
0000226E00000001

> <PUBCHEM_MMFF94_ENERGY>
60.6732

> <PUBCHEM_FEATURE_SELFOVERLAP>
20.297

> <PUBCHEM_SHAPE_FINGERPRINT>
1 1 18122065299635933247
11471102 22 13984658170435925480
12138202 97 18272929444633088966
12251169 10 14923953348599690641
12423570 1 15084294979065354379
124424 183 18201999928641116818
12491281 212 18273493468196309381
12532896 13 18409735040726507851
13299463 15 16200422598337566991
13538477 17 17822291326855117498
13764800 53 18335714831507604569
13839132 238 18413110537123213324
14817 1 11689340854733718479
15375462 478 15647061443078261877
15775835 57 18339078194495494345
16945 1 17988065786023185643
18186145 218 18200036118541666588
18534176 82 18271243927656786518
19837323 101 18335708272823803859
20525323 117 18337111292773698462
20645476 183 17894351081266785547
21296965 12 18260545576729377063
21501502 16 18271800211963701222
21524375 3 18339638928324873163
21947302 44 18059017168310697110
22802520 49 18199766781279703998
23402539 116 18267296706830970519
23419403 2 17194099544908694927
23557571 272 18198918083120765556
23559900 14 18342742906418193234
25 1 17845383149850037993
2748010 2 18262817159083630983
276578 36 18189342281366350763
305870 269 18040992882718168402
430814 3 18041565736850213531
549884 4 17416683544816290937
6333449 129 18343582975122638285
6442390 28 18269297706777891659
7364860 26 17834677097914689979
81228 2 18191593162379223291

> <PUBCHEM_SHAPE_MULTIPOLES>
302.82
5.29
2.15
1.39
2.11
0.81
0.13
-3.45
0.34
-1.29
-0.24
-0.12
0.26
0.01

> <PUBCHEM_SHAPE_SELFOVERLAP>
615.427

> <PUBCHEM_SHAPE_VOLUME>
178.4

> <PUBCHEM_COORDINATE_TYPE>
2
5
10

> <Energy>
46.4329

> <minimizedAffinity>
-7.32311

> <CNNscore>
0.9240589738

> <CNNaffinity>
6.9960532188

> <CNN_VS>
6.4647655487

> <CNNaffinity_variance>
0.5134499669

$$$$
8814


 16 16  0  0  0  0  0  0  0  0999 V2000
   -4.8730   -2.9487   21.8059 C   0  0  0  0  0  0  0  0  0  0  0  0
   -5.5719   -2.5754   20.4628 C   0  0  0  0  0  0  0  0  0  0  0  0
   -5.4324   -1.9376   22.8338 C   0  0  0  0  0  0  0  0  0  0  0  0
    0.7564   -2.5915   20.8923 O   0  0  0  0  0  0  0  0  0  0  0  0
   -3.3600   -2.8267   21.5695 C   0  0  0  0  0  0  0  0  0  0  0  0
   -2.8328   -2.9767   20.2688 C   0  0  0  0  0  0  0  0  0  0  0  0
   -2.4512   -2.5756   22.6112 C   0  0  0  0  0  0  0  0  0  0  0  0
   -1.4592   -2.8996   20.0242 C   0  0  0  0  0  0  0  0  0  0  0  0
   -1.0776   -2.5000   22.3695 C   0  0  0  0  0  0  0  0  0  0  0  0
   -0.5923   -2.6658   21.0799 C   0  0  0  0  0  0  0  0  0  0  0  0
    1.1167   -2.6990   20.0340 H   0  0  0  0  0  0  0  0  0  0  0  0
   -5.3157   -4.4124   22.1669 C   0  0  0  0  0  0  0  0  0  0  0  0
   -5.8980   -5.4198   21.1175 C   0  0  0  0  0  0  0  0  0  0  0  0
   -5.2725   -5.0491   19.7492 C   0  0  0  0  0  0  0  0  0  0  0  0
   -7.4226   -5.3165   20.9704 C   0  0  0  0  0  0  0  0  0  0  0  0
   -5.5264   -6.8854   21.3923 C   0  0  0  0  0  0  0  0  0  0  0  0
  4 10  1  0
  4 11  1  0
  1 12  1  0
  1  5  1  0
  1  2  1  0
  1  3  1  0
 13 12  1  0
 13 14  1  0
 13 15  1  0
 13 16  1  0
  5  6  2  0
  5  7  1  0
  6  8  1  0
  7  9  2  0
  8 10  2  0
  9 10  1  0
M  END
> <PUBCHEM_COMPOUND_CID>
8814

> <PUBCHEM_CONFORMER_RMSD>
0.6

> <PUBCHEM_CONFORMER_DIVERSEORDER>
1
5
4
3
2

> <PUBCHEM_MMFF94_PARTIAL_CHARGES>
13
1 -0.53
11 -0.15
12 -0.15
13 -0.15
14 -0.15
15 0.08
2 0.14
33 0.15
34 0.15
35 0.15
36 0.15
37 0.45
5 -0.14

> <PUBCHEM_EFFECTIVE_ROTOR_COUNT>
3

> <PUBCHEM_PHARMACOPHORE_FEATURES>
4
1 1 donor
3 2 6 7 hydrophobe
4 3 8 9 10 hydrophobe
6 5 11 12 13 14 15 rings

> <PUBCHEM_HEAVY_ATOM_COUNT>
15

> <PUBCHEM_ATOM_DEF_STEREO_COUNT>
0

> <PUBCHEM_ATOM_UDEF_STEREO_COUNT>
0

> <PUBCHEM_BOND_DEF_STEREO_COUNT>
0

> <PUBCHEM_BOND_UDEF_STEREO_COUNT>
0

> <PUBCHEM_ISOTOPIC_ATOM_COUNT>
0

> <PUBCHEM_COMPONENT_COUNT>
1

> <PUBCHEM_CACTVS_TAUTO_COUNT>
2

> <PUBCHEM_CONFORMER_ID>
0000226E00000001

> <PUBCHEM_MMFF94_ENERGY>
60.6732

> <PUBCHEM_FEATURE_SELFOVERLAP>
20.297

> <PUBCHEM_SHAPE_FINGERPRINT>
1 1 18122065299635933247
11471102 22 13984658170435925480
12138202 97 18272929444633088966
12251169 10 14923953348599690641
12423570 1 15084294979065354379
124424 183 18201999928641116818
12491281 212 18273493468196309381
12532896 13 18409735040726507851
13299463 15 16200422598337566991
13538477 17 17822291326855117498
13764800 53 18335714831507604569
13839132 238 18413110537123213324
14817 1 11689340854733718479
15375462 478 15647061443078261877
15775835 57 18339078194495494345
16945 1 17988065786023185643
18186145 218 18200036118541666588
18534176 82 18271243927656786518
19837323 101 18335708272823803859
20525323 117 18337111292773698462
20645476 183 17894351081266785547
21296965 12 18260545576729377063
21501502 16 18271800211963701222
21524375 3 18339638928324873163
21947302 44 18059017168310697110
22802520 49 18199766781279703998
23402539 116 18267296706830970519
23419403 2 17194099544908694927
23557571 272 18198918083120765556
23559900 14 18342742906418193234
25 1 17845383149850037993
2748010 2 18262817159083630983
276578 36 18189342281366350763
305870 269 18040992882718168402
430814 3 18041565736850213531
549884 4 17416683544816290937
6333449 129 18343582975122638285
6442390 28 18269297706777891659
7364860 26 17834677097914689979
81228 2 18191593162379223291

> <PUBCHEM_SHAPE_MULTIPOLES>
302.82
5.29
2.15
1.39
2.11
0.81
0.13
-3.45
0.34
-1.29
-0.24
-0.12
0.26
0.01

> <PUBCHEM_SHAPE_SELFOVERLAP>
615.427

> <PUBCHEM_SHAPE_VOLUME>
178.4

> <PUBCHEM_COORDINATE_TYPE>
2
5
10

> <Energy>
46.4329

> <minimizedAffinity>
-7.37933

> <CNNscore>
0.9094570279

> <CNNaffinity>
7.2083382607

> <CNN_VS>
6.5556740761

> <CNNaffinity_variance>
0.8244538307

$$$$
8814


 16 16  0  0  0  0  0  0  0  0999 V2000
   -4.8079   -3.7025   22.2106 C   0  0  0  0  0  0  0  0  0  0  0  0
   -5.6434   -2.8990   21.1675 C   0  0  0  0  0  0  0  0  0  0  0  0
   -5.2193   -3.1140   23.5803 C   0  0  0  0  0  0  0  0  0  0  0  0
    0.6758   -2.8029   20.8797 O   0  0  0  0  0  0  0  0  0  0  0  0
   -3.3285   -3.4873   21.8572 C   0  0  0  0  0  0  0  0  0  0  0  0
   -2.5385   -2.6054   22.6256 C   0  0  0  0  0  0  0  0  0  0  0  0
   -2.7093   -4.1344   20.7745 C   0  0  0  0  0  0  0  0  0  0  0  0
   -1.1977   -2.3660   22.3138 C   0  0  0  0  0  0  0  0  0  0  0  0
   -1.3698   -3.8953   20.4597 C   0  0  0  0  0  0  0  0  0  0  0  0
   -0.6259   -3.0113   21.2287 C   0  0  0  0  0  0  0  0  0  0  0  0
    1.2057   -2.2122   21.3780 H   0  0  0  0  0  0  0  0  0  0  0  0
   -5.2477   -5.2066   22.0960 C   0  0  0  0  0  0  0  0  0  0  0  0
   -6.0193   -5.7869   20.8620 C   0  0  0  0  0  0  0  0  0  0  0  0
   -7.5152   -5.4393   21.0681 C   0  0  0  0  0  0  0  0  0  0  0  0
   -5.9119   -7.3145   20.7530 C   0  0  0  0  0  0  0  0  0  0  0  0
   -5.6005   -5.1654   19.5204 C   0  0  0  0  0  0  0  0  0  0  0  0
  4 10  1  0
  4 11  1  0
  1 12  1  0
  1  5  1  0
  1  2  1  0
  1  3  1  0
 13 12  1  0
 13 14  1  0
 13 15  1  0
 13 16  1  0
  5  6  2  0
  5  7  1  0
  6  8  1  0
  7  9  2  0
  8 10  2  0
  9 10  1  0
M  END
> <PUBCHEM_COMPOUND_CID>
8814

> <PUBCHEM_CONFORMER_RMSD>
0.6

> <PUBCHEM_CONFORMER_DIVERSEORDER>
1
5
4
3
2

> <PUBCHEM_MMFF94_PARTIAL_CHARGES>
13
1 -0.53
11 -0.15
12 -0.15
13 -0.15
14 -0.15
15 0.08
2 0.14
33 0.15
34 0.15
35 0.15
36 0.15
37 0.45
5 -0.14

> <PUBCHEM_EFFECTIVE_ROTOR_COUNT>
3

> <PUBCHEM_PHARMACOPHORE_FEATURES>
4
1 1 donor
3 2 6 7 hydrophobe
4 3 8 9 10 hydrophobe
6 5 11 12 13 14 15 rings

> <PUBCHEM_HEAVY_ATOM_COUNT>
15

> <PUBCHEM_ATOM_DEF_STEREO_COUNT>
0

> <PUBCHEM_ATOM_UDEF_STEREO_COUNT>
0

> <PUBCHEM_BOND_DEF_STEREO_COUNT>
0

> <PUBCHEM_BOND_UDEF_STEREO_COUNT>
0

> <PUBCHEM_ISOTOPIC_ATOM_COUNT>
0

> <PUBCHEM_COMPONENT_COUNT>
1

> <PUBCHEM_CACTVS_TAUTO_COUNT>
2

> <PUBCHEM_CONFORMER_ID>
0000226E00000001

> <PUBCHEM_MMFF94_ENERGY>
60.6732

> <PUBCHEM_FEATURE_SELFOVERLAP>
20.297

> <PUBCHEM_SHAPE_FINGERPRINT>
1 1 18122065299635933247
11471102 22 13984658170435925480
12138202 97 18272929444633088966
12251169 10 14923953348599690641
12423570 1 15084294979065354379
124424 183 18201999928641116818
12491281 212 18273493468196309381
12532896 13 18409735040726507851
13299463 15 16200422598337566991
13538477 17 17822291326855117498
13764800 53 18335714831507604569
13839132 238 18413110537123213324
14817 1 11689340854733718479
15375462 478 15647061443078261877
15775835 57 18339078194495494345
16945 1 17988065786023185643
18186145 218 18200036118541666588
18534176 82 18271243927656786518
19837323 101 18335708272823803859
20525323 117 18337111292773698462
20645476 183 17894351081266785547
21296965 12 18260545576729377063
21501502 16 18271800211963701222
21524375 3 18339638928324873163
21947302 44 18059017168310697110
22802520 49 18199766781279703998
23402539 116 18267296706830970519
23419403 2 17194099544908694927
23557571 272 18198918083120765556
23559900 14 18342742906418193234
25 1 17845383149850037993
2748010 2 18262817159083630983
276578 36 18189342281366350763
305870 269 18040992882718168402
430814 3 18041565736850213531
549884 4 17416683544816290937
6333449 129 18343582975122638285
6442390 28 18269297706777891659
7364860 26 17834677097914689979
81228 2 18191593162379223291

> <PUBCHEM_SHAPE_MULTIPOLES>
302.82
5.29
2.15
1.39
2.11
0.81
0.13
-3.45
0.34
-1.29
-0.24
-0.12
0.26
0.01

> <PUBCHEM_SHAPE_SELFOVERLAP>
615.427

> <PUBCHEM_SHAPE_VOLUME>
178.4

> <PUBCHEM_COORDINATE_TYPE>
2
5
10

> <Energy>
46.4329

> <minimizedAffinity>
-7.31492

> <CNNscore>
0.9023421407

> <CNNaffinity>
6.9760131836

> <CNN_VS>
6.2947506905

> <CNNaffinity_variance>
0.5215814114

$$$$
8814


 16 16  0  0  0  0  0  0  0  0999 V2000
   -5.2351   -5.4314   21.6173 C   0  0  0  0  0  0  0  0  0  0  0  0
   -4.6933   -6.8712   21.8724 C   0  0  0  0  0  0  0  0  0  0  0  0
   -6.4863   -5.6341   20.7312 C   0  0  0  0  0  0  0  0  0  0  0  0
   -1.0259   -2.4502   19.1582 O   0  0  0  0  0  0  0  0  0  0  0  0
   -4.1062   -4.6454   20.9335 C   0  0  0  0  0  0  0  0  0  0  0  0
   -2.8087   -4.6428   21.4892 C   0  0  0  0  0  0  0  0  0  0  0  0
   -4.3081   -3.9031   19.7578 C   0  0  0  0  0  0  0  0  0  0  0  0
   -1.7667   -3.9156   20.9078 C   0  0  0  0  0  0  0  0  0  0  0  0
   -3.2687   -3.1739   19.1759 C   0  0  0  0  0  0  0  0  0  0  0  0
   -2.0082   -3.1828   19.7566 C   0  0  0  0  0  0  0  0  0  0  0  0
   -0.1637   -2.4348   19.5247 H   0  0  0  0  0  0  0  0  0  0  0  0
   -5.6332   -4.8324   23.0142 C   0  0  0  0  0  0  0  0  0  0  0  0
   -6.0548   -3.3376   23.2220 C   0  0  0  0  0  0  0  0  0  0  0  0
   -6.9573   -3.3001   24.4810 C   0  0  0  0  0  0  0  0  0  0  0  0
   -6.8744   -2.7784   22.0506 C   0  0  0  0  0  0  0  0  0  0  0  0
   -4.8742   -2.3924   23.4945 C   0  0  0  0  0  0  0  0  0  0  0  0
  4 10  1  0
  4 11  1  0
  1 12  1  0
  1  5  1  0
  1  2  1  0
  1  3  1  0
 13 12  1  0
 13 14  1  0
 13 15  1  0
 13 16  1  0
  5  6  2  0
  5  7  1  0
  6  8  1  0
  7  9  2  0
  8 10  2  0
  9 10  1  0
M  END
> <PUBCHEM_COMPOUND_CID>
8814

> <PUBCHEM_CONFORMER_RMSD>
0.6

> <PUBCHEM_CONFORMER_DIVERSEORDER>
1
5
4
3
2

> <PUBCHEM_MMFF94_PARTIAL_CHARGES>
13
1 -0.53
11 -0.15
12 -0.15
13 -0.15
14 -0.15
15 0.08
2 0.14
33 0.15
34 0.15
35 0.15
36 0.15
37 0.45
5 -0.14

> <PUBCHEM_EFFECTIVE_ROTOR_COUNT>
3

> <PUBCHEM_PHARMACOPHORE_FEATURES>
4
1 1 donor
3 2 6 7 hydrophobe
4 3 8 9 10 hydrophobe
6 5 11 12 13 14 15 rings

> <PUBCHEM_HEAVY_ATOM_COUNT>
15

> <PUBCHEM_ATOM_DEF_STEREO_COUNT>
0

> <PUBCHEM_ATOM_UDEF_STEREO_COUNT>
0

> <PUBCHEM_BOND_DEF_STEREO_COUNT>
0

> <PUBCHEM_BOND_UDEF_STEREO_COUNT>
0

> <PUBCHEM_ISOTOPIC_ATOM_COUNT>
0

> <PUBCHEM_COMPONENT_COUNT>
1

> <PUBCHEM_CACTVS_TAUTO_COUNT>
2

> <PUBCHEM_CONFORMER_ID>
0000226E00000001

> <PUBCHEM_MMFF94_ENERGY>
60.6732

> <PUBCHEM_FEATURE_SELFOVERLAP>
20.297

> <PUBCHEM_SHAPE_FINGERPRINT>
1 1 18122065299635933247
11471102 22 13984658170435925480
12138202 97 18272929444633088966
12251169 10 14923953348599690641
12423570 1 15084294979065354379
124424 183 18201999928641116818
12491281 212 18273493468196309381
12532896 13 18409735040726507851
13299463 15 16200422598337566991
13538477 17 17822291326855117498
13764800 53 18335714831507604569
13839132 238 18413110537123213324
14817 1 11689340854733718479
15375462 478 15647061443078261877
15775835 57 18339078194495494345
16945 1 17988065786023185643
18186145 218 18200036118541666588
18534176 82 18271243927656786518
19837323 101 18335708272823803859
20525323 117 18337111292773698462
20645476 183 17894351081266785547
21296965 12 18260545576729377063
21501502 16 18271800211963701222
21524375 3 18339638928324873163
21947302 44 18059017168310697110
22802520 49 18199766781279703998
23402539 116 18267296706830970519
23419403 2 17194099544908694927
23557571 272 18198918083120765556
23559900 14 18342742906418193234
25 1 17845383149850037993
2748010 2 18262817159083630983
276578 36 18189342281366350763
305870 269 18040992882718168402
430814 3 18041565736850213531
549884 4 17416683544816290937
6333449 129 18343582975122638285
6442390 28 18269297706777891659
7364860 26 17834677097914689979
81228 2 18191593162379223291

> <PUBCHEM_SHAPE_MULTIPOLES>
302.82
5.29
2.15
1.39
2.11
0.81
0.13
-3.45
0.34
-1.29
-0.24
-0.12
0.26
0.01

> <PUBCHEM_SHAPE_SELFOVERLAP>
615.427

> <PUBCHEM_SHAPE_VOLUME>
178.4

> <PUBCHEM_COORDINATE_TYPE>
2
5
10

> <Energy>
46.4329

> <minimizedAffinity>
-7.42787

> <CNNscore>
0.8967794180

> <CNNaffinity>
6.8254570961

> <CNN_VS>
6.1209292412

> <CNNaffinity_variance>
0.4230116308

$$$$
