8571


 22 23  0  0  0  0  0  0  0  0999 V2000
   -4.8232   -3.0830   20.6795 O   0  0  0  0  0  0  0  0  0  0  0  0
   -4.0359   -3.8449   21.2344 C   0  0  0  0  0  0  0  0  0  0  0  0
   -2.7050   -2.5170   23.4116 O   0  0  0  0  0  0  0  0  0  0  0  0
    1.4846   -2.6994   21.1793 O   0  0  0  0  0  0  0  0  0  0  0  0
   -2.5804   -3.5550   21.2102 C   0  0  0  0  0  0  0  0  0  0  0  0
   -1.9930   -2.9008   22.3053 C   0  0  0  0  0  0  0  0  0  0  0  0
   -1.7805   -3.9072   20.1146 C   0  0  0  0  0  0  0  0  0  0  0  0
   -0.6291   -2.6151   22.3186 C   0  0  0  0  0  0  0  0  0  0  0  0
   -0.4162   -3.6060   20.1203 C   0  0  0  0  0  0  0  0  0  0  0  0
    0.1483   -2.9684   21.2204 C   0  0  0  0  0  0  0  0  0  0  0  0
   -3.6259   -2.6839   23.4571 H   0  0  0  0  0  0  0  0  0  0  0  0
    1.8987   -2.2709   21.9024 H   0  0  0  0  0  0  0  0  0  0  0  0
   -5.6574   -3.5261   23.4962 O   0  0  0  0  0  0  0  0  0  0  0  0
   -6.0232   -8.2793   24.0267 O   0  0  0  0  0  0  0  0  0  0  0  0
   -4.5564   -5.0050   21.9774 C   0  0  0  0  0  0  0  0  0  0  0  0
   -5.3742   -4.8003   23.0924 C   0  0  0  0  0  0  0  0  0  0  0  0
   -4.2474   -6.2977   21.5464 C   0  0  0  0  0  0  0  0  0  0  0  0
   -5.8874   -5.8905   23.7931 C   0  0  0  0  0  0  0  0  0  0  0  0
   -4.7435   -7.3890   22.2595 C   0  0  0  0  0  0  0  0  0  0  0  0
   -5.5593   -7.1777   23.3700 C   0  0  0  0  0  0  0  0  0  0  0  0
   -5.3101   -2.7964   23.0220 H   0  0  0  0  0  0  0  0  0  0  0  0
   -6.5743   -8.1794   24.7778 H   0  0  0  0  0  0  0  0  0  0  0  0
  3  6  1  0
  3 11  1  0
 13 16  1  0
 13 21  1  0
  1  2  2  0
  4 10  1  0
  4 12  1  0
 14 20  1  0
 14 22  1  0
  5  2  1  0
  5  6  2  0
  5  7  1  0
 15  2  1  0
 15 16  2  0
 15 17  1  0
  6  8  1  0
 16 18  1  0
  7  9  2  0
 17 19  2  0
  8 10  2  0
 18 20  2  0
  9 10  1  0
 19 20  1  0
M  END
> <PUBCHEM_COMPOUND_CID>
8571

> <PUBCHEM_CONFORMER_RMSD>
0.6

> <PUBCHEM_CONFORMER_DIVERSEORDER>
3
14
8
5
6
10
13
11
12
7
2
4
9
1

> <PUBCHEM_MMFF94_PARTIAL_CHARGES>
28
1 -0.53
10 0.08
11 -0.15
12 -0.15
13 -0.15
14 -0.15
15 -0.15
16 -0.15
17 0.08
18 0.08
19 0.15
2 -0.53
20 0.15
21 0.15
22 0.15
23 0.15
24 0.15
25 0.45
26 0.45
27 0.45
28 0.45
3 -0.57
4 -0.53
5 -0.53
6 0.09
7 0.09
8 0.4
9 0.08

> <PUBCHEM_EFFECTIVE_ROTOR_COUNT>
2

> <PUBCHEM_PHARMACOPHORE_FEATURES>
7
1 1 donor
1 2 donor
1 3 acceptor
1 4 donor
1 5 donor
6 6 9 11 13 15 17 rings
6 7 10 12 14 16 18 rings

> <PUBCHEM_HEAVY_ATOM_COUNT>
18

> <PUBCHEM_ATOM_DEF_STEREO_COUNT>
0

> <PUBCHEM_ATOM_UDEF_STEREO_COUNT>
0

> <PUBCHEM_BOND_DEF_STEREO_COUNT>
0

> <PUBCHEM_BOND_UDEF_STEREO_COUNT>
0

> <PUBCHEM_ISOTOPIC_ATOM_COUNT>
0

> <PUBCHEM_COMPONENT_COUNT>
1

> <PUBCHEM_CACTVS_TAUTO_COUNT>
72

> <PUBCHEM_CONFORMER_ID>
0000217B00000003

> <PUBCHEM_MMFF94_ENERGY>
59.7646

> <PUBCHEM_FEATURE_SELFOVERLAP>
35.523

> <PUBCHEM_SHAPE_FINGERPRINT>
11471102 20 18409169892103070408
11543360 7 16558473084182650672
11578080 2 11531614863815746903
12236239 1 18131065996288699443
12730499 353 18260275135465842107
13764800 53 16298659508524951853
14115302 16 17274813641062312855
14993402 34 17846215540487606185
15309172 13 17603583049510828995
15342168 16 17968104165179409005
15775835 57 18412826888988243309
16752209 62 16702019734536568467
16945 1 18338804403115108058
1813 80 17908702826610089778
18186145 218 18334579027342918966
19784866 34 18334295413878624880
19862831 5 17703791439638752137
19868273 293 17846494850753190559
20612939 158 18410015399459763708
20645476 183 18131345336920073351
20645477 70 18339644438557177238
20871999 31 17703499013054573895
21486144 27 18040157318289672158
22079108 93 18187935001610251691
22854114 59 17458065950124340569
231179 274 17822006519258234448
23402539 116 18409442626948148612
23402655 69 18343585139818180612
23559900 14 18270131244514800908
23598291 2 17916313731579383754
25 1 18335137605093349618
2748010 2 18049736405846724776
2838139 119 17898835865392311757
3082319 5 17846778520178562597
350125 39 17829344823007393920
4028521 119 18341894112446576825
474 4 18335984259027423912
5374978 207 12973890299285696421
633830 44 18335985259854816367
74978 22 17775280611934871745
76465 3 11743574149888780620
77492 1 18131067091542367739
81228 2 16880770831219455195
8272917 22 18265617572439684195
9981440 41 17624393673978878472

> <PUBCHEM_SHAPE_MULTIPOLES>
341.08
8.1
1.9
1.16
0.73
0.35
-0.07
-4.23
-1.78
-1.35
0.05
0.84
0.24
-0.62

> <PUBCHEM_SHAPE_SELFOVERLAP>
750.848

> <PUBCHEM_SHAPE_VOLUME>
184

> <PUBCHEM_COORDINATE_TYPE>
2
5
10

> <Energy>
46.2868

> <minimizedAffinity>
-8.60968

> <CNNscore>
0.7407047153

> <CNNaffinity>
5.7544960976

> <CNN_VS>
4.2623825073

> <CNNaffinity_variance>
0.3157792985

$$$$
8571


 22 23  0  0  0  0  0  0  0  0999 V2000
   -4.8127   -3.0799   20.6441 O   0  0  0  0  0  0  0  0  0  0  0  0
   -4.0449   -3.7988   21.2780 C   0  0  0  0  0  0  0  0  0  0  0  0
   -5.7655   -3.5645   23.5714 O   0  0  0  0  0  0  0  0  0  0  0  0
   -6.0283   -8.2823   24.0629 O   0  0  0  0  0  0  0  0  0  0  0  0
   -4.5656   -4.9876   21.9984 C   0  0  0  0  0  0  0  0  0  0  0  0
   -5.3995   -4.8032   23.1133 C   0  0  0  0  0  0  0  0  0  0  0  0
   -4.2344   -6.2899   21.6001 C   0  0  0  0  0  0  0  0  0  0  0  0
   -5.9092   -5.8958   23.8121 C   0  0  0  0  0  0  0  0  0  0  0  0
   -4.7317   -7.3853   22.3106 C   0  0  0  0  0  0  0  0  0  0  0  0
   -5.5662   -7.1810   23.4048 C   0  0  0  0  0  0  0  0  0  0  0  0
   -5.4523   -2.7940   23.1397 H   0  0  0  0  0  0  0  0  0  0  0  0
   -6.5925   -8.1827   24.8043 H   0  0  0  0  0  0  0  0  0  0  0  0
   -2.7757   -2.5432   23.4365 O   0  0  0  0  0  0  0  0  0  0  0  0
    1.4555   -2.7277   21.1846 O   0  0  0  0  0  0  0  0  0  0  0  0
   -2.6014   -3.5079   21.2582 C   0  0  0  0  0  0  0  0  0  0  0  0
   -2.0059   -2.8928   22.3632 C   0  0  0  0  0  0  0  0  0  0  0  0
   -1.8378   -3.8711   20.1458 C   0  0  0  0  0  0  0  0  0  0  0  0
   -0.6374   -2.6286   22.3635 C   0  0  0  0  0  0  0  0  0  0  0  0
   -0.4720   -3.5881   20.1368 C   0  0  0  0  0  0  0  0  0  0  0  0
    0.1156   -2.9753   21.2426 C   0  0  0  0  0  0  0  0  0  0  0  0
   -3.6953   -2.7229   23.4317 H   0  0  0  0  0  0  0  0  0  0  0  0
    1.8877   -2.3173   21.9075 H   0  0  0  0  0  0  0  0  0  0  0  0
  3  6  1  0
  3 11  1  0
 13 16  1  0
 13 21  1  0
  1  2  2  0
  4 10  1  0
  4 12  1  0
 14 20  1  0
 14 22  1  0
  5  2  1  0
  5  6  2  0
  5  7  1  0
 15  2  1  0
 15 16  2  0
 15 17  1  0
  6  8  1  0
 16 18  1  0
  7  9  2  0
 17 19  2  0
  8 10  2  0
 18 20  2  0
  9 10  1  0
 19 20  1  0
M  END
> <PUBCHEM_COMPOUND_CID>
8571

> <PUBCHEM_CONFORMER_RMSD>
0.6

> <PUBCHEM_CONFORMER_DIVERSEORDER>
3
14
8
5
6
10
13
11
12
7
2
4
9
1

> <PUBCHEM_MMFF94_PARTIAL_CHARGES>
28
1 -0.53
10 0.08
11 -0.15
12 -0.15
13 -0.15
14 -0.15
15 -0.15
16 -0.15
17 0.08
18 0.08
19 0.15
2 -0.53
20 0.15
21 0.15
22 0.15
23 0.15
24 0.15
25 0.45
26 0.45
27 0.45
28 0.45
3 -0.57
4 -0.53
5 -0.53
6 0.09
7 0.09
8 0.4
9 0.08

> <PUBCHEM_EFFECTIVE_ROTOR_COUNT>
2

> <PUBCHEM_PHARMACOPHORE_FEATURES>
7
1 1 donor
1 2 donor
1 3 acceptor
1 4 donor
1 5 donor
6 6 9 11 13 15 17 rings
6 7 10 12 14 16 18 rings

> <PUBCHEM_HEAVY_ATOM_COUNT>
18

> <PUBCHEM_ATOM_DEF_STEREO_COUNT>
0

> <PUBCHEM_ATOM_UDEF_STEREO_COUNT>
0

> <PUBCHEM_BOND_DEF_STEREO_COUNT>
0

> <PUBCHEM_BOND_UDEF_STEREO_COUNT>
0

> <PUBCHEM_ISOTOPIC_ATOM_COUNT>
0

> <PUBCHEM_COMPONENT_COUNT>
1

> <PUBCHEM_CACTVS_TAUTO_COUNT>
72

> <PUBCHEM_CONFORMER_ID>
0000217B00000003

> <PUBCHEM_MMFF94_ENERGY>
59.7646

> <PUBCHEM_FEATURE_SELFOVERLAP>
35.523

> <PUBCHEM_SHAPE_FINGERPRINT>
11471102 20 18409169892103070408
11543360 7 16558473084182650672
11578080 2 11531614863815746903
12236239 1 18131065996288699443
12730499 353 18260275135465842107
13764800 53 16298659508524951853
14115302 16 17274813641062312855
14993402 34 17846215540487606185
15309172 13 17603583049510828995
15342168 16 17968104165179409005
15775835 57 18412826888988243309
16752209 62 16702019734536568467
16945 1 18338804403115108058
1813 80 17908702826610089778
18186145 218 18334579027342918966
19784866 34 18334295413878624880
19862831 5 17703791439638752137
19868273 293 17846494850753190559
20612939 158 18410015399459763708
20645476 183 18131345336920073351
20645477 70 18339644438557177238
20871999 31 17703499013054573895
21486144 27 18040157318289672158
22079108 93 18187935001610251691
22854114 59 17458065950124340569
231179 274 17822006519258234448
23402539 116 18409442626948148612
23402655 69 18343585139818180612
23559900 14 18270131244514800908
23598291 2 17916313731579383754
25 1 18335137605093349618
2748010 2 18049736405846724776
2838139 119 17898835865392311757
3082319 5 17846778520178562597
350125 39 17829344823007393920
4028521 119 18341894112446576825
474 4 18335984259027423912
5374978 207 12973890299285696421
633830 44 18335985259854816367
74978 22 17775280611934871745
76465 3 11743574149888780620
77492 1 18131067091542367739
81228 2 16880770831219455195
8272917 22 18265617572439684195
9981440 41 17624393673978878472

> <PUBCHEM_SHAPE_MULTIPOLES>
341.08
8.1
1.9
1.16
0.73
0.35
-0.07
-4.23
-1.78
-1.35
0.05
0.84
0.24
-0.62

> <PUBCHEM_SHAPE_SELFOVERLAP>
750.848

> <PUBCHEM_SHAPE_VOLUME>
184

> <PUBCHEM_COORDINATE_TYPE>
2
5
10

> <Energy>
46.2868

> <minimizedAffinity>
-8.60089

> <CNNscore>
0.7339082360

> <CNNaffinity>
5.8179411888

> <CNN_VS>
4.2698349953

> <CNNaffinity_variance>
0.3448285162

$$$$
8571


 22 23  0  0  0  0  0  0  0  0999 V2000
   -4.7368   -2.7424   20.8281 O   0  0  0  0  0  0  0  0  0  0  0  0
   -3.9022   -3.6421   20.8745 C   0  0  0  0  0  0  0  0  0  0  0  0
   -2.1180   -4.1716   18.6810 O   0  0  0  0  0  0  0  0  0  0  0  0
    1.6001   -2.4262   21.0679 O   0  0  0  0  0  0  0  0  0  0  0  0
   -2.4565   -3.3111   20.9358 C   0  0  0  0  0  0  0  0  0  0  0  0
   -1.6395   -3.5985   19.8302 C   0  0  0  0  0  0  0  0  0  0  0  0
   -1.8848   -2.7300   22.0758 C   0  0  0  0  0  0  0  0  0  0  0  0
   -0.2788   -3.2989   19.8510 C   0  0  0  0  0  0  0  0  0  0  0  0
   -0.5174   -2.4448   22.1034 C   0  0  0  0  0  0  0  0  0  0  0  0
    0.2720   -2.7262   20.9930 C   0  0  0  0  0  0  0  0  0  0  0  0
   -3.0256   -4.3942   18.6112 H   0  0  0  0  0  0  0  0  0  0  0  0
    2.1621   -2.6020   20.3391 H   0  0  0  0  0  0  0  0  0  0  0  0
   -2.7348   -5.4775   22.6395 O   0  0  0  0  0  0  0  0  0  0  0  0
   -5.6574   -8.9595   21.1090 O   0  0  0  0  0  0  0  0  0  0  0  0
   -4.3532   -5.0426   20.9372 C   0  0  0  0  0  0  0  0  0  0  0  0
   -3.7526   -5.9214   21.8432 C   0  0  0  0  0  0  0  0  0  0  0  0
   -5.3925   -5.4723   20.1080 C   0  0  0  0  0  0  0  0  0  0  0  0
   -4.1830   -7.2446   21.9244 C   0  0  0  0  0  0  0  0  0  0  0  0
   -5.8097   -6.8017   20.1740 C   0  0  0  0  0  0  0  0  0  0  0  0
   -5.2069   -7.6725   21.0805 C   0  0  0  0  0  0  0  0  0  0  0  0
   -2.4489   -4.5870   22.5813 H   0  0  0  0  0  0  0  0  0  0  0  0
   -5.2780   -9.5755   21.7043 H   0  0  0  0  0  0  0  0  0  0  0  0
  3  6  1  0
  3 11  1  0
 13 16  1  0
 13 21  1  0
  1  2  2  0
  4 10  1  0
  4 12  1  0
 14 20  1  0
 14 22  1  0
  5  2  1  0
  5  6  2  0
  5  7  1  0
 15  2  1  0
 15 16  2  0
 15 17  1  0
  6  8  1  0
 16 18  1  0
  7  9  2  0
 17 19  2  0
  8 10  2  0
 18 20  2  0
  9 10  1  0
 19 20  1  0
M  END
> <PUBCHEM_COMPOUND_CID>
8571

> <PUBCHEM_CONFORMER_RMSD>
0.6

> <PUBCHEM_CONFORMER_DIVERSEORDER>
3
14
8
5
6
10
13
11
12
7
2
4
9
1

> <PUBCHEM_MMFF94_PARTIAL_CHARGES>
28
1 -0.53
10 0.08
11 -0.15
12 -0.15
13 -0.15
14 -0.15
15 -0.15
16 -0.15
17 0.08
18 0.08
19 0.15
2 -0.53
20 0.15
21 0.15
22 0.15
23 0.15
24 0.15
25 0.45
26 0.45
27 0.45
28 0.45
3 -0.57
4 -0.53
5 -0.53
6 0.09
7 0.09
8 0.4
9 0.08

> <PUBCHEM_EFFECTIVE_ROTOR_COUNT>
2

> <PUBCHEM_PHARMACOPHORE_FEATURES>
7
1 1 donor
1 2 donor
1 3 acceptor
1 4 donor
1 5 donor
6 6 9 11 13 15 17 rings
6 7 10 12 14 16 18 rings

> <PUBCHEM_HEAVY_ATOM_COUNT>
18

> <PUBCHEM_ATOM_DEF_STEREO_COUNT>
0

> <PUBCHEM_ATOM_UDEF_STEREO_COUNT>
0

> <PUBCHEM_BOND_DEF_STEREO_COUNT>
0

> <PUBCHEM_BOND_UDEF_STEREO_COUNT>
0

> <PUBCHEM_ISOTOPIC_ATOM_COUNT>
0

> <PUBCHEM_COMPONENT_COUNT>
1

> <PUBCHEM_CACTVS_TAUTO_COUNT>
72

> <PUBCHEM_CONFORMER_ID>
0000217B00000003

> <PUBCHEM_MMFF94_ENERGY>
59.7646

> <PUBCHEM_FEATURE_SELFOVERLAP>
35.523

> <PUBCHEM_SHAPE_FINGERPRINT>
11471102 20 18409169892103070408
11543360 7 16558473084182650672
11578080 2 11531614863815746903
12236239 1 18131065996288699443
12730499 353 18260275135465842107
13764800 53 16298659508524951853
14115302 16 17274813641062312855
14993402 34 17846215540487606185
15309172 13 17603583049510828995
15342168 16 17968104165179409005
15775835 57 18412826888988243309
16752209 62 16702019734536568467
16945 1 18338804403115108058
1813 80 17908702826610089778
18186145 218 18334579027342918966
19784866 34 18334295413878624880
19862831 5 17703791439638752137
19868273 293 17846494850753190559
20612939 158 18410015399459763708
20645476 183 18131345336920073351
20645477 70 18339644438557177238
20871999 31 17703499013054573895
21486144 27 18040157318289672158
22079108 93 18187935001610251691
22854114 59 17458065950124340569
231179 274 17822006519258234448
23402539 116 18409442626948148612
23402655 69 18343585139818180612
23559900 14 18270131244514800908
23598291 2 17916313731579383754
25 1 18335137605093349618
2748010 2 18049736405846724776
2838139 119 17898835865392311757
3082319 5 17846778520178562597
350125 39 17829344823007393920
4028521 119 18341894112446576825
474 4 18335984259027423912
5374978 207 12973890299285696421
633830 44 18335985259854816367
74978 22 17775280611934871745
76465 3 11743574149888780620
77492 1 18131067091542367739
81228 2 16880770831219455195
8272917 22 18265617572439684195
9981440 41 17624393673978878472

> <PUBCHEM_SHAPE_MULTIPOLES>
341.08
8.1
1.9
1.16
0.73
0.35
-0.07
-4.23
-1.78
-1.35
0.05
0.84
0.24
-0.62

> <PUBCHEM_SHAPE_SELFOVERLAP>
750.848

> <PUBCHEM_SHAPE_VOLUME>
184

> <PUBCHEM_COORDINATE_TYPE>
2
5
10

> <Energy>
46.2868

> <minimizedAffinity>
-8.34924

> <CNNscore>
0.7266628742

> <CNNaffinity>
5.1239585876

> <CNN_VS>
3.7233905792

> <CNNaffinity_variance>
0.2190201133

$$$$
8571


 22 23  0  0  0  0  0  0  0  0999 V2000
   -4.7973   -2.5256   21.2335 O   0  0  0  0  0  0  0  0  0  0  0  0
   -4.0228   -3.4749   21.1500 C   0  0  0  0  0  0  0  0  0  0  0  0
   -2.8643   -5.7032   22.5528 O   0  0  0  0  0  0  0  0  0  0  0  0
   -5.9809   -8.7380   20.6437 O   0  0  0  0  0  0  0  0  0  0  0  0
   -4.5520   -4.8549   21.0130 C   0  0  0  0  0  0  0  0  0  0  0  0
   -3.9380   -5.8988   21.7240 C   0  0  0  0  0  0  0  0  0  0  0  0
   -5.6423   -5.1430   20.1808 C   0  0  0  0  0  0  0  0  0  0  0  0
   -4.4096   -7.2061   21.6220 C   0  0  0  0  0  0  0  0  0  0  0  0
   -6.1050   -6.4563   20.0654 C   0  0  0  0  0  0  0  0  0  0  0  0
   -5.4902   -7.4739   20.7878 C   0  0  0  0  0  0  0  0  0  0  0  0
   -2.5054   -4.8442   22.6597 H   0  0  0  0  0  0  0  0  0  0  0  0
   -5.5916   -9.4483   21.1149 H   0  0  0  0  0  0  0  0  0  0  0  0
   -2.5421   -3.7398   18.7870 O   0  0  0  0  0  0  0  0  0  0  0  0
    1.4923   -2.4823   21.0563 O   0  0  0  0  0  0  0  0  0  0  0  0
   -2.5722   -3.2225   21.1188 C   0  0  0  0  0  0  0  0  0  0  0  0
   -1.8746   -3.3524   19.9145 C   0  0  0  0  0  0  0  0  0  0  0  0
   -1.9127   -2.8326   22.2873 C   0  0  0  0  0  0  0  0  0  0  0  0
   -0.5049   -3.0988   19.8686 C   0  0  0  0  0  0  0  0  0  0  0  0
   -0.5382   -2.5988   22.2466 C   0  0  0  0  0  0  0  0  0  0  0  0
    0.1512   -2.7294   21.0419 C   0  0  0  0  0  0  0  0  0  0  0  0
   -3.4630   -3.9092   18.8227 H   0  0  0  0  0  0  0  0  0  0  0  0
    1.9913   -2.5592   20.2671 H   0  0  0  0  0  0  0  0  0  0  0  0
  3  6  1  0
  3 11  1  0
 13 16  1  0
 13 21  1  0
  1  2  2  0
  4 10  1  0
  4 12  1  0
 14 20  1  0
 14 22  1  0
  5  2  1  0
  5  6  2  0
  5  7  1  0
 15  2  1  0
 15 16  2  0
 15 17  1  0
  6  8  1  0
 16 18  1  0
  7  9  2  0
 17 19  2  0
  8 10  2  0
 18 20  2  0
  9 10  1  0
 19 20  1  0
M  END
> <PUBCHEM_COMPOUND_CID>
8571

> <PUBCHEM_CONFORMER_RMSD>
0.6

> <PUBCHEM_CONFORMER_DIVERSEORDER>
3
14
8
5
6
10
13
11
12
7
2
4
9
1

> <PUBCHEM_MMFF94_PARTIAL_CHARGES>
28
1 -0.53
10 0.08
11 -0.15
12 -0.15
13 -0.15
14 -0.15
15 -0.15
16 -0.15
17 0.08
18 0.08
19 0.15
2 -0.53
20 0.15
21 0.15
22 0.15
23 0.15
24 0.15
25 0.45
26 0.45
27 0.45
28 0.45
3 -0.57
4 -0.53
5 -0.53
6 0.09
7 0.09
8 0.4
9 0.08

> <PUBCHEM_EFFECTIVE_ROTOR_COUNT>
2

> <PUBCHEM_PHARMACOPHORE_FEATURES>
7
1 1 donor
1 2 donor
1 3 acceptor
1 4 donor
1 5 donor
6 6 9 11 13 15 17 rings
6 7 10 12 14 16 18 rings

> <PUBCHEM_HEAVY_ATOM_COUNT>
18

> <PUBCHEM_ATOM_DEF_STEREO_COUNT>
0

> <PUBCHEM_ATOM_UDEF_STEREO_COUNT>
0

> <PUBCHEM_BOND_DEF_STEREO_COUNT>
0

> <PUBCHEM_BOND_UDEF_STEREO_COUNT>
0

> <PUBCHEM_ISOTOPIC_ATOM_COUNT>
0

> <PUBCHEM_COMPONENT_COUNT>
1

> <PUBCHEM_CACTVS_TAUTO_COUNT>
72

> <PUBCHEM_CONFORMER_ID>
0000217B00000003

> <PUBCHEM_MMFF94_ENERGY>
59.7646

> <PUBCHEM_FEATURE_SELFOVERLAP>
35.523

> <PUBCHEM_SHAPE_FINGERPRINT>
11471102 20 18409169892103070408
11543360 7 16558473084182650672
11578080 2 11531614863815746903
12236239 1 18131065996288699443
12730499 353 18260275135465842107
13764800 53 16298659508524951853
14115302 16 17274813641062312855
14993402 34 17846215540487606185
15309172 13 17603583049510828995
15342168 16 17968104165179409005
15775835 57 18412826888988243309
16752209 62 16702019734536568467
16945 1 18338804403115108058
1813 80 17908702826610089778
18186145 218 18334579027342918966
19784866 34 18334295413878624880
19862831 5 17703791439638752137
19868273 293 17846494850753190559
20612939 158 18410015399459763708
20645476 183 18131345336920073351
20645477 70 18339644438557177238
20871999 31 17703499013054573895
21486144 27 18040157318289672158
22079108 93 18187935001610251691
22854114 59 17458065950124340569
231179 274 17822006519258234448
23402539 116 18409442626948148612
23402655 69 18343585139818180612
23559900 14 18270131244514800908
23598291 2 17916313731579383754
25 1 18335137605093349618
2748010 2 18049736405846724776
2838139 119 17898835865392311757
3082319 5 17846778520178562597
350125 39 17829344823007393920
4028521 119 18341894112446576825
474 4 18335984259027423912
5374978 207 12973890299285696421
633830 44 18335985259854816367
74978 22 17775280611934871745
76465 3 11743574149888780620
77492 1 18131067091542367739
81228 2 16880770831219455195
8272917 22 18265617572439684195
9981440 41 17624393673978878472

> <PUBCHEM_SHAPE_MULTIPOLES>
341.08
8.1
1.9
1.16
0.73
0.35
-0.07
-4.23
-1.78
-1.35
0.05
0.84
0.24
-0.62

> <PUBCHEM_SHAPE_SELFOVERLAP>
750.848

> <PUBCHEM_SHAPE_VOLUME>
184

> <PUBCHEM_COORDINATE_TYPE>
2
5
10

> <Energy>
46.2868

> <minimizedAffinity>
-8.14427

> <CNNscore>
0.7168905139

> <CNNaffinity>
5.0200824738

> <CNN_VS>
3.5988495350

> <CNNaffinity_variance>
0.3170594275

$$$$
8571


 22 23  0  0  0  0  0  0  0  0999 V2000
   -4.8189   -2.9634   20.7040 O   0  0  0  0  0  0  0  0  0  0  0  0
   -4.0397   -3.7080   21.2927 C   0  0  0  0  0  0  0  0  0  0  0  0
   -5.9361   -3.5590   23.4506 O   0  0  0  0  0  0  0  0  0  0  0  0
   -5.9837   -8.2826   23.9546 O   0  0  0  0  0  0  0  0  0  0  0  0
   -4.5486   -4.9207   21.9810 C   0  0  0  0  0  0  0  0  0  0  0  0
   -5.4718   -4.7777   23.0296 C   0  0  0  0  0  0  0  0  0  0  0  0
   -4.1200   -6.2046   21.6176 C   0  0  0  0  0  0  0  0  0  0  0  0
   -5.9733   -5.8939   23.6964 C   0  0  0  0  0  0  0  0  0  0  0  0
   -4.6098   -7.3229   22.2969 C   0  0  0  0  0  0  0  0  0  0  0  0
   -5.5331   -7.1601   23.3248 C   0  0  0  0  0  0  0  0  0  0  0  0
   -5.6331   -2.7742   23.0378 H   0  0  0  0  0  0  0  0  0  0  0  0
   -6.6060   -8.2110   24.6515 H   0  0  0  0  0  0  0  0  0  0  0  0
   -2.5573   -4.0132   18.9356 O   0  0  0  0  0  0  0  0  0  0  0  0
    1.4494   -2.5856   21.1527 O   0  0  0  0  0  0  0  0  0  0  0  0
   -2.5958   -3.4217   21.2496 C   0  0  0  0  0  0  0  0  0  0  0  0
   -1.8974   -3.5735   20.0483 C   0  0  0  0  0  0  0  0  0  0  0  0
   -1.9438   -2.9783   22.4032 C   0  0  0  0  0  0  0  0  0  0  0  0
   -0.5343   -3.2884   19.9907 C   0  0  0  0  0  0  0  0  0  0  0  0
   -0.5755   -2.7127   22.3514 C   0  0  0  0  0  0  0  0  0  0  0  0
    0.1147   -2.8654   21.1498 C   0  0  0  0  0  0  0  0  0  0  0  0
   -3.4738   -4.2037   18.9792 H   0  0  0  0  0  0  0  0  0  0  0  0
    1.9487   -2.6759   20.3651 H   0  0  0  0  0  0  0  0  0  0  0  0
  3  6  1  0
  3 11  1  0
 13 16  1  0
 13 21  1  0
  1  2  2  0
  4 10  1  0
  4 12  1  0
 14 20  1  0
 14 22  1  0
  5  2  1  0
  5  6  2  0
  5  7  1  0
 15  2  1  0
 15 16  2  0
 15 17  1  0
  6  8  1  0
 16 18  1  0
  7  9  2  0
 17 19  2  0
  8 10  2  0
 18 20  2  0
  9 10  1  0
 19 20  1  0
M  END
> <PUBCHEM_COMPOUND_CID>
8571

> <PUBCHEM_CONFORMER_RMSD>
0.6

> <PUBCHEM_CONFORMER_DIVERSEORDER>
3
14
8
5
6
10
13
11
12
7
2
4
9
1

> <PUBCHEM_MMFF94_PARTIAL_CHARGES>
28
1 -0.53
10 0.08
11 -0.15
12 -0.15
13 -0.15
14 -0.15
15 -0.15
16 -0.15
17 0.08
18 0.08
19 0.15
2 -0.53
20 0.15
21 0.15
22 0.15
23 0.15
24 0.15
25 0.45
26 0.45
27 0.45
28 0.45
3 -0.57
4 -0.53
5 -0.53
6 0.09
7 0.09
8 0.4
9 0.08

> <PUBCHEM_EFFECTIVE_ROTOR_COUNT>
2

> <PUBCHEM_PHARMACOPHORE_FEATURES>
7
1 1 donor
1 2 donor
1 3 acceptor
1 4 donor
1 5 donor
6 6 9 11 13 15 17 rings
6 7 10 12 14 16 18 rings

> <PUBCHEM_HEAVY_ATOM_COUNT>
18

> <PUBCHEM_ATOM_DEF_STEREO_COUNT>
0

> <PUBCHEM_ATOM_UDEF_STEREO_COUNT>
0

> <PUBCHEM_BOND_DEF_STEREO_COUNT>
0

> <PUBCHEM_BOND_UDEF_STEREO_COUNT>
0

> <PUBCHEM_ISOTOPIC_ATOM_COUNT>
0

> <PUBCHEM_COMPONENT_COUNT>
1

> <PUBCHEM_CACTVS_TAUTO_COUNT>
72

> <PUBCHEM_CONFORMER_ID>
0000217B00000003

> <PUBCHEM_MMFF94_ENERGY>
59.7646

> <PUBCHEM_FEATURE_SELFOVERLAP>
35.523

> <PUBCHEM_SHAPE_FINGERPRINT>
11471102 20 18409169892103070408
11543360 7 16558473084182650672
11578080 2 11531614863815746903
12236239 1 18131065996288699443
12730499 353 18260275135465842107
13764800 53 16298659508524951853
14115302 16 17274813641062312855
14993402 34 17846215540487606185
15309172 13 17603583049510828995
15342168 16 17968104165179409005
15775835 57 18412826888988243309
16752209 62 16702019734536568467
16945 1 18338804403115108058
1813 80 17908702826610089778
18186145 218 18334579027342918966
19784866 34 18334295413878624880
19862831 5 17703791439638752137
19868273 293 17846494850753190559
20612939 158 18410015399459763708
20645476 183 18131345336920073351
20645477 70 18339644438557177238
20871999 31 17703499013054573895
21486144 27 18040157318289672158
22079108 93 18187935001610251691
22854114 59 17458065950124340569
231179 274 17822006519258234448
23402539 116 18409442626948148612
23402655 69 18343585139818180612
23559900 14 18270131244514800908
23598291 2 17916313731579383754
25 1 18335137605093349618
2748010 2 18049736405846724776
2838139 119 17898835865392311757
3082319 5 17846778520178562597
350125 39 17829344823007393920
4028521 119 18341894112446576825
474 4 18335984259027423912
5374978 207 12973890299285696421
633830 44 18335985259854816367
74978 22 17775280611934871745
76465 3 11743574149888780620
77492 1 18131067091542367739
81228 2 16880770831219455195
8272917 22 18265617572439684195
9981440 41 17624393673978878472

> <PUBCHEM_SHAPE_MULTIPOLES>
341.08
8.1
1.9
1.16
0.73
0.35
-0.07
-4.23
-1.78
-1.35
0.05
0.84
0.24
-0.62

> <PUBCHEM_SHAPE_SELFOVERLAP>
750.848

> <PUBCHEM_SHAPE_VOLUME>
184

> <PUBCHEM_COORDINATE_TYPE>
2
5
10

> <Energy>
46.2868

> <minimizedAffinity>
-8.89171

> <CNNscore>
0.7076146603

> <CNNaffinity>
5.5537552834

> <CNN_VS>
3.9299187660

> <CNNaffinity_variance>
0.2649591267

$$$$
8571


 22 23  0  0  0  0  0  0  0  0999 V2000
   -4.8414   -3.0208   20.6011 O   0  0  0  0  0  0  0  0  0  0  0  0
   -4.0455   -3.7559   21.1792 C   0  0  0  0  0  0  0  0  0  0  0  0
   -2.4353   -3.8968   18.7996 O   0  0  0  0  0  0  0  0  0  0  0  0
    1.4585   -2.5327   21.1546 O   0  0  0  0  0  0  0  0  0  0  0  0
   -2.5986   -3.4249   21.1850 C   0  0  0  0  0  0  0  0  0  0  0  0
   -1.8691   -3.5170   19.9884 C   0  0  0  0  0  0  0  0  0  0  0  0
   -1.9401   -3.0348   22.3590 C   0  0  0  0  0  0  0  0  0  0  0  0
   -0.5100   -3.2111   19.9556 C   0  0  0  0  0  0  0  0  0  0  0  0
   -0.5738   -2.7441   22.3299 C   0  0  0  0  0  0  0  0  0  0  0  0
    0.1278   -2.8298   21.1316 C   0  0  0  0  0  0  0  0  0  0  0  0
   -3.3461   -4.1140   18.7628 H   0  0  0  0  0  0  0  0  0  0  0  0
    1.9627   -2.5797   20.3662 H   0  0  0  0  0  0  0  0  0  0  0  0
   -5.8402   -3.4752   23.3115 O   0  0  0  0  0  0  0  0  0  0  0  0
   -5.9659   -8.2260   23.9615 O   0  0  0  0  0  0  0  0  0  0  0  0
   -4.5493   -4.9250   21.9195 C   0  0  0  0  0  0  0  0  0  0  0  0
   -5.4553   -4.7404   22.9679 C   0  0  0  0  0  0  0  0  0  0  0  0
   -4.1357   -6.2078   21.5512 C   0  0  0  0  0  0  0  0  0  0  0  0
   -5.9530   -5.8404   23.6644 C   0  0  0  0  0  0  0  0  0  0  0  0
   -4.6172   -7.3076   22.2612 C   0  0  0  0  0  0  0  0  0  0  0  0
   -5.5212   -7.1163   23.3051 C   0  0  0  0  0  0  0  0  0  0  0  0
   -5.5030   -2.7388   22.8404 H   0  0  0  0  0  0  0  0  0  0  0  0
   -6.5742   -8.1395   24.6689 H   0  0  0  0  0  0  0  0  0  0  0  0
  3  6  1  0
  3 11  1  0
 13 16  1  0
 13 21  1  0
  1  2  2  0
  4 10  1  0
  4 12  1  0
 14 20  1  0
 14 22  1  0
  5  2  1  0
  5  6  2  0
  5  7  1  0
 15  2  1  0
 15 16  2  0
 15 17  1  0
  6  8  1  0
 16 18  1  0
  7  9  2  0
 17 19  2  0
  8 10  2  0
 18 20  2  0
  9 10  1  0
 19 20  1  0
M  END
> <PUBCHEM_COMPOUND_CID>
8571

> <PUBCHEM_CONFORMER_RMSD>
0.6

> <PUBCHEM_CONFORMER_DIVERSEORDER>
3
14
8
5
6
10
13
11
12
7
2
4
9
1

> <PUBCHEM_MMFF94_PARTIAL_CHARGES>
28
1 -0.53
10 0.08
11 -0.15
12 -0.15
13 -0.15
14 -0.15
15 -0.15
16 -0.15
17 0.08
18 0.08
19 0.15
2 -0.53
20 0.15
21 0.15
22 0.15
23 0.15
24 0.15
25 0.45
26 0.45
27 0.45
28 0.45
3 -0.57
4 -0.53
5 -0.53
6 0.09
7 0.09
8 0.4
9 0.08

> <PUBCHEM_EFFECTIVE_ROTOR_COUNT>
2

> <PUBCHEM_PHARMACOPHORE_FEATURES>
7
1 1 donor
1 2 donor
1 3 acceptor
1 4 donor
1 5 donor
6 6 9 11 13 15 17 rings
6 7 10 12 14 16 18 rings

> <PUBCHEM_HEAVY_ATOM_COUNT>
18

> <PUBCHEM_ATOM_DEF_STEREO_COUNT>
0

> <PUBCHEM_ATOM_UDEF_STEREO_COUNT>
0

> <PUBCHEM_BOND_DEF_STEREO_COUNT>
0

> <PUBCHEM_BOND_UDEF_STEREO_COUNT>
0

> <PUBCHEM_ISOTOPIC_ATOM_COUNT>
0

> <PUBCHEM_COMPONENT_COUNT>
1

> <PUBCHEM_CACTVS_TAUTO_COUNT>
72

> <PUBCHEM_CONFORMER_ID>
0000217B00000003

> <PUBCHEM_MMFF94_ENERGY>
59.7646

> <PUBCHEM_FEATURE_SELFOVERLAP>
35.523

> <PUBCHEM_SHAPE_FINGERPRINT>
11471102 20 18409169892103070408
11543360 7 16558473084182650672
11578080 2 11531614863815746903
12236239 1 18131065996288699443
12730499 353 18260275135465842107
13764800 53 16298659508524951853
14115302 16 17274813641062312855
14993402 34 17846215540487606185
15309172 13 17603583049510828995
15342168 16 17968104165179409005
15775835 57 18412826888988243309
16752209 62 16702019734536568467
16945 1 18338804403115108058
1813 80 17908702826610089778
18186145 218 18334579027342918966
19784866 34 18334295413878624880
19862831 5 17703791439638752137
19868273 293 17846494850753190559
20612939 158 18410015399459763708
20645476 183 18131345336920073351
20645477 70 18339644438557177238
20871999 31 17703499013054573895
21486144 27 18040157318289672158
22079108 93 18187935001610251691
22854114 59 17458065950124340569
231179 274 17822006519258234448
23402539 116 18409442626948148612
23402655 69 18343585139818180612
23559900 14 18270131244514800908
23598291 2 17916313731579383754
25 1 18335137605093349618
2748010 2 18049736405846724776
2838139 119 17898835865392311757
3082319 5 17846778520178562597
350125 39 17829344823007393920
4028521 119 18341894112446576825
474 4 18335984259027423912
5374978 207 12973890299285696421
633830 44 18335985259854816367
74978 22 17775280611934871745
76465 3 11743574149888780620
77492 1 18131067091542367739
81228 2 16880770831219455195
8272917 22 18265617572439684195
9981440 41 17624393673978878472

> <PUBCHEM_SHAPE_MULTIPOLES>
341.08
8.1
1.9
1.16
0.73
0.35
-0.07
-4.23
-1.78
-1.35
0.05
0.84
0.24
-0.62

> <PUBCHEM_SHAPE_SELFOVERLAP>
750.848

> <PUBCHEM_SHAPE_VOLUME>
184

> <PUBCHEM_COORDINATE_TYPE>
2
5
10

> <Energy>
46.2868

> <minimizedAffinity>
-8.90889

> <CNNscore>
0.7008642554

> <CNNaffinity>
5.5253529549

> <CNN_VS>
3.8725223541

> <CNNaffinity_variance>
0.2473674417

$$$$
8571


 22 23  0  0  0  0  0  0  0  0999 V2000
   -4.9457   -2.6574   20.6901 O   0  0  0  0  0  0  0  0  0  0  0  0
   -4.2000   -3.4822   21.2113 C   0  0  0  0  0  0  0  0  0  0  0  0
   -2.5999   -3.8625   18.8512 O   0  0  0  0  0  0  0  0  0  0  0  0
    1.3809   -2.6812   21.1591 O   0  0  0  0  0  0  0  0  0  0  0  0
   -2.7322   -3.2616   21.2093 C   0  0  0  0  0  0  0  0  0  0  0  0
   -2.0091   -3.4679   20.0231 C   0  0  0  0  0  0  0  0  0  0  0  0
   -2.0486   -2.8645   22.3665 C   0  0  0  0  0  0  0  0  0  0  0  0
   -0.6306   -3.2677   19.9833 C   0  0  0  0  0  0  0  0  0  0  0  0
   -0.6642   -2.6797   22.3313 C   0  0  0  0  0  0  0  0  0  0  0  0
    0.0315   -2.8776   21.1429 C   0  0  0  0  0  0  0  0  0  0  0  0
   -3.5244   -4.0118   18.8197 H   0  0  0  0  0  0  0  0  0  0  0  0
    1.8819   -2.8053   20.3770 H   0  0  0  0  0  0  0  0  0  0  0  0
   -4.7382   -5.8620   19.8351 O   0  0  0  0  0  0  0  0  0  0  0  0
   -6.3869   -7.9222   23.8407 O   0  0  0  0  0  0  0  0  0  0  0  0
   -4.7808   -4.6509   21.8936 C   0  0  0  0  0  0  0  0  0  0  0  0
   -5.0199   -5.8237   21.1716 C   0  0  0  0  0  0  0  0  0  0  0  0
   -5.0645   -4.5836   23.2601 C   0  0  0  0  0  0  0  0  0  0  0  0
   -5.5526   -6.9421   21.8102 C   0  0  0  0  0  0  0  0  0  0  0  0
   -5.6170   -5.6957   23.8955 C   0  0  0  0  0  0  0  0  0  0  0  0
   -5.8520   -6.8624   23.1695 C   0  0  0  0  0  0  0  0  0  0  0  0
   -4.3801   -5.1075   19.4101 H   0  0  0  0  0  0  0  0  0  0  0  0
   -6.5597   -8.7243   23.3883 H   0  0  0  0  0  0  0  0  0  0  0  0
  3  6  1  0
  3 11  1  0
 13 16  1  0
 13 21  1  0
  1  2  2  0
  4 10  1  0
  4 12  1  0
 14 20  1  0
 14 22  1  0
  5  2  1  0
  5  6  2  0
  5  7  1  0
 15  2  1  0
 15 16  2  0
 15 17  1  0
  6  8  1  0
 16 18  1  0
  7  9  2  0
 17 19  2  0
  8 10  2  0
 18 20  2  0
  9 10  1  0
 19 20  1  0
M  END
> <PUBCHEM_COMPOUND_CID>
8571

> <PUBCHEM_CONFORMER_RMSD>
0.6

> <PUBCHEM_CONFORMER_DIVERSEORDER>
3
14
8
5
6
10
13
11
12
7
2
4
9
1

> <PUBCHEM_MMFF94_PARTIAL_CHARGES>
28
1 -0.53
10 0.08
11 -0.15
12 -0.15
13 -0.15
14 -0.15
15 -0.15
16 -0.15
17 0.08
18 0.08
19 0.15
2 -0.53
20 0.15
21 0.15
22 0.15
23 0.15
24 0.15
25 0.45
26 0.45
27 0.45
28 0.45
3 -0.57
4 -0.53
5 -0.53
6 0.09
7 0.09
8 0.4
9 0.08

> <PUBCHEM_EFFECTIVE_ROTOR_COUNT>
2

> <PUBCHEM_PHARMACOPHORE_FEATURES>
7
1 1 donor
1 2 donor
1 3 acceptor
1 4 donor
1 5 donor
6 6 9 11 13 15 17 rings
6 7 10 12 14 16 18 rings

> <PUBCHEM_HEAVY_ATOM_COUNT>
18

> <PUBCHEM_ATOM_DEF_STEREO_COUNT>
0

> <PUBCHEM_ATOM_UDEF_STEREO_COUNT>
0

> <PUBCHEM_BOND_DEF_STEREO_COUNT>
0

> <PUBCHEM_BOND_UDEF_STEREO_COUNT>
0

> <PUBCHEM_ISOTOPIC_ATOM_COUNT>
0

> <PUBCHEM_COMPONENT_COUNT>
1

> <PUBCHEM_CACTVS_TAUTO_COUNT>
72

> <PUBCHEM_CONFORMER_ID>
0000217B00000003

> <PUBCHEM_MMFF94_ENERGY>
59.7646

> <PUBCHEM_FEATURE_SELFOVERLAP>
35.523

> <PUBCHEM_SHAPE_FINGERPRINT>
11471102 20 18409169892103070408
11543360 7 16558473084182650672
11578080 2 11531614863815746903
12236239 1 18131065996288699443
12730499 353 18260275135465842107
13764800 53 16298659508524951853
14115302 16 17274813641062312855
14993402 34 17846215540487606185
15309172 13 17603583049510828995
15342168 16 17968104165179409005
15775835 57 18412826888988243309
16752209 62 16702019734536568467
16945 1 18338804403115108058
1813 80 17908702826610089778
18186145 218 18334579027342918966
19784866 34 18334295413878624880
19862831 5 17703791439638752137
19868273 293 17846494850753190559
20612939 158 18410015399459763708
20645476 183 18131345336920073351
20645477 70 18339644438557177238
20871999 31 17703499013054573895
21486144 27 18040157318289672158
22079108 93 18187935001610251691
22854114 59 17458065950124340569
231179 274 17822006519258234448
23402539 116 18409442626948148612
23402655 69 18343585139818180612
23559900 14 18270131244514800908
23598291 2 17916313731579383754
25 1 18335137605093349618
2748010 2 18049736405846724776
2838139 119 17898835865392311757
3082319 5 17846778520178562597
350125 39 17829344823007393920
4028521 119 18341894112446576825
474 4 18335984259027423912
5374978 207 12973890299285696421
633830 44 18335985259854816367
74978 22 17775280611934871745
76465 3 11743574149888780620
77492 1 18131067091542367739
81228 2 16880770831219455195
8272917 22 18265617572439684195
9981440 41 17624393673978878472

> <PUBCHEM_SHAPE_MULTIPOLES>
341.08
8.1
1.9
1.16
0.73
0.35
-0.07
-4.23
-1.78
-1.35
0.05
0.84
0.24
-0.62

> <PUBCHEM_SHAPE_SELFOVERLAP>
750.848

> <PUBCHEM_SHAPE_VOLUME>
184

> <PUBCHEM_COORDINATE_TYPE>
2
5
10

> <Energy>
46.2868

> <minimizedAffinity>
-8.49675

> <CNNscore>
0.6606570482

> <CNNaffinity>
5.5842704773

> <CNN_VS>
3.6892876625

> <CNNaffinity_variance>
0.2736954391

$$$$
8571


 22 23  0  0  0  0  0  0  0  0999 V2000
   -2.1832   -5.2201   22.9026 O   0  0  0  0  0  0  0  0  0  0  0  0
   -2.7215   -4.6747   21.9430 C   0  0  0  0  0  0  0  0  0  0  0  0
   -4.5279   -3.5721   23.8914 O   0  0  0  0  0  0  0  0  0  0  0  0
   -8.3261   -4.9336   21.3839 O   0  0  0  0  0  0  0  0  0  0  0  0
   -4.1953   -4.7438   21.7806 C   0  0  0  0  0  0  0  0  0  0  0  0
   -5.0214   -4.1879   22.7710 C   0  0  0  0  0  0  0  0  0  0  0  0
   -4.7825   -5.3620   20.6683 C   0  0  0  0  0  0  0  0  0  0  0  0
   -6.4090   -4.2316   22.6505 C   0  0  0  0  0  0  0  0  0  0  0  0
   -6.1738   -5.4209   20.5553 C   0  0  0  0  0  0  0  0  0  0  0  0
   -6.9740   -4.8532   21.5416 C   0  0  0  0  0  0  0  0  0  0  0  0
   -3.6022   -3.5135   24.0244 H   0  0  0  0  0  0  0  0  0  0  0  0
   -8.8960   -4.5624   22.0284 H   0  0  0  0  0  0  0  0  0  0  0  0
   -1.0167   -2.6337   22.8229 O   0  0  0  0  0  0  0  0  0  0  0  0
    0.4144   -1.7558   18.3297 O   0  0  0  0  0  0  0  0  0  0  0  0
   -1.8995   -3.8987   20.9991 C   0  0  0  0  0  0  0  0  0  0  0  0
   -1.0514   -2.8985   21.4829 C   0  0  0  0  0  0  0  0  0  0  0  0
   -1.9577   -4.1862   19.6330 C   0  0  0  0  0  0  0  0  0  0  0  0
   -0.2552   -2.1695   20.6012 C   0  0  0  0  0  0  0  0  0  0  0  0
   -1.1768   -3.4430   18.7479 C   0  0  0  0  0  0  0  0  0  0  0  0
   -0.3324   -2.4475   19.2373 C   0  0  0  0  0  0  0  0  0  0  0  0
   -1.5537   -3.1264   23.4118 H   0  0  0  0  0  0  0  0  0  0  0  0
    0.9942   -1.0789   18.6187 H   0  0  0  0  0  0  0  0  0  0  0  0
  3  6  1  0
  3 11  1  0
 13 16  1  0
 13 21  1  0
  1  2  2  0
  4 10  1  0
  4 12  1  0
 14 20  1  0
 14 22  1  0
  5  2  1  0
  5  6  2  0
  5  7  1  0
 15  2  1  0
 15 16  2  0
 15 17  1  0
  6  8  1  0
 16 18  1  0
  7  9  2  0
 17 19  2  0
  8 10  2  0
 18 20  2  0
  9 10  1  0
 19 20  1  0
M  END
> <PUBCHEM_COMPOUND_CID>
8571

> <PUBCHEM_CONFORMER_RMSD>
0.6

> <PUBCHEM_CONFORMER_DIVERSEORDER>
3
14
8
5
6
10
13
11
12
7
2
4
9
1

> <PUBCHEM_MMFF94_PARTIAL_CHARGES>
28
1 -0.53
10 0.08
11 -0.15
12 -0.15
13 -0.15
14 -0.15
15 -0.15
16 -0.15
17 0.08
18 0.08
19 0.15
2 -0.53
20 0.15
21 0.15
22 0.15
23 0.15
24 0.15
25 0.45
26 0.45
27 0.45
28 0.45
3 -0.57
4 -0.53
5 -0.53
6 0.09
7 0.09
8 0.4
9 0.08

> <PUBCHEM_EFFECTIVE_ROTOR_COUNT>
2

> <PUBCHEM_PHARMACOPHORE_FEATURES>
7
1 1 donor
1 2 donor
1 3 acceptor
1 4 donor
1 5 donor
6 6 9 11 13 15 17 rings
6 7 10 12 14 16 18 rings

> <PUBCHEM_HEAVY_ATOM_COUNT>
18

> <PUBCHEM_ATOM_DEF_STEREO_COUNT>
0

> <PUBCHEM_ATOM_UDEF_STEREO_COUNT>
0

> <PUBCHEM_BOND_DEF_STEREO_COUNT>
0

> <PUBCHEM_BOND_UDEF_STEREO_COUNT>
0

> <PUBCHEM_ISOTOPIC_ATOM_COUNT>
0

> <PUBCHEM_COMPONENT_COUNT>
1

> <PUBCHEM_CACTVS_TAUTO_COUNT>
72

> <PUBCHEM_CONFORMER_ID>
0000217B00000003

> <PUBCHEM_MMFF94_ENERGY>
59.7646

> <PUBCHEM_FEATURE_SELFOVERLAP>
35.523

> <PUBCHEM_SHAPE_FINGERPRINT>
11471102 20 18409169892103070408
11543360 7 16558473084182650672
11578080 2 11531614863815746903
12236239 1 18131065996288699443
12730499 353 18260275135465842107
13764800 53 16298659508524951853
14115302 16 17274813641062312855
14993402 34 17846215540487606185
15309172 13 17603583049510828995
15342168 16 17968104165179409005
15775835 57 18412826888988243309
16752209 62 16702019734536568467
16945 1 18338804403115108058
1813 80 17908702826610089778
18186145 218 18334579027342918966
19784866 34 18334295413878624880
19862831 5 17703791439638752137
19868273 293 17846494850753190559
20612939 158 18410015399459763708
20645476 183 18131345336920073351
20645477 70 18339644438557177238
20871999 31 17703499013054573895
21486144 27 18040157318289672158
22079108 93 18187935001610251691
22854114 59 17458065950124340569
231179 274 17822006519258234448
23402539 116 18409442626948148612
23402655 69 18343585139818180612
23559900 14 18270131244514800908
23598291 2 17916313731579383754
25 1 18335137605093349618
2748010 2 18049736405846724776
2838139 119 17898835865392311757
3082319 5 17846778520178562597
350125 39 17829344823007393920
4028521 119 18341894112446576825
474 4 18335984259027423912
5374978 207 12973890299285696421
633830 44 18335985259854816367
74978 22 17775280611934871745
76465 3 11743574149888780620
77492 1 18131067091542367739
81228 2 16880770831219455195
8272917 22 18265617572439684195
9981440 41 17624393673978878472

> <PUBCHEM_SHAPE_MULTIPOLES>
341.08
8.1
1.9
1.16
0.73
0.35
-0.07
-4.23
-1.78
-1.35
0.05
0.84
0.24
-0.62

> <PUBCHEM_SHAPE_SELFOVERLAP>
750.848

> <PUBCHEM_SHAPE_VOLUME>
184

> <PUBCHEM_COORDINATE_TYPE>
2
5
10

> <Energy>
46.2868

> <minimizedAffinity>
-6.82755

> <CNNscore>
0.6421682835

> <CNNaffinity>
6.0205817223

> <CNN_VS>
3.8662266731

> <CNNaffinity_variance>
0.7201178670

$$$$
8571


 22 23  0  0  0  0  0  0  0  0999 V2000
   -5.1346   -2.3446   21.4233 O   0  0  0  0  0  0  0  0  0  0  0  0
   -4.4310   -3.2178   21.9238 C   0  0  0  0  0  0  0  0  0  0  0  0
   -4.9798   -5.7153   20.6061 O   0  0  0  0  0  0  0  0  0  0  0  0
   -6.8351   -7.5836   24.5604 O   0  0  0  0  0  0  0  0  0  0  0  0
   -5.0585   -4.3619   22.6313 C   0  0  0  0  0  0  0  0  0  0  0  0
   -5.3021   -5.5530   21.9282 C   0  0  0  0  0  0  0  0  0  0  0  0
   -5.4255   -4.2774   23.9812 C   0  0  0  0  0  0  0  0  0  0  0  0
   -5.8868   -6.6485   22.5606 C   0  0  0  0  0  0  0  0  0  0  0  0
   -6.0271   -5.3698   24.6112 C   0  0  0  0  0  0  0  0  0  0  0  0
   -6.2483   -6.5448   23.8999 C   0  0  0  0  0  0  0  0  0  0  0  0
   -4.5841   -5.0115   20.1306 H   0  0  0  0  0  0  0  0  0  0  0  0
   -6.9995   -8.3903   24.1129 H   0  0  0  0  0  0  0  0  0  0  0  0
   -2.7740   -2.1624   23.9206 O   0  0  0  0  0  0  0  0  0  0  0  0
    1.1305   -3.0039   21.2646 O   0  0  0  0  0  0  0  0  0  0  0  0
   -2.9695   -3.1519   21.7553 C   0  0  0  0  0  0  0  0  0  0  0  0
   -2.1787   -2.6307   22.7834 C   0  0  0  0  0  0  0  0  0  0  0  0
   -2.3863   -3.6329   20.5801 C   0  0  0  0  0  0  0  0  0  0  0  0
   -0.7930   -2.5796   22.6429 C   0  0  0  0  0  0  0  0  0  0  0  0
   -1.0013   -3.5629   20.4302 C   0  0  0  0  0  0  0  0  0  0  0  0
   -0.2187   -3.0427   21.4600 C   0  0  0  0  0  0  0  0  0  0  0  0
   -3.7060   -2.1989   24.0106 H   0  0  0  0  0  0  0  0  0  0  0  0
    1.6909   -2.6615   21.9328 H   0  0  0  0  0  0  0  0  0  0  0  0
  3  6  1  0
  3 11  1  0
 13 16  1  0
 13 21  1  0
  1  2  2  0
  4 10  1  0
  4 12  1  0
 14 20  1  0
 14 22  1  0
  5  2  1  0
  5  6  2  0
  5  7  1  0
 15  2  1  0
 15 16  2  0
 15 17  1  0
  6  8  1  0
 16 18  1  0
  7  9  2  0
 17 19  2  0
  8 10  2  0
 18 20  2  0
  9 10  1  0
 19 20  1  0
M  END
> <PUBCHEM_COMPOUND_CID>
8571

> <PUBCHEM_CONFORMER_RMSD>
0.6

> <PUBCHEM_CONFORMER_DIVERSEORDER>
3
14
8
5
6
10
13
11
12
7
2
4
9
1

> <PUBCHEM_MMFF94_PARTIAL_CHARGES>
28
1 -0.53
10 0.08
11 -0.15
12 -0.15
13 -0.15
14 -0.15
15 -0.15
16 -0.15
17 0.08
18 0.08
19 0.15
2 -0.53
20 0.15
21 0.15
22 0.15
23 0.15
24 0.15
25 0.45
26 0.45
27 0.45
28 0.45
3 -0.57
4 -0.53
5 -0.53
6 0.09
7 0.09
8 0.4
9 0.08

> <PUBCHEM_EFFECTIVE_ROTOR_COUNT>
2

> <PUBCHEM_PHARMACOPHORE_FEATURES>
7
1 1 donor
1 2 donor
1 3 acceptor
1 4 donor
1 5 donor
6 6 9 11 13 15 17 rings
6 7 10 12 14 16 18 rings

> <PUBCHEM_HEAVY_ATOM_COUNT>
18

> <PUBCHEM_ATOM_DEF_STEREO_COUNT>
0

> <PUBCHEM_ATOM_UDEF_STEREO_COUNT>
0

> <PUBCHEM_BOND_DEF_STEREO_COUNT>
0

> <PUBCHEM_BOND_UDEF_STEREO_COUNT>
0

> <PUBCHEM_ISOTOPIC_ATOM_COUNT>
0

> <PUBCHEM_COMPONENT_COUNT>
1

> <PUBCHEM_CACTVS_TAUTO_COUNT>
72

> <PUBCHEM_CONFORMER_ID>
0000217B00000003

> <PUBCHEM_MMFF94_ENERGY>
59.7646

> <PUBCHEM_FEATURE_SELFOVERLAP>
35.523

> <PUBCHEM_SHAPE_FINGERPRINT>
11471102 20 18409169892103070408
11543360 7 16558473084182650672
11578080 2 11531614863815746903
12236239 1 18131065996288699443
12730499 353 18260275135465842107
13764800 53 16298659508524951853
14115302 16 17274813641062312855
14993402 34 17846215540487606185
15309172 13 17603583049510828995
15342168 16 17968104165179409005
15775835 57 18412826888988243309
16752209 62 16702019734536568467
16945 1 18338804403115108058
1813 80 17908702826610089778
18186145 218 18334579027342918966
19784866 34 18334295413878624880
19862831 5 17703791439638752137
19868273 293 17846494850753190559
20612939 158 18410015399459763708
20645476 183 18131345336920073351
20645477 70 18339644438557177238
20871999 31 17703499013054573895
21486144 27 18040157318289672158
22079108 93 18187935001610251691
22854114 59 17458065950124340569
231179 274 17822006519258234448
23402539 116 18409442626948148612
23402655 69 18343585139818180612
23559900 14 18270131244514800908
23598291 2 17916313731579383754
25 1 18335137605093349618
2748010 2 18049736405846724776
2838139 119 17898835865392311757
3082319 5 17846778520178562597
350125 39 17829344823007393920
4028521 119 18341894112446576825
474 4 18335984259027423912
5374978 207 12973890299285696421
633830 44 18335985259854816367
74978 22 17775280611934871745
76465 3 11743574149888780620
77492 1 18131067091542367739
81228 2 16880770831219455195
8272917 22 18265617572439684195
9981440 41 17624393673978878472

> <PUBCHEM_SHAPE_MULTIPOLES>
341.08
8.1
1.9
1.16
0.73
0.35
-0.07
-4.23
-1.78
-1.35
0.05
0.84
0.24
-0.62

> <PUBCHEM_SHAPE_SELFOVERLAP>
750.848

> <PUBCHEM_SHAPE_VOLUME>
184

> <PUBCHEM_COORDINATE_TYPE>
2
5
10

> <Energy>
46.2868

> <minimizedAffinity>
-8.19240

> <CNNscore>
0.6366525888

> <CNNaffinity>
5.8837981224

> <CNN_VS>
3.7459352016

> <CNNaffinity_variance>
0.4786318839

$$$$
