6013


 22 25  0  0  0  0  0  0  0  0999 V2000
    0.0126   -2.9687   20.1764 O   0  0  0  0  0  0  0  0  0  0  0  0
   -9.9089   -5.8635   23.4970 O   0  0  0  0  0  0  0  0  0  0  0  0
   -2.8440   -3.1580   22.4465 C   0  0  0  0  0  0  0  0  0  0  0  0
   -2.3200   -3.0974   20.9985 C   0  0  0  0  0  0  0  0  0  0  0  0
   -4.3499   -2.8947   22.5393 C   0  0  0  0  0  0  0  0  0  0  0  0
   -5.1017   -3.9760   21.7006 C   0  0  0  0  0  0  0  0  0  0  0  0
   -6.6692   -3.8193   21.7650 C   0  0  0  0  0  0  0  0  0  0  0  0
   -3.0064   -4.2129   20.1997 C   0  0  0  0  0  0  0  0  0  0  0  0
   -4.5395   -4.0846   20.2559 C   0  0  0  0  0  0  0  0  0  0  0  0
   -0.8182   -3.3259   21.2648 C   0  0  0  0  0  0  0  0  0  0  0  0
   -1.8822   -2.2523   23.2116 C   0  0  0  0  0  0  0  0  0  0  0  0
   -4.8346   -2.9244   23.9944 C   0  0  0  0  0  0  0  0  0  0  0  0
   -0.5260   -2.4770   22.5192 C   0  0  0  0  0  0  0  0  0  0  0  0
   -7.1088   -3.6768   23.2290 C   0  0  0  0  0  0  0  0  0  0  0  0
   -6.3379   -2.6943   24.0789 C   0  0  0  0  0  0  0  0  0  0  0  0
   -2.5408   -1.7396   20.2866 C   0  0  0  0  0  0  0  0  0  0  0  0
   -7.3148   -5.0900   21.1374 C   0  0  0  0  0  0  0  0  0  0  0  0
   -7.1605   -2.5748   20.9924 C   0  0  0  0  0  0  0  0  0  0  0  0
   -8.7920   -5.2521   21.4643 C   0  0  0  0  0  0  0  0  0  0  0  0
   -8.1369   -4.3529   23.7698 C   0  0  0  0  0  0  0  0  0  0  0  0
   -9.0029   -5.2375   22.9552 C   0  0  0  0  0  0  0  0  0  0  0  0
   -0.2018   -3.5234   19.4101 H   0  0  0  0  0  0  0  0  0  0  0  0
  1 10  1  0
  1 22  1  0
  2 21  2  0
  3  4  1  0
  3  5  1  0
  3 11  1  0
  4  8  1  0
  4 10  1  0
  4 16  1  0
  5  6  1  0
  5 12  1  0
  6  7  1  0
  6  9  1  0
  7 14  1  0
  7 17  1  0
  7 18  1  0
  8  9  1  0
 10 13  1  0
 11 13  1  0
 12 15  1  0
 14 15  1  0
 14 20  2  0
 17 19  1  0
 19 21  1  0
 20 21  1  0
M  END
> <PUBCHEM_COMPOUND_CID>
6013

> <PUBCHEM_CONFORMER_RMSD>
0.6

> <PUBCHEM_CONFORMER_DIVERSEORDER>
1

> <PUBCHEM_MMFF94_PARTIAL_CHARGES>
11
1 -0.68
10 0.28
14 -0.28
15 0.14
19 0.06
2 -0.57
20 -0.14
21 0.49
48 0.15
49 0.4
7 0.14

> <PUBCHEM_EFFECTIVE_ROTOR_COUNT>
1.8

> <PUBCHEM_PHARMACOPHORE_FEATURES>
7
1 1 acceptor
1 1 donor
1 2 acceptor
5 3 4 10 11 13 rings
6 3 4 5 6 8 9 rings
6 5 6 7 12 14 15 rings
6 7 14 17 19 20 21 rings

> <PUBCHEM_HEAVY_ATOM_COUNT>
21

> <PUBCHEM_ATOM_DEF_STEREO_COUNT>
6

> <PUBCHEM_ATOM_UDEF_STEREO_COUNT>
0

> <PUBCHEM_BOND_DEF_STEREO_COUNT>
0

> <PUBCHEM_BOND_UDEF_STEREO_COUNT>
0

> <PUBCHEM_ISOTOPIC_ATOM_COUNT>
0

> <PUBCHEM_COMPONENT_COUNT>
1

> <PUBCHEM_CACTVS_TAUTO_COUNT>
5

> <PUBCHEM_CONFORMER_ID>
0000177D00000001

> <PUBCHEM_MMFF94_ENERGY>
67.5416

> <PUBCHEM_FEATURE_SELFOVERLAP>
35.618

> <PUBCHEM_SHAPE_FINGERPRINT>
10062212 137 18336825385559829163
10759866 29 17897457309511876188
10967382 1 18412548682291571786
11132069 177 18410018732180467827
11370993 70 18410569557056084199
11578080 2 16735503067342509174
12011746 2 18412547592124142406
12236239 1 18040155136873436768
12251169 10 18410008845387181634
12403259 226 18410006624652160988
12403259 415 18408880746209696412
12403260 363 18340481291412090749
12403814 3 17894914044785590877
12507557 5 18408881845467772304
12633257 1 18341888602346167976
12839892 36 18340758291450253690
13140716 1 18339643467883616216
13214271 11 18272369780793716703
13224815 77 18411987974316295335
13675066 3 18187087269080573787
14178342 30 18338527339117458393
14223421 5 18341052895787930134
14341114 176 18411985737129035682
14787075 74 18339640165090922602
14790565 3 18050014594947639924
15163728 17 14691189929019880809
15196674 1 18411420639180230811
15375358 24 18413110541697833299
15536298 74 18272376330249831326
15788980 27 17167859768361771669
16945 1 18267308633664624303
17349148 13 18260547844245275310
17492 89 18410012108956776131
1813 80 17168144512515476742
18186145 218 18411423903503023558
18522853 276 18412546492037592553
19050596 39 18410858775858764633
19784866 9 18412265021155473810
200 152 18202274819337965375
20715895 44 18116989984517715477
21033648 29 18262779827106925672
21267235 1 18410302427354843602
21421861 104 18042966467372004754
21637258 2 15647319828885568714
22182313 1 18189614934485510503
22854114 111 18409735070690792279
22854114 59 18343022189864506130
23402539 116 18272925046486162621
23557571 272 18059303161493107767
23559900 14 18343023255612643838
26918003 58 18409728456589012017
2748010 2 18410304609229794207
2838139 119 14835541671104639250
296302 2 16343984710473737934
335352 9 18411702045432157758
34934 24 18341610383102269379
350125 39 18410857681354741304
351380 180 18413386540454065762
3545911 37 18411703166439727155
42 15 18260548935156425576
5104073 3 18410294747868572393
59755656 215 18339930311854621398
633830 44 17988931080225984300
69090 78 18413386557386229218
7364860 26 18200601276388112774
9709674 26 18341058445033876271

> <PUBCHEM_SHAPE_MULTIPOLES>
420.43
9.43
2.1
1.06
1.16
0.42
0.43
-0.59
-2.56
-0.22
0.02
0.09
-0.22
0.11

> <PUBCHEM_SHAPE_SELFOVERLAP>
902.625

> <PUBCHEM_SHAPE_VOLUME>
230.1

> <PUBCHEM_COORDINATE_TYPE>
2
5
10

> <Energy>
71.9966

> <minimizedAffinity>
-6.40100

> <CNNscore>
0.7575573325

> <CNNaffinity>
7.9164881706

> <CNN_VS>
5.9971938133

> <CNNaffinity_variance>
0.9071621299

$$$$
6013


 22 25  0  0  0  0  0  0  0  0999 V2000
   -0.3860   -4.4420   19.6756 O   0  0  0  0  0  0  0  0  0  0  0  0
   -9.1332   -3.9003   26.0817 O   0  0  0  0  0  0  0  0  0  0  0  0
   -2.6780   -2.9650   22.1077 C   0  0  0  0  0  0  0  0  0  0  0  0
   -2.4765   -3.8593   20.8689 C   0  0  0  0  0  0  0  0  0  0  0  0
   -4.1465   -2.5925   22.3325 C   0  0  0  0  0  0  0  0  0  0  0  0
   -4.9719   -3.9024   22.5345 C   0  0  0  0  0  0  0  0  0  0  0  0
   -6.4981   -3.6261   22.8174 C   0  0  0  0  0  0  0  0  0  0  0  0
   -3.2271   -5.1757   21.1084 C   0  0  0  0  0  0  0  0  0  0  0  0
   -4.7194   -4.9291   21.3956 C   0  0  0  0  0  0  0  0  0  0  0  0
   -0.9392   -3.9804   20.8936 C   0  0  0  0  0  0  0  0  0  0  0  0
   -1.6498   -1.8530   21.9153 C   0  0  0  0  0  0  0  0  0  0  0  0
   -4.3106   -1.6725   23.5489 C   0  0  0  0  0  0  0  0  0  0  0  0
   -0.4564   -2.5586   21.2468 C   0  0  0  0  0  0  0  0  0  0  0  0
   -6.6297   -2.5699   23.9237 C   0  0  0  0  0  0  0  0  0  0  0  0
   -5.7757   -1.3313   23.7877 C   0  0  0  0  0  0  0  0  0  0  0  0
   -2.9464   -3.2308   19.5335 C   0  0  0  0  0  0  0  0  0  0  0  0
   -7.1610   -4.9594   23.2737 C   0  0  0  0  0  0  0  0  0  0  0  0
   -7.2356   -3.1039   21.5642 C   0  0  0  0  0  0  0  0  0  0  0  0
   -8.5193   -4.7740   23.9339 C   0  0  0  0  0  0  0  0  0  0  0  0
   -7.4657   -2.6838   24.9700 C   0  0  0  0  0  0  0  0  0  0  0  0
   -8.4125   -3.8172   25.0916 C   0  0  0  0  0  0  0  0  0  0  0  0
   -0.7132   -5.3360   19.4901 H   0  0  0  0  0  0  0  0  0  0  0  0
  1 10  1  0
  1 22  1  0
  2 21  2  0
  3  4  1  0
  3  5  1  0
  3 11  1  0
  4  8  1  0
  4 10  1  0
  4 16  1  0
  5  6  1  0
  5 12  1  0
  6  7  1  0
  6  9  1  0
  7 14  1  0
  7 17  1  0
  7 18  1  0
  8  9  1  0
 10 13  1  0
 11 13  1  0
 12 15  1  0
 14 15  1  0
 14 20  2  0
 17 19  1  0
 19 21  1  0
 20 21  1  0
M  END
> <PUBCHEM_COMPOUND_CID>
6013

> <PUBCHEM_CONFORMER_RMSD>
0.6

> <PUBCHEM_CONFORMER_DIVERSEORDER>
1

> <PUBCHEM_MMFF94_PARTIAL_CHARGES>
11
1 -0.68
10 0.28
14 -0.28
15 0.14
19 0.06
2 -0.57
20 -0.14
21 0.49
48 0.15
49 0.4
7 0.14

> <PUBCHEM_EFFECTIVE_ROTOR_COUNT>
1.8

> <PUBCHEM_PHARMACOPHORE_FEATURES>
7
1 1 acceptor
1 1 donor
1 2 acceptor
5 3 4 10 11 13 rings
6 3 4 5 6 8 9 rings
6 5 6 7 12 14 15 rings
6 7 14 17 19 20 21 rings

> <PUBCHEM_HEAVY_ATOM_COUNT>
21

> <PUBCHEM_ATOM_DEF_STEREO_COUNT>
6

> <PUBCHEM_ATOM_UDEF_STEREO_COUNT>
0

> <PUBCHEM_BOND_DEF_STEREO_COUNT>
0

> <PUBCHEM_BOND_UDEF_STEREO_COUNT>
0

> <PUBCHEM_ISOTOPIC_ATOM_COUNT>
0

> <PUBCHEM_COMPONENT_COUNT>
1

> <PUBCHEM_CACTVS_TAUTO_COUNT>
5

> <PUBCHEM_CONFORMER_ID>
0000177D00000001

> <PUBCHEM_MMFF94_ENERGY>
67.5416

> <PUBCHEM_FEATURE_SELFOVERLAP>
35.618

> <PUBCHEM_SHAPE_FINGERPRINT>
10062212 137 18336825385559829163
10759866 29 17897457309511876188
10967382 1 18412548682291571786
11132069 177 18410018732180467827
11370993 70 18410569557056084199
11578080 2 16735503067342509174
12011746 2 18412547592124142406
12236239 1 18040155136873436768
12251169 10 18410008845387181634
12403259 226 18410006624652160988
12403259 415 18408880746209696412
12403260 363 18340481291412090749
12403814 3 17894914044785590877
12507557 5 18408881845467772304
12633257 1 18341888602346167976
12839892 36 18340758291450253690
13140716 1 18339643467883616216
13214271 11 18272369780793716703
13224815 77 18411987974316295335
13675066 3 18187087269080573787
14178342 30 18338527339117458393
14223421 5 18341052895787930134
14341114 176 18411985737129035682
14787075 74 18339640165090922602
14790565 3 18050014594947639924
15163728 17 14691189929019880809
15196674 1 18411420639180230811
15375358 24 18413110541697833299
15536298 74 18272376330249831326
15788980 27 17167859768361771669
16945 1 18267308633664624303
17349148 13 18260547844245275310
17492 89 18410012108956776131
1813 80 17168144512515476742
18186145 218 18411423903503023558
18522853 276 18412546492037592553
19050596 39 18410858775858764633
19784866 9 18412265021155473810
200 152 18202274819337965375
20715895 44 18116989984517715477
21033648 29 18262779827106925672
21267235 1 18410302427354843602
21421861 104 18042966467372004754
21637258 2 15647319828885568714
22182313 1 18189614934485510503
22854114 111 18409735070690792279
22854114 59 18343022189864506130
23402539 116 18272925046486162621
23557571 272 18059303161493107767
23559900 14 18343023255612643838
26918003 58 18409728456589012017
2748010 2 18410304609229794207
2838139 119 14835541671104639250
296302 2 16343984710473737934
335352 9 18411702045432157758
34934 24 18341610383102269379
350125 39 18410857681354741304
351380 180 18413386540454065762
3545911 37 18411703166439727155
42 15 18260548935156425576
5104073 3 18410294747868572393
59755656 215 18339930311854621398
633830 44 17988931080225984300
69090 78 18413386557386229218
7364860 26 18200601276388112774
9709674 26 18341058445033876271

> <PUBCHEM_SHAPE_MULTIPOLES>
420.43
9.43
2.1
1.06
1.16
0.42
0.43
-0.59
-2.56
-0.22
0.02
0.09
-0.22
0.11

> <PUBCHEM_SHAPE_SELFOVERLAP>
902.625

> <PUBCHEM_SHAPE_VOLUME>
230.1

> <PUBCHEM_COORDINATE_TYPE>
2
5
10

> <Energy>
71.9966

> <minimizedAffinity>
-5.80782

> <CNNscore>
0.7265765071

> <CNNaffinity>
7.5221428871

> <CNN_VS>
5.4654121399

> <CNNaffinity_variance>
0.4916800559

$$$$
6013


 22 25  0  0  0  0  0  0  0  0999 V2000
    0.3442   -1.6436   20.6146 O   0  0  0  0  0  0  0  0  0  0  0  0
   -9.4319   -4.7430   24.1734 O   0  0  0  0  0  0  0  0  0  0  0  0
   -3.1380   -2.7179   20.3496 C   0  0  0  0  0  0  0  0  0  0  0  0
   -1.7995   -2.7803   21.1108 C   0  0  0  0  0  0  0  0  0  0  0  0
   -4.1139   -3.8156   20.7834 C   0  0  0  0  0  0  0  0  0  0  0  0
   -4.4092   -3.6518   22.3078 C   0  0  0  0  0  0  0  0  0  0  0  0
   -5.4423   -4.7132   22.8482 C   0  0  0  0  0  0  0  0  0  0  0  0
   -2.0894   -2.5413   22.5983 C   0  0  0  0  0  0  0  0  0  0  0  0
   -3.1035   -3.5620   23.1457 C   0  0  0  0  0  0  0  0  0  0  0  0
   -1.0554   -1.6278   20.4061 C   0  0  0  0  0  0  0  0  0  0  0  0
   -2.7119   -2.6376   18.8858 C   0  0  0  0  0  0  0  0  0  0  0  0
   -5.4208   -3.7510   19.9828 C   0  0  0  0  0  0  0  0  0  0  0  0
   -1.4209   -1.8000   18.9173 C   0  0  0  0  0  0  0  0  0  0  0  0
   -6.6682   -4.7491   21.9249 C   0  0  0  0  0  0  0  0  0  0  0  0
   -6.4004   -4.8239   20.4400 C   0  0  0  0  0  0  0  0  0  0  0  0
   -1.0202   -4.1082   20.9420 C   0  0  0  0  0  0  0  0  0  0  0  0
   -5.8711   -4.2920   24.2849 C   0  0  0  0  0  0  0  0  0  0  0  0
   -4.8395   -6.1347   22.9024 C   0  0  0  0  0  0  0  0  0  0  0  0
   -7.1255   -4.9959   24.7812 C   0  0  0  0  0  0  0  0  0  0  0  0
   -7.9374   -4.7400   22.3671 C   0  0  0  0  0  0  0  0  0  0  0  0
   -8.2597   -4.7891   23.8126 C   0  0  0  0  0  0  0  0  0  0  0  0
    0.5316   -1.5330   21.5598 H   0  0  0  0  0  0  0  0  0  0  0  0
  1 10  1  0
  1 22  1  0
  2 21  2  0
  3  4  1  0
  3  5  1  0
  3 11  1  0
  4  8  1  0
  4 10  1  0
  4 16  1  0
  5  6  1  0
  5 12  1  0
  6  7  1  0
  6  9  1  0
  7 14  1  0
  7 17  1  0
  7 18  1  0
  8  9  1  0
 10 13  1  0
 11 13  1  0
 12 15  1  0
 14 15  1  0
 14 20  2  0
 17 19  1  0
 19 21  1  0
 20 21  1  0
M  END
> <PUBCHEM_COMPOUND_CID>
6013

> <PUBCHEM_CONFORMER_RMSD>
0.6

> <PUBCHEM_CONFORMER_DIVERSEORDER>
1

> <PUBCHEM_MMFF94_PARTIAL_CHARGES>
11
1 -0.68
10 0.28
14 -0.28
15 0.14
19 0.06
2 -0.57
20 -0.14
21 0.49
48 0.15
49 0.4
7 0.14

> <PUBCHEM_EFFECTIVE_ROTOR_COUNT>
1.8

> <PUBCHEM_PHARMACOPHORE_FEATURES>
7
1 1 acceptor
1 1 donor
1 2 acceptor
5 3 4 10 11 13 rings
6 3 4 5 6 8 9 rings
6 5 6 7 12 14 15 rings
6 7 14 17 19 20 21 rings

> <PUBCHEM_HEAVY_ATOM_COUNT>
21

> <PUBCHEM_ATOM_DEF_STEREO_COUNT>
6

> <PUBCHEM_ATOM_UDEF_STEREO_COUNT>
0

> <PUBCHEM_BOND_DEF_STEREO_COUNT>
0

> <PUBCHEM_BOND_UDEF_STEREO_COUNT>
0

> <PUBCHEM_ISOTOPIC_ATOM_COUNT>
0

> <PUBCHEM_COMPONENT_COUNT>
1

> <PUBCHEM_CACTVS_TAUTO_COUNT>
5

> <PUBCHEM_CONFORMER_ID>
0000177D00000001

> <PUBCHEM_MMFF94_ENERGY>
67.5416

> <PUBCHEM_FEATURE_SELFOVERLAP>
35.618

> <PUBCHEM_SHAPE_FINGERPRINT>
10062212 137 18336825385559829163
10759866 29 17897457309511876188
10967382 1 18412548682291571786
11132069 177 18410018732180467827
11370993 70 18410569557056084199
11578080 2 16735503067342509174
12011746 2 18412547592124142406
12236239 1 18040155136873436768
12251169 10 18410008845387181634
12403259 226 18410006624652160988
12403259 415 18408880746209696412
12403260 363 18340481291412090749
12403814 3 17894914044785590877
12507557 5 18408881845467772304
12633257 1 18341888602346167976
12839892 36 18340758291450253690
13140716 1 18339643467883616216
13214271 11 18272369780793716703
13224815 77 18411987974316295335
13675066 3 18187087269080573787
14178342 30 18338527339117458393
14223421 5 18341052895787930134
14341114 176 18411985737129035682
14787075 74 18339640165090922602
14790565 3 18050014594947639924
15163728 17 14691189929019880809
15196674 1 18411420639180230811
15375358 24 18413110541697833299
15536298 74 18272376330249831326
15788980 27 17167859768361771669
16945 1 18267308633664624303
17349148 13 18260547844245275310
17492 89 18410012108956776131
1813 80 17168144512515476742
18186145 218 18411423903503023558
18522853 276 18412546492037592553
19050596 39 18410858775858764633
19784866 9 18412265021155473810
200 152 18202274819337965375
20715895 44 18116989984517715477
21033648 29 18262779827106925672
21267235 1 18410302427354843602
21421861 104 18042966467372004754
21637258 2 15647319828885568714
22182313 1 18189614934485510503
22854114 111 18409735070690792279
22854114 59 18343022189864506130
23402539 116 18272925046486162621
23557571 272 18059303161493107767
23559900 14 18343023255612643838
26918003 58 18409728456589012017
2748010 2 18410304609229794207
2838139 119 14835541671104639250
296302 2 16343984710473737934
335352 9 18411702045432157758
34934 24 18341610383102269379
350125 39 18410857681354741304
351380 180 18413386540454065762
3545911 37 18411703166439727155
42 15 18260548935156425576
5104073 3 18410294747868572393
59755656 215 18339930311854621398
633830 44 17988931080225984300
69090 78 18413386557386229218
7364860 26 18200601276388112774
9709674 26 18341058445033876271

> <PUBCHEM_SHAPE_MULTIPOLES>
420.43
9.43
2.1
1.06
1.16
0.42
0.43
-0.59
-2.56
-0.22
0.02
0.09
-0.22
0.11

> <PUBCHEM_SHAPE_SELFOVERLAP>
902.625

> <PUBCHEM_SHAPE_VOLUME>
230.1

> <PUBCHEM_COORDINATE_TYPE>
2
5
10

> <Energy>
71.9966

> <minimizedAffinity>
-8.41158

> <CNNscore>
0.6554473639

> <CNNaffinity>
7.6735749245

> <CNN_VS>
5.0296244621

> <CNNaffinity_variance>
0.4481267929

$$$$
6013


 22 25  0  0  0  0  0  0  0  0999 V2000
   -9.1020   -5.0624   24.3661 O   0  0  0  0  0  0  0  0  0  0  0  0
   -0.5622   -1.3569   18.7818 O   0  0  0  0  0  0  0  0  0  0  0  0
   -6.0049   -3.2049   23.8115 C   0  0  0  0  0  0  0  0  0  0  0  0
   -6.8693   -4.4404   23.4933 C   0  0  0  0  0  0  0  0  0  0  0  0
   -4.5601   -3.3563   23.3263 C   0  0  0  0  0  0  0  0  0  0  0  0
   -4.5688   -3.5625   21.7787 C   0  0  0  0  0  0  0  0  0  0  0  0
   -3.1197   -3.6870   21.1701 C   0  0  0  0  0  0  0  0  0  0  0  0
   -6.9365   -4.5908   21.9680 C   0  0  0  0  0  0  0  0  0  0  0  0
   -5.5308   -4.7055   21.3507 C   0  0  0  0  0  0  0  0  0  0  0  0
   -8.1905   -4.0005   24.1561 C   0  0  0  0  0  0  0  0  0  0  0  0
   -6.2692   -2.9578   25.2947 C   0  0  0  0  0  0  0  0  0  0  0  0
   -3.7160   -2.1283   23.6903 C   0  0  0  0  0  0  0  0  0  0  0  0
   -7.7463   -3.3481   25.4815 C   0  0  0  0  0  0  0  0  0  0  0  0
   -2.2460   -2.5373   21.6913 C   0  0  0  0  0  0  0  0  0  0  0  0
   -2.2888   -2.2693   23.1774 C   0  0  0  0  0  0  0  0  0  0  0  0
   -6.3647   -5.7629   24.1223 C   0  0  0  0  0  0  0  0  0  0  0  0
   -3.2314   -3.6086   19.6188 C   0  0  0  0  0  0  0  0  0  0  0  0
   -2.4404   -5.0200   21.5561 C   0  0  0  0  0  0  0  0  0  0  0  0
   -1.9061   -3.3386   18.9217 C   0  0  0  0  0  0  0  0  0  0  0  0
   -1.4476   -1.7914   20.9087 C   0  0  0  0  0  0  0  0  0  0  0  0
   -1.2736   -2.0857   19.4668 C   0  0  0  0  0  0  0  0  0  0  0  0
   -9.3558   -5.4445   23.5115 H   0  0  0  0  0  0  0  0  0  0  0  0
  1 10  1  0
  1 22  1  0
  2 21  2  0
  3  4  1  0
  3  5  1  0
  3 11  1  0
  4  8  1  0
  4 10  1  0
  4 16  1  0
  5  6  1  0
  5 12  1  0
  6  7  1  0
  6  9  1  0
  7 14  1  0
  7 17  1  0
  7 18  1  0
  8  9  1  0
 10 13  1  0
 11 13  1  0
 12 15  1  0
 14 15  1  0
 14 20  2  0
 17 19  1  0
 19 21  1  0
 20 21  1  0
M  END
> <PUBCHEM_COMPOUND_CID>
6013

> <PUBCHEM_CONFORMER_RMSD>
0.6

> <PUBCHEM_CONFORMER_DIVERSEORDER>
1

> <PUBCHEM_MMFF94_PARTIAL_CHARGES>
11
1 -0.68
10 0.28
14 -0.28
15 0.14
19 0.06
2 -0.57
20 -0.14
21 0.49
48 0.15
49 0.4
7 0.14

> <PUBCHEM_EFFECTIVE_ROTOR_COUNT>
1.8

> <PUBCHEM_PHARMACOPHORE_FEATURES>
7
1 1 acceptor
1 1 donor
1 2 acceptor
5 3 4 10 11 13 rings
6 3 4 5 6 8 9 rings
6 5 6 7 12 14 15 rings
6 7 14 17 19 20 21 rings

> <PUBCHEM_HEAVY_ATOM_COUNT>
21

> <PUBCHEM_ATOM_DEF_STEREO_COUNT>
6

> <PUBCHEM_ATOM_UDEF_STEREO_COUNT>
0

> <PUBCHEM_BOND_DEF_STEREO_COUNT>
0

> <PUBCHEM_BOND_UDEF_STEREO_COUNT>
0

> <PUBCHEM_ISOTOPIC_ATOM_COUNT>
0

> <PUBCHEM_COMPONENT_COUNT>
1

> <PUBCHEM_CACTVS_TAUTO_COUNT>
5

> <PUBCHEM_CONFORMER_ID>
0000177D00000001

> <PUBCHEM_MMFF94_ENERGY>
67.5416

> <PUBCHEM_FEATURE_SELFOVERLAP>
35.618

> <PUBCHEM_SHAPE_FINGERPRINT>
10062212 137 18336825385559829163
10759866 29 17897457309511876188
10967382 1 18412548682291571786
11132069 177 18410018732180467827
11370993 70 18410569557056084199
11578080 2 16735503067342509174
12011746 2 18412547592124142406
12236239 1 18040155136873436768
12251169 10 18410008845387181634
12403259 226 18410006624652160988
12403259 415 18408880746209696412
12403260 363 18340481291412090749
12403814 3 17894914044785590877
12507557 5 18408881845467772304
12633257 1 18341888602346167976
12839892 36 18340758291450253690
13140716 1 18339643467883616216
13214271 11 18272369780793716703
13224815 77 18411987974316295335
13675066 3 18187087269080573787
14178342 30 18338527339117458393
14223421 5 18341052895787930134
14341114 176 18411985737129035682
14787075 74 18339640165090922602
14790565 3 18050014594947639924
15163728 17 14691189929019880809
15196674 1 18411420639180230811
15375358 24 18413110541697833299
15536298 74 18272376330249831326
15788980 27 17167859768361771669
16945 1 18267308633664624303
17349148 13 18260547844245275310
17492 89 18410012108956776131
1813 80 17168144512515476742
18186145 218 18411423903503023558
18522853 276 18412546492037592553
19050596 39 18410858775858764633
19784866 9 18412265021155473810
200 152 18202274819337965375
20715895 44 18116989984517715477
21033648 29 18262779827106925672
21267235 1 18410302427354843602
21421861 104 18042966467372004754
21637258 2 15647319828885568714
22182313 1 18189614934485510503
22854114 111 18409735070690792279
22854114 59 18343022189864506130
23402539 116 18272925046486162621
23557571 272 18059303161493107767
23559900 14 18343023255612643838
26918003 58 18409728456589012017
2748010 2 18410304609229794207
2838139 119 14835541671104639250
296302 2 16343984710473737934
335352 9 18411702045432157758
34934 24 18341610383102269379
350125 39 18410857681354741304
351380 180 18413386540454065762
3545911 37 18411703166439727155
42 15 18260548935156425576
5104073 3 18410294747868572393
59755656 215 18339930311854621398
633830 44 17988931080225984300
69090 78 18413386557386229218
7364860 26 18200601276388112774
9709674 26 18341058445033876271

> <PUBCHEM_SHAPE_MULTIPOLES>
420.43
9.43
2.1
1.06
1.16
0.42
0.43
-0.59
-2.56
-0.22
0.02
0.09
-0.22
0.11

> <PUBCHEM_SHAPE_SELFOVERLAP>
902.625

> <PUBCHEM_SHAPE_VOLUME>
230.1

> <PUBCHEM_COORDINATE_TYPE>
2
5
10

> <Energy>
71.9966

> <minimizedAffinity>
-7.84524

> <CNNscore>
0.5944686532

> <CNNaffinity>
7.4218630791

> <CNN_VS>
4.4120650291

> <CNNaffinity_variance>
0.3108104765

$$$$
6013


 22 25  0  0  0  0  0  0  0  0999 V2000
    0.8841   -3.0669   20.7554 O   0  0  0  0  0  0  0  0  0  0  0  0
   -9.5753   -5.9729   20.7506 O   0  0  0  0  0  0  0  0  0  0  0  0
   -2.3602   -3.9276   22.1986 C   0  0  0  0  0  0  0  0  0  0  0  0
   -1.5659   -3.2807   21.0473 C   0  0  0  0  0  0  0  0  0  0  0  0
   -3.8470   -3.5614   22.1668 C   0  0  0  0  0  0  0  0  0  0  0  0
   -4.4565   -4.0513   20.8153 C   0  0  0  0  0  0  0  0  0  0  0  0
   -6.0015   -3.7593   20.6996 C   0  0  0  0  0  0  0  0  0  0  0  0
   -2.1199   -3.8265   19.7249 C   0  0  0  0  0  0  0  0  0  0  0  0
   -3.6305   -3.5600   19.5941 C   0  0  0  0  0  0  0  0  0  0  0  0
   -0.1511   -3.7780   21.4074 C   0  0  0  0  0  0  0  0  0  0  0  0
   -1.5361   -3.5842   23.4370 C   0  0  0  0  0  0  0  0  0  0  0  0
   -4.6033   -4.1886   23.3448 C   0  0  0  0  0  0  0  0  0  0  0  0
   -0.0797   -3.6279   22.9410 C   0  0  0  0  0  0  0  0  0  0  0  0
   -6.7099   -4.2436   21.9725 C   0  0  0  0  0  0  0  0  0  0  0  0
   -6.0869   -3.8484   23.2908 C   0  0  0  0  0  0  0  0  0  0  0  0
   -1.6037   -1.7324   21.0248 C   0  0  0  0  0  0  0  0  0  0  0  0
   -6.5531   -4.5245   19.4604 C   0  0  0  0  0  0  0  0  0  0  0  0
   -6.2964   -2.2523   20.5292 C   0  0  0  0  0  0  0  0  0  0  0  0
   -8.0699   -4.6437   19.4390 C   0  0  0  0  0  0  0  0  0  0  0  0
   -7.8431   -4.9663   21.9682 C   0  0  0  0  0  0  0  0  0  0  0  0
   -8.5630   -5.2798   20.7115 C   0  0  0  0  0  0  0  0  0  0  0  0
    0.8041   -3.1864   19.7961 H   0  0  0  0  0  0  0  0  0  0  0  0
  1 10  1  0
  1 22  1  0
  2 21  2  0
  3  4  1  0
  3  5  1  0
  3 11  1  0
  4  8  1  0
  4 10  1  0
  4 16  1  0
  5  6  1  0
  5 12  1  0
  6  7  1  0
  6  9  1  0
  7 14  1  0
  7 17  1  0
  7 18  1  0
  8  9  1  0
 10 13  1  0
 11 13  1  0
 12 15  1  0
 14 15  1  0
 14 20  2  0
 17 19  1  0
 19 21  1  0
 20 21  1  0
M  END
> <PUBCHEM_COMPOUND_CID>
6013

> <PUBCHEM_CONFORMER_RMSD>
0.6

> <PUBCHEM_CONFORMER_DIVERSEORDER>
1

> <PUBCHEM_MMFF94_PARTIAL_CHARGES>
11
1 -0.68
10 0.28
14 -0.28
15 0.14
19 0.06
2 -0.57
20 -0.14
21 0.49
48 0.15
49 0.4
7 0.14

> <PUBCHEM_EFFECTIVE_ROTOR_COUNT>
1.8

> <PUBCHEM_PHARMACOPHORE_FEATURES>
7
1 1 acceptor
1 1 donor
1 2 acceptor
5 3 4 10 11 13 rings
6 3 4 5 6 8 9 rings
6 5 6 7 12 14 15 rings
6 7 14 17 19 20 21 rings

> <PUBCHEM_HEAVY_ATOM_COUNT>
21

> <PUBCHEM_ATOM_DEF_STEREO_COUNT>
6

> <PUBCHEM_ATOM_UDEF_STEREO_COUNT>
0

> <PUBCHEM_BOND_DEF_STEREO_COUNT>
0

> <PUBCHEM_BOND_UDEF_STEREO_COUNT>
0

> <PUBCHEM_ISOTOPIC_ATOM_COUNT>
0

> <PUBCHEM_COMPONENT_COUNT>
1

> <PUBCHEM_CACTVS_TAUTO_COUNT>
5

> <PUBCHEM_CONFORMER_ID>
0000177D00000001

> <PUBCHEM_MMFF94_ENERGY>
67.5416

> <PUBCHEM_FEATURE_SELFOVERLAP>
35.618

> <PUBCHEM_SHAPE_FINGERPRINT>
10062212 137 18336825385559829163
10759866 29 17897457309511876188
10967382 1 18412548682291571786
11132069 177 18410018732180467827
11370993 70 18410569557056084199
11578080 2 16735503067342509174
12011746 2 18412547592124142406
12236239 1 18040155136873436768
12251169 10 18410008845387181634
12403259 226 18410006624652160988
12403259 415 18408880746209696412
12403260 363 18340481291412090749
12403814 3 17894914044785590877
12507557 5 18408881845467772304
12633257 1 18341888602346167976
12839892 36 18340758291450253690
13140716 1 18339643467883616216
13214271 11 18272369780793716703
13224815 77 18411987974316295335
13675066 3 18187087269080573787
14178342 30 18338527339117458393
14223421 5 18341052895787930134
14341114 176 18411985737129035682
14787075 74 18339640165090922602
14790565 3 18050014594947639924
15163728 17 14691189929019880809
15196674 1 18411420639180230811
15375358 24 18413110541697833299
15536298 74 18272376330249831326
15788980 27 17167859768361771669
16945 1 18267308633664624303
17349148 13 18260547844245275310
17492 89 18410012108956776131
1813 80 17168144512515476742
18186145 218 18411423903503023558
18522853 276 18412546492037592553
19050596 39 18410858775858764633
19784866 9 18412265021155473810
200 152 18202274819337965375
20715895 44 18116989984517715477
21033648 29 18262779827106925672
21267235 1 18410302427354843602
21421861 104 18042966467372004754
21637258 2 15647319828885568714
22182313 1 18189614934485510503
22854114 111 18409735070690792279
22854114 59 18343022189864506130
23402539 116 18272925046486162621
23557571 272 18059303161493107767
23559900 14 18343023255612643838
26918003 58 18409728456589012017
2748010 2 18410304609229794207
2838139 119 14835541671104639250
296302 2 16343984710473737934
335352 9 18411702045432157758
34934 24 18341610383102269379
350125 39 18410857681354741304
351380 180 18413386540454065762
3545911 37 18411703166439727155
42 15 18260548935156425576
5104073 3 18410294747868572393
59755656 215 18339930311854621398
633830 44 17988931080225984300
69090 78 18413386557386229218
7364860 26 18200601276388112774
9709674 26 18341058445033876271

> <PUBCHEM_SHAPE_MULTIPOLES>
420.43
9.43
2.1
1.06
1.16
0.42
0.43
-0.59
-2.56
-0.22
0.02
0.09
-0.22
0.11

> <PUBCHEM_SHAPE_SELFOVERLAP>
902.625

> <PUBCHEM_SHAPE_VOLUME>
230.1

> <PUBCHEM_COORDINATE_TYPE>
2
5
10

> <Energy>
71.9966

> <minimizedAffinity>
1.37232

> <CNNscore>
0.4662606418

> <CNNaffinity>
7.0049748421

> <CNN_VS>
3.2661440372

> <CNNaffinity_variance>
0.6409016848

$$$$
6013


 22 25  0  0  0  0  0  0  0  0999 V2000
   -0.2976   -5.6329   19.4996 O   0  0  0  0  0  0  0  0  0  0  0  0
   -7.7190   -2.3924   26.7290 O   0  0  0  0  0  0  0  0  0  0  0  0
   -2.0159   -3.3056   21.7313 C   0  0  0  0  0  0  0  0  0  0  0  0
   -2.0990   -4.5147   20.7795 C   0  0  0  0  0  0  0  0  0  0  0  0
   -3.3920   -2.7188   22.0595 C   0  0  0  0  0  0  0  0  0  0  0  0
   -4.2586   -3.8225   22.7442 C   0  0  0  0  0  0  0  0  0  0  0  0
   -5.6879   -3.3056   23.1632 C   0  0  0  0  0  0  0  0  0  0  0  0
   -2.8860   -5.6234   21.4903 C   0  0  0  0  0  0  0  0  0  0  0  0
   -4.2832   -5.1377   21.9167 C   0  0  0  0  0  0  0  0  0  0  0  0
   -0.5937   -4.8025   20.6065 C   0  0  0  0  0  0  0  0  0  0  0  0
   -0.9624   -2.4122   21.0812 C   0  0  0  0  0  0  0  0  0  0  0  0
   -3.2744   -1.4954   22.9774 C   0  0  0  0  0  0  0  0  0  0  0  0
    0.0422   -3.4040   20.4677 C   0  0  0  0  0  0  0  0  0  0  0  0
   -5.5482   -1.9850   23.9334 C   0  0  0  0  0  0  0  0  0  0  0  0
   -4.6468   -0.9352   23.3271 C   0  0  0  0  0  0  0  0  0  0  0  0
   -2.7517   -4.2146   19.4073 C   0  0  0  0  0  0  0  0  0  0  0  0
   -6.3516   -4.3828   24.0712 C   0  0  0  0  0  0  0  0  0  0  0  0
   -6.5963   -3.0543   21.9390 C   0  0  0  0  0  0  0  0  0  0  0  0
   -7.5560   -3.8719   24.8482 C   0  0  0  0  0  0  0  0  0  0  0  0
   -6.1925   -1.7181   25.0823 C   0  0  0  0  0  0  0  0  0  0  0  0
   -7.1801   -2.6603   25.6594 C   0  0  0  0  0  0  0  0  0  0  0  0
   -0.7141   -6.4998   19.6250 H   0  0  0  0  0  0  0  0  0  0  0  0
  1 10  1  0
  1 22  1  0
  2 21  2  0
  3  4  1  0
  3  5  1  0
  3 11  1  0
  4  8  1  0
  4 10  1  0
  4 16  1  0
  5  6  1  0
  5 12  1  0
  6  7  1  0
  6  9  1  0
  7 14  1  0
  7 17  1  0
  7 18  1  0
  8  9  1  0
 10 13  1  0
 11 13  1  0
 12 15  1  0
 14 15  1  0
 14 20  2  0
 17 19  1  0
 19 21  1  0
 20 21  1  0
M  END
> <PUBCHEM_COMPOUND_CID>
6013

> <PUBCHEM_CONFORMER_RMSD>
0.6

> <PUBCHEM_CONFORMER_DIVERSEORDER>
1

> <PUBCHEM_MMFF94_PARTIAL_CHARGES>
11
1 -0.68
10 0.28
14 -0.28
15 0.14
19 0.06
2 -0.57
20 -0.14
21 0.49
48 0.15
49 0.4
7 0.14

> <PUBCHEM_EFFECTIVE_ROTOR_COUNT>
1.8

> <PUBCHEM_PHARMACOPHORE_FEATURES>
7
1 1 acceptor
1 1 donor
1 2 acceptor
5 3 4 10 11 13 rings
6 3 4 5 6 8 9 rings
6 5 6 7 12 14 15 rings
6 7 14 17 19 20 21 rings

> <PUBCHEM_HEAVY_ATOM_COUNT>
21

> <PUBCHEM_ATOM_DEF_STEREO_COUNT>
6

> <PUBCHEM_ATOM_UDEF_STEREO_COUNT>
0

> <PUBCHEM_BOND_DEF_STEREO_COUNT>
0

> <PUBCHEM_BOND_UDEF_STEREO_COUNT>
0

> <PUBCHEM_ISOTOPIC_ATOM_COUNT>
0

> <PUBCHEM_COMPONENT_COUNT>
1

> <PUBCHEM_CACTVS_TAUTO_COUNT>
5

> <PUBCHEM_CONFORMER_ID>
0000177D00000001

> <PUBCHEM_MMFF94_ENERGY>
67.5416

> <PUBCHEM_FEATURE_SELFOVERLAP>
35.618

> <PUBCHEM_SHAPE_FINGERPRINT>
10062212 137 18336825385559829163
10759866 29 17897457309511876188
10967382 1 18412548682291571786
11132069 177 18410018732180467827
11370993 70 18410569557056084199
11578080 2 16735503067342509174
12011746 2 18412547592124142406
12236239 1 18040155136873436768
12251169 10 18410008845387181634
12403259 226 18410006624652160988
12403259 415 18408880746209696412
12403260 363 18340481291412090749
12403814 3 17894914044785590877
12507557 5 18408881845467772304
12633257 1 18341888602346167976
12839892 36 18340758291450253690
13140716 1 18339643467883616216
13214271 11 18272369780793716703
13224815 77 18411987974316295335
13675066 3 18187087269080573787
14178342 30 18338527339117458393
14223421 5 18341052895787930134
14341114 176 18411985737129035682
14787075 74 18339640165090922602
14790565 3 18050014594947639924
15163728 17 14691189929019880809
15196674 1 18411420639180230811
15375358 24 18413110541697833299
15536298 74 18272376330249831326
15788980 27 17167859768361771669
16945 1 18267308633664624303
17349148 13 18260547844245275310
17492 89 18410012108956776131
1813 80 17168144512515476742
18186145 218 18411423903503023558
18522853 276 18412546492037592553
19050596 39 18410858775858764633
19784866 9 18412265021155473810
200 152 18202274819337965375
20715895 44 18116989984517715477
21033648 29 18262779827106925672
21267235 1 18410302427354843602
21421861 104 18042966467372004754
21637258 2 15647319828885568714
22182313 1 18189614934485510503
22854114 111 18409735070690792279
22854114 59 18343022189864506130
23402539 116 18272925046486162621
23557571 272 18059303161493107767
23559900 14 18343023255612643838
26918003 58 18409728456589012017
2748010 2 18410304609229794207
2838139 119 14835541671104639250
296302 2 16343984710473737934
335352 9 18411702045432157758
34934 24 18341610383102269379
350125 39 18410857681354741304
351380 180 18413386540454065762
3545911 37 18411703166439727155
42 15 18260548935156425576
5104073 3 18410294747868572393
59755656 215 18339930311854621398
633830 44 17988931080225984300
69090 78 18413386557386229218
7364860 26 18200601276388112774
9709674 26 18341058445033876271

> <PUBCHEM_SHAPE_MULTIPOLES>
420.43
9.43
2.1
1.06
1.16
0.42
0.43
-0.59
-2.56
-0.22
0.02
0.09
-0.22
0.11

> <PUBCHEM_SHAPE_SELFOVERLAP>
902.625

> <PUBCHEM_SHAPE_VOLUME>
230.1

> <PUBCHEM_COORDINATE_TYPE>
2
5
10

> <Energy>
71.9966

> <minimizedAffinity>
1.73010

> <CNNscore>
0.2971999347

> <CNNaffinity>
6.8408751488

> <CNN_VS>
2.0331077576

> <CNNaffinity_variance>
0.3354235590

$$$$
6013


 22 25  0  0  0  0  0  0  0  0999 V2000
   -9.1580   -5.1890   24.6902 O   0  0  0  0  0  0  0  0  0  0  0  0
    0.6138   -2.8436   20.5849 O   0  0  0  0  0  0  0  0  0  0  0  0
   -6.7058   -4.4199   22.0931 C   0  0  0  0  0  0  0  0  0  0  0  0
   -7.1843   -4.2262   23.5451 C   0  0  0  0  0  0  0  0  0  0  0  0
   -5.6408   -3.3986   21.6829 C   0  0  0  0  0  0  0  0  0  0  0  0
   -4.4082   -3.5503   22.6292 C   0  0  0  0  0  0  0  0  0  0  0  0
   -3.2311   -2.5675   22.2627 C   0  0  0  0  0  0  0  0  0  0  0  0
   -5.9840   -4.4532   24.4733 C   0  0  0  0  0  0  0  0  0  0  0  0
   -4.8181   -3.5091   24.1276 C   0  0  0  0  0  0  0  0  0  0  0  0
   -8.2617   -5.3281   23.6040 C   0  0  0  0  0  0  0  0  0  0  0  0
   -8.0061   -4.4988   21.2971 C   0  0  0  0  0  0  0  0  0  0  0  0
   -5.2122   -3.5927   20.2229 C   0  0  0  0  0  0  0  0  0  0  0  0
   -8.9805   -5.2232   22.2431 C   0  0  0  0  0  0  0  0  0  0  0  0
   -2.9400   -2.6575   20.7580 C   0  0  0  0  0  0  0  0  0  0  0  0
   -4.1299   -2.5959   19.8294 C   0  0  0  0  0  0  0  0  0  0  0  0
   -7.8126   -2.8416   23.8404 C   0  0  0  0  0  0  0  0  0  0  0  0
   -1.9704   -2.9889   23.0741 C   0  0  0  0  0  0  0  0  0  0  0  0
   -3.5748   -1.0992   22.5987 C   0  0  0  0  0  0  0  0  0  0  0  0
   -0.6756   -2.3820   22.5540 C   0  0  0  0  0  0  0  0  0  0  0  0
   -1.7039   -2.7635   20.2410 C   0  0  0  0  0  0  0  0  0  0  0  0
   -0.4942   -2.7072   21.0950 C   0  0  0  0  0  0  0  0  0  0  0  0
   -8.6687   -5.2607   25.5245 H   0  0  0  0  0  0  0  0  0  0  0  0
  1 10  1  0
  1 22  1  0
  2 21  2  0
  3  4  1  0
  3  5  1  0
  3 11  1  0
  4  8  1  0
  4 10  1  0
  4 16  1  0
  5  6  1  0
  5 12  1  0
  6  7  1  0
  6  9  1  0
  7 14  1  0
  7 17  1  0
  7 18  1  0
  8  9  1  0
 10 13  1  0
 11 13  1  0
 12 15  1  0
 14 15  1  0
 14 20  2  0
 17 19  1  0
 19 21  1  0
 20 21  1  0
M  END
> <PUBCHEM_COMPOUND_CID>
6013

> <PUBCHEM_CONFORMER_RMSD>
0.6

> <PUBCHEM_CONFORMER_DIVERSEORDER>
1

> <PUBCHEM_MMFF94_PARTIAL_CHARGES>
11
1 -0.68
10 0.28
14 -0.28
15 0.14
19 0.06
2 -0.57
20 -0.14
21 0.49
48 0.15
49 0.4
7 0.14

> <PUBCHEM_EFFECTIVE_ROTOR_COUNT>
1.8

> <PUBCHEM_PHARMACOPHORE_FEATURES>
7
1 1 acceptor
1 1 donor
1 2 acceptor
5 3 4 10 11 13 rings
6 3 4 5 6 8 9 rings
6 5 6 7 12 14 15 rings
6 7 14 17 19 20 21 rings

> <PUBCHEM_HEAVY_ATOM_COUNT>
21

> <PUBCHEM_ATOM_DEF_STEREO_COUNT>
6

> <PUBCHEM_ATOM_UDEF_STEREO_COUNT>
0

> <PUBCHEM_BOND_DEF_STEREO_COUNT>
0

> <PUBCHEM_BOND_UDEF_STEREO_COUNT>
0

> <PUBCHEM_ISOTOPIC_ATOM_COUNT>
0

> <PUBCHEM_COMPONENT_COUNT>
1

> <PUBCHEM_CACTVS_TAUTO_COUNT>
5

> <PUBCHEM_CONFORMER_ID>
0000177D00000001

> <PUBCHEM_MMFF94_ENERGY>
67.5416

> <PUBCHEM_FEATURE_SELFOVERLAP>
35.618

> <PUBCHEM_SHAPE_FINGERPRINT>
10062212 137 18336825385559829163
10759866 29 17897457309511876188
10967382 1 18412548682291571786
11132069 177 18410018732180467827
11370993 70 18410569557056084199
11578080 2 16735503067342509174
12011746 2 18412547592124142406
12236239 1 18040155136873436768
12251169 10 18410008845387181634
12403259 226 18410006624652160988
12403259 415 18408880746209696412
12403260 363 18340481291412090749
12403814 3 17894914044785590877
12507557 5 18408881845467772304
12633257 1 18341888602346167976
12839892 36 18340758291450253690
13140716 1 18339643467883616216
13214271 11 18272369780793716703
13224815 77 18411987974316295335
13675066 3 18187087269080573787
14178342 30 18338527339117458393
14223421 5 18341052895787930134
14341114 176 18411985737129035682
14787075 74 18339640165090922602
14790565 3 18050014594947639924
15163728 17 14691189929019880809
15196674 1 18411420639180230811
15375358 24 18413110541697833299
15536298 74 18272376330249831326
15788980 27 17167859768361771669
16945 1 18267308633664624303
17349148 13 18260547844245275310
17492 89 18410012108956776131
1813 80 17168144512515476742
18186145 218 18411423903503023558
18522853 276 18412546492037592553
19050596 39 18410858775858764633
19784866 9 18412265021155473810
200 152 18202274819337965375
20715895 44 18116989984517715477
21033648 29 18262779827106925672
21267235 1 18410302427354843602
21421861 104 18042966467372004754
21637258 2 15647319828885568714
22182313 1 18189614934485510503
22854114 111 18409735070690792279
22854114 59 18343022189864506130
23402539 116 18272925046486162621
23557571 272 18059303161493107767
23559900 14 18343023255612643838
26918003 58 18409728456589012017
2748010 2 18410304609229794207
2838139 119 14835541671104639250
296302 2 16343984710473737934
335352 9 18411702045432157758
34934 24 18341610383102269379
350125 39 18410857681354741304
351380 180 18413386540454065762
3545911 37 18411703166439727155
42 15 18260548935156425576
5104073 3 18410294747868572393
59755656 215 18339930311854621398
633830 44 17988931080225984300
69090 78 18413386557386229218
7364860 26 18200601276388112774
9709674 26 18341058445033876271

> <PUBCHEM_SHAPE_MULTIPOLES>
420.43
9.43
2.1
1.06
1.16
0.42
0.43
-0.59
-2.56
-0.22
0.02
0.09
-0.22
0.11

> <PUBCHEM_SHAPE_SELFOVERLAP>
902.625

> <PUBCHEM_SHAPE_VOLUME>
230.1

> <PUBCHEM_COORDINATE_TYPE>
2
5
10

> <Energy>
71.9966

> <minimizedAffinity>
-5.50176

> <CNNscore>
0.1990355104

> <CNNaffinity>
7.0626182556

> <CNN_VS>
1.4057117701

> <CNNaffinity_variance>
0.6622710824

$$$$
6013


 22 25  0  0  0  0  0  0  0  0999 V2000
   -9.0403   -3.8392   21.3568 O   0  0  0  0  0  0  0  0  0  0  0  0
    1.6523   -1.9844   21.0892 O   0  0  0  0  0  0  0  0  0  0  0  0
   -5.4885   -4.6261   21.6957 C   0  0  0  0  0  0  0  0  0  0  0  0
   -6.5951   -3.8421   20.9638 C   0  0  0  0  0  0  0  0  0  0  0  0
   -4.1558   -4.6069   20.9411 C   0  0  0  0  0  0  0  0  0  0  0  0
   -3.6867   -3.1257   20.7872 C   0  0  0  0  0  0  0  0  0  0  0  0
   -2.2952   -2.9975   20.0571 C   0  0  0  0  0  0  0  0  0  0  0  0
   -6.1611   -2.3726   20.8852 C   0  0  0  0  0  0  0  0  0  0  0  0
   -4.7991   -2.2243   20.1830 C   0  0  0  0  0  0  0  0  0  0  0  0
   -7.7726   -4.1158   21.9215 C   0  0  0  0  0  0  0  0  0  0  0  0
   -6.1480   -5.9674   22.0062 C   0  0  0  0  0  0  0  0  0  0  0  0
   -3.0857   -5.4258   21.6742 C   0  0  0  0  0  0  0  0  0  0  0  0
   -7.6163   -5.6050   22.2923 C   0  0  0  0  0  0  0  0  0  0  0  0
   -1.2883   -3.9589   20.7040 C   0  0  0  0  0  0  0  0  0  0  0  0
   -1.7539   -5.3770   20.9371 C   0  0  0  0  0  0  0  0  0  0  0  0
   -6.9243   -4.3616   19.5423 C   0  0  0  0  0  0  0  0  0  0  0  0
   -1.7981   -1.5290   20.2044 C   0  0  0  0  0  0  0  0  0  0  0  0
   -2.3937   -3.3441   18.5547 C   0  0  0  0  0  0  0  0  0  0  0  0
   -0.3216   -1.3468   19.8850 C   0  0  0  0  0  0  0  0  0  0  0  0
   -0.0351   -3.6113   21.0436 C   0  0  0  0  0  0  0  0  0  0  0  0
    0.5146   -2.2716   20.7292 C   0  0  0  0  0  0  0  0  0  0  0  0
   -9.0982   -2.8959   21.1383 H   0  0  0  0  0  0  0  0  0  0  0  0
  1 10  1  0
  1 22  1  0
  2 21  2  0
  3  4  1  0
  3  5  1  0
  3 11  1  0
  4  8  1  0
  4 10  1  0
  4 16  1  0
  5  6  1  0
  5 12  1  0
  6  7  1  0
  6  9  1  0
  7 14  1  0
  7 17  1  0
  7 18  1  0
  8  9  1  0
 10 13  1  0
 11 13  1  0
 12 15  1  0
 14 15  1  0
 14 20  2  0
 17 19  1  0
 19 21  1  0
 20 21  1  0
M  END
> <PUBCHEM_COMPOUND_CID>
6013

> <PUBCHEM_CONFORMER_RMSD>
0.6

> <PUBCHEM_CONFORMER_DIVERSEORDER>
1

> <PUBCHEM_MMFF94_PARTIAL_CHARGES>
11
1 -0.68
10 0.28
14 -0.28
15 0.14
19 0.06
2 -0.57
20 -0.14
21 0.49
48 0.15
49 0.4
7 0.14

> <PUBCHEM_EFFECTIVE_ROTOR_COUNT>
1.8

> <PUBCHEM_PHARMACOPHORE_FEATURES>
7
1 1 acceptor
1 1 donor
1 2 acceptor
5 3 4 10 11 13 rings
6 3 4 5 6 8 9 rings
6 5 6 7 12 14 15 rings
6 7 14 17 19 20 21 rings

> <PUBCHEM_HEAVY_ATOM_COUNT>
21

> <PUBCHEM_ATOM_DEF_STEREO_COUNT>
6

> <PUBCHEM_ATOM_UDEF_STEREO_COUNT>
0

> <PUBCHEM_BOND_DEF_STEREO_COUNT>
0

> <PUBCHEM_BOND_UDEF_STEREO_COUNT>
0

> <PUBCHEM_ISOTOPIC_ATOM_COUNT>
0

> <PUBCHEM_COMPONENT_COUNT>
1

> <PUBCHEM_CACTVS_TAUTO_COUNT>
5

> <PUBCHEM_CONFORMER_ID>
0000177D00000001

> <PUBCHEM_MMFF94_ENERGY>
67.5416

> <PUBCHEM_FEATURE_SELFOVERLAP>
35.618

> <PUBCHEM_SHAPE_FINGERPRINT>
10062212 137 18336825385559829163
10759866 29 17897457309511876188
10967382 1 18412548682291571786
11132069 177 18410018732180467827
11370993 70 18410569557056084199
11578080 2 16735503067342509174
12011746 2 18412547592124142406
12236239 1 18040155136873436768
12251169 10 18410008845387181634
12403259 226 18410006624652160988
12403259 415 18408880746209696412
12403260 363 18340481291412090749
12403814 3 17894914044785590877
12507557 5 18408881845467772304
12633257 1 18341888602346167976
12839892 36 18340758291450253690
13140716 1 18339643467883616216
13214271 11 18272369780793716703
13224815 77 18411987974316295335
13675066 3 18187087269080573787
14178342 30 18338527339117458393
14223421 5 18341052895787930134
14341114 176 18411985737129035682
14787075 74 18339640165090922602
14790565 3 18050014594947639924
15163728 17 14691189929019880809
15196674 1 18411420639180230811
15375358 24 18413110541697833299
15536298 74 18272376330249831326
15788980 27 17167859768361771669
16945 1 18267308633664624303
17349148 13 18260547844245275310
17492 89 18410012108956776131
1813 80 17168144512515476742
18186145 218 18411423903503023558
18522853 276 18412546492037592553
19050596 39 18410858775858764633
19784866 9 18412265021155473810
200 152 18202274819337965375
20715895 44 18116989984517715477
21033648 29 18262779827106925672
21267235 1 18410302427354843602
21421861 104 18042966467372004754
21637258 2 15647319828885568714
22182313 1 18189614934485510503
22854114 111 18409735070690792279
22854114 59 18343022189864506130
23402539 116 18272925046486162621
23557571 272 18059303161493107767
23559900 14 18343023255612643838
26918003 58 18409728456589012017
2748010 2 18410304609229794207
2838139 119 14835541671104639250
296302 2 16343984710473737934
335352 9 18411702045432157758
34934 24 18341610383102269379
350125 39 18410857681354741304
351380 180 18413386540454065762
3545911 37 18411703166439727155
42 15 18260548935156425576
5104073 3 18410294747868572393
59755656 215 18339930311854621398
633830 44 17988931080225984300
69090 78 18413386557386229218
7364860 26 18200601276388112774
9709674 26 18341058445033876271

> <PUBCHEM_SHAPE_MULTIPOLES>
420.43
9.43
2.1
1.06
1.16
0.42
0.43
-0.59
-2.56
-0.22
0.02
0.09
-0.22
0.11

> <PUBCHEM_SHAPE_SELFOVERLAP>
902.625

> <PUBCHEM_SHAPE_VOLUME>
230.1

> <PUBCHEM_COORDINATE_TYPE>
2
5
10

> <Energy>
71.9966

> <minimizedAffinity>
-2.23738

> <CNNscore>
0.1897365749

> <CNNaffinity>
6.4036698341

> <CNN_VS>
1.2150104046

> <CNNaffinity_variance>
0.4911360443

$$$$
6013


 22 25  0  0  0  0  0  0  0  0999 V2000
   -8.7765   -6.5028   20.6042 O   0  0  0  0  0  0  0  0  0  0  0  0
    0.9041   -1.5917   20.5034 O   0  0  0  0  0  0  0  0  0  0  0  0
   -6.3888   -3.7816   21.0980 C   0  0  0  0  0  0  0  0  0  0  0  0
   -6.6721   -5.2964   21.1042 C   0  0  0  0  0  0  0  0  0  0  0  0
   -5.0649   -3.4273   21.7818 C   0  0  0  0  0  0  0  0  0  0  0  0
   -3.9019   -4.1463   21.0279 C   0  0  0  0  0  0  0  0  0  0  0  0
   -2.4837   -3.8116   21.6300 C   0  0  0  0  0  0  0  0  0  0  0  0
   -5.5667   -5.9879   20.2958 C   0  0  0  0  0  0  0  0  0  0  0  0
   -4.1710   -5.6677   20.8612 C   0  0  0  0  0  0  0  0  0  0  0  0
   -8.0590   -5.2956   20.4297 C   0  0  0  0  0  0  0  0  0  0  0  0
   -7.6854   -3.1746   21.6282 C   0  0  0  0  0  0  0  0  0  0  0  0
   -4.8290   -1.9117   21.7932 C   0  0  0  0  0  0  0  0  0  0  0  0
   -8.7855   -4.0931   21.0668 C   0  0  0  0  0  0  0  0  0  0  0  0
   -2.3431   -2.2915   21.7919 C   0  0  0  0  0  0  0  0  0  0  0  0
   -3.4964   -1.5667   22.4451 C   0  0  0  0  0  0  0  0  0  0  0  0
   -6.7584   -5.9330   22.5135 C   0  0  0  0  0  0  0  0  0  0  0  0
   -1.3972   -4.3445   20.6497 C   0  0  0  0  0  0  0  0  0  0  0  0
   -2.2720   -4.4640   23.0144 C   0  0  0  0  0  0  0  0  0  0  0  0
   -0.0099   -3.7730   20.9029 C   0  0  0  0  0  0  0  0  0  0  0  0
   -1.2584   -1.5963   21.4089 C   0  0  0  0  0  0  0  0  0  0  0  0
   -0.0505   -2.2680   20.8743 C   0  0  0  0  0  0  0  0  0  0  0  0
   -8.2881   -7.2319   20.1910 H   0  0  0  0  0  0  0  0  0  0  0  0
  1 10  1  0
  1 22  1  0
  2 21  2  0
  3  4  1  0
  3  5  1  0
  3 11  1  0
  4  8  1  0
  4 10  1  0
  4 16  1  0
  5  6  1  0
  5 12  1  0
  6  7  1  0
  6  9  1  0
  7 14  1  0
  7 17  1  0
  7 18  1  0
  8  9  1  0
 10 13  1  0
 11 13  1  0
 12 15  1  0
 14 15  1  0
 14 20  2  0
 17 19  1  0
 19 21  1  0
 20 21  1  0
M  END
> <PUBCHEM_COMPOUND_CID>
6013

> <PUBCHEM_CONFORMER_RMSD>
0.6

> <PUBCHEM_CONFORMER_DIVERSEORDER>
1

> <PUBCHEM_MMFF94_PARTIAL_CHARGES>
11
1 -0.68
10 0.28
14 -0.28
15 0.14
19 0.06
2 -0.57
20 -0.14
21 0.49
48 0.15
49 0.4
7 0.14

> <PUBCHEM_EFFECTIVE_ROTOR_COUNT>
1.8

> <PUBCHEM_PHARMACOPHORE_FEATURES>
7
1 1 acceptor
1 1 donor
1 2 acceptor
5 3 4 10 11 13 rings
6 3 4 5 6 8 9 rings
6 5 6 7 12 14 15 rings
6 7 14 17 19 20 21 rings

> <PUBCHEM_HEAVY_ATOM_COUNT>
21

> <PUBCHEM_ATOM_DEF_STEREO_COUNT>
6

> <PUBCHEM_ATOM_UDEF_STEREO_COUNT>
0

> <PUBCHEM_BOND_DEF_STEREO_COUNT>
0

> <PUBCHEM_BOND_UDEF_STEREO_COUNT>
0

> <PUBCHEM_ISOTOPIC_ATOM_COUNT>
0

> <PUBCHEM_COMPONENT_COUNT>
1

> <PUBCHEM_CACTVS_TAUTO_COUNT>
5

> <PUBCHEM_CONFORMER_ID>
0000177D00000001

> <PUBCHEM_MMFF94_ENERGY>
67.5416

> <PUBCHEM_FEATURE_SELFOVERLAP>
35.618

> <PUBCHEM_SHAPE_FINGERPRINT>
10062212 137 18336825385559829163
10759866 29 17897457309511876188
10967382 1 18412548682291571786
11132069 177 18410018732180467827
11370993 70 18410569557056084199
11578080 2 16735503067342509174
12011746 2 18412547592124142406
12236239 1 18040155136873436768
12251169 10 18410008845387181634
12403259 226 18410006624652160988
12403259 415 18408880746209696412
12403260 363 18340481291412090749
12403814 3 17894914044785590877
12507557 5 18408881845467772304
12633257 1 18341888602346167976
12839892 36 18340758291450253690
13140716 1 18339643467883616216
13214271 11 18272369780793716703
13224815 77 18411987974316295335
13675066 3 18187087269080573787
14178342 30 18338527339117458393
14223421 5 18341052895787930134
14341114 176 18411985737129035682
14787075 74 18339640165090922602
14790565 3 18050014594947639924
15163728 17 14691189929019880809
15196674 1 18411420639180230811
15375358 24 18413110541697833299
15536298 74 18272376330249831326
15788980 27 17167859768361771669
16945 1 18267308633664624303
17349148 13 18260547844245275310
17492 89 18410012108956776131
1813 80 17168144512515476742
18186145 218 18411423903503023558
18522853 276 18412546492037592553
19050596 39 18410858775858764633
19784866 9 18412265021155473810
200 152 18202274819337965375
20715895 44 18116989984517715477
21033648 29 18262779827106925672
21267235 1 18410302427354843602
21421861 104 18042966467372004754
21637258 2 15647319828885568714
22182313 1 18189614934485510503
22854114 111 18409735070690792279
22854114 59 18343022189864506130
23402539 116 18272925046486162621
23557571 272 18059303161493107767
23559900 14 18343023255612643838
26918003 58 18409728456589012017
2748010 2 18410304609229794207
2838139 119 14835541671104639250
296302 2 16343984710473737934
335352 9 18411702045432157758
34934 24 18341610383102269379
350125 39 18410857681354741304
351380 180 18413386540454065762
3545911 37 18411703166439727155
42 15 18260548935156425576
5104073 3 18410294747868572393
59755656 215 18339930311854621398
633830 44 17988931080225984300
69090 78 18413386557386229218
7364860 26 18200601276388112774
9709674 26 18341058445033876271

> <PUBCHEM_SHAPE_MULTIPOLES>
420.43
9.43
2.1
1.06
1.16
0.42
0.43
-0.59
-2.56
-0.22
0.02
0.09
-0.22
0.11

> <PUBCHEM_SHAPE_SELFOVERLAP>
902.625

> <PUBCHEM_SHAPE_VOLUME>
230.1

> <PUBCHEM_COORDINATE_TYPE>
2
5
10

> <Energy>
71.9966

> <minimizedAffinity>
-2.25056

> <CNNscore>
0.1875640601

> <CNNaffinity>
6.6095867157

> <CNN_VS>
1.2397209406

> <CNNaffinity_variance>
0.4075094163

$$$$
