896


 19 20  0  0  0  0  0  0  0  0999 V2000
   -4.1587   -3.0743   23.3976 N   0  0  0  0  0  0  0  0  0  0  0  0
   -2.8455   -2.7065   21.6318 C   0  0  0  0  0  0  0  0  0  0  0  0
   -2.0552   -2.6275   22.8234 C   0  0  0  0  0  0  0  0  0  0  0  0
   -2.9017   -2.8475   23.9073 C   0  0  0  0  0  0  0  0  0  0  0  0
   -4.1384   -2.9866   22.0296 C   0  0  0  0  0  0  0  0  0  0  0  0
   -0.6870   -2.3812   23.0684 C   0  0  0  0  0  0  0  0  0  0  0  0
   -2.4507   -2.8275   25.2307 C   0  0  0  0  0  0  0  0  0  0  0  0
   -0.2114   -2.3448   24.3829 C   0  0  0  0  0  0  0  0  0  0  0  0
   -1.0901   -2.5675   25.4434 C   0  0  0  0  0  0  0  0  0  0  0  0
   -4.9581   -3.2712   23.9373 H   0  0  0  0  0  0  0  0  0  0  0  0
    1.0860   -2.1011   24.7485 O   0  0  0  0  0  0  0  0  0  0  0  0
    1.3275   -1.8838   26.1343 C   0  0  0  0  0  0  0  0  0  0  0  0
   -2.3511   -2.5195   20.2276 C   0  0  0  0  0  0  0  0  0  0  0  0
   -3.4803   -2.2719   19.2210 C   0  0  0  0  0  0  0  0  0  0  0  0
   -4.0109   -4.4721   17.5019 O   0  0  0  0  0  0  0  0  0  0  0  0
   -4.5844   -3.2110   19.3342 N   0  0  0  0  0  0  0  0  0  0  0  0
   -4.7735   -4.2302   18.4299 C   0  0  0  0  0  0  0  0  0  0  0  0
   -6.0028   -5.0540   18.7035 C   0  0  0  0  0  0  0  0  0  0  0  0
   -5.2172   -3.1143   20.0822 H   0  0  0  0  0  0  0  0  0  0  0  0
 11  8  1  0
 11 12  1  0
 15 17  2  0
  1  4  1  0
  1  5  1  0
  1 10  1  0
 16 14  1  0
 16 17  1  0
 16 19  1  0
  2  3  1  0
  2 13  1  0
  2  5  2  0
  3  4  2  0
  3  6  1  0
 13 14  1  0
  4  7  1  0
  6  8  2  0
  7  9  2  0
  8  9  1  0
 17 18  1  0
M  END
> <PUBCHEM_COMPOUND_CID>
896

> <PUBCHEM_CONFORMER_RMSD>
0.6

> <PUBCHEM_CONFORMER_DIVERSEORDER>
1
13
50
55
28
16
42
48
27
15
62
60
65
61
36
4
20
58
41
17
59
21
2
63
47
57
40
56
22
64
54
37
51
7
31
53
26
8
49
39
32
11
5
33
38
52
23
45
43
12
14
9
34
44
35
10
25
29
46
6
30
24
3
19
18

> <PUBCHEM_MMFF94_PARTIAL_CHARGES>
22
1 -0.36
10 0.3
11 -0.15
12 -0.15
13 0.08
14 -0.15
15 0.57
16 0.06
17 0.28
2 -0.57
20 0.15
23 0.27
24 0.15
25 0.15
26 0.15
27 0.37
3 0.03
4 -0.73
5 -0.18
7 0.18
8 -0.15
9 -0.3

> <PUBCHEM_EFFECTIVE_ROTOR_COUNT>
5

> <PUBCHEM_PHARMACOPHORE_FEATURES>
7
1 1 acceptor
1 2 acceptor
1 3 cation
1 3 donor
1 4 donor
5 3 5 6 8 9 rings
6 6 8 11 12 13 14 rings

> <PUBCHEM_HEAVY_ATOM_COUNT>
17

> <PUBCHEM_ATOM_DEF_STEREO_COUNT>
0

> <PUBCHEM_ATOM_UDEF_STEREO_COUNT>
0

> <PUBCHEM_BOND_DEF_STEREO_COUNT>
0

> <PUBCHEM_BOND_UDEF_STEREO_COUNT>
0

> <PUBCHEM_ISOTOPIC_ATOM_COUNT>
0

> <PUBCHEM_COMPONENT_COUNT>
1

> <PUBCHEM_CACTVS_TAUTO_COUNT>
2

> <PUBCHEM_CONFORMER_ID>
0000038000000001

> <PUBCHEM_MMFF94_ENERGY>
32.7119

> <PUBCHEM_FEATURE_SELFOVERLAP>
35.612

> <PUBCHEM_SHAPE_FINGERPRINT>
10967382 1 18410853274190255273
11640471 11 17676780867509025316
13027679 85 18194690495324420133
13140716 1 17978229692519098697
13965767 371 16608554374032828400
1420 336 18266184924512803916
14787075 74 17896612875907719035
14790565 3 18341057316043312793
15006816 218 16754940689043299904
16945 1 18195239147136872059
19591789 44 18120376712306458779
19765921 60 17749382706469569763
20510252 161 18342458093286620745
21141583 151 18124894583888822372
21524375 3 17972887951224859043
2334 1 18410572855759727185
23419403 2 17326855944455494142
23557571 272 18201719608641642450
23559900 14 18342173410755765088
2748010 2 18337115553281152647
353137 74 18409164389875307419
44154327 71 18267028250037128041
526903 126 18410576235872810256
537710 114 18408601466050490037
7832392 63 17187566044572678455
9981440 41 18116712022929254594

> <PUBCHEM_SHAPE_MULTIPOLES>
328.15
4.94
3.77
0.97
2.92
1.2
-0.06
0.99
-1.27
-0.81
0.74
0.39
0.23
-0.66

> <PUBCHEM_SHAPE_SELFOVERLAP>
695.133

> <PUBCHEM_SHAPE_VOLUME>
185.3

> <PUBCHEM_COORDINATE_TYPE>
2
5
10

> <Energy>
0.232708

> <minimizedAffinity>
-7.06389

> <CNNscore>
0.6149389744

> <CNNaffinity>
6.3393187523

> <CNN_VS>
3.8982942104

> <CNNaffinity_variance>
0.3019949794

$$$$
896


 19 20  0  0  0  0  0  0  0  0999 V2000
   -4.0421   -2.0249   19.4727 N   0  0  0  0  0  0  0  0  0  0  0  0
   -2.9780   -1.8025   21.4211 C   0  0  0  0  0  0  0  0  0  0  0  0
   -2.3862   -2.8814   20.6886 C   0  0  0  0  0  0  0  0  0  0  0  0
   -3.0775   -3.0050   19.4858 C   0  0  0  0  0  0  0  0  0  0  0  0
   -3.9955   -1.2984   20.6344 C   0  0  0  0  0  0  0  0  0  0  0  0
   -1.3199   -3.7676   20.9540 C   0  0  0  0  0  0  0  0  0  0  0  0
   -2.7612   -3.9776   18.5323 C   0  0  0  0  0  0  0  0  0  0  0  0
   -0.9894   -4.7567   20.0224 C   0  0  0  0  0  0  0  0  0  0  0  0
   -1.7065   -4.8514   18.8294 C   0  0  0  0  0  0  0  0  0  0  0  0
   -4.6750   -1.8675   18.7353 H   0  0  0  0  0  0  0  0  0  0  0  0
    0.0099   -5.6817   20.1713 O   0  0  0  0  0  0  0  0  0  0  0  0
    0.1199   -6.3011   21.4481 C   0  0  0  0  0  0  0  0  0  0  0  0
   -2.5624   -1.3224   22.7804 C   0  0  0  0  0  0  0  0  0  0  0  0
   -2.3372   -2.4641   23.7780 C   0  0  0  0  0  0  0  0  0  0  0  0
    0.4565   -2.9776   23.6813 O   0  0  0  0  0  0  0  0  0  0  0  0
   -1.3649   -2.1555   24.8140 N   0  0  0  0  0  0  0  0  0  0  0  0
   -0.0325   -2.4726   24.6848 C   0  0  0  0  0  0  0  0  0  0  0  0
    0.7897   -2.1107   25.8920 C   0  0  0  0  0  0  0  0  0  0  0  0
   -1.6698   -1.7050   25.6346 H   0  0  0  0  0  0  0  0  0  0  0  0
 11  8  1  0
 11 12  1  0
 15 17  2  0
  1  4  1  0
  1  5  1  0
  1 10  1  0
 16 14  1  0
 16 17  1  0
 16 19  1  0
  2  3  1  0
  2 13  1  0
  2  5  2  0
  3  4  2  0
  3  6  1  0
 13 14  1  0
  4  7  1  0
  6  8  2  0
  7  9  2  0
  8  9  1  0
 17 18  1  0
M  END
> <PUBCHEM_COMPOUND_CID>
896

> <PUBCHEM_CONFORMER_RMSD>
0.6

> <PUBCHEM_CONFORMER_DIVERSEORDER>
1
13
50
55
28
16
42
48
27
15
62
60
65
61
36
4
20
58
41
17
59
21
2
63
47
57
40
56
22
64
54
37
51
7
31
53
26
8
49
39
32
11
5
33
38
52
23
45
43
12
14
9
34
44
35
10
25
29
46
6
30
24
3
19
18

> <PUBCHEM_MMFF94_PARTIAL_CHARGES>
22
1 -0.36
10 0.3
11 -0.15
12 -0.15
13 0.08
14 -0.15
15 0.57
16 0.06
17 0.28
2 -0.57
20 0.15
23 0.27
24 0.15
25 0.15
26 0.15
27 0.37
3 0.03
4 -0.73
5 -0.18
7 0.18
8 -0.15
9 -0.3

> <PUBCHEM_EFFECTIVE_ROTOR_COUNT>
5

> <PUBCHEM_PHARMACOPHORE_FEATURES>
7
1 1 acceptor
1 2 acceptor
1 3 cation
1 3 donor
1 4 donor
5 3 5 6 8 9 rings
6 6 8 11 12 13 14 rings

> <PUBCHEM_HEAVY_ATOM_COUNT>
17

> <PUBCHEM_ATOM_DEF_STEREO_COUNT>
0

> <PUBCHEM_ATOM_UDEF_STEREO_COUNT>
0

> <PUBCHEM_BOND_DEF_STEREO_COUNT>
0

> <PUBCHEM_BOND_UDEF_STEREO_COUNT>
0

> <PUBCHEM_ISOTOPIC_ATOM_COUNT>
0

> <PUBCHEM_COMPONENT_COUNT>
1

> <PUBCHEM_CACTVS_TAUTO_COUNT>
2

> <PUBCHEM_CONFORMER_ID>
0000038000000001

> <PUBCHEM_MMFF94_ENERGY>
32.7119

> <PUBCHEM_FEATURE_SELFOVERLAP>
35.612

> <PUBCHEM_SHAPE_FINGERPRINT>
10967382 1 18410853274190255273
11640471 11 17676780867509025316
13027679 85 18194690495324420133
13140716 1 17978229692519098697
13965767 371 16608554374032828400
1420 336 18266184924512803916
14787075 74 17896612875907719035
14790565 3 18341057316043312793
15006816 218 16754940689043299904
16945 1 18195239147136872059
19591789 44 18120376712306458779
19765921 60 17749382706469569763
20510252 161 18342458093286620745
21141583 151 18124894583888822372
21524375 3 17972887951224859043
2334 1 18410572855759727185
23419403 2 17326855944455494142
23557571 272 18201719608641642450
23559900 14 18342173410755765088
2748010 2 18337115553281152647
353137 74 18409164389875307419
44154327 71 18267028250037128041
526903 126 18410576235872810256
537710 114 18408601466050490037
7832392 63 17187566044572678455
9981440 41 18116712022929254594

> <PUBCHEM_SHAPE_MULTIPOLES>
328.15
4.94
3.77
0.97
2.92
1.2
-0.06
0.99
-1.27
-0.81
0.74
0.39
0.23
-0.66

> <PUBCHEM_SHAPE_SELFOVERLAP>
695.133

> <PUBCHEM_SHAPE_VOLUME>
185.3

> <PUBCHEM_COORDINATE_TYPE>
2
5
10

> <Energy>
0.232708

> <minimizedAffinity>
-6.17887

> <CNNscore>
0.4439868629

> <CNNaffinity>
6.7236065865

> <CNN_VS>
2.9851930141

> <CNNaffinity_variance>
0.3883837759

$$$$
896


 19 20  0  0  0  0  0  0  0  0999 V2000
    0.3145   -4.5194   22.0934 N   0  0  0  0  0  0  0  0  0  0  0  0
   -0.8220   -4.2837   20.1880 C   0  0  0  0  0  0  0  0  0  0  0  0
   -1.2816   -3.3055   21.1276 C   0  0  0  0  0  0  0  0  0  0  0  0
   -0.5655   -3.4848   22.3086 C   0  0  0  0  0  0  0  0  0  0  0  0
    0.1657   -5.0118   20.8227 C   0  0  0  0  0  0  0  0  0  0  0  0
   -2.2539   -2.2837   21.0705 C   0  0  0  0  0  0  0  0  0  0  0  0
   -0.7764   -2.6961   23.4438 C   0  0  0  0  0  0  0  0  0  0  0  0
   -2.4927   -1.4873   22.1949 C   0  0  0  0  0  0  0  0  0  0  0  0
   -1.7572   -1.6984   23.3615 C   0  0  0  0  0  0  0  0  0  0  0  0
    0.9587   -4.8579   22.7565 H   0  0  0  0  0  0  0  0  0  0  0  0
   -3.4166   -0.4787   22.2684 O   0  0  0  0  0  0  0  0  0  0  0  0
   -4.6812   -0.7276   21.6644 C   0  0  0  0  0  0  0  0  0  0  0  0
   -1.3250   -4.4702   18.7869 C   0  0  0  0  0  0  0  0  0  0  0  0
   -2.7893   -4.0516   18.6134 C   0  0  0  0  0  0  0  0  0  0  0  0
   -5.5390   -4.7294   18.3731 O   0  0  0  0  0  0  0  0  0  0  0  0
   -3.6625   -4.5134   19.6803 N   0  0  0  0  0  0  0  0  0  0  0  0
   -4.9937   -4.7883   19.4687 C   0  0  0  0  0  0  0  0  0  0  0  0
   -5.7256   -5.2041   20.7161 C   0  0  0  0  0  0  0  0  0  0  0  0
   -3.2890   -4.6333   20.5833 H   0  0  0  0  0  0  0  0  0  0  0  0
 11  8  1  0
 11 12  1  0
 15 17  2  0
  1  4  1  0
  1  5  1  0
  1 10  1  0
 16 14  1  0
 16 17  1  0
 16 19  1  0
  2  3  1  0
  2 13  1  0
  2  5  2  0
  3  4  2  0
  3  6  1  0
 13 14  1  0
  4  7  1  0
  6  8  2  0
  7  9  2  0
  8  9  1  0
 17 18  1  0
M  END
> <PUBCHEM_COMPOUND_CID>
896

> <PUBCHEM_CONFORMER_RMSD>
0.6

> <PUBCHEM_CONFORMER_DIVERSEORDER>
1
13
50
55
28
16
42
48
27
15
62
60
65
61
36
4
20
58
41
17
59
21
2
63
47
57
40
56
22
64
54
37
51
7
31
53
26
8
49
39
32
11
5
33
38
52
23
45
43
12
14
9
34
44
35
10
25
29
46
6
30
24
3
19
18

> <PUBCHEM_MMFF94_PARTIAL_CHARGES>
22
1 -0.36
10 0.3
11 -0.15
12 -0.15
13 0.08
14 -0.15
15 0.57
16 0.06
17 0.28
2 -0.57
20 0.15
23 0.27
24 0.15
25 0.15
26 0.15
27 0.37
3 0.03
4 -0.73
5 -0.18
7 0.18
8 -0.15
9 -0.3

> <PUBCHEM_EFFECTIVE_ROTOR_COUNT>
5

> <PUBCHEM_PHARMACOPHORE_FEATURES>
7
1 1 acceptor
1 2 acceptor
1 3 cation
1 3 donor
1 4 donor
5 3 5 6 8 9 rings
6 6 8 11 12 13 14 rings

> <PUBCHEM_HEAVY_ATOM_COUNT>
17

> <PUBCHEM_ATOM_DEF_STEREO_COUNT>
0

> <PUBCHEM_ATOM_UDEF_STEREO_COUNT>
0

> <PUBCHEM_BOND_DEF_STEREO_COUNT>
0

> <PUBCHEM_BOND_UDEF_STEREO_COUNT>
0

> <PUBCHEM_ISOTOPIC_ATOM_COUNT>
0

> <PUBCHEM_COMPONENT_COUNT>
1

> <PUBCHEM_CACTVS_TAUTO_COUNT>
2

> <PUBCHEM_CONFORMER_ID>
0000038000000001

> <PUBCHEM_MMFF94_ENERGY>
32.7119

> <PUBCHEM_FEATURE_SELFOVERLAP>
35.612

> <PUBCHEM_SHAPE_FINGERPRINT>
10967382 1 18410853274190255273
11640471 11 17676780867509025316
13027679 85 18194690495324420133
13140716 1 17978229692519098697
13965767 371 16608554374032828400
1420 336 18266184924512803916
14787075 74 17896612875907719035
14790565 3 18341057316043312793
15006816 218 16754940689043299904
16945 1 18195239147136872059
19591789 44 18120376712306458779
19765921 60 17749382706469569763
20510252 161 18342458093286620745
21141583 151 18124894583888822372
21524375 3 17972887951224859043
2334 1 18410572855759727185
23419403 2 17326855944455494142
23557571 272 18201719608641642450
23559900 14 18342173410755765088
2748010 2 18337115553281152647
353137 74 18409164389875307419
44154327 71 18267028250037128041
526903 126 18410576235872810256
537710 114 18408601466050490037
7832392 63 17187566044572678455
9981440 41 18116712022929254594

> <PUBCHEM_SHAPE_MULTIPOLES>
328.15
4.94
3.77
0.97
2.92
1.2
-0.06
0.99
-1.27
-0.81
0.74
0.39
0.23
-0.66

> <PUBCHEM_SHAPE_SELFOVERLAP>
695.133

> <PUBCHEM_SHAPE_VOLUME>
185.3

> <PUBCHEM_COORDINATE_TYPE>
2
5
10

> <Energy>
0.232708

> <minimizedAffinity>
-6.28331

> <CNNscore>
0.4297440648

> <CNNaffinity>
5.9911923409

> <CNN_VS>
2.5746793747

> <CNNaffinity_variance>
0.0072225183

$$$$
896


 19 20  0  0  0  0  0  0  0  0999 V2000
   -0.8661   -4.7669   19.7476 N   0  0  0  0  0  0  0  0  0  0  0  0
   -2.2406   -3.0098   19.7819 C   0  0  0  0  0  0  0  0  0  0  0  0
   -1.4358   -2.9936   20.9663 C   0  0  0  0  0  0  0  0  0  0  0  0
   -0.5991   -4.1063   20.9239 C   0  0  0  0  0  0  0  0  0  0  0  0
   -1.8559   -4.1195   19.0545 C   0  0  0  0  0  0  0  0  0  0  0  0
   -1.3548   -2.1240   22.0752 C   0  0  0  0  0  0  0  0  0  0  0  0
    0.3145   -4.4002   21.9408 C   0  0  0  0  0  0  0  0  0  0  0  0
   -0.4575   -2.4002   23.1116 C   0  0  0  0  0  0  0  0  0  0  0  0
    0.3631   -3.5260   23.0351 C   0  0  0  0  0  0  0  0  0  0  0  0
   -0.4118   -5.5867   19.4466 H   0  0  0  0  0  0  0  0  0  0  0  0
   -0.2977   -1.6441   24.2425 O   0  0  0  0  0  0  0  0  0  0  0  0
    0.6586   -2.1078   25.1894 C   0  0  0  0  0  0  0  0  0  0  0  0
   -3.2947   -2.0075   19.4141 C   0  0  0  0  0  0  0  0  0  0  0  0
   -4.5416   -2.0937   20.3014 C   0  0  0  0  0  0  0  0  0  0  0  0
   -5.8328   -4.3731   19.1994 O   0  0  0  0  0  0  0  0  0  0  0  0
   -4.7153   -3.3852   20.9463 N   0  0  0  0  0  0  0  0  0  0  0  0
   -5.3849   -4.4220   20.3388 C   0  0  0  0  0  0  0  0  0  0  0  0
   -5.4935   -5.6516   21.1994 C   0  0  0  0  0  0  0  0  0  0  0  0
   -4.3418   -3.5221   21.8468 H   0  0  0  0  0  0  0  0  0  0  0  0
 11  8  1  0
 11 12  1  0
 15 17  2  0
  1  4  1  0
  1  5  1  0
  1 10  1  0
 16 14  1  0
 16 17  1  0
 16 19  1  0
  2  3  1  0
  2 13  1  0
  2  5  2  0
  3  4  2  0
  3  6  1  0
 13 14  1  0
  4  7  1  0
  6  8  2  0
  7  9  2  0
  8  9  1  0
 17 18  1  0
M  END
> <PUBCHEM_COMPOUND_CID>
896

> <PUBCHEM_CONFORMER_RMSD>
0.6

> <PUBCHEM_CONFORMER_DIVERSEORDER>
1
13
50
55
28
16
42
48
27
15
62
60
65
61
36
4
20
58
41
17
59
21
2
63
47
57
40
56
22
64
54
37
51
7
31
53
26
8
49
39
32
11
5
33
38
52
23
45
43
12
14
9
34
44
35
10
25
29
46
6
30
24
3
19
18

> <PUBCHEM_MMFF94_PARTIAL_CHARGES>
22
1 -0.36
10 0.3
11 -0.15
12 -0.15
13 0.08
14 -0.15
15 0.57
16 0.06
17 0.28
2 -0.57
20 0.15
23 0.27
24 0.15
25 0.15
26 0.15
27 0.37
3 0.03
4 -0.73
5 -0.18
7 0.18
8 -0.15
9 -0.3

> <PUBCHEM_EFFECTIVE_ROTOR_COUNT>
5

> <PUBCHEM_PHARMACOPHORE_FEATURES>
7
1 1 acceptor
1 2 acceptor
1 3 cation
1 3 donor
1 4 donor
5 3 5 6 8 9 rings
6 6 8 11 12 13 14 rings

> <PUBCHEM_HEAVY_ATOM_COUNT>
17

> <PUBCHEM_ATOM_DEF_STEREO_COUNT>
0

> <PUBCHEM_ATOM_UDEF_STEREO_COUNT>
0

> <PUBCHEM_BOND_DEF_STEREO_COUNT>
0

> <PUBCHEM_BOND_UDEF_STEREO_COUNT>
0

> <PUBCHEM_ISOTOPIC_ATOM_COUNT>
0

> <PUBCHEM_COMPONENT_COUNT>
1

> <PUBCHEM_CACTVS_TAUTO_COUNT>
2

> <PUBCHEM_CONFORMER_ID>
0000038000000001

> <PUBCHEM_MMFF94_ENERGY>
32.7119

> <PUBCHEM_FEATURE_SELFOVERLAP>
35.612

> <PUBCHEM_SHAPE_FINGERPRINT>
10967382 1 18410853274190255273
11640471 11 17676780867509025316
13027679 85 18194690495324420133
13140716 1 17978229692519098697
13965767 371 16608554374032828400
1420 336 18266184924512803916
14787075 74 17896612875907719035
14790565 3 18341057316043312793
15006816 218 16754940689043299904
16945 1 18195239147136872059
19591789 44 18120376712306458779
19765921 60 17749382706469569763
20510252 161 18342458093286620745
21141583 151 18124894583888822372
21524375 3 17972887951224859043
2334 1 18410572855759727185
23419403 2 17326855944455494142
23557571 272 18201719608641642450
23559900 14 18342173410755765088
2748010 2 18337115553281152647
353137 74 18409164389875307419
44154327 71 18267028250037128041
526903 126 18410576235872810256
537710 114 18408601466050490037
7832392 63 17187566044572678455
9981440 41 18116712022929254594

> <PUBCHEM_SHAPE_MULTIPOLES>
328.15
4.94
3.77
0.97
2.92
1.2
-0.06
0.99
-1.27
-0.81
0.74
0.39
0.23
-0.66

> <PUBCHEM_SHAPE_SELFOVERLAP>
695.133

> <PUBCHEM_SHAPE_VOLUME>
185.3

> <PUBCHEM_COORDINATE_TYPE>
2
5
10

> <Energy>
0.232708

> <minimizedAffinity>
-6.36393

> <CNNscore>
0.3982722759

> <CNNaffinity>
6.6770553589

> <CNN_VS>
2.6592860222

> <CNNaffinity_variance>
0.4369288683

$$$$
896


 19 20  0  0  0  0  0  0  0  0999 V2000
   -2.9528   -0.6877   22.0258 N   0  0  0  0  0  0  0  0  0  0  0  0
   -2.4927   -2.6245   23.0333 C   0  0  0  0  0  0  0  0  0  0  0  0
   -3.1576   -2.8919   21.7935 C   0  0  0  0  0  0  0  0  0  0  0  0
   -3.4435   -1.6674   21.1946 C   0  0  0  0  0  0  0  0  0  0  0  0
   -2.3832   -1.2514   23.1381 C   0  0  0  0  0  0  0  0  0  0  0  0
   -3.5446   -4.0782   21.1336 C   0  0  0  0  0  0  0  0  0  0  0  0
   -4.1054   -1.5662   19.9671 C   0  0  0  0  0  0  0  0  0  0  0  0
   -4.2177   -4.0056   19.9100 C   0  0  0  0  0  0  0  0  0  0  0  0
   -4.4889   -2.7605   19.3421 C   0  0  0  0  0  0  0  0  0  0  0  0
   -3.0032    0.2791   21.8477 H   0  0  0  0  0  0  0  0  0  0  0  0
   -4.6567   -5.0805   19.1834 O   0  0  0  0  0  0  0  0  0  0  0  0
   -5.9707   -4.9910   18.6435 C   0  0  0  0  0  0  0  0  0  0  0  0
   -2.0122   -3.6485   24.0190 C   0  0  0  0  0  0  0  0  0  0  0  0
   -2.2205   -3.2234   25.4769 C   0  0  0  0  0  0  0  0  0  0  0  0
    0.4397   -3.1066   24.4830 O   0  0  0  0  0  0  0  0  0  0  0  0
   -1.1288   -2.4309   26.0192 N   0  0  0  0  0  0  0  0  0  0  0  0
    0.1374   -2.4657   25.4826 C   0  0  0  0  0  0  0  0  0  0  0  0
    1.1271   -1.6095   26.2254 C   0  0  0  0  0  0  0  0  0  0  0  0
   -1.3013   -1.8505   26.7956 H   0  0  0  0  0  0  0  0  0  0  0  0
 11  8  1  0
 11 12  1  0
 15 17  2  0
  1  4  1  0
  1  5  1  0
  1 10  1  0
 16 14  1  0
 16 17  1  0
 16 19  1  0
  2  3  1  0
  2 13  1  0
  2  5  2  0
  3  4  2  0
  3  6  1  0
 13 14  1  0
  4  7  1  0
  6  8  2  0
  7  9  2  0
  8  9  1  0
 17 18  1  0
M  END
> <PUBCHEM_COMPOUND_CID>
896

> <PUBCHEM_CONFORMER_RMSD>
0.6

> <PUBCHEM_CONFORMER_DIVERSEORDER>
1
13
50
55
28
16
42
48
27
15
62
60
65
61
36
4
20
58
41
17
59
21
2
63
47
57
40
56
22
64
54
37
51
7
31
53
26
8
49
39
32
11
5
33
38
52
23
45
43
12
14
9
34
44
35
10
25
29
46
6
30
24
3
19
18

> <PUBCHEM_MMFF94_PARTIAL_CHARGES>
22
1 -0.36
10 0.3
11 -0.15
12 -0.15
13 0.08
14 -0.15
15 0.57
16 0.06
17 0.28
2 -0.57
20 0.15
23 0.27
24 0.15
25 0.15
26 0.15
27 0.37
3 0.03
4 -0.73
5 -0.18
7 0.18
8 -0.15
9 -0.3

> <PUBCHEM_EFFECTIVE_ROTOR_COUNT>
5

> <PUBCHEM_PHARMACOPHORE_FEATURES>
7
1 1 acceptor
1 2 acceptor
1 3 cation
1 3 donor
1 4 donor
5 3 5 6 8 9 rings
6 6 8 11 12 13 14 rings

> <PUBCHEM_HEAVY_ATOM_COUNT>
17

> <PUBCHEM_ATOM_DEF_STEREO_COUNT>
0

> <PUBCHEM_ATOM_UDEF_STEREO_COUNT>
0

> <PUBCHEM_BOND_DEF_STEREO_COUNT>
0

> <PUBCHEM_BOND_UDEF_STEREO_COUNT>
0

> <PUBCHEM_ISOTOPIC_ATOM_COUNT>
0

> <PUBCHEM_COMPONENT_COUNT>
1

> <PUBCHEM_CACTVS_TAUTO_COUNT>
2

> <PUBCHEM_CONFORMER_ID>
0000038000000001

> <PUBCHEM_MMFF94_ENERGY>
32.7119

> <PUBCHEM_FEATURE_SELFOVERLAP>
35.612

> <PUBCHEM_SHAPE_FINGERPRINT>
10967382 1 18410853274190255273
11640471 11 17676780867509025316
13027679 85 18194690495324420133
13140716 1 17978229692519098697
13965767 371 16608554374032828400
1420 336 18266184924512803916
14787075 74 17896612875907719035
14790565 3 18341057316043312793
15006816 218 16754940689043299904
16945 1 18195239147136872059
19591789 44 18120376712306458779
19765921 60 17749382706469569763
20510252 161 18342458093286620745
21141583 151 18124894583888822372
21524375 3 17972887951224859043
2334 1 18410572855759727185
23419403 2 17326855944455494142
23557571 272 18201719608641642450
23559900 14 18342173410755765088
2748010 2 18337115553281152647
353137 74 18409164389875307419
44154327 71 18267028250037128041
526903 126 18410576235872810256
537710 114 18408601466050490037
7832392 63 17187566044572678455
9981440 41 18116712022929254594

> <PUBCHEM_SHAPE_MULTIPOLES>
328.15
4.94
3.77
0.97
2.92
1.2
-0.06
0.99
-1.27
-0.81
0.74
0.39
0.23
-0.66

> <PUBCHEM_SHAPE_SELFOVERLAP>
695.133

> <PUBCHEM_SHAPE_VOLUME>
185.3

> <PUBCHEM_COORDINATE_TYPE>
2
5
10

> <Energy>
0.232708

> <minimizedAffinity>
-6.00680

> <CNNscore>
0.3969067931

> <CNNaffinity>
6.7116870880

> <CNN_VS>
2.6639142036

> <CNNaffinity_variance>
0.4795330465

$$$$
896


 19 20  0  0  0  0  0  0  0  0999 V2000
   -3.2877   -1.9455   18.4946 N   0  0  0  0  0  0  0  0  0  0  0  0
   -3.4898   -1.7849   20.7108 C   0  0  0  0  0  0  0  0  0  0  0  0
   -2.5071   -2.7805   20.4045 C   0  0  0  0  0  0  0  0  0  0  0  0
   -2.4120   -2.8680   19.0178 C   0  0  0  0  0  0  0  0  0  0  0  0
   -3.9459   -1.2914   19.5038 C   0  0  0  0  0  0  0  0  0  0  0  0
   -1.6931   -3.6193   21.1960 C   0  0  0  0  0  0  0  0  0  0  0  0
   -1.5459   -3.7596   18.3774 C   0  0  0  0  0  0  0  0  0  0  0  0
   -0.8258   -4.5280   20.5815 C   0  0  0  0  0  0  0  0  0  0  0  0
   -0.7599   -4.5887   19.1892 C   0  0  0  0  0  0  0  0  0  0  0  0
   -3.4224   -1.7788   17.5339 H   0  0  0  0  0  0  0  0  0  0  0  0
   -0.0004   -5.4019   21.2380 O   0  0  0  0  0  0  0  0  0  0  0  0
   -0.6167   -6.5452   21.8206 C   0  0  0  0  0  0  0  0  0  0  0  0
   -3.9294   -1.3676   22.0832 C   0  0  0  0  0  0  0  0  0  0  0  0
   -5.1327   -2.1658   22.5975 C   0  0  0  0  0  0  0  0  0  0  0  0
   -6.4579   -3.6980   20.6040 O   0  0  0  0  0  0  0  0  0  0  0  0
   -5.0175   -3.6003   22.3907 N   0  0  0  0  0  0  0  0  0  0  0  0
   -5.7270   -4.2577   21.4125 C   0  0  0  0  0  0  0  0  0  0  0  0
   -5.4986   -5.7451   21.4033 C   0  0  0  0  0  0  0  0  0  0  0  0
   -4.4123   -4.1180   22.9695 H   0  0  0  0  0  0  0  0  0  0  0  0
 11  8  1  0
 11 12  1  0
 15 17  2  0
  1  4  1  0
  1  5  1  0
  1 10  1  0
 16 14  1  0
 16 17  1  0
 16 19  1  0
  2  3  1  0
  2 13  1  0
  2  5  2  0
  3  4  2  0
  3  6  1  0
 13 14  1  0
  4  7  1  0
  6  8  2  0
  7  9  2  0
  8  9  1  0
 17 18  1  0
M  END
> <PUBCHEM_COMPOUND_CID>
896

> <PUBCHEM_CONFORMER_RMSD>
0.6

> <PUBCHEM_CONFORMER_DIVERSEORDER>
1
13
50
55
28
16
42
48
27
15
62
60
65
61
36
4
20
58
41
17
59
21
2
63
47
57
40
56
22
64
54
37
51
7
31
53
26
8
49
39
32
11
5
33
38
52
23
45
43
12
14
9
34
44
35
10
25
29
46
6
30
24
3
19
18

> <PUBCHEM_MMFF94_PARTIAL_CHARGES>
22
1 -0.36
10 0.3
11 -0.15
12 -0.15
13 0.08
14 -0.15
15 0.57
16 0.06
17 0.28
2 -0.57
20 0.15
23 0.27
24 0.15
25 0.15
26 0.15
27 0.37
3 0.03
4 -0.73
5 -0.18
7 0.18
8 -0.15
9 -0.3

> <PUBCHEM_EFFECTIVE_ROTOR_COUNT>
5

> <PUBCHEM_PHARMACOPHORE_FEATURES>
7
1 1 acceptor
1 2 acceptor
1 3 cation
1 3 donor
1 4 donor
5 3 5 6 8 9 rings
6 6 8 11 12 13 14 rings

> <PUBCHEM_HEAVY_ATOM_COUNT>
17

> <PUBCHEM_ATOM_DEF_STEREO_COUNT>
0

> <PUBCHEM_ATOM_UDEF_STEREO_COUNT>
0

> <PUBCHEM_BOND_DEF_STEREO_COUNT>
0

> <PUBCHEM_BOND_UDEF_STEREO_COUNT>
0

> <PUBCHEM_ISOTOPIC_ATOM_COUNT>
0

> <PUBCHEM_COMPONENT_COUNT>
1

> <PUBCHEM_CACTVS_TAUTO_COUNT>
2

> <PUBCHEM_CONFORMER_ID>
0000038000000001

> <PUBCHEM_MMFF94_ENERGY>
32.7119

> <PUBCHEM_FEATURE_SELFOVERLAP>
35.612

> <PUBCHEM_SHAPE_FINGERPRINT>
10967382 1 18410853274190255273
11640471 11 17676780867509025316
13027679 85 18194690495324420133
13140716 1 17978229692519098697
13965767 371 16608554374032828400
1420 336 18266184924512803916
14787075 74 17896612875907719035
14790565 3 18341057316043312793
15006816 218 16754940689043299904
16945 1 18195239147136872059
19591789 44 18120376712306458779
19765921 60 17749382706469569763
20510252 161 18342458093286620745
21141583 151 18124894583888822372
21524375 3 17972887951224859043
2334 1 18410572855759727185
23419403 2 17326855944455494142
23557571 272 18201719608641642450
23559900 14 18342173410755765088
2748010 2 18337115553281152647
353137 74 18409164389875307419
44154327 71 18267028250037128041
526903 126 18410576235872810256
537710 114 18408601466050490037
7832392 63 17187566044572678455
9981440 41 18116712022929254594

> <PUBCHEM_SHAPE_MULTIPOLES>
328.15
4.94
3.77
0.97
2.92
1.2
-0.06
0.99
-1.27
-0.81
0.74
0.39
0.23
-0.66

> <PUBCHEM_SHAPE_SELFOVERLAP>
695.133

> <PUBCHEM_SHAPE_VOLUME>
185.3

> <PUBCHEM_COORDINATE_TYPE>
2
5
10

> <Energy>
0.232708

> <minimizedAffinity>
-5.35126

> <CNNscore>
0.3815439939

> <CNNaffinity>
6.3429107666

> <CNN_VS>
2.4200994968

> <CNNaffinity_variance>
0.0975383148

$$$$
896


 19 20  0  0  0  0  0  0  0  0999 V2000
   -3.1409   -1.9619   18.3000 N   0  0  0  0  0  0  0  0  0  0  0  0
   -3.3759   -1.6911   20.5021 C   0  0  0  0  0  0  0  0  0  0  0  0
   -2.6443   -2.8976   20.2576 C   0  0  0  0  0  0  0  0  0  0  0  0
   -2.5247   -3.0471   18.8780 C   0  0  0  0  0  0  0  0  0  0  0  0
   -3.6616   -1.1417   19.2672 C   0  0  0  0  0  0  0  0  0  0  0  0
   -2.0776   -3.8789   21.0993 C   0  0  0  0  0  0  0  0  0  0  0  0
   -1.8705   -4.1355   18.2927 C   0  0  0  0  0  0  0  0  0  0  0  0
   -1.4271   -4.9834   20.5402 C   0  0  0  0  0  0  0  0  0  0  0  0
   -1.3295   -5.1002   19.1534 C   0  0  0  0  0  0  0  0  0  0  0  0
   -3.1996   -1.7977   17.3312 H   0  0  0  0  0  0  0  0  0  0  0  0
   -0.8530   -6.0056   21.2484 O   0  0  0  0  0  0  0  0  0  0  0  0
    0.5258   -5.8614   21.5714 C   0  0  0  0  0  0  0  0  0  0  0  0
   -3.7522   -1.1410   21.8463 C   0  0  0  0  0  0  0  0  0  0  0  0
   -4.7296   -2.0404   22.6115 C   0  0  0  0  0  0  0  0  0  0  0  0
   -2.1224   -1.6666   23.6794 O   0  0  0  0  0  0  0  0  0  0  0  0
   -4.1039   -2.8284   23.6610 N   0  0  0  0  0  0  0  0  0  0  0  0
   -2.8195   -2.5866   24.0902 C   0  0  0  0  0  0  0  0  0  0  0  0
   -2.3497   -3.5487   25.1477 C   0  0  0  0  0  0  0  0  0  0  0  0
   -4.6160   -3.5585   24.0780 H   0  0  0  0  0  0  0  0  0  0  0  0
 11  8  1  0
 11 12  1  0
 15 17  2  0
  1  4  1  0
  1  5  1  0
  1 10  1  0
 16 14  1  0
 16 17  1  0
 16 19  1  0
  2  3  1  0
  2 13  1  0
  2  5  2  0
  3  4  2  0
  3  6  1  0
 13 14  1  0
  4  7  1  0
  6  8  2  0
  7  9  2  0
  8  9  1  0
 17 18  1  0
M  END
> <PUBCHEM_COMPOUND_CID>
896

> <PUBCHEM_CONFORMER_RMSD>
0.6

> <PUBCHEM_CONFORMER_DIVERSEORDER>
1
13
50
55
28
16
42
48
27
15
62
60
65
61
36
4
20
58
41
17
59
21
2
63
47
57
40
56
22
64
54
37
51
7
31
53
26
8
49
39
32
11
5
33
38
52
23
45
43
12
14
9
34
44
35
10
25
29
46
6
30
24
3
19
18

> <PUBCHEM_MMFF94_PARTIAL_CHARGES>
22
1 -0.36
10 0.3
11 -0.15
12 -0.15
13 0.08
14 -0.15
15 0.57
16 0.06
17 0.28
2 -0.57
20 0.15
23 0.27
24 0.15
25 0.15
26 0.15
27 0.37
3 0.03
4 -0.73
5 -0.18
7 0.18
8 -0.15
9 -0.3

> <PUBCHEM_EFFECTIVE_ROTOR_COUNT>
5

> <PUBCHEM_PHARMACOPHORE_FEATURES>
7
1 1 acceptor
1 2 acceptor
1 3 cation
1 3 donor
1 4 donor
5 3 5 6 8 9 rings
6 6 8 11 12 13 14 rings

> <PUBCHEM_HEAVY_ATOM_COUNT>
17

> <PUBCHEM_ATOM_DEF_STEREO_COUNT>
0

> <PUBCHEM_ATOM_UDEF_STEREO_COUNT>
0

> <PUBCHEM_BOND_DEF_STEREO_COUNT>
0

> <PUBCHEM_BOND_UDEF_STEREO_COUNT>
0

> <PUBCHEM_ISOTOPIC_ATOM_COUNT>
0

> <PUBCHEM_COMPONENT_COUNT>
1

> <PUBCHEM_CACTVS_TAUTO_COUNT>
2

> <PUBCHEM_CONFORMER_ID>
0000038000000001

> <PUBCHEM_MMFF94_ENERGY>
32.7119

> <PUBCHEM_FEATURE_SELFOVERLAP>
35.612

> <PUBCHEM_SHAPE_FINGERPRINT>
10967382 1 18410853274190255273
11640471 11 17676780867509025316
13027679 85 18194690495324420133
13140716 1 17978229692519098697
13965767 371 16608554374032828400
1420 336 18266184924512803916
14787075 74 17896612875907719035
14790565 3 18341057316043312793
15006816 218 16754940689043299904
16945 1 18195239147136872059
19591789 44 18120376712306458779
19765921 60 17749382706469569763
20510252 161 18342458093286620745
21141583 151 18124894583888822372
21524375 3 17972887951224859043
2334 1 18410572855759727185
23419403 2 17326855944455494142
23557571 272 18201719608641642450
23559900 14 18342173410755765088
2748010 2 18337115553281152647
353137 74 18409164389875307419
44154327 71 18267028250037128041
526903 126 18410576235872810256
537710 114 18408601466050490037
7832392 63 17187566044572678455
9981440 41 18116712022929254594

> <PUBCHEM_SHAPE_MULTIPOLES>
328.15
4.94
3.77
0.97
2.92
1.2
-0.06
0.99
-1.27
-0.81
0.74
0.39
0.23
-0.66

> <PUBCHEM_SHAPE_SELFOVERLAP>
695.133

> <PUBCHEM_SHAPE_VOLUME>
185.3

> <PUBCHEM_COORDINATE_TYPE>
2
5
10

> <Energy>
0.232708

> <minimizedAffinity>
-6.06332

> <CNNscore>
0.3288092911

> <CNNaffinity>
6.2963809967

> <CNN_VS>
2.0703086853

> <CNNaffinity_variance>
0.1678884625

$$$$
896


 19 20  0  0  0  0  0  0  0  0999 V2000
   -3.6534   -4.3200   22.7296 N   0  0  0  0  0  0  0  0  0  0  0  0
   -1.9037   -4.6930   21.3964 C   0  0  0  0  0  0  0  0  0  0  0  0
   -1.4710   -3.9311   22.5292 C   0  0  0  0  0  0  0  0  0  0  0  0
   -2.5838   -3.7028   23.3349 C   0  0  0  0  0  0  0  0  0  0  0  0
   -3.2574   -4.9146   21.5595 C   0  0  0  0  0  0  0  0  0  0  0  0
   -0.2217   -3.4121   22.9324 C   0  0  0  0  0  0  0  0  0  0  0  0
   -2.5140   -2.9732   24.5257 C   0  0  0  0  0  0  0  0  0  0  0  0
   -0.1256   -2.6694   24.1134 C   0  0  0  0  0  0  0  0  0  0  0  0
   -1.2630   -2.4593   24.8934 C   0  0  0  0  0  0  0  0  0  0  0  0
   -4.5712   -4.3330   23.0852 H   0  0  0  0  0  0  0  0  0  0  0  0
    1.0224   -2.1030   24.6007 O   0  0  0  0  0  0  0  0  0  0  0  0
    1.1052   -1.9444   26.0128 C   0  0  0  0  0  0  0  0  0  0  0  0
   -1.0415   -5.1553   20.2589 C   0  0  0  0  0  0  0  0  0  0  0  0
   -1.3419   -4.4284   18.9432 C   0  0  0  0  0  0  0  0  0  0  0  0
   -3.9788   -3.5369   18.3689 O   0  0  0  0  0  0  0  0  0  0  0  0
   -1.8570   -3.0805   19.1213 N   0  0  0  0  0  0  0  0  0  0  0  0
   -3.1463   -2.7395   18.7839 C   0  0  0  0  0  0  0  0  0  0  0  0
   -3.4579   -1.2835   19.0018 C   0  0  0  0  0  0  0  0  0  0  0  0
   -1.2640   -2.3894   19.4955 H   0  0  0  0  0  0  0  0  0  0  0  0
 11  8  1  0
 11 12  1  0
 15 17  2  0
  1  4  1  0
  1  5  1  0
  1 10  1  0
 16 14  1  0
 16 17  1  0
 16 19  1  0
  2  3  1  0
  2 13  1  0
  2  5  2  0
  3  4  2  0
  3  6  1  0
 13 14  1  0
  4  7  1  0
  6  8  2  0
  7  9  2  0
  8  9  1  0
 17 18  1  0
M  END
> <PUBCHEM_COMPOUND_CID>
896

> <PUBCHEM_CONFORMER_RMSD>
0.6

> <PUBCHEM_CONFORMER_DIVERSEORDER>
1
13
50
55
28
16
42
48
27
15
62
60
65
61
36
4
20
58
41
17
59
21
2
63
47
57
40
56
22
64
54
37
51
7
31
53
26
8
49
39
32
11
5
33
38
52
23
45
43
12
14
9
34
44
35
10
25
29
46
6
30
24
3
19
18

> <PUBCHEM_MMFF94_PARTIAL_CHARGES>
22
1 -0.36
10 0.3
11 -0.15
12 -0.15
13 0.08
14 -0.15
15 0.57
16 0.06
17 0.28
2 -0.57
20 0.15
23 0.27
24 0.15
25 0.15
26 0.15
27 0.37
3 0.03
4 -0.73
5 -0.18
7 0.18
8 -0.15
9 -0.3

> <PUBCHEM_EFFECTIVE_ROTOR_COUNT>
5

> <PUBCHEM_PHARMACOPHORE_FEATURES>
7
1 1 acceptor
1 2 acceptor
1 3 cation
1 3 donor
1 4 donor
5 3 5 6 8 9 rings
6 6 8 11 12 13 14 rings

> <PUBCHEM_HEAVY_ATOM_COUNT>
17

> <PUBCHEM_ATOM_DEF_STEREO_COUNT>
0

> <PUBCHEM_ATOM_UDEF_STEREO_COUNT>
0

> <PUBCHEM_BOND_DEF_STEREO_COUNT>
0

> <PUBCHEM_BOND_UDEF_STEREO_COUNT>
0

> <PUBCHEM_ISOTOPIC_ATOM_COUNT>
0

> <PUBCHEM_COMPONENT_COUNT>
1

> <PUBCHEM_CACTVS_TAUTO_COUNT>
2

> <PUBCHEM_CONFORMER_ID>
0000038000000001

> <PUBCHEM_MMFF94_ENERGY>
32.7119

> <PUBCHEM_FEATURE_SELFOVERLAP>
35.612

> <PUBCHEM_SHAPE_FINGERPRINT>
10967382 1 18410853274190255273
11640471 11 17676780867509025316
13027679 85 18194690495324420133
13140716 1 17978229692519098697
13965767 371 16608554374032828400
1420 336 18266184924512803916
14787075 74 17896612875907719035
14790565 3 18341057316043312793
15006816 218 16754940689043299904
16945 1 18195239147136872059
19591789 44 18120376712306458779
19765921 60 17749382706469569763
20510252 161 18342458093286620745
21141583 151 18124894583888822372
21524375 3 17972887951224859043
2334 1 18410572855759727185
23419403 2 17326855944455494142
23557571 272 18201719608641642450
23559900 14 18342173410755765088
2748010 2 18337115553281152647
353137 74 18409164389875307419
44154327 71 18267028250037128041
526903 126 18410576235872810256
537710 114 18408601466050490037
7832392 63 17187566044572678455
9981440 41 18116712022929254594

> <PUBCHEM_SHAPE_MULTIPOLES>
328.15
4.94
3.77
0.97
2.92
1.2
-0.06
0.99
-1.27
-0.81
0.74
0.39
0.23
-0.66

> <PUBCHEM_SHAPE_SELFOVERLAP>
695.133

> <PUBCHEM_SHAPE_VOLUME>
185.3

> <PUBCHEM_COORDINATE_TYPE>
2
5
10

> <Energy>
0.232708

> <minimizedAffinity>
-6.70873

> <CNNscore>
0.3264600933

> <CNNaffinity>
6.6002426147

> <CNN_VS>
2.1547157764

> <CNNaffinity_variance>
0.4126058519

$$$$
896


 19 20  0  0  0  0  0  0  0  0999 V2000
    0.0521   -5.1216   21.4662 N   0  0  0  0  0  0  0  0  0  0  0  0
    0.1202   -3.1470   22.5027 C   0  0  0  0  0  0  0  0  0  0  0  0
   -1.2475   -3.5358   22.3326 C   0  0  0  0  0  0  0  0  0  0  0  0
   -1.2593   -4.7624   21.6729 C   0  0  0  0  0  0  0  0  0  0  0  0
    0.8913   -4.1547   21.9564 C   0  0  0  0  0  0  0  0  0  0  0  0
   -2.4786   -2.9402   22.6825 C   0  0  0  0  0  0  0  0  0  0  0  0
   -2.4438   -5.4250   21.3370 C   0  0  0  0  0  0  0  0  0  0  0  0
   -3.6785   -3.5762   22.3489 C   0  0  0  0  0  0  0  0  0  0  0  0
   -3.6505   -4.8032   21.6855 C   0  0  0  0  0  0  0  0  0  0  0  0
    0.3459   -5.9533   21.0291 H   0  0  0  0  0  0  0  0  0  0  0  0
   -4.9316   -3.0935   22.6191 O   0  0  0  0  0  0  0  0  0  0  0  0
   -5.1593   -1.7174   22.3353 C   0  0  0  0  0  0  0  0  0  0  0  0
    0.6077   -1.8852   23.1518 C   0  0  0  0  0  0  0  0  0  0  0  0
   -0.2177   -1.4832   24.3792 C   0  0  0  0  0  0  0  0  0  0  0  0
    1.4943   -1.2351   26.6342 O   0  0  0  0  0  0  0  0  0  0  0  0
   -0.1103   -2.4151   25.4901 N   0  0  0  0  0  0  0  0  0  0  0  0
    0.7749   -2.2208   26.5250 C   0  0  0  0  0  0  0  0  0  0  0  0
    0.7591   -3.3286   27.5433 C   0  0  0  0  0  0  0  0  0  0  0  0
   -0.6897   -3.2110   25.5019 H   0  0  0  0  0  0  0  0  0  0  0  0
 11  8  1  0
 11 12  1  0
 15 17  2  0
  1  4  1  0
  1  5  1  0
  1 10  1  0
 16 14  1  0
 16 17  1  0
 16 19  1  0
  2  3  1  0
  2 13  1  0
  2  5  2  0
  3  4  2  0
  3  6  1  0
 13 14  1  0
  4  7  1  0
  6  8  2  0
  7  9  2  0
  8  9  1  0
 17 18  1  0
M  END
> <PUBCHEM_COMPOUND_CID>
896

> <PUBCHEM_CONFORMER_RMSD>
0.6

> <PUBCHEM_CONFORMER_DIVERSEORDER>
1
13
50
55
28
16
42
48
27
15
62
60
65
61
36
4
20
58
41
17
59
21
2
63
47
57
40
56
22
64
54
37
51
7
31
53
26
8
49
39
32
11
5
33
38
52
23
45
43
12
14
9
34
44
35
10
25
29
46
6
30
24
3
19
18

> <PUBCHEM_MMFF94_PARTIAL_CHARGES>
22
1 -0.36
10 0.3
11 -0.15
12 -0.15
13 0.08
14 -0.15
15 0.57
16 0.06
17 0.28
2 -0.57
20 0.15
23 0.27
24 0.15
25 0.15
26 0.15
27 0.37
3 0.03
4 -0.73
5 -0.18
7 0.18
8 -0.15
9 -0.3

> <PUBCHEM_EFFECTIVE_ROTOR_COUNT>
5

> <PUBCHEM_PHARMACOPHORE_FEATURES>
7
1 1 acceptor
1 2 acceptor
1 3 cation
1 3 donor
1 4 donor
5 3 5 6 8 9 rings
6 6 8 11 12 13 14 rings

> <PUBCHEM_HEAVY_ATOM_COUNT>
17

> <PUBCHEM_ATOM_DEF_STEREO_COUNT>
0

> <PUBCHEM_ATOM_UDEF_STEREO_COUNT>
0

> <PUBCHEM_BOND_DEF_STEREO_COUNT>
0

> <PUBCHEM_BOND_UDEF_STEREO_COUNT>
0

> <PUBCHEM_ISOTOPIC_ATOM_COUNT>
0

> <PUBCHEM_COMPONENT_COUNT>
1

> <PUBCHEM_CACTVS_TAUTO_COUNT>
2

> <PUBCHEM_CONFORMER_ID>
0000038000000001

> <PUBCHEM_MMFF94_ENERGY>
32.7119

> <PUBCHEM_FEATURE_SELFOVERLAP>
35.612

> <PUBCHEM_SHAPE_FINGERPRINT>
10967382 1 18410853274190255273
11640471 11 17676780867509025316
13027679 85 18194690495324420133
13140716 1 17978229692519098697
13965767 371 16608554374032828400
1420 336 18266184924512803916
14787075 74 17896612875907719035
14790565 3 18341057316043312793
15006816 218 16754940689043299904
16945 1 18195239147136872059
19591789 44 18120376712306458779
19765921 60 17749382706469569763
20510252 161 18342458093286620745
21141583 151 18124894583888822372
21524375 3 17972887951224859043
2334 1 18410572855759727185
23419403 2 17326855944455494142
23557571 272 18201719608641642450
23559900 14 18342173410755765088
2748010 2 18337115553281152647
353137 74 18409164389875307419
44154327 71 18267028250037128041
526903 126 18410576235872810256
537710 114 18408601466050490037
7832392 63 17187566044572678455
9981440 41 18116712022929254594

> <PUBCHEM_SHAPE_MULTIPOLES>
328.15
4.94
3.77
0.97
2.92
1.2
-0.06
0.99
-1.27
-0.81
0.74
0.39
0.23
-0.66

> <PUBCHEM_SHAPE_SELFOVERLAP>
695.133

> <PUBCHEM_SHAPE_VOLUME>
185.3

> <PUBCHEM_COORDINATE_TYPE>
2
5
10

> <Energy>
0.232708

> <minimizedAffinity>
-5.80475

> <CNNscore>
0.3249869347

> <CNNaffinity>
6.6464562416

> <CNN_VS>
2.1600115299

> <CNNaffinity_variance>
0.4695490301

$$$$
