5991


 24 27  0  0  0  0  0  0  0  0999 V2000
   26.0685    5.2424   10.8526 O   0  0  0  0  0  0  0  0  0  0  0  0
   19.2619    4.3111    2.2885 O   0  0  0  0  0  0  0  0  0  0  0  0
   24.5325    4.6287    9.0146 C   0  0  0  0  0  0  0  0  0  0  0  0
   23.6141    3.3950    8.8559 C   0  0  0  0  0  0  0  0  0  0  0  0
   22.5076    3.6138    7.8212 C   0  0  0  0  0  0  0  0  0  0  0  0
   25.4465    4.1506   10.1860 C   0  0  0  0  0  0  0  0  0  0  0  0
   23.1618    3.8921    6.4345 C   0  0  0  0  0  0  0  0  0  0  0  0
   25.2058    4.8989    7.6558 C   0  0  0  0  0  0  0  0  0  0  0  0
   23.2191    3.0573   10.2912 C   0  0  0  0  0  0  0  0  0  0  0  0
   24.1782    5.0605    6.5180 C   0  0  0  0  0  0  0  0  0  0  0  0
   24.4458    3.4450   11.1394 C   0  0  0  0  0  0  0  0  0  0  0  0
   21.5749    2.4065    7.6978 C   0  0  0  0  0  0  0  0  0  0  0  0
   23.7749    5.9197    9.4447 C   0  0  0  0  0  0  0  0  0  0  0  0
   22.1030    4.0343    5.3416 C   0  0  0  0  0  0  0  0  0  0  0  0
   20.4138    2.7427    6.7676 C   0  0  0  0  0  0  0  0  0  0  0  0
   20.8278    3.4481    5.5001 C   0  0  0  0  0  0  0  0  0  0  0  0
   22.3971    4.6662    4.1211 C   0  0  0  0  0  0  0  0  0  0  0  0
   19.8716    3.5577    4.4723 C   0  0  0  0  0  0  0  0  0  0  0  0
   21.4399    4.7595    3.1018 C   0  0  0  0  0  0  0  0  0  0  0  0
   20.1821    4.2076    3.2889 C   0  0  0  0  0  0  0  0  0  0  0  0
   25.3913    5.8764   11.1360 H   0  0  0  0  0  0  0  0  0  0  0  0
   18.4070    3.9437    2.3984 H   0  0  0  0  0  0  0  0  0  0  0  0
   26.5023    3.2083    9.7699 C   0  0  0  0  0  0  0  0  0  0  0  0
   27.3590    2.4410    9.4158 C   0  0  0  0  0  0  0  0  0  0  0  0
  1  6  1  0
  1 21  1  0
  2 20  1  0
  2 22  1  0
  3  4  1  0
  3  6  1  0
  3  8  1  0
  3 13  1  0
  4  5  1  0
  4  9  1  0
  5  7  1  0
  5 12  1  0
  6 11  1  0
  6 23  1  0
  7 10  1  0
  7 14  1  0
  8 10  1  0
  9 11  1  0
 12 15  1  0
 14 16  2  0
 14 17  1  0
 15 16  1  0
 16 18  1  0
 23 24  3  0
 17 19  2  0
 18 20  2  0
 19 20  1  0
M  END
> <PUBCHEM_COMPOUND_CID>
5991

> <PUBCHEM_CONFORMER_RMSD>
0.6

> <PUBCHEM_CONFORMER_DIVERSEORDER>
1

> <PUBCHEM_MMFF94_PARTIAL_CHARGES>
19
1 -0.68
14 -0.14
15 0.14
16 -0.14
17 -0.2
18 -0.15
19 -0.15
2 -0.53
20 -0.15
21 0.08
22 -0.18
41 0.4
42 0.15
43 0.15
44 0.15
45 0.18
46 0.45
6 0.48
7 0.14

> <PUBCHEM_EFFECTIVE_ROTOR_COUNT>
1.4

> <PUBCHEM_PHARMACOPHORE_FEATURES>
8
1 1 acceptor
1 1 donor
1 2 donor
1 22 hydrophobe
5 3 4 6 9 11 rings
6 14 16 18 19 20 21 rings
6 3 4 5 7 8 10 rings
6 5 7 12 14 15 16 rings

> <PUBCHEM_HEAVY_ATOM_COUNT>
22

> <PUBCHEM_ATOM_DEF_STEREO_COUNT>
5

> <PUBCHEM_ATOM_UDEF_STEREO_COUNT>
0

> <PUBCHEM_BOND_DEF_STEREO_COUNT>
0

> <PUBCHEM_BOND_UDEF_STEREO_COUNT>
0

> <PUBCHEM_ISOTOPIC_ATOM_COUNT>
0

> <PUBCHEM_COMPONENT_COUNT>
1

> <PUBCHEM_CACTVS_TAUTO_COUNT>
9

> <PUBCHEM_CONFORMER_ID>
0000176700000001

> <PUBCHEM_MMFF94_ENERGY>
75.3654

> <PUBCHEM_FEATURE_SELFOVERLAP>
40.689

> <PUBCHEM_SHAPE_FINGERPRINT>
10498660 4 18334565854482978588
10616163 171 18412261769892000550
10906281 52 18268729332496851400
10967382 1 18409163299196382730
11132069 177 18260823830106114581
11315181 36 17846777438100329984
11552529 35 18058445585631877095
11578080 2 16952518088400902894
11796584 16 15123796154675551020
12107183 9 17697047933183828707
12236239 1 17917992754997443209
12403259 415 18260540148118003532
12403814 3 17531241756051219503
12633257 1 18411416168188185458
12644460 14 18260827060354363322
12788726 201 17059505002047033793
128620 24 17385724690407290772
13140716 1 18264499557760559337
13224815 77 18408318891198213202
13675066 3 17749393654488776519
14790565 3 18338806709892665688
15163728 17 15481289097577292713
15183329 4 18408605830407435614
15196674 1 18337388339818468438
15209289 33 18341332270467662817
15209294 21 18059584555192331817
15309172 13 18409451371427638915
15536298 74 18341610425830279326
15788980 27 17749105603943632888
16945 1 18265320738190372627
17349148 13 18114176445825312880
1813 80 17530976782159466655
18186145 218 18409161126111612646
19489759 90 15410896249631894657
19591789 44 18193273216009210722
200 152 17918273168974754922
21033648 29 17968079933063946356
21267235 1 18338240469814837151
21623110 236 18263368155990106261
23402539 116 18410566319162361766
23402655 69 18201721773563375622
23559900 14 18341325700027887232
335352 9 18410007719541319564
34934 24 18335695014618288215
350125 39 18408603674022772468
3545911 37 18408602569419241710
3680242 22 18335416829913620042
4214541 1 18412824715549947695
474 4 18408605889666299408
5104073 3 18339077194179428906
542803 24 17561084709247609168
59755656 215 18335983078396721054
633830 44 18202282537272954908
9709674 26 18410014338397756278

> <PUBCHEM_SHAPE_MULTIPOLES>
441.01
10.64
2.03
1.22
7.18
0.55
-0.05
-1.94
-1.01
0.21
-0.15
-1.94
-0.33
-0.49

> <PUBCHEM_SHAPE_SELFOVERLAP>
961.464

> <PUBCHEM_SHAPE_VOLUME>
238.8

> <PUBCHEM_COORDINATE_TYPE>
2
5
10

> <Energy>
61.5647

> <minimizedAffinity>
-7.63081

> <CNNscore>
0.8074738383

> <CNNaffinity>
8.2701978683

> <CNN_VS>
6.6779685020

> <CNNaffinity_variance>
1.0325914621

$$$$
5991


 24 27  0  0  0  0  0  0  0  0999 V2000
   25.2974    3.9121   11.5256 O   0  0  0  0  0  0  0  0  0  0  0  0
   20.2701    2.6628    1.8453 O   0  0  0  0  0  0  0  0  0  0  0  0
   24.3913    3.9561    9.2253 C   0  0  0  0  0  0  0  0  0  0  0  0
   24.9868    4.5611    7.9331 C   0  0  0  0  0  0  0  0  0  0  0  0
   24.3500    3.9858    6.6657 C   0  0  0  0  0  0  0  0  0  0  0  0
   25.3023    4.6308   10.2981 C   0  0  0  0  0  0  0  0  0  0  0  0
   22.8259    4.3101    6.6753 C   0  0  0  0  0  0  0  0  0  0  0  0
   22.8884    4.2924    9.2597 C   0  0  0  0  0  0  0  0  0  0  0  0
   26.4931    4.4104    8.1299 C   0  0  0  0  0  0  0  0  0  0  0  0
   22.1568    3.8225    7.9867 C   0  0  0  0  0  0  0  0  0  0  0  0
   26.7098    4.5639    9.6478 C   0  0  0  0  0  0  0  0  0  0  0  0
   24.9716    4.5554    5.3882 C   0  0  0  0  0  0  0  0  0  0  0  0
   24.5434    2.4089    9.3180 C   0  0  0  0  0  0  0  0  0  0  0  0
   22.1504    3.8334    5.3899 C   0  0  0  0  0  0  0  0  0  0  0  0
   24.4015    3.8359    4.1701 C   0  0  0  0  0  0  0  0  0  0  0  0
   22.9041    3.6574    4.2084 C   0  0  0  0  0  0  0  0  0  0  0  0
   20.7587    3.6487    5.3244 C   0  0  0  0  0  0  0  0  0  0  0  0
   22.2651    3.2496    3.0218 C   0  0  0  0  0  0  0  0  0  0  0  0
   20.1334    3.2527    4.1343 C   0  0  0  0  0  0  0  0  0  0  0  0
   20.8943    3.0517    2.9932 C   0  0  0  0  0  0  0  0  0  0  0  0
   25.5319    2.9857   11.3589 H   0  0  0  0  0  0  0  0  0  0  0  0
   20.7693    2.5225    1.0650 H   0  0  0  0  0  0  0  0  0  0  0  0
   24.9425    6.0317   10.5878 C   0  0  0  0  0  0  0  0  0  0  0  0
   24.6374    7.1735   10.8140 C   0  0  0  0  0  0  0  0  0  0  0  0
  1  6  1  0
  1 21  1  0
  2 20  1  0
  2 22  1  0
  3  4  1  0
  3  6  1  0
  3  8  1  0
  3 13  1  0
  4  5  1  0
  4  9  1  0
  5  7  1  0
  5 12  1  0
  6 11  1  0
  6 23  1  0
  7 10  1  0
  7 14  1  0
  8 10  1  0
  9 11  1  0
 12 15  1  0
 14 16  2  0
 14 17  1  0
 15 16  1  0
 16 18  1  0
 23 24  3  0
 17 19  2  0
 18 20  2  0
 19 20  1  0
M  END
> <PUBCHEM_COMPOUND_CID>
5991

> <PUBCHEM_CONFORMER_RMSD>
0.6

> <PUBCHEM_CONFORMER_DIVERSEORDER>
1

> <PUBCHEM_MMFF94_PARTIAL_CHARGES>
19
1 -0.68
14 -0.14
15 0.14
16 -0.14
17 -0.2
18 -0.15
19 -0.15
2 -0.53
20 -0.15
21 0.08
22 -0.18
41 0.4
42 0.15
43 0.15
44 0.15
45 0.18
46 0.45
6 0.48
7 0.14

> <PUBCHEM_EFFECTIVE_ROTOR_COUNT>
1.4

> <PUBCHEM_PHARMACOPHORE_FEATURES>
8
1 1 acceptor
1 1 donor
1 2 donor
1 22 hydrophobe
5 3 4 6 9 11 rings
6 14 16 18 19 20 21 rings
6 3 4 5 7 8 10 rings
6 5 7 12 14 15 16 rings

> <PUBCHEM_HEAVY_ATOM_COUNT>
22

> <PUBCHEM_ATOM_DEF_STEREO_COUNT>
5

> <PUBCHEM_ATOM_UDEF_STEREO_COUNT>
0

> <PUBCHEM_BOND_DEF_STEREO_COUNT>
0

> <PUBCHEM_BOND_UDEF_STEREO_COUNT>
0

> <PUBCHEM_ISOTOPIC_ATOM_COUNT>
0

> <PUBCHEM_COMPONENT_COUNT>
1

> <PUBCHEM_CACTVS_TAUTO_COUNT>
9

> <PUBCHEM_CONFORMER_ID>
0000176700000001

> <PUBCHEM_MMFF94_ENERGY>
75.3654

> <PUBCHEM_FEATURE_SELFOVERLAP>
40.689

> <PUBCHEM_SHAPE_FINGERPRINT>
10498660 4 18334565854482978588
10616163 171 18412261769892000550
10906281 52 18268729332496851400
10967382 1 18409163299196382730
11132069 177 18260823830106114581
11315181 36 17846777438100329984
11552529 35 18058445585631877095
11578080 2 16952518088400902894
11796584 16 15123796154675551020
12107183 9 17697047933183828707
12236239 1 17917992754997443209
12403259 415 18260540148118003532
12403814 3 17531241756051219503
12633257 1 18411416168188185458
12644460 14 18260827060354363322
12788726 201 17059505002047033793
128620 24 17385724690407290772
13140716 1 18264499557760559337
13224815 77 18408318891198213202
13675066 3 17749393654488776519
14790565 3 18338806709892665688
15163728 17 15481289097577292713
15183329 4 18408605830407435614
15196674 1 18337388339818468438
15209289 33 18341332270467662817
15209294 21 18059584555192331817
15309172 13 18409451371427638915
15536298 74 18341610425830279326
15788980 27 17749105603943632888
16945 1 18265320738190372627
17349148 13 18114176445825312880
1813 80 17530976782159466655
18186145 218 18409161126111612646
19489759 90 15410896249631894657
19591789 44 18193273216009210722
200 152 17918273168974754922
21033648 29 17968079933063946356
21267235 1 18338240469814837151
21623110 236 18263368155990106261
23402539 116 18410566319162361766
23402655 69 18201721773563375622
23559900 14 18341325700027887232
335352 9 18410007719541319564
34934 24 18335695014618288215
350125 39 18408603674022772468
3545911 37 18408602569419241710
3680242 22 18335416829913620042
4214541 1 18412824715549947695
474 4 18408605889666299408
5104073 3 18339077194179428906
542803 24 17561084709247609168
59755656 215 18335983078396721054
633830 44 18202282537272954908
9709674 26 18410014338397756278

> <PUBCHEM_SHAPE_MULTIPOLES>
441.01
10.64
2.03
1.22
7.18
0.55
-0.05
-1.94
-1.01
0.21
-0.15
-1.94
-0.33
-0.49

> <PUBCHEM_SHAPE_SELFOVERLAP>
961.464

> <PUBCHEM_SHAPE_VOLUME>
238.8

> <PUBCHEM_COORDINATE_TYPE>
2
5
10

> <Energy>
61.5647

> <minimizedAffinity>
-8.66375

> <CNNscore>
0.6204538941

> <CNNaffinity>
7.8664088249

> <CNN_VS>
4.8807439804

> <CNNaffinity_variance>
0.6811252236

$$$$
5991


 24 27  0  0  0  0  0  0  0  0999 V2000
   19.6057    3.5119    3.1239 O   0  0  0  0  0  0  0  0  0  0  0  0
   26.0262    4.2591   11.9986 O   0  0  0  0  0  0  0  0  0  0  0  0
   21.3425    3.8108    4.8584 C   0  0  0  0  0  0  0  0  0  0  0  0
   22.6150    4.6890    4.8508 C   0  0  0  0  0  0  0  0  0  0  0  0
   23.1629    4.9439    6.2571 C   0  0  0  0  0  0  0  0  0  0  0  0
   20.9731    3.8369    3.3422 C   0  0  0  0  0  0  0  0  0  0  0  0
   23.5403    3.5784    6.9064 C   0  0  0  0  0  0  0  0  0  0  0  0
   21.7087    2.4474    5.4748 C   0  0  0  0  0  0  0  0  0  0  0  0
   22.2172    5.8861    3.9912 C   0  0  0  0  0  0  0  0  0  0  0  0
   22.3446    2.5913    6.8718 C   0  0  0  0  0  0  0  0  0  0  0  0
   21.2387    5.3140    2.9471 C   0  0  0  0  0  0  0  0  0  0  0  0
   24.3975    5.8486    6.2489 C   0  0  0  0  0  0  0  0  0  0  0  0
   20.1705    4.4170    5.6858 C   0  0  0  0  0  0  0  0  0  0  0  0
   24.1743    3.7764    8.2828 C   0  0  0  0  0  0  0  0  0  0  0  0
   24.8024    6.1844    7.6807 C   0  0  0  0  0  0  0  0  0  0  0  0
   24.8022    4.9980    8.6123 C   0  0  0  0  0  0  0  0  0  0  0  0
   24.2318    2.7267    9.2155 C   0  0  0  0  0  0  0  0  0  0  0  0
   25.4118    5.1572    9.8715 C   0  0  0  0  0  0  0  0  0  0  0  0
   24.8508    2.8946   10.4615 C   0  0  0  0  0  0  0  0  0  0  0  0
   25.4319    4.1120   10.7806 C   0  0  0  0  0  0  0  0  0  0  0  0
   19.0453    4.0947    3.6597 H   0  0  0  0  0  0  0  0  0  0  0  0
   26.4238    5.0753   12.2304 H   0  0  0  0  0  0  0  0  0  0  0  0
   21.7949    2.9340    2.5144 C   0  0  0  0  0  0  0  0  0  0  0  0
   22.4679    2.2089    1.8293 C   0  0  0  0  0  0  0  0  0  0  0  0
  1  6  1  0
  1 21  1  0
  2 20  1  0
  2 22  1  0
  3  4  1  0
  3  6  1  0
  3  8  1  0
  3 13  1  0
  4  5  1  0
  4  9  1  0
  5  7  1  0
  5 12  1  0
  6 11  1  0
  6 23  1  0
  7 10  1  0
  7 14  1  0
  8 10  1  0
  9 11  1  0
 12 15  1  0
 14 16  2  0
 14 17  1  0
 15 16  1  0
 16 18  1  0
 23 24  3  0
 17 19  2  0
 18 20  2  0
 19 20  1  0
M  END
> <PUBCHEM_COMPOUND_CID>
5991

> <PUBCHEM_CONFORMER_RMSD>
0.6

> <PUBCHEM_CONFORMER_DIVERSEORDER>
1

> <PUBCHEM_MMFF94_PARTIAL_CHARGES>
19
1 -0.68
14 -0.14
15 0.14
16 -0.14
17 -0.2
18 -0.15
19 -0.15
2 -0.53
20 -0.15
21 0.08
22 -0.18
41 0.4
42 0.15
43 0.15
44 0.15
45 0.18
46 0.45
6 0.48
7 0.14

> <PUBCHEM_EFFECTIVE_ROTOR_COUNT>
1.4

> <PUBCHEM_PHARMACOPHORE_FEATURES>
8
1 1 acceptor
1 1 donor
1 2 donor
1 22 hydrophobe
5 3 4 6 9 11 rings
6 14 16 18 19 20 21 rings
6 3 4 5 7 8 10 rings
6 5 7 12 14 15 16 rings

> <PUBCHEM_HEAVY_ATOM_COUNT>
22

> <PUBCHEM_ATOM_DEF_STEREO_COUNT>
5

> <PUBCHEM_ATOM_UDEF_STEREO_COUNT>
0

> <PUBCHEM_BOND_DEF_STEREO_COUNT>
0

> <PUBCHEM_BOND_UDEF_STEREO_COUNT>
0

> <PUBCHEM_ISOTOPIC_ATOM_COUNT>
0

> <PUBCHEM_COMPONENT_COUNT>
1

> <PUBCHEM_CACTVS_TAUTO_COUNT>
9

> <PUBCHEM_CONFORMER_ID>
0000176700000001

> <PUBCHEM_MMFF94_ENERGY>
75.3654

> <PUBCHEM_FEATURE_SELFOVERLAP>
40.689

> <PUBCHEM_SHAPE_FINGERPRINT>
10498660 4 18334565854482978588
10616163 171 18412261769892000550
10906281 52 18268729332496851400
10967382 1 18409163299196382730
11132069 177 18260823830106114581
11315181 36 17846777438100329984
11552529 35 18058445585631877095
11578080 2 16952518088400902894
11796584 16 15123796154675551020
12107183 9 17697047933183828707
12236239 1 17917992754997443209
12403259 415 18260540148118003532
12403814 3 17531241756051219503
12633257 1 18411416168188185458
12644460 14 18260827060354363322
12788726 201 17059505002047033793
128620 24 17385724690407290772
13140716 1 18264499557760559337
13224815 77 18408318891198213202
13675066 3 17749393654488776519
14790565 3 18338806709892665688
15163728 17 15481289097577292713
15183329 4 18408605830407435614
15196674 1 18337388339818468438
15209289 33 18341332270467662817
15209294 21 18059584555192331817
15309172 13 18409451371427638915
15536298 74 18341610425830279326
15788980 27 17749105603943632888
16945 1 18265320738190372627
17349148 13 18114176445825312880
1813 80 17530976782159466655
18186145 218 18409161126111612646
19489759 90 15410896249631894657
19591789 44 18193273216009210722
200 152 17918273168974754922
21033648 29 17968079933063946356
21267235 1 18338240469814837151
21623110 236 18263368155990106261
23402539 116 18410566319162361766
23402655 69 18201721773563375622
23559900 14 18341325700027887232
335352 9 18410007719541319564
34934 24 18335695014618288215
350125 39 18408603674022772468
3545911 37 18408602569419241710
3680242 22 18335416829913620042
4214541 1 18412824715549947695
474 4 18408605889666299408
5104073 3 18339077194179428906
542803 24 17561084709247609168
59755656 215 18335983078396721054
633830 44 18202282537272954908
9709674 26 18410014338397756278

> <PUBCHEM_SHAPE_MULTIPOLES>
441.01
10.64
2.03
1.22
7.18
0.55
-0.05
-1.94
-1.01
0.21
-0.15
-1.94
-0.33
-0.49

> <PUBCHEM_SHAPE_SELFOVERLAP>
961.464

> <PUBCHEM_SHAPE_VOLUME>
238.8

> <PUBCHEM_COORDINATE_TYPE>
2
5
10

> <Energy>
61.5647

> <minimizedAffinity>
-5.84009

> <CNNscore>
0.2521173358

> <CNNaffinity>
7.0702800751

> <CNN_VS>
1.7825402021

> <CNNaffinity_variance>
0.2741755545

$$$$
5991


 24 27  0  0  0  0  0  0  0  0999 V2000
   27.4072   -3.2142    1.6965 O   0  0  0  0  0  0  0  0  0  0  0  0
   23.3418    6.2609    5.4699 O   0  0  0  0  0  0  0  0  0  0  0  0
   26.2218   -1.3179    2.7516 C   0  0  0  0  0  0  0  0  0  0  0  0
   25.3529   -1.2753    4.0298 C   0  0  0  0  0  0  0  0  0  0  0  0
   25.1882    0.1424    4.5829 C   0  0  0  0  0  0  0  0  0  0  0  0
   26.2996   -2.8587    2.5151 C   0  0  0  0  0  0  0  0  0  0  0  0
   24.4840    1.0242    3.5084 C   0  0  0  0  0  0  0  0  0  0  0  0
   25.5226   -0.4701    1.6722 C   0  0  0  0  0  0  0  0  0  0  0  0
   25.9801   -2.3424    4.9232 C   0  0  0  0  0  0  0  0  0  0  0  0
   25.2368    0.9662    2.1537 C   0  0  0  0  0  0  0  0  0  0  0  0
   26.4960   -3.4190    3.9489 C   0  0  0  0  0  0  0  0  0  0  0  0
   24.3634    0.1753    5.8718 C   0  0  0  0  0  0  0  0  0  0  0  0
   27.6591   -0.7535    2.9547 C   0  0  0  0  0  0  0  0  0  0  0  0
   24.2150    2.4325    4.0377 C   0  0  0  0  0  0  0  0  0  0  0  0
   24.3630    1.5869    6.4498 C   0  0  0  0  0  0  0  0  0  0  0  0
   24.1190    2.6684    5.4270 C   0  0  0  0  0  0  0  0  0  0  0  0
   23.9653    3.5036    3.1627 C   0  0  0  0  0  0  0  0  0  0  0  0
   23.8381    3.9639    5.9017 C   0  0  0  0  0  0  0  0  0  0  0  0
   23.6764    4.7862    3.6479 C   0  0  0  0  0  0  0  0  0  0  0  0
   23.6201    5.0061    5.0154 C   0  0  0  0  0  0  0  0  0  0  0  0
   28.2211   -2.8484    2.0769 H   0  0  0  0  0  0  0  0  0  0  0  0
   23.3000    6.4269    6.3911 H   0  0  0  0  0  0  0  0  0  0  0  0
   25.0820   -3.4295    1.9090 C   0  0  0  0  0  0  0  0  0  0  0  0
   24.0965   -3.9079    1.4110 C   0  0  0  0  0  0  0  0  0  0  0  0
  1  6  1  0
  1 21  1  0
  2 20  1  0
  2 22  1  0
  3  4  1  0
  3  6  1  0
  3  8  1  0
  3 13  1  0
  4  5  1  0
  4  9  1  0
  5  7  1  0
  5 12  1  0
  6 11  1  0
  6 23  1  0
  7 10  1  0
  7 14  1  0
  8 10  1  0
  9 11  1  0
 12 15  1  0
 14 16  2  0
 14 17  1  0
 15 16  1  0
 16 18  1  0
 23 24  3  0
 17 19  2  0
 18 20  2  0
 19 20  1  0
M  END
> <PUBCHEM_COMPOUND_CID>
5991

> <PUBCHEM_CONFORMER_RMSD>
0.6

> <PUBCHEM_CONFORMER_DIVERSEORDER>
1

> <PUBCHEM_MMFF94_PARTIAL_CHARGES>
19
1 -0.68
14 -0.14
15 0.14
16 -0.14
17 -0.2
18 -0.15
19 -0.15
2 -0.53
20 -0.15
21 0.08
22 -0.18
41 0.4
42 0.15
43 0.15
44 0.15
45 0.18
46 0.45
6 0.48
7 0.14

> <PUBCHEM_EFFECTIVE_ROTOR_COUNT>
1.4

> <PUBCHEM_PHARMACOPHORE_FEATURES>
8
1 1 acceptor
1 1 donor
1 2 donor
1 22 hydrophobe
5 3 4 6 9 11 rings
6 14 16 18 19 20 21 rings
6 3 4 5 7 8 10 rings
6 5 7 12 14 15 16 rings

> <PUBCHEM_HEAVY_ATOM_COUNT>
22

> <PUBCHEM_ATOM_DEF_STEREO_COUNT>
5

> <PUBCHEM_ATOM_UDEF_STEREO_COUNT>
0

> <PUBCHEM_BOND_DEF_STEREO_COUNT>
0

> <PUBCHEM_BOND_UDEF_STEREO_COUNT>
0

> <PUBCHEM_ISOTOPIC_ATOM_COUNT>
0

> <PUBCHEM_COMPONENT_COUNT>
1

> <PUBCHEM_CACTVS_TAUTO_COUNT>
9

> <PUBCHEM_CONFORMER_ID>
0000176700000001

> <PUBCHEM_MMFF94_ENERGY>
75.3654

> <PUBCHEM_FEATURE_SELFOVERLAP>
40.689

> <PUBCHEM_SHAPE_FINGERPRINT>
10498660 4 18334565854482978588
10616163 171 18412261769892000550
10906281 52 18268729332496851400
10967382 1 18409163299196382730
11132069 177 18260823830106114581
11315181 36 17846777438100329984
11552529 35 18058445585631877095
11578080 2 16952518088400902894
11796584 16 15123796154675551020
12107183 9 17697047933183828707
12236239 1 17917992754997443209
12403259 415 18260540148118003532
12403814 3 17531241756051219503
12633257 1 18411416168188185458
12644460 14 18260827060354363322
12788726 201 17059505002047033793
128620 24 17385724690407290772
13140716 1 18264499557760559337
13224815 77 18408318891198213202
13675066 3 17749393654488776519
14790565 3 18338806709892665688
15163728 17 15481289097577292713
15183329 4 18408605830407435614
15196674 1 18337388339818468438
15209289 33 18341332270467662817
15209294 21 18059584555192331817
15309172 13 18409451371427638915
15536298 74 18341610425830279326
15788980 27 17749105603943632888
16945 1 18265320738190372627
17349148 13 18114176445825312880
1813 80 17530976782159466655
18186145 218 18409161126111612646
19489759 90 15410896249631894657
19591789 44 18193273216009210722
200 152 17918273168974754922
21033648 29 17968079933063946356
21267235 1 18338240469814837151
21623110 236 18263368155990106261
23402539 116 18410566319162361766
23402655 69 18201721773563375622
23559900 14 18341325700027887232
335352 9 18410007719541319564
34934 24 18335695014618288215
350125 39 18408603674022772468
3545911 37 18408602569419241710
3680242 22 18335416829913620042
4214541 1 18412824715549947695
474 4 18408605889666299408
5104073 3 18339077194179428906
542803 24 17561084709247609168
59755656 215 18335983078396721054
633830 44 18202282537272954908
9709674 26 18410014338397756278

> <PUBCHEM_SHAPE_MULTIPOLES>
441.01
10.64
2.03
1.22
7.18
0.55
-0.05
-1.94
-1.01
0.21
-0.15
-1.94
-0.33
-0.49

> <PUBCHEM_SHAPE_SELFOVERLAP>
961.464

> <PUBCHEM_SHAPE_VOLUME>
238.8

> <PUBCHEM_COORDINATE_TYPE>
2
5
10

> <Energy>
61.5647

> <minimizedAffinity>
61.35690

> <CNNscore>
0.2300250977

> <CNNaffinity>
5.0399975777

> <CNN_VS>
1.1593259573

> <CNNaffinity_variance>
0.0058576223

$$$$
5991


 24 27  0  0  0  0  0  0  0  0999 V2000
   27.3182    4.1825   11.0091 O   0  0  0  0  0  0  0  0  0  0  0  0
   22.7138    4.2755    1.0425 O   0  0  0  0  0  0  0  0  0  0  0  0
   25.9254    4.2632    8.9675 C   0  0  0  0  0  0  0  0  0  0  0  0
   24.5324    4.8936    8.7381 C   0  0  0  0  0  0  0  0  0  0  0  0
   24.2288    5.1275    7.2563 C   0  0  0  0  0  0  0  0  0  0  0  0
   25.9826    4.2661   10.5273 C   0  0  0  0  0  0  0  0  0  0  0  0
   24.2504    3.7572    6.5146 C   0  0  0  0  0  0  0  0  0  0  0  0
   25.9510    2.8949    8.2604 C   0  0  0  0  0  0  0  0  0  0  0  0
   24.5217    6.0899    9.6863 C   0  0  0  0  0  0  0  0  0  0  0  0
   25.5820    3.0034    6.7675 C   0  0  0  0  0  0  0  0  0  0  0  0
   25.3701    5.6442   10.8931 C   0  0  0  0  0  0  0  0  0  0  0  0
   22.8671    5.7909    7.0357 C   0  0  0  0  0  0  0  0  0  0  0  0
   27.0986    5.1201    8.4064 C   0  0  0  0  0  0  0  0  0  0  0  0
   23.8689    3.9180    5.0435 C   0  0  0  0  0  0  0  0  0  0  0  0
   22.6907    6.1318    5.5595 C   0  0  0  0  0  0  0  0  0  0  0  0
   23.0965    5.0225    4.6212 C   0  0  0  0  0  0  0  0  0  0  0  0
   24.1934    2.9324    4.0955 C   0  0  0  0  0  0  0  0  0  0  0  0
   22.7231    5.1426    3.2688 C   0  0  0  0  0  0  0  0  0  0  0  0
   23.8068    3.0586    2.7544 C   0  0  0  0  0  0  0  0  0  0  0  0
   23.0781    4.1669    2.3517 C   0  0  0  0  0  0  0  0  0  0  0  0
   27.8508    4.8881   10.6099 H   0  0  0  0  0  0  0  0  0  0  0  0
   22.2211    5.0182    0.7533 H   0  0  0  0  0  0  0  0  0  0  0  0
   25.2027    3.1814   11.1529 C   0  0  0  0  0  0  0  0  0  0  0  0
   24.5543    2.3009   11.6551 C   0  0  0  0  0  0  0  0  0  0  0  0
  1  6  1  0
  1 21  1  0
  2 20  1  0
  2 22  1  0
  3  4  1  0
  3  6  1  0
  3  8  1  0
  3 13  1  0
  4  5  1  0
  4  9  1  0
  5  7  1  0
  5 12  1  0
  6 11  1  0
  6 23  1  0
  7 10  1  0
  7 14  1  0
  8 10  1  0
  9 11  1  0
 12 15  1  0
 14 16  2  0
 14 17  1  0
 15 16  1  0
 16 18  1  0
 23 24  3  0
 17 19  2  0
 18 20  2  0
 19 20  1  0
M  END
> <PUBCHEM_COMPOUND_CID>
5991

> <PUBCHEM_CONFORMER_RMSD>
0.6

> <PUBCHEM_CONFORMER_DIVERSEORDER>
1

> <PUBCHEM_MMFF94_PARTIAL_CHARGES>
19
1 -0.68
14 -0.14
15 0.14
16 -0.14
17 -0.2
18 -0.15
19 -0.15
2 -0.53
20 -0.15
21 0.08
22 -0.18
41 0.4
42 0.15
43 0.15
44 0.15
45 0.18
46 0.45
6 0.48
7 0.14

> <PUBCHEM_EFFECTIVE_ROTOR_COUNT>
1.4

> <PUBCHEM_PHARMACOPHORE_FEATURES>
8
1 1 acceptor
1 1 donor
1 2 donor
1 22 hydrophobe
5 3 4 6 9 11 rings
6 14 16 18 19 20 21 rings
6 3 4 5 7 8 10 rings
6 5 7 12 14 15 16 rings

> <PUBCHEM_HEAVY_ATOM_COUNT>
22

> <PUBCHEM_ATOM_DEF_STEREO_COUNT>
5

> <PUBCHEM_ATOM_UDEF_STEREO_COUNT>
0

> <PUBCHEM_BOND_DEF_STEREO_COUNT>
0

> <PUBCHEM_BOND_UDEF_STEREO_COUNT>
0

> <PUBCHEM_ISOTOPIC_ATOM_COUNT>
0

> <PUBCHEM_COMPONENT_COUNT>
1

> <PUBCHEM_CACTVS_TAUTO_COUNT>
9

> <PUBCHEM_CONFORMER_ID>
0000176700000001

> <PUBCHEM_MMFF94_ENERGY>
75.3654

> <PUBCHEM_FEATURE_SELFOVERLAP>
40.689

> <PUBCHEM_SHAPE_FINGERPRINT>
10498660 4 18334565854482978588
10616163 171 18412261769892000550
10906281 52 18268729332496851400
10967382 1 18409163299196382730
11132069 177 18260823830106114581
11315181 36 17846777438100329984
11552529 35 18058445585631877095
11578080 2 16952518088400902894
11796584 16 15123796154675551020
12107183 9 17697047933183828707
12236239 1 17917992754997443209
12403259 415 18260540148118003532
12403814 3 17531241756051219503
12633257 1 18411416168188185458
12644460 14 18260827060354363322
12788726 201 17059505002047033793
128620 24 17385724690407290772
13140716 1 18264499557760559337
13224815 77 18408318891198213202
13675066 3 17749393654488776519
14790565 3 18338806709892665688
15163728 17 15481289097577292713
15183329 4 18408605830407435614
15196674 1 18337388339818468438
15209289 33 18341332270467662817
15209294 21 18059584555192331817
15309172 13 18409451371427638915
15536298 74 18341610425830279326
15788980 27 17749105603943632888
16945 1 18265320738190372627
17349148 13 18114176445825312880
1813 80 17530976782159466655
18186145 218 18409161126111612646
19489759 90 15410896249631894657
19591789 44 18193273216009210722
200 152 17918273168974754922
21033648 29 17968079933063946356
21267235 1 18338240469814837151
21623110 236 18263368155990106261
23402539 116 18410566319162361766
23402655 69 18201721773563375622
23559900 14 18341325700027887232
335352 9 18410007719541319564
34934 24 18335695014618288215
350125 39 18408603674022772468
3545911 37 18408602569419241710
3680242 22 18335416829913620042
4214541 1 18412824715549947695
474 4 18408605889666299408
5104073 3 18339077194179428906
542803 24 17561084709247609168
59755656 215 18335983078396721054
633830 44 18202282537272954908
9709674 26 18410014338397756278

> <PUBCHEM_SHAPE_MULTIPOLES>
441.01
10.64
2.03
1.22
7.18
0.55
-0.05
-1.94
-1.01
0.21
-0.15
-1.94
-0.33
-0.49

> <PUBCHEM_SHAPE_SELFOVERLAP>
961.464

> <PUBCHEM_SHAPE_VOLUME>
238.8

> <PUBCHEM_COORDINATE_TYPE>
2
5
10

> <Energy>
61.5647

> <minimizedAffinity>
-6.40925

> <CNNscore>
0.1795267910

> <CNNaffinity>
6.7706313133

> <CNN_VS>
1.2155096531

> <CNNaffinity_variance>
0.1458877176

$$$$
5991


 24 27  0  0  0  0  0  0  0  0999 V2000
   21.1202    2.7485    4.2411 O   0  0  0  0  0  0  0  0  0  0  0  0
   29.1732    4.4426   11.5090 O   0  0  0  0  0  0  0  0  0  0  0  0
   22.6281    3.1836    6.1519 C   0  0  0  0  0  0  0  0  0  0  0  0
   22.3735    3.0476    7.6709 C   0  0  0  0  0  0  0  0  0  0  0  0
   23.6701    2.9675    8.4804 C   0  0  0  0  0  0  0  0  0  0  0  0
   21.1644    3.1179    5.6139 C   0  0  0  0  0  0  0  0  0  0  0  0
   24.4854    4.2767    8.2576 C   0  0  0  0  0  0  0  0  0  0  0  0
   23.4116    4.4885    5.9155 C   0  0  0  0  0  0  0  0  0  0  0  0
   21.3788    1.8934    7.7639 C   0  0  0  0  0  0  0  0  0  0  0  0
   24.7084    4.5486    6.7471 C   0  0  0  0  0  0  0  0  0  0  0  0
   20.5254    2.0043    6.4856 C   0  0  0  0  0  0  0  0  0  0  0  0
   23.4141    2.7899    9.9789 C   0  0  0  0  0  0  0  0  0  0  0  0
   23.4528    2.0078    5.5494 C   0  0  0  0  0  0  0  0  0  0  0  0
   25.7536    4.2908    9.1103 C   0  0  0  0  0  0  0  0  0  0  0  0
   24.7360    2.5672   10.7068 C   0  0  0  0  0  0  0  0  0  0  0  0
   25.8350    3.5103   10.2846 C   0  0  0  0  0  0  0  0  0  0  0  0
   26.8277    5.1437    8.8032 C   0  0  0  0  0  0  0  0  0  0  0  0
   26.9961    3.5567   11.0799 C   0  0  0  0  0  0  0  0  0  0  0  0
   27.9735    5.1883    9.6087 C   0  0  0  0  0  0  0  0  0  0  0  0
   28.0494    4.3894   10.7390 C   0  0  0  0  0  0  0  0  0  0  0  0
   21.6076    1.9196    4.1134 H   0  0  0  0  0  0  0  0  0  0  0  0
   29.2409    3.9092   12.2764 H   0  0  0  0  0  0  0  0  0  0  0  0
   20.4157    4.3791    5.7718 C   0  0  0  0  0  0  0  0  0  0  0  0
   19.8094    5.4085    5.9153 C   0  0  0  0  0  0  0  0  0  0  0  0
  1  6  1  0
  1 21  1  0
  2 20  1  0
  2 22  1  0
  3  4  1  0
  3  6  1  0
  3  8  1  0
  3 13  1  0
  4  5  1  0
  4  9  1  0
  5  7  1  0
  5 12  1  0
  6 11  1  0
  6 23  1  0
  7 10  1  0
  7 14  1  0
  8 10  1  0
  9 11  1  0
 12 15  1  0
 14 16  2  0
 14 17  1  0
 15 16  1  0
 16 18  1  0
 23 24  3  0
 17 19  2  0
 18 20  2  0
 19 20  1  0
M  END
> <PUBCHEM_COMPOUND_CID>
5991

> <PUBCHEM_CONFORMER_RMSD>
0.6

> <PUBCHEM_CONFORMER_DIVERSEORDER>
1

> <PUBCHEM_MMFF94_PARTIAL_CHARGES>
19
1 -0.68
14 -0.14
15 0.14
16 -0.14
17 -0.2
18 -0.15
19 -0.15
2 -0.53
20 -0.15
21 0.08
22 -0.18
41 0.4
42 0.15
43 0.15
44 0.15
45 0.18
46 0.45
6 0.48
7 0.14

> <PUBCHEM_EFFECTIVE_ROTOR_COUNT>
1.4

> <PUBCHEM_PHARMACOPHORE_FEATURES>
8
1 1 acceptor
1 1 donor
1 2 donor
1 22 hydrophobe
5 3 4 6 9 11 rings
6 14 16 18 19 20 21 rings
6 3 4 5 7 8 10 rings
6 5 7 12 14 15 16 rings

> <PUBCHEM_HEAVY_ATOM_COUNT>
22

> <PUBCHEM_ATOM_DEF_STEREO_COUNT>
5

> <PUBCHEM_ATOM_UDEF_STEREO_COUNT>
0

> <PUBCHEM_BOND_DEF_STEREO_COUNT>
0

> <PUBCHEM_BOND_UDEF_STEREO_COUNT>
0

> <PUBCHEM_ISOTOPIC_ATOM_COUNT>
0

> <PUBCHEM_COMPONENT_COUNT>
1

> <PUBCHEM_CACTVS_TAUTO_COUNT>
9

> <PUBCHEM_CONFORMER_ID>
0000176700000001

> <PUBCHEM_MMFF94_ENERGY>
75.3654

> <PUBCHEM_FEATURE_SELFOVERLAP>
40.689

> <PUBCHEM_SHAPE_FINGERPRINT>
10498660 4 18334565854482978588
10616163 171 18412261769892000550
10906281 52 18268729332496851400
10967382 1 18409163299196382730
11132069 177 18260823830106114581
11315181 36 17846777438100329984
11552529 35 18058445585631877095
11578080 2 16952518088400902894
11796584 16 15123796154675551020
12107183 9 17697047933183828707
12236239 1 17917992754997443209
12403259 415 18260540148118003532
12403814 3 17531241756051219503
12633257 1 18411416168188185458
12644460 14 18260827060354363322
12788726 201 17059505002047033793
128620 24 17385724690407290772
13140716 1 18264499557760559337
13224815 77 18408318891198213202
13675066 3 17749393654488776519
14790565 3 18338806709892665688
15163728 17 15481289097577292713
15183329 4 18408605830407435614
15196674 1 18337388339818468438
15209289 33 18341332270467662817
15209294 21 18059584555192331817
15309172 13 18409451371427638915
15536298 74 18341610425830279326
15788980 27 17749105603943632888
16945 1 18265320738190372627
17349148 13 18114176445825312880
1813 80 17530976782159466655
18186145 218 18409161126111612646
19489759 90 15410896249631894657
19591789 44 18193273216009210722
200 152 17918273168974754922
21033648 29 17968079933063946356
21267235 1 18338240469814837151
21623110 236 18263368155990106261
23402539 116 18410566319162361766
23402655 69 18201721773563375622
23559900 14 18341325700027887232
335352 9 18410007719541319564
34934 24 18335695014618288215
350125 39 18408603674022772468
3545911 37 18408602569419241710
3680242 22 18335416829913620042
4214541 1 18412824715549947695
474 4 18408605889666299408
5104073 3 18339077194179428906
542803 24 17561084709247609168
59755656 215 18335983078396721054
633830 44 18202282537272954908
9709674 26 18410014338397756278

> <PUBCHEM_SHAPE_MULTIPOLES>
441.01
10.64
2.03
1.22
7.18
0.55
-0.05
-1.94
-1.01
0.21
-0.15
-1.94
-0.33
-0.49

> <PUBCHEM_SHAPE_SELFOVERLAP>
961.464

> <PUBCHEM_SHAPE_VOLUME>
238.8

> <PUBCHEM_COORDINATE_TYPE>
2
5
10

> <Energy>
61.5647

> <minimizedAffinity>
0.38732

> <CNNscore>
0.1712553948

> <CNNaffinity>
6.8585777283

> <CNN_VS>
1.1745684147

> <CNNaffinity_variance>
0.2589114010

$$$$
5991


 24 27  0  0  0  0  0  0  0  0999 V2000
   26.1680    7.4031    6.7862 O   0  0  0  0  0  0  0  0  0  0  0  0
   26.7414   -3.5598    6.9524 O   0  0  0  0  0  0  0  0  0  0  0  0
   25.9700    4.9555    7.0766 C   0  0  0  0  0  0  0  0  0  0  0  0
   24.7547    4.0994    7.5019 C   0  0  0  0  0  0  0  0  0  0  0  0
   24.9110    2.6251    7.1213 C   0  0  0  0  0  0  0  0  0  0  0  0
   25.4678    6.3774    7.4796 C   0  0  0  0  0  0  0  0  0  0  0  0
   26.1657    2.0482    7.8431 C   0  0  0  0  0  0  0  0  0  0  0  0
   27.2138    4.4112    7.8042 C   0  0  0  0  0  0  0  0  0  0  0  0
   23.5613    4.8760    6.9516 C   0  0  0  0  0  0  0  0  0  0  0  0
   27.4248    2.9052    7.5506 C   0  0  0  0  0  0  0  0  0  0  0  0
   23.9802    6.3564    7.0383 C   0  0  0  0  0  0  0  0  0  0  0  0
   23.6879    1.7890    7.5054 C   0  0  0  0  0  0  0  0  0  0  0  0
   26.2518    4.9224    5.5452 C   0  0  0  0  0  0  0  0  0  0  0  0
   26.3241    0.5533    7.5679 C   0  0  0  0  0  0  0  0  0  0  0  0
   23.8418    0.3698    6.9679 C   0  0  0  0  0  0  0  0  0  0  0  0
   25.2073   -0.2285    7.1982 C   0  0  0  0  0  0  0  0  0  0  0  0
   27.5548   -0.0965    7.7640 C   0  0  0  0  0  0  0  0  0  0  0  0
   25.3591   -1.6111    6.9794 C   0  0  0  0  0  0  0  0  0  0  0  0
   27.6904   -1.4753    7.5529 C   0  0  0  0  0  0  0  0  0  0  0  0
   26.5905   -2.2205    7.1571 C   0  0  0  0  0  0  0  0  0  0  0  0
   26.1172    7.2408    5.8313 H   0  0  0  0  0  0  0  0  0  0  0  0
   26.0083   -4.0783    6.6847 H   0  0  0  0  0  0  0  0  0  0  0  0
   25.5652    6.6548    8.9251 C   0  0  0  0  0  0  0  0  0  0  0  0
   25.6371    6.8680   10.1072 C   0  0  0  0  0  0  0  0  0  0  0  0
  1  6  1  0
  1 21  1  0
  2 20  1  0
  2 22  1  0
  3  4  1  0
  3  6  1  0
  3  8  1  0
  3 13  1  0
  4  5  1  0
  4  9  1  0
  5  7  1  0
  5 12  1  0
  6 11  1  0
  6 23  1  0
  7 10  1  0
  7 14  1  0
  8 10  1  0
  9 11  1  0
 12 15  1  0
 14 16  2  0
 14 17  1  0
 15 16  1  0
 16 18  1  0
 23 24  3  0
 17 19  2  0
 18 20  2  0
 19 20  1  0
M  END
> <PUBCHEM_COMPOUND_CID>
5991

> <PUBCHEM_CONFORMER_RMSD>
0.6

> <PUBCHEM_CONFORMER_DIVERSEORDER>
1

> <PUBCHEM_MMFF94_PARTIAL_CHARGES>
19
1 -0.68
14 -0.14
15 0.14
16 -0.14
17 -0.2
18 -0.15
19 -0.15
2 -0.53
20 -0.15
21 0.08
22 -0.18
41 0.4
42 0.15
43 0.15
44 0.15
45 0.18
46 0.45
6 0.48
7 0.14

> <PUBCHEM_EFFECTIVE_ROTOR_COUNT>
1.4

> <PUBCHEM_PHARMACOPHORE_FEATURES>
8
1 1 acceptor
1 1 donor
1 2 donor
1 22 hydrophobe
5 3 4 6 9 11 rings
6 14 16 18 19 20 21 rings
6 3 4 5 7 8 10 rings
6 5 7 12 14 15 16 rings

> <PUBCHEM_HEAVY_ATOM_COUNT>
22

> <PUBCHEM_ATOM_DEF_STEREO_COUNT>
5

> <PUBCHEM_ATOM_UDEF_STEREO_COUNT>
0

> <PUBCHEM_BOND_DEF_STEREO_COUNT>
0

> <PUBCHEM_BOND_UDEF_STEREO_COUNT>
0

> <PUBCHEM_ISOTOPIC_ATOM_COUNT>
0

> <PUBCHEM_COMPONENT_COUNT>
1

> <PUBCHEM_CACTVS_TAUTO_COUNT>
9

> <PUBCHEM_CONFORMER_ID>
0000176700000001

> <PUBCHEM_MMFF94_ENERGY>
75.3654

> <PUBCHEM_FEATURE_SELFOVERLAP>
40.689

> <PUBCHEM_SHAPE_FINGERPRINT>
10498660 4 18334565854482978588
10616163 171 18412261769892000550
10906281 52 18268729332496851400
10967382 1 18409163299196382730
11132069 177 18260823830106114581
11315181 36 17846777438100329984
11552529 35 18058445585631877095
11578080 2 16952518088400902894
11796584 16 15123796154675551020
12107183 9 17697047933183828707
12236239 1 17917992754997443209
12403259 415 18260540148118003532
12403814 3 17531241756051219503
12633257 1 18411416168188185458
12644460 14 18260827060354363322
12788726 201 17059505002047033793
128620 24 17385724690407290772
13140716 1 18264499557760559337
13224815 77 18408318891198213202
13675066 3 17749393654488776519
14790565 3 18338806709892665688
15163728 17 15481289097577292713
15183329 4 18408605830407435614
15196674 1 18337388339818468438
15209289 33 18341332270467662817
15209294 21 18059584555192331817
15309172 13 18409451371427638915
15536298 74 18341610425830279326
15788980 27 17749105603943632888
16945 1 18265320738190372627
17349148 13 18114176445825312880
1813 80 17530976782159466655
18186145 218 18409161126111612646
19489759 90 15410896249631894657
19591789 44 18193273216009210722
200 152 17918273168974754922
21033648 29 17968079933063946356
21267235 1 18338240469814837151
21623110 236 18263368155990106261
23402539 116 18410566319162361766
23402655 69 18201721773563375622
23559900 14 18341325700027887232
335352 9 18410007719541319564
34934 24 18335695014618288215
350125 39 18408603674022772468
3545911 37 18408602569419241710
3680242 22 18335416829913620042
4214541 1 18412824715549947695
474 4 18408605889666299408
5104073 3 18339077194179428906
542803 24 17561084709247609168
59755656 215 18335983078396721054
633830 44 18202282537272954908
9709674 26 18410014338397756278

> <PUBCHEM_SHAPE_MULTIPOLES>
441.01
10.64
2.03
1.22
7.18
0.55
-0.05
-1.94
-1.01
0.21
-0.15
-1.94
-0.33
-0.49

> <PUBCHEM_SHAPE_SELFOVERLAP>
961.464

> <PUBCHEM_SHAPE_VOLUME>
238.8

> <PUBCHEM_COORDINATE_TYPE>
2
5
10

> <Energy>
61.5647

> <minimizedAffinity>
16.59025

> <CNNscore>
0.1628815979

> <CNNaffinity>
5.1999669075

> <CNN_VS>
0.8469789028

> <CNNaffinity_variance>
1.1635680199

$$$$
5991


 24 27  0  0  0  0  0  0  0  0999 V2000
   23.2718    4.8429    1.5622 O   0  0  0  0  0  0  0  0  0  0  0  0
   25.8090    4.3803   12.2341 O   0  0  0  0  0  0  0  0  0  0  0  0
   23.6855    4.3562    3.9509 C   0  0  0  0  0  0  0  0  0  0  0  0
   23.8207    2.9998    4.6808 C   0  0  0  0  0  0  0  0  0  0  0  0
   24.5172    3.1282    6.0377 C   0  0  0  0  0  0  0  0  0  0  0  0
   23.0699    3.8867    2.5956 C   0  0  0  0  0  0  0  0  0  0  0  0
   23.6741    4.0688    6.9502 C   0  0  0  0  0  0  0  0  0  0  0  0
   22.8314    5.2876    4.8318 C   0  0  0  0  0  0  0  0  0  0  0  0
   24.4367    2.0862    3.6243 C   0  0  0  0  0  0  0  0  0  0  0  0
   23.4037    5.4292    6.2562 C   0  0  0  0  0  0  0  0  0  0  0  0
   23.8658    2.5911    2.2850 C   0  0  0  0  0  0  0  0  0  0  0  0
   24.6877    1.7779    6.7379 C   0  0  0  0  0  0  0  0  0  0  0  0
   25.0489    5.0595    3.6827 C   0  0  0  0  0  0  0  0  0  0  0  0
   24.2772    4.1673    8.3510 C   0  0  0  0  0  0  0  0  0  0  0  0
   25.5166    1.9537    8.0062 C   0  0  0  0  0  0  0  0  0  0  0  0
   25.1087    3.1385    8.8460 C   0  0  0  0  0  0  0  0  0  0  0  0
   23.9489    5.2288    9.2118 C   0  0  0  0  0  0  0  0  0  0  0  0
   25.6319    3.2246   10.1505 C   0  0  0  0  0  0  0  0  0  0  0  0
   24.4679    5.2975   10.5117 C   0  0  0  0  0  0  0  0  0  0  0  0
   25.3100    4.2955   10.9683 C   0  0  0  0  0  0  0  0  0  0  0  0
   24.2164    5.0529    1.4959 H   0  0  0  0  0  0  0  0  0  0  0  0
   26.3797    3.7117   12.5586 H   0  0  0  0  0  0  0  0  0  0  0  0
   21.6266    3.5911    2.6688 C   0  0  0  0  0  0  0  0  0  0  0  0
   20.4504    3.3483    2.7436 C   0  0  0  0  0  0  0  0  0  0  0  0
  1  6  1  0
  1 21  1  0
  2 20  1  0
  2 22  1  0
  3  4  1  0
  3  6  1  0
  3  8  1  0
  3 13  1  0
  4  5  1  0
  4  9  1  0
  5  7  1  0
  5 12  1  0
  6 11  1  0
  6 23  1  0
  7 10  1  0
  7 14  1  0
  8 10  1  0
  9 11  1  0
 12 15  1  0
 14 16  2  0
 14 17  1  0
 15 16  1  0
 16 18  1  0
 23 24  3  0
 17 19  2  0
 18 20  2  0
 19 20  1  0
M  END
> <PUBCHEM_COMPOUND_CID>
5991

> <PUBCHEM_CONFORMER_RMSD>
0.6

> <PUBCHEM_CONFORMER_DIVERSEORDER>
1

> <PUBCHEM_MMFF94_PARTIAL_CHARGES>
19
1 -0.68
14 -0.14
15 0.14
16 -0.14
17 -0.2
18 -0.15
19 -0.15
2 -0.53
20 -0.15
21 0.08
22 -0.18
41 0.4
42 0.15
43 0.15
44 0.15
45 0.18
46 0.45
6 0.48
7 0.14

> <PUBCHEM_EFFECTIVE_ROTOR_COUNT>
1.4

> <PUBCHEM_PHARMACOPHORE_FEATURES>
8
1 1 acceptor
1 1 donor
1 2 donor
1 22 hydrophobe
5 3 4 6 9 11 rings
6 14 16 18 19 20 21 rings
6 3 4 5 7 8 10 rings
6 5 7 12 14 15 16 rings

> <PUBCHEM_HEAVY_ATOM_COUNT>
22

> <PUBCHEM_ATOM_DEF_STEREO_COUNT>
5

> <PUBCHEM_ATOM_UDEF_STEREO_COUNT>
0

> <PUBCHEM_BOND_DEF_STEREO_COUNT>
0

> <PUBCHEM_BOND_UDEF_STEREO_COUNT>
0

> <PUBCHEM_ISOTOPIC_ATOM_COUNT>
0

> <PUBCHEM_COMPONENT_COUNT>
1

> <PUBCHEM_CACTVS_TAUTO_COUNT>
9

> <PUBCHEM_CONFORMER_ID>
0000176700000001

> <PUBCHEM_MMFF94_ENERGY>
75.3654

> <PUBCHEM_FEATURE_SELFOVERLAP>
40.689

> <PUBCHEM_SHAPE_FINGERPRINT>
10498660 4 18334565854482978588
10616163 171 18412261769892000550
10906281 52 18268729332496851400
10967382 1 18409163299196382730
11132069 177 18260823830106114581
11315181 36 17846777438100329984
11552529 35 18058445585631877095
11578080 2 16952518088400902894
11796584 16 15123796154675551020
12107183 9 17697047933183828707
12236239 1 17917992754997443209
12403259 415 18260540148118003532
12403814 3 17531241756051219503
12633257 1 18411416168188185458
12644460 14 18260827060354363322
12788726 201 17059505002047033793
128620 24 17385724690407290772
13140716 1 18264499557760559337
13224815 77 18408318891198213202
13675066 3 17749393654488776519
14790565 3 18338806709892665688
15163728 17 15481289097577292713
15183329 4 18408605830407435614
15196674 1 18337388339818468438
15209289 33 18341332270467662817
15209294 21 18059584555192331817
15309172 13 18409451371427638915
15536298 74 18341610425830279326
15788980 27 17749105603943632888
16945 1 18265320738190372627
17349148 13 18114176445825312880
1813 80 17530976782159466655
18186145 218 18409161126111612646
19489759 90 15410896249631894657
19591789 44 18193273216009210722
200 152 17918273168974754922
21033648 29 17968079933063946356
21267235 1 18338240469814837151
21623110 236 18263368155990106261
23402539 116 18410566319162361766
23402655 69 18201721773563375622
23559900 14 18341325700027887232
335352 9 18410007719541319564
34934 24 18335695014618288215
350125 39 18408603674022772468
3545911 37 18408602569419241710
3680242 22 18335416829913620042
4214541 1 18412824715549947695
474 4 18408605889666299408
5104073 3 18339077194179428906
542803 24 17561084709247609168
59755656 215 18335983078396721054
633830 44 18202282537272954908
9709674 26 18410014338397756278

> <PUBCHEM_SHAPE_MULTIPOLES>
441.01
10.64
2.03
1.22
7.18
0.55
-0.05
-1.94
-1.01
0.21
-0.15
-1.94
-0.33
-0.49

> <PUBCHEM_SHAPE_SELFOVERLAP>
961.464

> <PUBCHEM_SHAPE_VOLUME>
238.8

> <PUBCHEM_COORDINATE_TYPE>
2
5
10

> <Energy>
61.5647

> <minimizedAffinity>
-2.58529

> <CNNscore>
0.1319957674

> <CNNaffinity>
5.8131976128

> <CNN_VS>
0.7673174739

> <CNNaffinity_variance>
0.0540975146

$$$$
5991


 24 27  0  0  0  0  0  0  0  0999 V2000
   22.9956    3.1227    1.7597 O   0  0  0  0  0  0  0  0  0  0  0  0
   25.9219    4.1450   12.2922 O   0  0  0  0  0  0  0  0  0  0  0  0
   23.2984    3.5595    4.1746 C   0  0  0  0  0  0  0  0  0  0  0  0
   22.2520    3.8851    5.2653 C   0  0  0  0  0  0  0  0  0  0  0  0
   22.7789    3.6342    6.6803 C   0  0  0  0  0  0  0  0  0  0  0  0
   22.4458    3.7918    2.8880 C   0  0  0  0  0  0  0  0  0  0  0  0
   24.0145    4.5508    6.9283 C   0  0  0  0  0  0  0  0  0  0  0  0
   24.5154    4.4781    4.3931 C   0  0  0  0  0  0  0  0  0  0  0  0
   21.0078    3.1317    4.8022 C   0  0  0  0  0  0  0  0  0  0  0  0
   25.0842    4.3622    5.8213 C   0  0  0  0  0  0  0  0  0  0  0  0
   21.0764    3.1655    3.2631 C   0  0  0  0  0  0  0  0  0  0  0  0
   21.7264    3.9166    7.7551 C   0  0  0  0  0  0  0  0  0  0  0  0
   23.7942    2.0834    4.2058 C   0  0  0  0  0  0  0  0  0  0  0  0
   24.5330    4.4059    8.3586 C   0  0  0  0  0  0  0  0  0  0  0  0
   22.2612    3.5063    9.1234 C   0  0  0  0  0  0  0  0  0  0  0  0
   23.6778    3.9525    9.3873 C   0  0  0  0  0  0  0  0  0  0  0  0
   25.8356    4.8046    8.7045 C   0  0  0  0  0  0  0  0  0  0  0  0
   24.1576    3.8545   10.7074 C   0  0  0  0  0  0  0  0  0  0  0  0
   26.2977    4.7119   10.0242 C   0  0  0  0  0  0  0  0  0  0  0  0
   25.4546    4.2323   11.0145 C   0  0  0  0  0  0  0  0  0  0  0  0
   23.1171    2.1832    1.9683 H   0  0  0  0  0  0  0  0  0  0  0  0
   25.3652    3.8230   12.9736 H   0  0  0  0  0  0  0  0  0  0  0  0
   22.2748    5.2143    2.5368 C   0  0  0  0  0  0  0  0  0  0  0  0
   22.1505    6.3766    2.2511 C   0  0  0  0  0  0  0  0  0  0  0  0
  1  6  1  0
  1 21  1  0
  2 20  1  0
  2 22  1  0
  3  4  1  0
  3  6  1  0
  3  8  1  0
  3 13  1  0
  4  5  1  0
  4  9  1  0
  5  7  1  0
  5 12  1  0
  6 11  1  0
  6 23  1  0
  7 10  1  0
  7 14  1  0
  8 10  1  0
  9 11  1  0
 12 15  1  0
 14 16  2  0
 14 17  1  0
 15 16  1  0
 16 18  1  0
 23 24  3  0
 17 19  2  0
 18 20  2  0
 19 20  1  0
M  END
> <PUBCHEM_COMPOUND_CID>
5991

> <PUBCHEM_CONFORMER_RMSD>
0.6

> <PUBCHEM_CONFORMER_DIVERSEORDER>
1

> <PUBCHEM_MMFF94_PARTIAL_CHARGES>
19
1 -0.68
14 -0.14
15 0.14
16 -0.14
17 -0.2
18 -0.15
19 -0.15
2 -0.53
20 -0.15
21 0.08
22 -0.18
41 0.4
42 0.15
43 0.15
44 0.15
45 0.18
46 0.45
6 0.48
7 0.14

> <PUBCHEM_EFFECTIVE_ROTOR_COUNT>
1.4

> <PUBCHEM_PHARMACOPHORE_FEATURES>
8
1 1 acceptor
1 1 donor
1 2 donor
1 22 hydrophobe
5 3 4 6 9 11 rings
6 14 16 18 19 20 21 rings
6 3 4 5 7 8 10 rings
6 5 7 12 14 15 16 rings

> <PUBCHEM_HEAVY_ATOM_COUNT>
22

> <PUBCHEM_ATOM_DEF_STEREO_COUNT>
5

> <PUBCHEM_ATOM_UDEF_STEREO_COUNT>
0

> <PUBCHEM_BOND_DEF_STEREO_COUNT>
0

> <PUBCHEM_BOND_UDEF_STEREO_COUNT>
0

> <PUBCHEM_ISOTOPIC_ATOM_COUNT>
0

> <PUBCHEM_COMPONENT_COUNT>
1

> <PUBCHEM_CACTVS_TAUTO_COUNT>
9

> <PUBCHEM_CONFORMER_ID>
0000176700000001

> <PUBCHEM_MMFF94_ENERGY>
75.3654

> <PUBCHEM_FEATURE_SELFOVERLAP>
40.689

> <PUBCHEM_SHAPE_FINGERPRINT>
10498660 4 18334565854482978588
10616163 171 18412261769892000550
10906281 52 18268729332496851400
10967382 1 18409163299196382730
11132069 177 18260823830106114581
11315181 36 17846777438100329984
11552529 35 18058445585631877095
11578080 2 16952518088400902894
11796584 16 15123796154675551020
12107183 9 17697047933183828707
12236239 1 17917992754997443209
12403259 415 18260540148118003532
12403814 3 17531241756051219503
12633257 1 18411416168188185458
12644460 14 18260827060354363322
12788726 201 17059505002047033793
128620 24 17385724690407290772
13140716 1 18264499557760559337
13224815 77 18408318891198213202
13675066 3 17749393654488776519
14790565 3 18338806709892665688
15163728 17 15481289097577292713
15183329 4 18408605830407435614
15196674 1 18337388339818468438
15209289 33 18341332270467662817
15209294 21 18059584555192331817
15309172 13 18409451371427638915
15536298 74 18341610425830279326
15788980 27 17749105603943632888
16945 1 18265320738190372627
17349148 13 18114176445825312880
1813 80 17530976782159466655
18186145 218 18409161126111612646
19489759 90 15410896249631894657
19591789 44 18193273216009210722
200 152 17918273168974754922
21033648 29 17968079933063946356
21267235 1 18338240469814837151
21623110 236 18263368155990106261
23402539 116 18410566319162361766
23402655 69 18201721773563375622
23559900 14 18341325700027887232
335352 9 18410007719541319564
34934 24 18335695014618288215
350125 39 18408603674022772468
3545911 37 18408602569419241710
3680242 22 18335416829913620042
4214541 1 18412824715549947695
474 4 18408605889666299408
5104073 3 18339077194179428906
542803 24 17561084709247609168
59755656 215 18335983078396721054
633830 44 18202282537272954908
9709674 26 18410014338397756278

> <PUBCHEM_SHAPE_MULTIPOLES>
441.01
10.64
2.03
1.22
7.18
0.55
-0.05
-1.94
-1.01
0.21
-0.15
-1.94
-0.33
-0.49

> <PUBCHEM_SHAPE_SELFOVERLAP>
961.464

> <PUBCHEM_SHAPE_VOLUME>
238.8

> <PUBCHEM_COORDINATE_TYPE>
2
5
10

> <Energy>
61.5647

> <minimizedAffinity>
-4.00647

> <CNNscore>
0.1263269484

> <CNNaffinity>
6.6366562843

> <CNN_VS>
0.8383885622

> <CNNaffinity_variance>
0.2757093012

$$$$
