5284645


 26 27  0  0  0  0  0  0  0  0999 V2000
   -8.1196   -3.3926   25.1856 O   0  0  0  0  0  0  0  0  0  0  0  0
   -4.0543   -5.3384   21.2076 O   0  0  0  0  0  0  0  0  0  0  0  0
   -4.6599   -4.0428   19.4018 O   0  0  0  0  0  0  0  0  0  0  0  0
   -2.0524   -3.9690   18.2602 O   0  0  0  0  0  0  0  0  0  0  0  0
    0.9914   -1.6767   21.0273 O   0  0  0  0  0  0  0  0  0  0  0  0
   -7.9517   -4.1884   22.9210 C   0  0  0  0  0  0  0  0  0  0  0  0
   -7.2143   -3.5064   24.0862 C   0  0  0  0  0  0  0  0  0  0  0  0
   -7.0393   -4.6310   21.7739 C   0  0  0  0  0  0  0  0  0  0  0  0
   -6.7027   -2.1029   23.7268 C   0  0  0  0  0  0  0  0  0  0  0  0
   -6.2217   -5.8808   22.1163 C   0  0  0  0  0  0  0  0  0  0  0  0
   -5.8018   -1.4821   24.8051 C   0  0  0  0  0  0  0  0  0  0  0  0
   -5.1874   -6.2152   21.0364 C   0  0  0  0  0  0  0  0  0  0  0  0
   -4.4410   -2.1683   24.9733 C   0  0  0  0  0  0  0  0  0  0  0  0
   -4.6604   -7.6365   21.2113 C   0  0  0  0  0  0  0  0  0  0  0  0
   -3.5860   -2.0922   23.7375 C   0  0  0  0  0  0  0  0  0  0  0  0
   -2.6596   -3.6057   20.5990 C   0  0  0  0  0  0  0  0  0  0  0  0
   -2.3149   -3.0726   21.8571 C   0  0  0  0  0  0  0  0  0  0  0  0
   -3.9383   -4.3039   20.3523 C   0  0  0  0  0  0  0  0  0  0  0  0
   -3.1773   -3.1681   23.0459 C   0  0  0  0  0  0  0  0  0  0  0  0
   -1.7851   -3.4645   19.5094 C   0  0  0  0  0  0  0  0  0  0  0  0
   -1.0697   -2.4282   21.9947 C   0  0  0  0  0  0  0  0  0  0  0  0
   -0.2136   -2.3019   20.9031 C   0  0  0  0  0  0  0  0  0  0  0  0
   -0.5644   -2.8124   19.6589 C   0  0  0  0  0  0  0  0  0  0  0  0
   -8.4512   -4.2724   25.4237 H   0  0  0  0  0  0  0  0  0  0  0  0
   -2.8588   -4.4183   18.0992 H   0  0  0  0  0  0  0  0  0  0  0  0
    1.2527   -1.3234   21.8548 H   0  0  0  0  0  0  0  0  0  0  0  0
  1  7  1  0
  1 24  1  0
  2 12  1  0
  2 18  1  0
  3 18  2  0
  4 20  1  0
  4 25  1  0
  5 22  1  0
  5 26  1  0
  6  7  1  0
  6  8  1  0
  7  9  1  0
  8 10  1  0
  9 11  1  0
 10 12  1  0
 11 13  1  0
 12 14  1  0
 13 15  1  0
 15 19  2  0
 16 17  2  0
 16 18  1  0
 16 20  1  0
 17 19  1  0
 17 21  1  0
 20 23  2  0
 21 22  2  0
 22 23  1  0
M  END
> <PUBCHEM_COMPOUND_CID>
5284645

> <PUBCHEM_CONFORMER_RMSD>
0.6

> <PUBCHEM_CONFORMER_DIVERSEORDER>
1

> <PUBCHEM_MMFF94_PARTIAL_CHARGES>
24
1 -0.68
12 0.28
13 0.14
15 -0.29
16 0.09
17 0.03
18 0.63
19 -0.18
2 -0.43
20 0.08
21 -0.15
22 0.08
23 -0.15
3 -0.57
4 -0.53
41 0.4
42 0.15
43 0.15
44 0.15
45 0.15
46 0.45
47 0.45
5 -0.53
7 0.28

> <PUBCHEM_EFFECTIVE_ROTOR_COUNT>
1.8

> <PUBCHEM_PHARMACOPHORE_FEATURES>
6
1 1 acceptor
1 1 donor
1 3 acceptor
1 4 donor
1 5 donor
6 16 17 20 21 22 23 rings

> <PUBCHEM_HEAVY_ATOM_COUNT>
23

> <PUBCHEM_ATOM_DEF_STEREO_COUNT>
2

> <PUBCHEM_ATOM_UDEF_STEREO_COUNT>
0

> <PUBCHEM_BOND_DEF_STEREO_COUNT>
1

> <PUBCHEM_BOND_UDEF_STEREO_COUNT>
0

> <PUBCHEM_ISOTOPIC_ATOM_COUNT>
0

> <PUBCHEM_COMPONENT_COUNT>
1

> <PUBCHEM_CACTVS_TAUTO_COUNT>
12

> <PUBCHEM_CONFORMER_ID>
0050A32500000001

> <PUBCHEM_MMFF94_ENERGY>
56.9454

> <PUBCHEM_FEATURE_SELFOVERLAP>
30.446

> <PUBCHEM_SHAPE_FINGERPRINT>
1100329 8 17836085568009856625
11112241 14 16986289841619931392
11578080 2 16734366241365874279
12166972 35 17967822613537111974
12403259 226 18337670931286267939
12506688 2 18412827975731104564
12596599 1 17914633677902020662
12788726 201 17627507133988941776
13140716 1 18267582403486064363
13402501 40 18336828697047978282
13533116 47 18056766653224983451
14251757 17 18262232209996353437
14787075 74 18336834185758012246
14790565 3 17545883724776523813
14866123 147 17767415573386001256
14931854 50 18336551491284682350
15196674 1 18334859415888043750
15322687 12 17104511174142344237
19591789 44 18337109089556020683
19930381 70 18413393137471364090
20028762 73 17044582808783771111
20691752 17 17022900138402631537
20715895 44 17609482839964013085
20832881 197 18343306989256920753
20905425 154 18409167675446349782
22182313 1 18041826412212926463
23227448 37 18189331260828617463
23352939 185 18342462530415398027
23557571 272 17910374109985112994
23559900 14 18335978778501818797
238 59 18196346307921625956
2748010 2 18117544331403189953
3323516 105 18411138077713944259
350125 39 18336268960321048513
3524813 1 18334011700965522918
3680242 22 18116995477305685354
463206 1 18269557311053435927
5265222 85 17471861776259798556
57527585 103 17390829632986241626
59755656 215 18188762977069237031
6443956 14 18340493347406701473
81228 2 17476913559209296171

> <PUBCHEM_SHAPE_MULTIPOLES>
443.98
8.21
4.09
1.18
1.54
0.84
-0.09
-3.84
1.51
-1.8
-1.33
-0.11
0.8
1.1

> <PUBCHEM_SHAPE_SELFOVERLAP>
916.908

> <PUBCHEM_SHAPE_VOLUME>
252.3

> <PUBCHEM_COORDINATE_TYPE>
2
5
10

> <Energy>
40.5071

> <minimizedAffinity>
-7.30409

> <CNNscore>
0.6471301317

> <CNNaffinity>
6.6061058044

> <CNN_VS>
4.2750101089

> <CNNaffinity_variance>
0.0157318916

$$$$
5284645


 26 27  0  0  0  0  0  0  0  0999 V2000
   -9.3930   -5.3751   22.0554 O   0  0  0  0  0  0  0  0  0  0  0  0
   -4.7395   -1.7046   23.0605 O   0  0  0  0  0  0  0  0  0  0  0  0
   -3.3491   -3.1708   24.1666 O   0  0  0  0  0  0  0  0  0  0  0  0
   -0.9374   -1.9121   23.3259 O   0  0  0  0  0  0  0  0  0  0  0  0
   -0.3461   -2.2281   18.6648 O   0  0  0  0  0  0  0  0  0  0  0  0
   -7.9201   -4.6636   23.8200 C   0  0  0  0  0  0  0  0  0  0  0  0
   -8.0929   -4.8363   22.3011 C   0  0  0  0  0  0  0  0  0  0  0  0
   -6.6931   -3.8411   24.2227 C   0  0  0  0  0  0  0  0  0  0  0  0
   -7.0480   -5.7805   21.6867 C   0  0  0  0  0  0  0  0  0  0  0  0
   -6.8790   -2.3405   23.9749 C   0  0  0  0  0  0  0  0  0  0  0  0
   -7.0809   -5.8182   20.1514 C   0  0  0  0  0  0  0  0  0  0  0  0
   -5.5911   -1.5457   24.2145 C   0  0  0  0  0  0  0  0  0  0  0  0
   -6.6237   -4.5227   19.4706 C   0  0  0  0  0  0  0  0  0  0  0  0
   -5.8874   -0.0531   24.3268 C   0  0  0  0  0  0  0  0  0  0  0  0
   -5.1900   -4.1757   19.7668 C   0  0  0  0  0  0  0  0  0  0  0  0
   -2.8740   -2.4793   21.9481 C   0  0  0  0  0  0  0  0  0  0  0  0
   -3.3996   -2.7257   20.6640 C   0  0  0  0  0  0  0  0  0  0  0  0
   -3.6969   -2.5504   23.1734 C   0  0  0  0  0  0  0  0  0  0  0  0
   -4.8103   -3.0611   20.4122 C   0  0  0  0  0  0  0  0  0  0  0  0
   -1.5125   -2.1743   22.1065 C   0  0  0  0  0  0  0  0  0  0  0  0
   -2.5359   -2.6286   19.5553 C   0  0  0  0  0  0  0  0  0  0  0  0
   -1.1890   -2.3204   19.7321 C   0  0  0  0  0  0  0  0  0  0  0  0
   -0.6695   -2.0962   21.0016 C   0  0  0  0  0  0  0  0  0  0  0  0
  -10.0637   -4.7885   22.4383 H   0  0  0  0  0  0  0  0  0  0  0  0
   -1.4554   -1.9494   24.1059 H   0  0  0  0  0  0  0  0  0  0  0  0
   -0.6702   -2.3744   17.7979 H   0  0  0  0  0  0  0  0  0  0  0  0
  1  7  1  0
  1 24  1  0
  2 12  1  0
  2 18  1  0
  3 18  2  0
  4 20  1  0
  4 25  1  0
  5 22  1  0
  5 26  1  0
  6  7  1  0
  6  8  1  0
  7  9  1  0
  8 10  1  0
  9 11  1  0
 10 12  1  0
 11 13  1  0
 12 14  1  0
 13 15  1  0
 15 19  2  0
 16 17  2  0
 16 18  1  0
 16 20  1  0
 17 19  1  0
 17 21  1  0
 20 23  2  0
 21 22  2  0
 22 23  1  0
M  END
> <PUBCHEM_COMPOUND_CID>
5284645

> <PUBCHEM_CONFORMER_RMSD>
0.6

> <PUBCHEM_CONFORMER_DIVERSEORDER>
1

> <PUBCHEM_MMFF94_PARTIAL_CHARGES>
24
1 -0.68
12 0.28
13 0.14
15 -0.29
16 0.09
17 0.03
18 0.63
19 -0.18
2 -0.43
20 0.08
21 -0.15
22 0.08
23 -0.15
3 -0.57
4 -0.53
41 0.4
42 0.15
43 0.15
44 0.15
45 0.15
46 0.45
47 0.45
5 -0.53
7 0.28

> <PUBCHEM_EFFECTIVE_ROTOR_COUNT>
1.8

> <PUBCHEM_PHARMACOPHORE_FEATURES>
6
1 1 acceptor
1 1 donor
1 3 acceptor
1 4 donor
1 5 donor
6 16 17 20 21 22 23 rings

> <PUBCHEM_HEAVY_ATOM_COUNT>
23

> <PUBCHEM_ATOM_DEF_STEREO_COUNT>
2

> <PUBCHEM_ATOM_UDEF_STEREO_COUNT>
0

> <PUBCHEM_BOND_DEF_STEREO_COUNT>
1

> <PUBCHEM_BOND_UDEF_STEREO_COUNT>
0

> <PUBCHEM_ISOTOPIC_ATOM_COUNT>
0

> <PUBCHEM_COMPONENT_COUNT>
1

> <PUBCHEM_CACTVS_TAUTO_COUNT>
12

> <PUBCHEM_CONFORMER_ID>
0050A32500000001

> <PUBCHEM_MMFF94_ENERGY>
56.9454

> <PUBCHEM_FEATURE_SELFOVERLAP>
30.446

> <PUBCHEM_SHAPE_FINGERPRINT>
1100329 8 17836085568009856625
11112241 14 16986289841619931392
11578080 2 16734366241365874279
12166972 35 17967822613537111974
12403259 226 18337670931286267939
12506688 2 18412827975731104564
12596599 1 17914633677902020662
12788726 201 17627507133988941776
13140716 1 18267582403486064363
13402501 40 18336828697047978282
13533116 47 18056766653224983451
14251757 17 18262232209996353437
14787075 74 18336834185758012246
14790565 3 17545883724776523813
14866123 147 17767415573386001256
14931854 50 18336551491284682350
15196674 1 18334859415888043750
15322687 12 17104511174142344237
19591789 44 18337109089556020683
19930381 70 18413393137471364090
20028762 73 17044582808783771111
20691752 17 17022900138402631537
20715895 44 17609482839964013085
20832881 197 18343306989256920753
20905425 154 18409167675446349782
22182313 1 18041826412212926463
23227448 37 18189331260828617463
23352939 185 18342462530415398027
23557571 272 17910374109985112994
23559900 14 18335978778501818797
238 59 18196346307921625956
2748010 2 18117544331403189953
3323516 105 18411138077713944259
350125 39 18336268960321048513
3524813 1 18334011700965522918
3680242 22 18116995477305685354
463206 1 18269557311053435927
5265222 85 17471861776259798556
57527585 103 17390829632986241626
59755656 215 18188762977069237031
6443956 14 18340493347406701473
81228 2 17476913559209296171

> <PUBCHEM_SHAPE_MULTIPOLES>
443.98
8.21
4.09
1.18
1.54
0.84
-0.09
-3.84
1.51
-1.8
-1.33
-0.11
0.8
1.1

> <PUBCHEM_SHAPE_SELFOVERLAP>
916.908

> <PUBCHEM_SHAPE_VOLUME>
252.3

> <PUBCHEM_COORDINATE_TYPE>
2
5
10

> <Energy>
40.5071

> <minimizedAffinity>
-6.56362

> <CNNscore>
0.5600509048

> <CNNaffinity>
6.6048979759

> <CNN_VS>
3.6990790367

> <CNNaffinity_variance>
0.1054556593

$$$$
5284645


 26 27  0  0  0  0  0  0  0  0999 V2000
   -0.2846   -1.8315   21.0945 O   0  0  0  0  0  0  0  0  0  0  0  0
   -5.6229   -4.5679   21.4838 O   0  0  0  0  0  0  0  0  0  0  0  0
   -5.0571   -6.2702   22.9291 O   0  0  0  0  0  0  0  0  0  0  0  0
   -7.6589   -6.5144   24.0598 O   0  0  0  0  0  0  0  0  0  0  0  0
   -8.8938   -2.6378   26.4310 O   0  0  0  0  0  0  0  0  0  0  0  0
   -1.2795   -4.0178   20.9546 C   0  0  0  0  0  0  0  0  0  0  0  0
   -1.4112   -2.5961   21.5272 C   0  0  0  0  0  0  0  0  0  0  0  0
   -2.5423   -4.8716   21.0976 C   0  0  0  0  0  0  0  0  0  0  0  0
   -1.4561   -2.5746   23.0628 C   0  0  0  0  0  0  0  0  0  0  0  0
   -3.6429   -4.4707   20.1099 C   0  0  0  0  0  0  0  0  0  0  0  0
   -1.7785   -1.1920   23.6493 C   0  0  0  0  0  0  0  0  0  0  0  0
   -4.9601   -5.2079   20.3733 C   0  0  0  0  0  0  0  0  0  0  0  0
   -3.2085   -0.7046   23.3875 C   0  0  0  0  0  0  0  0  0  0  0  0
   -5.9020   -5.0796   19.1797 C   0  0  0  0  0  0  0  0  0  0  0  0
   -4.2551   -1.5862   24.0129 C   0  0  0  0  0  0  0  0  0  0  0  0
   -6.4058   -4.4571   23.6501 C   0  0  0  0  0  0  0  0  0  0  0  0
   -6.2147   -3.0923   23.9442 C   0  0  0  0  0  0  0  0  0  0  0  0
   -5.5664   -5.1884   22.6785 C   0  0  0  0  0  0  0  0  0  0  0  0
   -5.1799   -2.2598   23.3100 C   0  0  0  0  0  0  0  0  0  0  0  0
   -7.4107   -5.1862   24.3063 C   0  0  0  0  0  0  0  0  0  0  0  0
   -7.0702   -2.4817   24.8822 C   0  0  0  0  0  0  0  0  0  0  0  0
   -8.0643   -3.2205   25.5197 C   0  0  0  0  0  0  0  0  0  0  0  0
   -8.2384   -4.5710   25.2411 C   0  0  0  0  0  0  0  0  0  0  0  0
   -0.2436   -1.8362   20.1255 H   0  0  0  0  0  0  0  0  0  0  0  0
   -7.1341   -6.9820   23.4401 H   0  0  0  0  0  0  0  0  0  0  0  0
   -8.7983   -1.7288   26.6374 H   0  0  0  0  0  0  0  0  0  0  0  0
  1  7  1  0
  1 24  1  0
  2 12  1  0
  2 18  1  0
  3 18  2  0
  4 20  1  0
  4 25  1  0
  5 22  1  0
  5 26  1  0
  6  7  1  0
  6  8  1  0
  7  9  1  0
  8 10  1  0
  9 11  1  0
 10 12  1  0
 11 13  1  0
 12 14  1  0
 13 15  1  0
 15 19  2  0
 16 17  2  0
 16 18  1  0
 16 20  1  0
 17 19  1  0
 17 21  1  0
 20 23  2  0
 21 22  2  0
 22 23  1  0
M  END
> <PUBCHEM_COMPOUND_CID>
5284645

> <PUBCHEM_CONFORMER_RMSD>
0.6

> <PUBCHEM_CONFORMER_DIVERSEORDER>
1

> <PUBCHEM_MMFF94_PARTIAL_CHARGES>
24
1 -0.68
12 0.28
13 0.14
15 -0.29
16 0.09
17 0.03
18 0.63
19 -0.18
2 -0.43
20 0.08
21 -0.15
22 0.08
23 -0.15
3 -0.57
4 -0.53
41 0.4
42 0.15
43 0.15
44 0.15
45 0.15
46 0.45
47 0.45
5 -0.53
7 0.28

> <PUBCHEM_EFFECTIVE_ROTOR_COUNT>
1.8

> <PUBCHEM_PHARMACOPHORE_FEATURES>
6
1 1 acceptor
1 1 donor
1 3 acceptor
1 4 donor
1 5 donor
6 16 17 20 21 22 23 rings

> <PUBCHEM_HEAVY_ATOM_COUNT>
23

> <PUBCHEM_ATOM_DEF_STEREO_COUNT>
2

> <PUBCHEM_ATOM_UDEF_STEREO_COUNT>
0

> <PUBCHEM_BOND_DEF_STEREO_COUNT>
1

> <PUBCHEM_BOND_UDEF_STEREO_COUNT>
0

> <PUBCHEM_ISOTOPIC_ATOM_COUNT>
0

> <PUBCHEM_COMPONENT_COUNT>
1

> <PUBCHEM_CACTVS_TAUTO_COUNT>
12

> <PUBCHEM_CONFORMER_ID>
0050A32500000001

> <PUBCHEM_MMFF94_ENERGY>
56.9454

> <PUBCHEM_FEATURE_SELFOVERLAP>
30.446

> <PUBCHEM_SHAPE_FINGERPRINT>
1100329 8 17836085568009856625
11112241 14 16986289841619931392
11578080 2 16734366241365874279
12166972 35 17967822613537111974
12403259 226 18337670931286267939
12506688 2 18412827975731104564
12596599 1 17914633677902020662
12788726 201 17627507133988941776
13140716 1 18267582403486064363
13402501 40 18336828697047978282
13533116 47 18056766653224983451
14251757 17 18262232209996353437
14787075 74 18336834185758012246
14790565 3 17545883724776523813
14866123 147 17767415573386001256
14931854 50 18336551491284682350
15196674 1 18334859415888043750
15322687 12 17104511174142344237
19591789 44 18337109089556020683
19930381 70 18413393137471364090
20028762 73 17044582808783771111
20691752 17 17022900138402631537
20715895 44 17609482839964013085
20832881 197 18343306989256920753
20905425 154 18409167675446349782
22182313 1 18041826412212926463
23227448 37 18189331260828617463
23352939 185 18342462530415398027
23557571 272 17910374109985112994
23559900 14 18335978778501818797
238 59 18196346307921625956
2748010 2 18117544331403189953
3323516 105 18411138077713944259
350125 39 18336268960321048513
3524813 1 18334011700965522918
3680242 22 18116995477305685354
463206 1 18269557311053435927
5265222 85 17471861776259798556
57527585 103 17390829632986241626
59755656 215 18188762977069237031
6443956 14 18340493347406701473
81228 2 17476913559209296171

> <PUBCHEM_SHAPE_MULTIPOLES>
443.98
8.21
4.09
1.18
1.54
0.84
-0.09
-3.84
1.51
-1.8
-1.33
-0.11
0.8
1.1

> <PUBCHEM_SHAPE_SELFOVERLAP>
916.908

> <PUBCHEM_SHAPE_VOLUME>
252.3

> <PUBCHEM_COORDINATE_TYPE>
2
5
10

> <Energy>
40.5071

> <minimizedAffinity>
4.02123

> <CNNscore>
0.2416585386

> <CNNaffinity>
5.1807312965

> <CNN_VS>
1.2519679070

> <CNNaffinity_variance>
0.0916338265

$$$$
5284645


 26 27  0  0  0  0  0  0  0  0999 V2000
   -9.6119   -6.7755   24.8881 O   0  0  0  0  0  0  0  0  0  0  0  0
   -6.4186   -3.3448   21.1237 O   0  0  0  0  0  0  0  0  0  0  0  0
   -8.0941   -1.9406   20.3975 O   0  0  0  0  0  0  0  0  0  0  0  0
   -6.3687    0.2665   19.8885 O   0  0  0  0  0  0  0  0  0  0  0  0
   -4.4129    1.8930   23.8515 O   0  0  0  0  0  0  0  0  0  0  0  0
   -9.6729   -5.9016   22.6471 C   0  0  0  0  0  0  0  0  0  0  0  0
   -9.1312   -5.7049   24.0734 C   0  0  0  0  0  0  0  0  0  0  0  0
   -9.0230   -4.9951   21.5982 C   0  0  0  0  0  0  0  0  0  0  0  0
   -9.5762   -4.3749   24.7010 C   0  0  0  0  0  0  0  0  0  0  0  0
   -7.6054   -5.4421   21.2262 C   0  0  0  0  0  0  0  0  0  0  0  0
   -8.8951   -4.0703   26.0437 C   0  0  0  0  0  0  0  0  0  0  0  0
   -6.8979   -4.4369   20.3114 C   0  0  0  0  0  0  0  0  0  0  0  0
   -7.3952   -3.7679   25.9451 C   0  0  0  0  0  0  0  0  0  0  0  0
   -5.6659   -5.0643   19.6657 C   0  0  0  0  0  0  0  0  0  0  0  0
   -7.0941   -2.5395   25.1302 C   0  0  0  0  0  0  0  0  0  0  0  0
   -6.4050   -1.1629   21.8699 C   0  0  0  0  0  0  0  0  0  0  0  0
   -6.0708   -1.3367   23.2279 C   0  0  0  0  0  0  0  0  0  0  0  0
   -7.1172   -2.1934   21.0861 C   0  0  0  0  0  0  0  0  0  0  0  0
   -6.3802   -2.5552   23.9931 C   0  0  0  0  0  0  0  0  0  0  0  0
   -6.0832    0.0351   21.2119 C   0  0  0  0  0  0  0  0  0  0  0  0
   -5.3864   -0.2978   23.8889 C   0  0  0  0  0  0  0  0  0  0  0  0
   -5.0719    0.8818   23.2180 C   0  0  0  0  0  0  0  0  0  0  0  0
   -5.4192    1.0576   21.8837 C   0  0  0  0  0  0  0  0  0  0  0  0
   -9.3380   -7.6226   24.5034 H   0  0  0  0  0  0  0  0  0  0  0  0
   -6.8145   -0.3856   19.3845 H   0  0  0  0  0  0  0  0  0  0  0  0
   -4.1669    1.8007   24.7509 H   0  0  0  0  0  0  0  0  0  0  0  0
  1  7  1  0
  1 24  1  0
  2 12  1  0
  2 18  1  0
  3 18  2  0
  4 20  1  0
  4 25  1  0
  5 22  1  0
  5 26  1  0
  6  7  1  0
  6  8  1  0
  7  9  1  0
  8 10  1  0
  9 11  1  0
 10 12  1  0
 11 13  1  0
 12 14  1  0
 13 15  1  0
 15 19  2  0
 16 17  2  0
 16 18  1  0
 16 20  1  0
 17 19  1  0
 17 21  1  0
 20 23  2  0
 21 22  2  0
 22 23  1  0
M  END
> <PUBCHEM_COMPOUND_CID>
5284645

> <PUBCHEM_CONFORMER_RMSD>
0.6

> <PUBCHEM_CONFORMER_DIVERSEORDER>
1

> <PUBCHEM_MMFF94_PARTIAL_CHARGES>
24
1 -0.68
12 0.28
13 0.14
15 -0.29
16 0.09
17 0.03
18 0.63
19 -0.18
2 -0.43
20 0.08
21 -0.15
22 0.08
23 -0.15
3 -0.57
4 -0.53
41 0.4
42 0.15
43 0.15
44 0.15
45 0.15
46 0.45
47 0.45
5 -0.53
7 0.28

> <PUBCHEM_EFFECTIVE_ROTOR_COUNT>
1.8

> <PUBCHEM_PHARMACOPHORE_FEATURES>
6
1 1 acceptor
1 1 donor
1 3 acceptor
1 4 donor
1 5 donor
6 16 17 20 21 22 23 rings

> <PUBCHEM_HEAVY_ATOM_COUNT>
23

> <PUBCHEM_ATOM_DEF_STEREO_COUNT>
2

> <PUBCHEM_ATOM_UDEF_STEREO_COUNT>
0

> <PUBCHEM_BOND_DEF_STEREO_COUNT>
1

> <PUBCHEM_BOND_UDEF_STEREO_COUNT>
0

> <PUBCHEM_ISOTOPIC_ATOM_COUNT>
0

> <PUBCHEM_COMPONENT_COUNT>
1

> <PUBCHEM_CACTVS_TAUTO_COUNT>
12

> <PUBCHEM_CONFORMER_ID>
0050A32500000001

> <PUBCHEM_MMFF94_ENERGY>
56.9454

> <PUBCHEM_FEATURE_SELFOVERLAP>
30.446

> <PUBCHEM_SHAPE_FINGERPRINT>
1100329 8 17836085568009856625
11112241 14 16986289841619931392
11578080 2 16734366241365874279
12166972 35 17967822613537111974
12403259 226 18337670931286267939
12506688 2 18412827975731104564
12596599 1 17914633677902020662
12788726 201 17627507133988941776
13140716 1 18267582403486064363
13402501 40 18336828697047978282
13533116 47 18056766653224983451
14251757 17 18262232209996353437
14787075 74 18336834185758012246
14790565 3 17545883724776523813
14866123 147 17767415573386001256
14931854 50 18336551491284682350
15196674 1 18334859415888043750
15322687 12 17104511174142344237
19591789 44 18337109089556020683
19930381 70 18413393137471364090
20028762 73 17044582808783771111
20691752 17 17022900138402631537
20715895 44 17609482839964013085
20832881 197 18343306989256920753
20905425 154 18409167675446349782
22182313 1 18041826412212926463
23227448 37 18189331260828617463
23352939 185 18342462530415398027
23557571 272 17910374109985112994
23559900 14 18335978778501818797
238 59 18196346307921625956
2748010 2 18117544331403189953
3323516 105 18411138077713944259
350125 39 18336268960321048513
3524813 1 18334011700965522918
3680242 22 18116995477305685354
463206 1 18269557311053435927
5265222 85 17471861776259798556
57527585 103 17390829632986241626
59755656 215 18188762977069237031
6443956 14 18340493347406701473
81228 2 17476913559209296171

> <PUBCHEM_SHAPE_MULTIPOLES>
443.98
8.21
4.09
1.18
1.54
0.84
-0.09
-3.84
1.51
-1.8
-1.33
-0.11
0.8
1.1

> <PUBCHEM_SHAPE_SELFOVERLAP>
916.908

> <PUBCHEM_SHAPE_VOLUME>
252.3

> <PUBCHEM_COORDINATE_TYPE>
2
5
10

> <Energy>
40.5071

> <minimizedAffinity>
20.93466

> <CNNscore>
0.1661307067

> <CNNaffinity>
4.9622435570

> <CNN_VS>
0.8243810534

> <CNNaffinity_variance>
0.8591749072

$$$$
5284645


 26 27  0  0  0  0  0  0  0  0999 V2000
    0.1823   -2.0269   18.9331 O   0  0  0  0  0  0  0  0  0  0  0  0
   -3.5687   -3.8888   23.2460 O   0  0  0  0  0  0  0  0  0  0  0  0
   -4.7032   -1.9191   23.6198 O   0  0  0  0  0  0  0  0  0  0  0  0
   -7.1184   -3.1751   24.4545 O   0  0  0  0  0  0  0  0  0  0  0  0
   -9.1049   -5.6199   20.9541 O   0  0  0  0  0  0  0  0  0  0  0  0
   -0.6171   -1.4003   21.1144 C   0  0  0  0  0  0  0  0  0  0  0  0
   -0.9245   -2.1788   19.8236 C   0  0  0  0  0  0  0  0  0  0  0  0
   -1.5794   -1.6935   22.2686 C   0  0  0  0  0  0  0  0  0  0  0  0
   -2.1937   -1.6800   19.1157 C   0  0  0  0  0  0  0  0  0  0  0  0
   -1.3281   -3.0591   22.9165 C   0  0  0  0  0  0  0  0  0  0  0  0
   -2.6255   -2.5617   17.9342 C   0  0  0  0  0  0  0  0  0  0  0  0
   -2.3996   -3.4205   23.9504 C   0  0  0  0  0  0  0  0  0  0  0  0
   -3.1342   -3.9535   18.3281 C   0  0  0  0  0  0  0  0  0  0  0  0
   -1.9365   -4.5779   24.8302 C   0  0  0  0  0  0  0  0  0  0  0  0
   -4.3718   -3.9083   19.1825 C   0  0  0  0  0  0  0  0  0  0  0  0
   -5.7489   -3.7359   22.5101 C   0  0  0  0  0  0  0  0  0  0  0  0
   -5.6585   -4.3528   21.2463 C   0  0  0  0  0  0  0  0  0  0  0  0
   -4.6086   -3.0386   23.1401 C   0  0  0  0  0  0  0  0  0  0  0  0
   -4.4283   -4.3786   20.4389 C   0  0  0  0  0  0  0  0  0  0  0  0
   -6.9633   -3.7462   23.2150 C   0  0  0  0  0  0  0  0  0  0  0  0
   -6.8002   -4.9977   20.7312 C   0  0  0  0  0  0  0  0  0  0  0  0
   -7.9950   -5.0011   21.4474 C   0  0  0  0  0  0  0  0  0  0  0  0
   -8.0861   -4.3758   22.6853 C   0  0  0  0  0  0  0  0  0  0  0  0
    0.9917   -2.3383   19.3674 H   0  0  0  0  0  0  0  0  0  0  0  0
   -6.3972   -2.7370   24.8619 H   0  0  0  0  0  0  0  0  0  0  0  0
   -9.0711   -6.0492   20.1220 H   0  0  0  0  0  0  0  0  0  0  0  0
  1  7  1  0
  1 24  1  0
  2 12  1  0
  2 18  1  0
  3 18  2  0
  4 20  1  0
  4 25  1  0
  5 22  1  0
  5 26  1  0
  6  7  1  0
  6  8  1  0
  7  9  1  0
  8 10  1  0
  9 11  1  0
 10 12  1  0
 11 13  1  0
 12 14  1  0
 13 15  1  0
 15 19  2  0
 16 17  2  0
 16 18  1  0
 16 20  1  0
 17 19  1  0
 17 21  1  0
 20 23  2  0
 21 22  2  0
 22 23  1  0
M  END
> <PUBCHEM_COMPOUND_CID>
5284645

> <PUBCHEM_CONFORMER_RMSD>
0.6

> <PUBCHEM_CONFORMER_DIVERSEORDER>
1

> <PUBCHEM_MMFF94_PARTIAL_CHARGES>
24
1 -0.68
12 0.28
13 0.14
15 -0.29
16 0.09
17 0.03
18 0.63
19 -0.18
2 -0.43
20 0.08
21 -0.15
22 0.08
23 -0.15
3 -0.57
4 -0.53
41 0.4
42 0.15
43 0.15
44 0.15
45 0.15
46 0.45
47 0.45
5 -0.53
7 0.28

> <PUBCHEM_EFFECTIVE_ROTOR_COUNT>
1.8

> <PUBCHEM_PHARMACOPHORE_FEATURES>
6
1 1 acceptor
1 1 donor
1 3 acceptor
1 4 donor
1 5 donor
6 16 17 20 21 22 23 rings

> <PUBCHEM_HEAVY_ATOM_COUNT>
23

> <PUBCHEM_ATOM_DEF_STEREO_COUNT>
2

> <PUBCHEM_ATOM_UDEF_STEREO_COUNT>
0

> <PUBCHEM_BOND_DEF_STEREO_COUNT>
1

> <PUBCHEM_BOND_UDEF_STEREO_COUNT>
0

> <PUBCHEM_ISOTOPIC_ATOM_COUNT>
0

> <PUBCHEM_COMPONENT_COUNT>
1

> <PUBCHEM_CACTVS_TAUTO_COUNT>
12

> <PUBCHEM_CONFORMER_ID>
0050A32500000001

> <PUBCHEM_MMFF94_ENERGY>
56.9454

> <PUBCHEM_FEATURE_SELFOVERLAP>
30.446

> <PUBCHEM_SHAPE_FINGERPRINT>
1100329 8 17836085568009856625
11112241 14 16986289841619931392
11578080 2 16734366241365874279
12166972 35 17967822613537111974
12403259 226 18337670931286267939
12506688 2 18412827975731104564
12596599 1 17914633677902020662
12788726 201 17627507133988941776
13140716 1 18267582403486064363
13402501 40 18336828697047978282
13533116 47 18056766653224983451
14251757 17 18262232209996353437
14787075 74 18336834185758012246
14790565 3 17545883724776523813
14866123 147 17767415573386001256
14931854 50 18336551491284682350
15196674 1 18334859415888043750
15322687 12 17104511174142344237
19591789 44 18337109089556020683
19930381 70 18413393137471364090
20028762 73 17044582808783771111
20691752 17 17022900138402631537
20715895 44 17609482839964013085
20832881 197 18343306989256920753
20905425 154 18409167675446349782
22182313 1 18041826412212926463
23227448 37 18189331260828617463
23352939 185 18342462530415398027
23557571 272 17910374109985112994
23559900 14 18335978778501818797
238 59 18196346307921625956
2748010 2 18117544331403189953
3323516 105 18411138077713944259
350125 39 18336268960321048513
3524813 1 18334011700965522918
3680242 22 18116995477305685354
463206 1 18269557311053435927
5265222 85 17471861776259798556
57527585 103 17390829632986241626
59755656 215 18188762977069237031
6443956 14 18340493347406701473
81228 2 17476913559209296171

> <PUBCHEM_SHAPE_MULTIPOLES>
443.98
8.21
4.09
1.18
1.54
0.84
-0.09
-3.84
1.51
-1.8
-1.33
-0.11
0.8
1.1

> <PUBCHEM_SHAPE_SELFOVERLAP>
916.908

> <PUBCHEM_SHAPE_VOLUME>
252.3

> <PUBCHEM_COORDINATE_TYPE>
2
5
10

> <Energy>
40.5071

> <minimizedAffinity>
0.32073

> <CNNscore>
0.1247255653

> <CNNaffinity>
4.9435119629

> <CNN_VS>
0.6165823340

> <CNNaffinity_variance>
0.1311745197

$$$$
5284645


 26 27  0  0  0  0  0  0  0  0999 V2000
   -8.5562   -0.5384   21.0919 O   0  0  0  0  0  0  0  0  0  0  0  0
   -3.3823   -3.5872   21.3611 O   0  0  0  0  0  0  0  0  0  0  0  0
   -3.3942   -4.1315   23.5994 O   0  0  0  0  0  0  0  0  0  0  0  0
   -1.8921   -6.5296   23.2825 O   0  0  0  0  0  0  0  0  0  0  0  0
   -4.2475   -9.7347   20.7615 O   0  0  0  0  0  0  0  0  0  0  0  0
   -6.5347   -0.6797   22.3891 C   0  0  0  0  0  0  0  0  0  0  0  0
   -7.5013   -1.4300   21.4568 C   0  0  0  0  0  0  0  0  0  0  0  0
   -5.2124   -1.4093   22.6412 C   0  0  0  0  0  0  0  0  0  0  0  0
   -8.1180   -2.6739   22.1149 C   0  0  0  0  0  0  0  0  0  0  0  0
   -4.2616   -1.3427   21.4416 C   0  0  0  0  0  0  0  0  0  0  0  0
   -8.9337   -3.5421   21.1452 C   0  0  0  0  0  0  0  0  0  0  0  0
   -3.0184   -2.2177   21.6332 C   0  0  0  0  0  0  0  0  0  0  0  0
   -8.1018   -4.2579   20.0744 C   0  0  0  0  0  0  0  0  0  0  0  0
   -1.9362   -1.8522   20.6215 C   0  0  0  0  0  0  0  0  0  0  0  0
   -7.1152   -5.2364   20.6514 C   0  0  0  0  0  0  0  0  0  0  0  0
   -3.7930   -5.7808   21.9421 C   0  0  0  0  0  0  0  0  0  0  0  0
   -4.8384   -6.1108   21.0566 C   0  0  0  0  0  0  0  0  0  0  0  0
   -3.5580   -4.4022   22.4195 C   0  0  0  0  0  0  0  0  0  0  0  0
   -5.7845   -5.1248   20.5103 C   0  0  0  0  0  0  0  0  0  0  0  0
   -2.9367   -6.7824   22.4273 C   0  0  0  0  0  0  0  0  0  0  0  0
   -4.9784   -7.4537   20.6544 C   0  0  0  0  0  0  0  0  0  0  0  0
   -4.1163   -8.4326   21.1432 C   0  0  0  0  0  0  0  0  0  0  0  0
   -3.0977   -8.1070   22.0309 C   0  0  0  0  0  0  0  0  0  0  0  0
   -8.1811    0.2526   20.6745 H   0  0  0  0  0  0  0  0  0  0  0  0
   -1.7341   -5.6565   23.5837 H   0  0  0  0  0  0  0  0  0  0  0  0
   -4.9256   -9.9816   20.1640 H   0  0  0  0  0  0  0  0  0  0  0  0
  1  7  1  0
  1 24  1  0
  2 12  1  0
  2 18  1  0
  3 18  2  0
  4 20  1  0
  4 25  1  0
  5 22  1  0
  5 26  1  0
  6  7  1  0
  6  8  1  0
  7  9  1  0
  8 10  1  0
  9 11  1  0
 10 12  1  0
 11 13  1  0
 12 14  1  0
 13 15  1  0
 15 19  2  0
 16 17  2  0
 16 18  1  0
 16 20  1  0
 17 19  1  0
 17 21  1  0
 20 23  2  0
 21 22  2  0
 22 23  1  0
M  END
> <PUBCHEM_COMPOUND_CID>
5284645

> <PUBCHEM_CONFORMER_RMSD>
0.6

> <PUBCHEM_CONFORMER_DIVERSEORDER>
1

> <PUBCHEM_MMFF94_PARTIAL_CHARGES>
24
1 -0.68
12 0.28
13 0.14
15 -0.29
16 0.09
17 0.03
18 0.63
19 -0.18
2 -0.43
20 0.08
21 -0.15
22 0.08
23 -0.15
3 -0.57
4 -0.53
41 0.4
42 0.15
43 0.15
44 0.15
45 0.15
46 0.45
47 0.45
5 -0.53
7 0.28

> <PUBCHEM_EFFECTIVE_ROTOR_COUNT>
1.8

> <PUBCHEM_PHARMACOPHORE_FEATURES>
6
1 1 acceptor
1 1 donor
1 3 acceptor
1 4 donor
1 5 donor
6 16 17 20 21 22 23 rings

> <PUBCHEM_HEAVY_ATOM_COUNT>
23

> <PUBCHEM_ATOM_DEF_STEREO_COUNT>
2

> <PUBCHEM_ATOM_UDEF_STEREO_COUNT>
0

> <PUBCHEM_BOND_DEF_STEREO_COUNT>
1

> <PUBCHEM_BOND_UDEF_STEREO_COUNT>
0

> <PUBCHEM_ISOTOPIC_ATOM_COUNT>
0

> <PUBCHEM_COMPONENT_COUNT>
1

> <PUBCHEM_CACTVS_TAUTO_COUNT>
12

> <PUBCHEM_CONFORMER_ID>
0050A32500000001

> <PUBCHEM_MMFF94_ENERGY>
56.9454

> <PUBCHEM_FEATURE_SELFOVERLAP>
30.446

> <PUBCHEM_SHAPE_FINGERPRINT>
1100329 8 17836085568009856625
11112241 14 16986289841619931392
11578080 2 16734366241365874279
12166972 35 17967822613537111974
12403259 226 18337670931286267939
12506688 2 18412827975731104564
12596599 1 17914633677902020662
12788726 201 17627507133988941776
13140716 1 18267582403486064363
13402501 40 18336828697047978282
13533116 47 18056766653224983451
14251757 17 18262232209996353437
14787075 74 18336834185758012246
14790565 3 17545883724776523813
14866123 147 17767415573386001256
14931854 50 18336551491284682350
15196674 1 18334859415888043750
15322687 12 17104511174142344237
19591789 44 18337109089556020683
19930381 70 18413393137471364090
20028762 73 17044582808783771111
20691752 17 17022900138402631537
20715895 44 17609482839964013085
20832881 197 18343306989256920753
20905425 154 18409167675446349782
22182313 1 18041826412212926463
23227448 37 18189331260828617463
23352939 185 18342462530415398027
23557571 272 17910374109985112994
23559900 14 18335978778501818797
238 59 18196346307921625956
2748010 2 18117544331403189953
3323516 105 18411138077713944259
350125 39 18336268960321048513
3524813 1 18334011700965522918
3680242 22 18116995477305685354
463206 1 18269557311053435927
5265222 85 17471861776259798556
57527585 103 17390829632986241626
59755656 215 18188762977069237031
6443956 14 18340493347406701473
81228 2 17476913559209296171

> <PUBCHEM_SHAPE_MULTIPOLES>
443.98
8.21
4.09
1.18
1.54
0.84
-0.09
-3.84
1.51
-1.8
-1.33
-0.11
0.8
1.1

> <PUBCHEM_SHAPE_SELFOVERLAP>
916.908

> <PUBCHEM_SHAPE_VOLUME>
252.3

> <PUBCHEM_COORDINATE_TYPE>
2
5
10

> <Energy>
40.5071

> <minimizedAffinity>
15.03260

> <CNNscore>
0.1189550534

> <CNNaffinity>
4.2875361443

> <CNN_VS>
0.5100240707

> <CNNaffinity_variance>
1.6428161860

$$$$
5284645


 26 27  0  0  0  0  0  0  0  0999 V2000
    0.7190   -3.6670   19.9872 O   0  0  0  0  0  0  0  0  0  0  0  0
   -4.2326   -2.9017   23.3088 O   0  0  0  0  0  0  0  0  0  0  0  0
   -3.9913   -0.6677   23.8163 O   0  0  0  0  0  0  0  0  0  0  0  0
   -6.7833   -0.1611   24.0527 O   0  0  0  0  0  0  0  0  0  0  0  0
   -9.0049   -0.7192   19.9382 O   0  0  0  0  0  0  0  0  0  0  0  0
    0.0029   -2.7440   22.0908 C   0  0  0  0  0  0  0  0  0  0  0  0
   -0.4168   -3.1198   20.6592 C   0  0  0  0  0  0  0  0  0  0  0  0
   -1.1664   -2.4053   23.0192 C   0  0  0  0  0  0  0  0  0  0  0  0
   -0.9285   -1.9158   19.8535 C   0  0  0  0  0  0  0  0  0  0  0  0
   -1.9442   -3.6466   23.4687 C   0  0  0  0  0  0  0  0  0  0  0  0
   -1.5299   -2.2975   18.4926 C   0  0  0  0  0  0  0  0  0  0  0  0
   -3.2116   -3.2891   24.2520 C   0  0  0  0  0  0  0  0  0  0  0  0
   -2.8484   -3.0761   18.5725 C   0  0  0  0  0  0  0  0  0  0  0  0
   -3.7530   -4.5076   24.9940 C   0  0  0  0  0  0  0  0  0  0  0  0
   -3.9570   -2.2924   19.2210 C   0  0  0  0  0  0  0  0  0  0  0  0
   -5.6440   -1.3966   22.2790 C   0  0  0  0  0  0  0  0  0  0  0  0
   -5.6677   -1.8960   20.9614 C   0  0  0  0  0  0  0  0  0  0  0  0
   -4.4899   -1.5852   23.1822 C   0  0  0  0  0  0  0  0  0  0  0  0
   -4.5635   -2.6614   20.3607 C   0  0  0  0  0  0  0  0  0  0  0  0
   -6.7352   -0.6661   22.7763 C   0  0  0  0  0  0  0  0  0  0  0  0
   -6.8166   -1.6691   20.1783 C   0  0  0  0  0  0  0  0  0  0  0  0
   -7.8911   -0.9459   20.6908 C   0  0  0  0  0  0  0  0  0  0  0  0
   -7.8572   -0.4386   21.9844 C   0  0  0  0  0  0  0  0  0  0  0  0
    1.0532   -4.4292   20.4854 H   0  0  0  0  0  0  0  0  0  0  0  0
   -6.0572   -0.2829   24.6323 H   0  0  0  0  0  0  0  0  0  0  0  0
   -9.0541   -1.0499   19.0630 H   0  0  0  0  0  0  0  0  0  0  0  0
  1  7  1  0
  1 24  1  0
  2 12  1  0
  2 18  1  0
  3 18  2  0
  4 20  1  0
  4 25  1  0
  5 22  1  0
  5 26  1  0
  6  7  1  0
  6  8  1  0
  7  9  1  0
  8 10  1  0
  9 11  1  0
 10 12  1  0
 11 13  1  0
 12 14  1  0
 13 15  1  0
 15 19  2  0
 16 17  2  0
 16 18  1  0
 16 20  1  0
 17 19  1  0
 17 21  1  0
 20 23  2  0
 21 22  2  0
 22 23  1  0
M  END
> <PUBCHEM_COMPOUND_CID>
5284645

> <PUBCHEM_CONFORMER_RMSD>
0.6

> <PUBCHEM_CONFORMER_DIVERSEORDER>
1

> <PUBCHEM_MMFF94_PARTIAL_CHARGES>
24
1 -0.68
12 0.28
13 0.14
15 -0.29
16 0.09
17 0.03
18 0.63
19 -0.18
2 -0.43
20 0.08
21 -0.15
22 0.08
23 -0.15
3 -0.57
4 -0.53
41 0.4
42 0.15
43 0.15
44 0.15
45 0.15
46 0.45
47 0.45
5 -0.53
7 0.28

> <PUBCHEM_EFFECTIVE_ROTOR_COUNT>
1.8

> <PUBCHEM_PHARMACOPHORE_FEATURES>
6
1 1 acceptor
1 1 donor
1 3 acceptor
1 4 donor
1 5 donor
6 16 17 20 21 22 23 rings

> <PUBCHEM_HEAVY_ATOM_COUNT>
23

> <PUBCHEM_ATOM_DEF_STEREO_COUNT>
2

> <PUBCHEM_ATOM_UDEF_STEREO_COUNT>
0

> <PUBCHEM_BOND_DEF_STEREO_COUNT>
1

> <PUBCHEM_BOND_UDEF_STEREO_COUNT>
0

> <PUBCHEM_ISOTOPIC_ATOM_COUNT>
0

> <PUBCHEM_COMPONENT_COUNT>
1

> <PUBCHEM_CACTVS_TAUTO_COUNT>
12

> <PUBCHEM_CONFORMER_ID>
0050A32500000001

> <PUBCHEM_MMFF94_ENERGY>
56.9454

> <PUBCHEM_FEATURE_SELFOVERLAP>
30.446

> <PUBCHEM_SHAPE_FINGERPRINT>
1100329 8 17836085568009856625
11112241 14 16986289841619931392
11578080 2 16734366241365874279
12166972 35 17967822613537111974
12403259 226 18337670931286267939
12506688 2 18412827975731104564
12596599 1 17914633677902020662
12788726 201 17627507133988941776
13140716 1 18267582403486064363
13402501 40 18336828697047978282
13533116 47 18056766653224983451
14251757 17 18262232209996353437
14787075 74 18336834185758012246
14790565 3 17545883724776523813
14866123 147 17767415573386001256
14931854 50 18336551491284682350
15196674 1 18334859415888043750
15322687 12 17104511174142344237
19591789 44 18337109089556020683
19930381 70 18413393137471364090
20028762 73 17044582808783771111
20691752 17 17022900138402631537
20715895 44 17609482839964013085
20832881 197 18343306989256920753
20905425 154 18409167675446349782
22182313 1 18041826412212926463
23227448 37 18189331260828617463
23352939 185 18342462530415398027
23557571 272 17910374109985112994
23559900 14 18335978778501818797
238 59 18196346307921625956
2748010 2 18117544331403189953
3323516 105 18411138077713944259
350125 39 18336268960321048513
3524813 1 18334011700965522918
3680242 22 18116995477305685354
463206 1 18269557311053435927
5265222 85 17471861776259798556
57527585 103 17390829632986241626
59755656 215 18188762977069237031
6443956 14 18340493347406701473
81228 2 17476913559209296171

> <PUBCHEM_SHAPE_MULTIPOLES>
443.98
8.21
4.09
1.18
1.54
0.84
-0.09
-3.84
1.51
-1.8
-1.33
-0.11
0.8
1.1

> <PUBCHEM_SHAPE_SELFOVERLAP>
916.908

> <PUBCHEM_SHAPE_VOLUME>
252.3

> <PUBCHEM_COORDINATE_TYPE>
2
5
10

> <Energy>
40.5071

> <minimizedAffinity>
9.05104

> <CNNscore>
0.1158134043

> <CNNaffinity>
4.4108467102

> <CNN_VS>
0.5108351707

> <CNNaffinity_variance>
0.5628746152

$$$$
5284645


 26 27  0  0  0  0  0  0  0  0999 V2000
   -5.9751   -3.7802   21.7058 O   0  0  0  0  0  0  0  0  0  0  0  0
   -0.4761   -1.8715   20.2041 O   0  0  0  0  0  0  0  0  0  0  0  0
    0.3690   -1.4937   22.3135 O   0  0  0  0  0  0  0  0  0  0  0  0
    3.0765   -2.0027   21.5939 O   0  0  0  0  0  0  0  0  0  0  0  0
    3.7182   -6.4862   20.3049 O   0  0  0  0  0  0  0  0  0  0  0  0
   -4.4231   -2.0002   22.1669 C   0  0  0  0  0  0  0  0  0  0  0  0
   -4.5833   -3.4578   21.7018 C   0  0  0  0  0  0  0  0  0  0  0  0
   -3.0218   -1.4226   21.9503 C   0  0  0  0  0  0  0  0  0  0  0  0
   -3.8474   -4.4562   22.6086 C   0  0  0  0  0  0  0  0  0  0  0  0
   -2.7401   -1.0875   20.4820 C   0  0  0  0  0  0  0  0  0  0  0  0
   -3.8331   -5.8907   22.0593 C   0  0  0  0  0  0  0  0  0  0  0  0
   -1.2830   -0.6760   20.2466 C   0  0  0  0  0  0  0  0  0  0  0  0
   -2.9838   -6.0831   20.7974 C   0  0  0  0  0  0  0  0  0  0  0  0
   -1.1223   -0.0013   18.8875 C   0  0  0  0  0  0  0  0  0  0  0  0
   -1.5240   -5.7949   21.0201 C   0  0  0  0  0  0  0  0  0  0  0  0
    1.1114   -3.3344   21.0149 C   0  0  0  0  0  0  0  0  0  0  0  0
    0.5841   -4.5735   20.5995 C   0  0  0  0  0  0  0  0  0  0  0  0
    0.2602   -2.1595   21.2950 C   0  0  0  0  0  0  0  0  0  0  0  0
   -0.8520   -4.8181   20.3899 C   0  0  0  0  0  0  0  0  0  0  0  0
    2.4949   -3.1836   21.2021 C   0  0  0  0  0  0  0  0  0  0  0  0
    1.4777   -5.6341   20.3519 C   0  0  0  0  0  0  0  0  0  0  0  0
    2.8475   -5.4639   20.5390 C   0  0  0  0  0  0  0  0  0  0  0  0
    3.3629   -4.2460   20.9667 C   0  0  0  0  0  0  0  0  0  0  0  0
   -6.4529   -3.1570   21.1366 H   0  0  0  0  0  0  0  0  0  0  0  0
    2.5426   -1.2523   21.7669 H   0  0  0  0  0  0  0  0  0  0  0  0
    3.3975   -7.3178   20.0159 H   0  0  0  0  0  0  0  0  0  0  0  0
  1  7  1  0
  1 24  1  0
  2 12  1  0
  2 18  1  0
  3 18  2  0
  4 20  1  0
  4 25  1  0
  5 22  1  0
  5 26  1  0
  6  7  1  0
  6  8  1  0
  7  9  1  0
  8 10  1  0
  9 11  1  0
 10 12  1  0
 11 13  1  0
 12 14  1  0
 13 15  1  0
 15 19  2  0
 16 17  2  0
 16 18  1  0
 16 20  1  0
 17 19  1  0
 17 21  1  0
 20 23  2  0
 21 22  2  0
 22 23  1  0
M  END
> <PUBCHEM_COMPOUND_CID>
5284645

> <PUBCHEM_CONFORMER_RMSD>
0.6

> <PUBCHEM_CONFORMER_DIVERSEORDER>
1

> <PUBCHEM_MMFF94_PARTIAL_CHARGES>
24
1 -0.68
12 0.28
13 0.14
15 -0.29
16 0.09
17 0.03
18 0.63
19 -0.18
2 -0.43
20 0.08
21 -0.15
22 0.08
23 -0.15
3 -0.57
4 -0.53
41 0.4
42 0.15
43 0.15
44 0.15
45 0.15
46 0.45
47 0.45
5 -0.53
7 0.28

> <PUBCHEM_EFFECTIVE_ROTOR_COUNT>
1.8

> <PUBCHEM_PHARMACOPHORE_FEATURES>
6
1 1 acceptor
1 1 donor
1 3 acceptor
1 4 donor
1 5 donor
6 16 17 20 21 22 23 rings

> <PUBCHEM_HEAVY_ATOM_COUNT>
23

> <PUBCHEM_ATOM_DEF_STEREO_COUNT>
2

> <PUBCHEM_ATOM_UDEF_STEREO_COUNT>
0

> <PUBCHEM_BOND_DEF_STEREO_COUNT>
1

> <PUBCHEM_BOND_UDEF_STEREO_COUNT>
0

> <PUBCHEM_ISOTOPIC_ATOM_COUNT>
0

> <PUBCHEM_COMPONENT_COUNT>
1

> <PUBCHEM_CACTVS_TAUTO_COUNT>
12

> <PUBCHEM_CONFORMER_ID>
0050A32500000001

> <PUBCHEM_MMFF94_ENERGY>
56.9454

> <PUBCHEM_FEATURE_SELFOVERLAP>
30.446

> <PUBCHEM_SHAPE_FINGERPRINT>
1100329 8 17836085568009856625
11112241 14 16986289841619931392
11578080 2 16734366241365874279
12166972 35 17967822613537111974
12403259 226 18337670931286267939
12506688 2 18412827975731104564
12596599 1 17914633677902020662
12788726 201 17627507133988941776
13140716 1 18267582403486064363
13402501 40 18336828697047978282
13533116 47 18056766653224983451
14251757 17 18262232209996353437
14787075 74 18336834185758012246
14790565 3 17545883724776523813
14866123 147 17767415573386001256
14931854 50 18336551491284682350
15196674 1 18334859415888043750
15322687 12 17104511174142344237
19591789 44 18337109089556020683
19930381 70 18413393137471364090
20028762 73 17044582808783771111
20691752 17 17022900138402631537
20715895 44 17609482839964013085
20832881 197 18343306989256920753
20905425 154 18409167675446349782
22182313 1 18041826412212926463
23227448 37 18189331260828617463
23352939 185 18342462530415398027
23557571 272 17910374109985112994
23559900 14 18335978778501818797
238 59 18196346307921625956
2748010 2 18117544331403189953
3323516 105 18411138077713944259
350125 39 18336268960321048513
3524813 1 18334011700965522918
3680242 22 18116995477305685354
463206 1 18269557311053435927
5265222 85 17471861776259798556
57527585 103 17390829632986241626
59755656 215 18188762977069237031
6443956 14 18340493347406701473
81228 2 17476913559209296171

> <PUBCHEM_SHAPE_MULTIPOLES>
443.98
8.21
4.09
1.18
1.54
0.84
-0.09
-3.84
1.51
-1.8
-1.33
-0.11
0.8
1.1

> <PUBCHEM_SHAPE_SELFOVERLAP>
916.908

> <PUBCHEM_SHAPE_VOLUME>
252.3

> <PUBCHEM_COORDINATE_TYPE>
2
5
10

> <Energy>
40.5071

> <minimizedAffinity>
41.54428

> <CNNscore>
0.1125549674

> <CNNaffinity>
5.2368025780

> <CNN_VS>
0.5894281268

> <CNNaffinity_variance>
0.2037699670

$$$$
5284645


 26 27  0  0  0  0  0  0  0  0999 V2000
   -0.8700   -2.3508   19.7153 O   0  0  0  0  0  0  0  0  0  0  0  0
   -6.4983   -3.4787   21.5004 O   0  0  0  0  0  0  0  0  0  0  0  0
   -6.2595   -5.6936   22.0866 O   0  0  0  0  0  0  0  0  0  0  0  0
   -8.3045   -5.6508   24.0674 O   0  0  0  0  0  0  0  0  0  0  0  0
   -7.1790   -2.8297   27.6660 O   0  0  0  0  0  0  0  0  0  0  0  0
   -2.6392   -3.9546   19.4199 C   0  0  0  0  0  0  0  0  0  0  0  0
   -2.0309   -2.8904   20.3494 C   0  0  0  0  0  0  0  0  0  0  0  0
   -4.0372   -4.4231   19.8323 C   0  0  0  0  0  0  0  0  0  0  0  0
   -1.6217   -3.4584   21.7171 C   0  0  0  0  0  0  0  0  0  0  0  0
   -5.1241   -3.3891   19.5203 C   0  0  0  0  0  0  0  0  0  0  0  0
   -1.1914   -2.3827   22.7258 C   0  0  0  0  0  0  0  0  0  0  0  0
   -6.4892   -3.7873   20.0908 C   0  0  0  0  0  0  0  0  0  0  0  0
   -2.3239   -1.4672   23.2056 C   0  0  0  0  0  0  0  0  0  0  0  0
   -7.6036   -2.9558   19.4624 C   0  0  0  0  0  0  0  0  0  0  0  0
   -3.4059   -2.2065   23.9450 C   0  0  0  0  0  0  0  0  0  0  0  0
   -6.5180   -4.0157   23.7430 C   0  0  0  0  0  0  0  0  0  0  0  0
   -5.7298   -2.9797   24.2828 C   0  0  0  0  0  0  0  0  0  0  0  0
   -6.3506   -4.5063   22.3592 C   0  0  0  0  0  0  0  0  0  0  0  0
   -4.6802   -2.2772   23.5275 C   0  0  0  0  0  0  0  0  0  0  0  0
   -7.4946   -4.6439   24.5326 C   0  0  0  0  0  0  0  0  0  0  0  0
   -5.9683   -2.5780   25.6119 C   0  0  0  0  0  0  0  0  0  0  0  0
   -6.9447   -3.2103   26.3782 C   0  0  0  0  0  0  0  0  0  0  0  0
   -7.7078   -4.2443   25.8489 C   0  0  0  0  0  0  0  0  0  0  0  0
   -1.1136   -1.9881   18.8495 H   0  0  0  0  0  0  0  0  0  0  0  0
   -8.2075   -5.9619   23.1888 H   0  0  0  0  0  0  0  0  0  0  0  0
   -6.6789   -2.1353   28.0476 H   0  0  0  0  0  0  0  0  0  0  0  0
  1  7  1  0
  1 24  1  0
  2 12  1  0
  2 18  1  0
  3 18  2  0
  4 20  1  0
  4 25  1  0
  5 22  1  0
  5 26  1  0
  6  7  1  0
  6  8  1  0
  7  9  1  0
  8 10  1  0
  9 11  1  0
 10 12  1  0
 11 13  1  0
 12 14  1  0
 13 15  1  0
 15 19  2  0
 16 17  2  0
 16 18  1  0
 16 20  1  0
 17 19  1  0
 17 21  1  0
 20 23  2  0
 21 22  2  0
 22 23  1  0
M  END
> <PUBCHEM_COMPOUND_CID>
5284645

> <PUBCHEM_CONFORMER_RMSD>
0.6

> <PUBCHEM_CONFORMER_DIVERSEORDER>
1

> <PUBCHEM_MMFF94_PARTIAL_CHARGES>
24
1 -0.68
12 0.28
13 0.14
15 -0.29
16 0.09
17 0.03
18 0.63
19 -0.18
2 -0.43
20 0.08
21 -0.15
22 0.08
23 -0.15
3 -0.57
4 -0.53
41 0.4
42 0.15
43 0.15
44 0.15
45 0.15
46 0.45
47 0.45
5 -0.53
7 0.28

> <PUBCHEM_EFFECTIVE_ROTOR_COUNT>
1.8

> <PUBCHEM_PHARMACOPHORE_FEATURES>
6
1 1 acceptor
1 1 donor
1 3 acceptor
1 4 donor
1 5 donor
6 16 17 20 21 22 23 rings

> <PUBCHEM_HEAVY_ATOM_COUNT>
23

> <PUBCHEM_ATOM_DEF_STEREO_COUNT>
2

> <PUBCHEM_ATOM_UDEF_STEREO_COUNT>
0

> <PUBCHEM_BOND_DEF_STEREO_COUNT>
1

> <PUBCHEM_BOND_UDEF_STEREO_COUNT>
0

> <PUBCHEM_ISOTOPIC_ATOM_COUNT>
0

> <PUBCHEM_COMPONENT_COUNT>
1

> <PUBCHEM_CACTVS_TAUTO_COUNT>
12

> <PUBCHEM_CONFORMER_ID>
0050A32500000001

> <PUBCHEM_MMFF94_ENERGY>
56.9454

> <PUBCHEM_FEATURE_SELFOVERLAP>
30.446

> <PUBCHEM_SHAPE_FINGERPRINT>
1100329 8 17836085568009856625
11112241 14 16986289841619931392
11578080 2 16734366241365874279
12166972 35 17967822613537111974
12403259 226 18337670931286267939
12506688 2 18412827975731104564
12596599 1 17914633677902020662
12788726 201 17627507133988941776
13140716 1 18267582403486064363
13402501 40 18336828697047978282
13533116 47 18056766653224983451
14251757 17 18262232209996353437
14787075 74 18336834185758012246
14790565 3 17545883724776523813
14866123 147 17767415573386001256
14931854 50 18336551491284682350
15196674 1 18334859415888043750
15322687 12 17104511174142344237
19591789 44 18337109089556020683
19930381 70 18413393137471364090
20028762 73 17044582808783771111
20691752 17 17022900138402631537
20715895 44 17609482839964013085
20832881 197 18343306989256920753
20905425 154 18409167675446349782
22182313 1 18041826412212926463
23227448 37 18189331260828617463
23352939 185 18342462530415398027
23557571 272 17910374109985112994
23559900 14 18335978778501818797
238 59 18196346307921625956
2748010 2 18117544331403189953
3323516 105 18411138077713944259
350125 39 18336268960321048513
3524813 1 18334011700965522918
3680242 22 18116995477305685354
463206 1 18269557311053435927
5265222 85 17471861776259798556
57527585 103 17390829632986241626
59755656 215 18188762977069237031
6443956 14 18340493347406701473
81228 2 17476913559209296171

> <PUBCHEM_SHAPE_MULTIPOLES>
443.98
8.21
4.09
1.18
1.54
0.84
-0.09
-3.84
1.51
-1.8
-1.33
-0.11
0.8
1.1

> <PUBCHEM_SHAPE_SELFOVERLAP>
916.908

> <PUBCHEM_SHAPE_VOLUME>
252.3

> <PUBCHEM_COORDINATE_TYPE>
2
5
10

> <Energy>
40.5071

> <minimizedAffinity>
2.47699

> <CNNscore>
0.1098617539

> <CNNaffinity>
5.6851487160

> <CNN_VS>
0.6245803833

> <CNNaffinity_variance>
0.0027385773

$$$$
