6623


 19 20  0  0  0  0  0  0  0  0999 V2000
   -4.1959   -3.2640   22.0006 C   0  0  0  0  0  0  0  0  0  0  0  0
   -3.7485   -3.1164   23.4809 C   0  0  0  0  0  0  0  0  0  0  0  0
   -5.4455   -2.3533   21.8564 C   0  0  0  0  0  0  0  0  0  0  0  0
   -5.9157   -8.5419   20.5956 O   0  0  0  0  0  0  0  0  0  0  0  0
   -4.6387   -4.6987   21.6248 C   0  0  0  0  0  0  0  0  0  0  0  0
   -5.7807   -4.8863   20.8164 C   0  0  0  0  0  0  0  0  0  0  0  0
   -3.9523   -5.8466   22.0567 C   0  0  0  0  0  0  0  0  0  0  0  0
   -6.2235   -6.1647   20.4641 C   0  0  0  0  0  0  0  0  0  0  0  0
   -4.3915   -7.1261   21.7007 C   0  0  0  0  0  0  0  0  0  0  0  0
   -5.5224   -7.2756   20.9116 C   0  0  0  0  0  0  0  0  0  0  0  0
   -6.6755   -8.6776   20.0643 H   0  0  0  0  0  0  0  0  0  0  0  0
    0.2397   -1.7189   18.7280 O   0  0  0  0  0  0  0  0  0  0  0  0
   -2.9992   -2.8162   21.1282 C   0  0  0  0  0  0  0  0  0  0  0  0
   -3.0106   -3.0755   19.7409 C   0  0  0  0  0  0  0  0  0  0  0  0
   -1.8721   -2.1635   21.6586 C   0  0  0  0  0  0  0  0  0  0  0  0
   -1.9357   -2.7162   18.9229 C   0  0  0  0  0  0  0  0  0  0  0  0
   -0.7991   -1.7990   20.8403 C   0  0  0  0  0  0  0  0  0  0  0  0
   -0.8355   -2.0824   19.4833 C   0  0  0  0  0  0  0  0  0  0  0  0
    0.2471   -1.8958   17.8079 H   0  0  0  0  0  0  0  0  0  0  0  0
  4 10  1  0
  4 11  1  0
 12 18  1  0
 12 19  1  0
  1  5  1  0
  1 13  1  0
  1  2  1  0
  1  3  1  0
  5  6  2  0
  5  7  1  0
 13 14  2  0
 13 15  1  0
  6  8  1  0
 14 16  1  0
  7  9  2  0
 15 17  2  0
  8 10  2  0
 16 18  2  0
  9 10  1  0
 17 18  1  0
M  END
> <PUBCHEM_COMPOUND_CID>
6623

> <PUBCHEM_CONFORMER_RMSD>
0.6

> <PUBCHEM_CONFORMER_DIVERSEORDER>
1
3
2

> <PUBCHEM_MMFF94_PARTIAL_CHARGES>
25
1 -0.53
10 -0.15
11 -0.15
12 -0.15
13 -0.15
14 -0.15
15 -0.15
16 0.08
17 0.08
2 -0.53
24 0.15
25 0.15
26 0.15
27 0.15
28 0.15
29 0.15
3 0.29
30 0.15
31 0.15
32 0.45
33 0.45
4 -0.14
5 -0.14
8 -0.15
9 -0.15

> <PUBCHEM_EFFECTIVE_ROTOR_COUNT>
2

> <PUBCHEM_PHARMACOPHORE_FEATURES>
5
1 1 donor
1 2 donor
3 3 6 7 hydrophobe
6 4 8 10 12 14 16 rings
6 5 9 11 13 15 17 rings

> <PUBCHEM_HEAVY_ATOM_COUNT>
17

> <PUBCHEM_ATOM_DEF_STEREO_COUNT>
0

> <PUBCHEM_ATOM_UDEF_STEREO_COUNT>
0

> <PUBCHEM_BOND_DEF_STEREO_COUNT>
0

> <PUBCHEM_BOND_UDEF_STEREO_COUNT>
0

> <PUBCHEM_ISOTOPIC_ATOM_COUNT>
0

> <PUBCHEM_COMPONENT_COUNT>
1

> <PUBCHEM_CACTVS_TAUTO_COUNT>
3

> <PUBCHEM_CONFORMER_ID>
000019DF00000001

> <PUBCHEM_MMFF94_ENERGY>
64.1206

> <PUBCHEM_FEATURE_SELFOVERLAP>
25.372

> <PUBCHEM_SHAPE_FINGERPRINT>
10465860 228 18265052440146906875
10498660 4 17846494807956907777
10618630 7 8862950471944920352
11046707 91 8574440819802817220
11640471 11 18410569587104953028
12138202 97 17632297942700988494
12251169 10 15719115772587467277
12491281 212 18341893034625719138
12633257 1 15647059291015153984
12788726 201 18049710021441717058
12892183 10 15719384001885322888
13571099 52 18261397711031002503
13764800 53 18340221781019704851
14251764 38 17758668950351880149
14739800 52 17985806350554812304
15061688 2 18410575084673810317
15309172 13 17822005415182549066
15342168 16 18187090559068058613
15375462 189 9295287269996453078
15534591 1 18337673126062282338
15653759 3 15068339003624658237
15775835 57 18410853261110395364
15906896 17 18264490774389428130
16945 1 17917141818369727011
17357779 13 13899614313340361589
1741750 31 18337674225716062138
17804303 29 12829490320433961629
1813 80 17692251833473259110
18186145 218 18334012757179395950
19765921 60 18411697656461014379
19868273 293 17988923409424780430
20291156 8 9223230745321134917
20361792 2 9943803365827786299
204376 136 18186802491163379179
20645476 183 18339358668581405150
20671657 53 12751245791825749096
20871999 31 16988551447065141829
21499 59 18412825772344063143
21524375 3 18410855460138945163
21713013 43 13758065299356720749
21731228 192 17894352193594983955
23184049 59 17894627041684797236
23402539 116 17774993601125170188
23557571 272 16557885966252971863
23559900 14 17561366193283564332
298252 57 18202560691760254914
3472631 163 18202563986327517557
4028521 119 17846780714954732865
4340502 62 18114473262852369283
474 4 18336547123060049707
633830 44 18410010996606913815
7364860 26 17700693965181141591
83771 10 9223230749695054610
94968 8 10663806477749826557
9981440 41 18128808828214612290

> <PUBCHEM_SHAPE_MULTIPOLES>
338.11
7.28
2.04
1.32
0.26
0.87
0
-5.89
0
-0.06
0
0
0.27
-0.69

> <PUBCHEM_SHAPE_SELFOVERLAP>
731.212

> <PUBCHEM_SHAPE_VOLUME>
187.1

> <PUBCHEM_COORDINATE_TYPE>
2
5
10

> <Energy>
42.8498

> <minimizedAffinity>
-7.76798

> <CNNscore>
0.8078292608

> <CNNaffinity>
6.5293426514

> <CNN_VS>
5.2745938301

> <CNNaffinity_variance>
0.2607997954

$$$$
6623


 19 20  0  0  0  0  0  0  0  0999 V2000
   -4.8774   -4.2208   21.3735 C   0  0  0  0  0  0  0  0  0  0  0  0
   -4.8142   -5.2998   22.4893 C   0  0  0  0  0  0  0  0  0  0  0  0
   -5.4265   -4.9568   20.1211 C   0  0  0  0  0  0  0  0  0  0  0  0
    0.2236   -2.1067   19.8572 O   0  0  0  0  0  0  0  0  0  0  0  0
   -3.4940   -3.6445   20.9866 C   0  0  0  0  0  0  0  0  0  0  0  0
   -3.2736   -3.1858   19.6697 C   0  0  0  0  0  0  0  0  0  0  0  0
   -2.4242   -3.5547   21.8937 C   0  0  0  0  0  0  0  0  0  0  0  0
   -2.0359   -2.6704   19.2739 C   0  0  0  0  0  0  0  0  0  0  0  0
   -1.1867   -3.0346   21.5002 C   0  0  0  0  0  0  0  0  0  0  0  0
   -1.0011   -2.6001   20.1960 C   0  0  0  0  0  0  0  0  0  0  0  0
    0.3819   -1.8048   18.9845 H   0  0  0  0  0  0  0  0  0  0  0  0
   -8.3912   -0.0820   23.1885 O   0  0  0  0  0  0  0  0  0  0  0  0
   -5.8098   -3.1002   21.8917 C   0  0  0  0  0  0  0  0  0  0  0  0
   -7.2072   -3.2984   21.8912 C   0  0  0  0  0  0  0  0  0  0  0  0
   -5.3284   -1.8644   22.3595 C   0  0  0  0  0  0  0  0  0  0  0  0
   -8.0857   -2.2997   22.3207 C   0  0  0  0  0  0  0  0  0  0  0  0
   -6.2059   -0.8672   22.7944 C   0  0  0  0  0  0  0  0  0  0  0  0
   -7.5747   -1.0887   22.7663 C   0  0  0  0  0  0  0  0  0  0  0  0
   -9.3208   -0.1991   23.1824 H   0  0  0  0  0  0  0  0  0  0  0  0
  4 10  1  0
  4 11  1  0
 12 18  1  0
 12 19  1  0
  1  5  1  0
  1 13  1  0
  1  2  1  0
  1  3  1  0
  5  6  2  0
  5  7  1  0
 13 14  2  0
 13 15  1  0
  6  8  1  0
 14 16  1  0
  7  9  2  0
 15 17  2  0
  8 10  2  0
 16 18  2  0
  9 10  1  0
 17 18  1  0
M  END
> <PUBCHEM_COMPOUND_CID>
6623

> <PUBCHEM_CONFORMER_RMSD>
0.6

> <PUBCHEM_CONFORMER_DIVERSEORDER>
1
3
2

> <PUBCHEM_MMFF94_PARTIAL_CHARGES>
25
1 -0.53
10 -0.15
11 -0.15
12 -0.15
13 -0.15
14 -0.15
15 -0.15
16 0.08
17 0.08
2 -0.53
24 0.15
25 0.15
26 0.15
27 0.15
28 0.15
29 0.15
3 0.29
30 0.15
31 0.15
32 0.45
33 0.45
4 -0.14
5 -0.14
8 -0.15
9 -0.15

> <PUBCHEM_EFFECTIVE_ROTOR_COUNT>
2

> <PUBCHEM_PHARMACOPHORE_FEATURES>
5
1 1 donor
1 2 donor
3 3 6 7 hydrophobe
6 4 8 10 12 14 16 rings
6 5 9 11 13 15 17 rings

> <PUBCHEM_HEAVY_ATOM_COUNT>
17

> <PUBCHEM_ATOM_DEF_STEREO_COUNT>
0

> <PUBCHEM_ATOM_UDEF_STEREO_COUNT>
0

> <PUBCHEM_BOND_DEF_STEREO_COUNT>
0

> <PUBCHEM_BOND_UDEF_STEREO_COUNT>
0

> <PUBCHEM_ISOTOPIC_ATOM_COUNT>
0

> <PUBCHEM_COMPONENT_COUNT>
1

> <PUBCHEM_CACTVS_TAUTO_COUNT>
3

> <PUBCHEM_CONFORMER_ID>
000019DF00000001

> <PUBCHEM_MMFF94_ENERGY>
64.1206

> <PUBCHEM_FEATURE_SELFOVERLAP>
25.372

> <PUBCHEM_SHAPE_FINGERPRINT>
10465860 228 18265052440146906875
10498660 4 17846494807956907777
10618630 7 8862950471944920352
11046707 91 8574440819802817220
11640471 11 18410569587104953028
12138202 97 17632297942700988494
12251169 10 15719115772587467277
12491281 212 18341893034625719138
12633257 1 15647059291015153984
12788726 201 18049710021441717058
12892183 10 15719384001885322888
13571099 52 18261397711031002503
13764800 53 18340221781019704851
14251764 38 17758668950351880149
14739800 52 17985806350554812304
15061688 2 18410575084673810317
15309172 13 17822005415182549066
15342168 16 18187090559068058613
15375462 189 9295287269996453078
15534591 1 18337673126062282338
15653759 3 15068339003624658237
15775835 57 18410853261110395364
15906896 17 18264490774389428130
16945 1 17917141818369727011
17357779 13 13899614313340361589
1741750 31 18337674225716062138
17804303 29 12829490320433961629
1813 80 17692251833473259110
18186145 218 18334012757179395950
19765921 60 18411697656461014379
19868273 293 17988923409424780430
20291156 8 9223230745321134917
20361792 2 9943803365827786299
204376 136 18186802491163379179
20645476 183 18339358668581405150
20671657 53 12751245791825749096
20871999 31 16988551447065141829
21499 59 18412825772344063143
21524375 3 18410855460138945163
21713013 43 13758065299356720749
21731228 192 17894352193594983955
23184049 59 17894627041684797236
23402539 116 17774993601125170188
23557571 272 16557885966252971863
23559900 14 17561366193283564332
298252 57 18202560691760254914
3472631 163 18202563986327517557
4028521 119 17846780714954732865
4340502 62 18114473262852369283
474 4 18336547123060049707
633830 44 18410010996606913815
7364860 26 17700693965181141591
83771 10 9223230749695054610
94968 8 10663806477749826557
9981440 41 18128808828214612290

> <PUBCHEM_SHAPE_MULTIPOLES>
338.11
7.28
2.04
1.32
0.26
0.87
0
-5.89
0
-0.06
0
0
0.27
-0.69

> <PUBCHEM_SHAPE_SELFOVERLAP>
731.212

> <PUBCHEM_SHAPE_VOLUME>
187.1

> <PUBCHEM_COORDINATE_TYPE>
2
5
10

> <Energy>
42.8498

> <minimizedAffinity>
-8.14182

> <CNNscore>
0.7877357602

> <CNNaffinity>
6.9029045105

> <CNN_VS>
5.4376645088

> <CNNaffinity_variance>
0.9591012001

$$$$
6623


 19 20  0  0  0  0  0  0  0  0999 V2000
   -4.8734   -4.2328   21.3501 C   0  0  0  0  0  0  0  0  0  0  0  0
   -4.8019   -5.3059   22.4710 C   0  0  0  0  0  0  0  0  0  0  0  0
   -5.4372   -4.9740   20.1073 C   0  0  0  0  0  0  0  0  0  0  0  0
    0.2526   -2.1060   19.9401 O   0  0  0  0  0  0  0  0  0  0  0  0
   -3.4925   -3.6624   20.9460 C   0  0  0  0  0  0  0  0  0  0  0  0
   -2.4512   -3.6177   21.8982 C   0  0  0  0  0  0  0  0  0  0  0  0
   -3.2161   -3.1745   19.6572 C   0  0  0  0  0  0  0  0  0  0  0  0
   -1.1928   -3.0985   21.5798 C   0  0  0  0  0  0  0  0  0  0  0  0
   -1.9560   -2.6594   19.3360 C   0  0  0  0  0  0  0  0  0  0  0  0
   -0.9571   -2.6224   20.2977 C   0  0  0  0  0  0  0  0  0  0  0  0
    0.9488   -2.0666   20.5660 H   0  0  0  0  0  0  0  0  0  0  0  0
   -8.3579   -0.0751   23.1784 O   0  0  0  0  0  0  0  0  0  0  0  0
   -5.7975   -3.1068   21.8716 C   0  0  0  0  0  0  0  0  0  0  0  0
   -7.1949   -3.3043   21.8940 C   0  0  0  0  0  0  0  0  0  0  0  0
   -5.3086   -1.8669   22.3203 C   0  0  0  0  0  0  0  0  0  0  0  0
   -8.0663   -2.3010   22.3272 C   0  0  0  0  0  0  0  0  0  0  0  0
   -6.1791   -0.8652   22.7589 C   0  0  0  0  0  0  0  0  0  0  0  0
   -7.5482   -1.0862   22.7536 C   0  0  0  0  0  0  0  0  0  0  0  0
   -9.2875   -0.1917   23.1874 H   0  0  0  0  0  0  0  0  0  0  0  0
  4 10  1  0
  4 11  1  0
 12 18  1  0
 12 19  1  0
  1  5  1  0
  1 13  1  0
  1  2  1  0
  1  3  1  0
  5  6  2  0
  5  7  1  0
 13 14  2  0
 13 15  1  0
  6  8  1  0
 14 16  1  0
  7  9  2  0
 15 17  2  0
  8 10  2  0
 16 18  2  0
  9 10  1  0
 17 18  1  0
M  END
> <PUBCHEM_COMPOUND_CID>
6623

> <PUBCHEM_CONFORMER_RMSD>
0.6

> <PUBCHEM_CONFORMER_DIVERSEORDER>
1
3
2

> <PUBCHEM_MMFF94_PARTIAL_CHARGES>
25
1 -0.53
10 -0.15
11 -0.15
12 -0.15
13 -0.15
14 -0.15
15 -0.15
16 0.08
17 0.08
2 -0.53
24 0.15
25 0.15
26 0.15
27 0.15
28 0.15
29 0.15
3 0.29
30 0.15
31 0.15
32 0.45
33 0.45
4 -0.14
5 -0.14
8 -0.15
9 -0.15

> <PUBCHEM_EFFECTIVE_ROTOR_COUNT>
2

> <PUBCHEM_PHARMACOPHORE_FEATURES>
5
1 1 donor
1 2 donor
3 3 6 7 hydrophobe
6 4 8 10 12 14 16 rings
6 5 9 11 13 15 17 rings

> <PUBCHEM_HEAVY_ATOM_COUNT>
17

> <PUBCHEM_ATOM_DEF_STEREO_COUNT>
0

> <PUBCHEM_ATOM_UDEF_STEREO_COUNT>
0

> <PUBCHEM_BOND_DEF_STEREO_COUNT>
0

> <PUBCHEM_BOND_UDEF_STEREO_COUNT>
0

> <PUBCHEM_ISOTOPIC_ATOM_COUNT>
0

> <PUBCHEM_COMPONENT_COUNT>
1

> <PUBCHEM_CACTVS_TAUTO_COUNT>
3

> <PUBCHEM_CONFORMER_ID>
000019DF00000001

> <PUBCHEM_MMFF94_ENERGY>
64.1206

> <PUBCHEM_FEATURE_SELFOVERLAP>
25.372

> <PUBCHEM_SHAPE_FINGERPRINT>
10465860 228 18265052440146906875
10498660 4 17846494807956907777
10618630 7 8862950471944920352
11046707 91 8574440819802817220
11640471 11 18410569587104953028
12138202 97 17632297942700988494
12251169 10 15719115772587467277
12491281 212 18341893034625719138
12633257 1 15647059291015153984
12788726 201 18049710021441717058
12892183 10 15719384001885322888
13571099 52 18261397711031002503
13764800 53 18340221781019704851
14251764 38 17758668950351880149
14739800 52 17985806350554812304
15061688 2 18410575084673810317
15309172 13 17822005415182549066
15342168 16 18187090559068058613
15375462 189 9295287269996453078
15534591 1 18337673126062282338
15653759 3 15068339003624658237
15775835 57 18410853261110395364
15906896 17 18264490774389428130
16945 1 17917141818369727011
17357779 13 13899614313340361589
1741750 31 18337674225716062138
17804303 29 12829490320433961629
1813 80 17692251833473259110
18186145 218 18334012757179395950
19765921 60 18411697656461014379
19868273 293 17988923409424780430
20291156 8 9223230745321134917
20361792 2 9943803365827786299
204376 136 18186802491163379179
20645476 183 18339358668581405150
20671657 53 12751245791825749096
20871999 31 16988551447065141829
21499 59 18412825772344063143
21524375 3 18410855460138945163
21713013 43 13758065299356720749
21731228 192 17894352193594983955
23184049 59 17894627041684797236
23402539 116 17774993601125170188
23557571 272 16557885966252971863
23559900 14 17561366193283564332
298252 57 18202560691760254914
3472631 163 18202563986327517557
4028521 119 17846780714954732865
4340502 62 18114473262852369283
474 4 18336547123060049707
633830 44 18410010996606913815
7364860 26 17700693965181141591
83771 10 9223230749695054610
94968 8 10663806477749826557
9981440 41 18128808828214612290

> <PUBCHEM_SHAPE_MULTIPOLES>
338.11
7.28
2.04
1.32
0.26
0.87
0
-5.89
0
-0.06
0
0
0.27
-0.69

> <PUBCHEM_SHAPE_SELFOVERLAP>
731.212

> <PUBCHEM_SHAPE_VOLUME>
187.1

> <PUBCHEM_COORDINATE_TYPE>
2
5
10

> <Energy>
42.8498

> <minimizedAffinity>
-8.13729

> <CNNscore>
0.7847763896

> <CNNaffinity>
6.8922944069

> <CNN_VS>
5.4089097977

> <CNNaffinity_variance>
0.9221543670

$$$$
6623


 19 20  0  0  0  0  0  0  0  0999 V2000
   -4.4166   -3.0725   22.0922 C   0  0  0  0  0  0  0  0  0  0  0  0
   -4.5971   -2.8504   23.6190 C   0  0  0  0  0  0  0  0  0  0  0  0
   -5.3986   -2.0789   21.4137 C   0  0  0  0  0  0  0  0  0  0  0  0
   -5.8106   -8.3545   20.3759 O   0  0  0  0  0  0  0  0  0  0  0  0
   -4.8136   -4.4917   21.6188 C   0  0  0  0  0  0  0  0  0  0  0  0
   -4.2596   -5.6207   22.2602 C   0  0  0  0  0  0  0  0  0  0  0  0
   -5.7114   -4.7200   20.5618 C   0  0  0  0  0  0  0  0  0  0  0  0
   -4.5802   -6.9201   21.8563 C   0  0  0  0  0  0  0  0  0  0  0  0
   -6.0368   -6.0197   20.1600 C   0  0  0  0  0  0  0  0  0  0  0  0
   -5.4682   -7.1073   20.8064 C   0  0  0  0  0  0  0  0  0  0  0  0
   -5.4444   -9.1104   20.7911 H   0  0  0  0  0  0  0  0  0  0  0  0
    1.0911   -2.1213   20.8548 O   0  0  0  0  0  0  0  0  0  0  0  0
   -2.9294   -2.7875   21.7746 C   0  0  0  0  0  0  0  0  0  0  0  0
   -2.4787   -2.8377   20.4380 C   0  0  0  0  0  0  0  0  0  0  0  0
   -1.9818   -2.4887   22.7698 C   0  0  0  0  0  0  0  0  0  0  0  0
   -1.1373   -2.6183   20.1120 C   0  0  0  0  0  0  0  0  0  0  0  0
   -0.6413   -2.2638   22.4440 C   0  0  0  0  0  0  0  0  0  0  0  0
   -0.2283   -2.3358   21.1220 C   0  0  0  0  0  0  0  0  0  0  0  0
    1.4031   -2.1627   19.9722 H   0  0  0  0  0  0  0  0  0  0  0  0
  4 10  1  0
  4 11  1  0
 12 18  1  0
 12 19  1  0
  1  5  1  0
  1 13  1  0
  1  2  1  0
  1  3  1  0
  5  6  2  0
  5  7  1  0
 13 14  2  0
 13 15  1  0
  6  8  1  0
 14 16  1  0
  7  9  2  0
 15 17  2  0
  8 10  2  0
 16 18  2  0
  9 10  1  0
 17 18  1  0
M  END
> <PUBCHEM_COMPOUND_CID>
6623

> <PUBCHEM_CONFORMER_RMSD>
0.6

> <PUBCHEM_CONFORMER_DIVERSEORDER>
1
3
2

> <PUBCHEM_MMFF94_PARTIAL_CHARGES>
25
1 -0.53
10 -0.15
11 -0.15
12 -0.15
13 -0.15
14 -0.15
15 -0.15
16 0.08
17 0.08
2 -0.53
24 0.15
25 0.15
26 0.15
27 0.15
28 0.15
29 0.15
3 0.29
30 0.15
31 0.15
32 0.45
33 0.45
4 -0.14
5 -0.14
8 -0.15
9 -0.15

> <PUBCHEM_EFFECTIVE_ROTOR_COUNT>
2

> <PUBCHEM_PHARMACOPHORE_FEATURES>
5
1 1 donor
1 2 donor
3 3 6 7 hydrophobe
6 4 8 10 12 14 16 rings
6 5 9 11 13 15 17 rings

> <PUBCHEM_HEAVY_ATOM_COUNT>
17

> <PUBCHEM_ATOM_DEF_STEREO_COUNT>
0

> <PUBCHEM_ATOM_UDEF_STEREO_COUNT>
0

> <PUBCHEM_BOND_DEF_STEREO_COUNT>
0

> <PUBCHEM_BOND_UDEF_STEREO_COUNT>
0

> <PUBCHEM_ISOTOPIC_ATOM_COUNT>
0

> <PUBCHEM_COMPONENT_COUNT>
1

> <PUBCHEM_CACTVS_TAUTO_COUNT>
3

> <PUBCHEM_CONFORMER_ID>
000019DF00000001

> <PUBCHEM_MMFF94_ENERGY>
64.1206

> <PUBCHEM_FEATURE_SELFOVERLAP>
25.372

> <PUBCHEM_SHAPE_FINGERPRINT>
10465860 228 18265052440146906875
10498660 4 17846494807956907777
10618630 7 8862950471944920352
11046707 91 8574440819802817220
11640471 11 18410569587104953028
12138202 97 17632297942700988494
12251169 10 15719115772587467277
12491281 212 18341893034625719138
12633257 1 15647059291015153984
12788726 201 18049710021441717058
12892183 10 15719384001885322888
13571099 52 18261397711031002503
13764800 53 18340221781019704851
14251764 38 17758668950351880149
14739800 52 17985806350554812304
15061688 2 18410575084673810317
15309172 13 17822005415182549066
15342168 16 18187090559068058613
15375462 189 9295287269996453078
15534591 1 18337673126062282338
15653759 3 15068339003624658237
15775835 57 18410853261110395364
15906896 17 18264490774389428130
16945 1 17917141818369727011
17357779 13 13899614313340361589
1741750 31 18337674225716062138
17804303 29 12829490320433961629
1813 80 17692251833473259110
18186145 218 18334012757179395950
19765921 60 18411697656461014379
19868273 293 17988923409424780430
20291156 8 9223230745321134917
20361792 2 9943803365827786299
204376 136 18186802491163379179
20645476 183 18339358668581405150
20671657 53 12751245791825749096
20871999 31 16988551447065141829
21499 59 18412825772344063143
21524375 3 18410855460138945163
21713013 43 13758065299356720749
21731228 192 17894352193594983955
23184049 59 17894627041684797236
23402539 116 17774993601125170188
23557571 272 16557885966252971863
23559900 14 17561366193283564332
298252 57 18202560691760254914
3472631 163 18202563986327517557
4028521 119 17846780714954732865
4340502 62 18114473262852369283
474 4 18336547123060049707
633830 44 18410010996606913815
7364860 26 17700693965181141591
83771 10 9223230749695054610
94968 8 10663806477749826557
9981440 41 18128808828214612290

> <PUBCHEM_SHAPE_MULTIPOLES>
338.11
7.28
2.04
1.32
0.26
0.87
0
-5.89
0
-0.06
0
0
0.27
-0.69

> <PUBCHEM_SHAPE_SELFOVERLAP>
731.212

> <PUBCHEM_SHAPE_VOLUME>
187.1

> <PUBCHEM_COORDINATE_TYPE>
2
5
10

> <Energy>
42.8498

> <minimizedAffinity>
-7.82867

> <CNNscore>
0.7775068879

> <CNNaffinity>
6.4604721069

> <CNN_VS>
5.0230617523

> <CNNaffinity_variance>
0.1844437122

$$$$
6623


 19 20  0  0  0  0  0  0  0  0999 V2000
   -4.8327   -4.1958   21.3598 C   0  0  0  0  0  0  0  0  0  0  0  0
   -5.3914   -4.9803   20.1410 C   0  0  0  0  0  0  0  0  0  0  0  0
   -4.7126   -5.2416   22.5016 C   0  0  0  0  0  0  0  0  0  0  0  0
   -8.2676   -0.0434   23.2960 O   0  0  0  0  0  0  0  0  0  0  0  0
   -5.7783   -3.0808   21.8683 C   0  0  0  0  0  0  0  0  0  0  0  0
   -5.2338   -1.9279   22.4743 C   0  0  0  0  0  0  0  0  0  0  0  0
   -7.1773   -3.1585   21.7591 C   0  0  0  0  0  0  0  0  0  0  0  0
   -6.0515   -0.9030   22.9595 C   0  0  0  0  0  0  0  0  0  0  0  0
   -7.9964   -2.1314   22.2396 C   0  0  0  0  0  0  0  0  0  0  0  0
   -7.4293   -1.0156   22.8374 C   0  0  0  0  0  0  0  0  0  0  0  0
   -7.9167    0.7232   23.7048 H   0  0  0  0  0  0  0  0  0  0  0  0
    0.1947   -2.0676   19.6373 O   0  0  0  0  0  0  0  0  0  0  0  0
   -3.4741   -3.6004   20.9199 C   0  0  0  0  0  0  0  0  0  0  0  0
   -3.3103   -3.1369   19.5969 C   0  0  0  0  0  0  0  0  0  0  0  0
   -2.3678   -3.5079   21.7831 C   0  0  0  0  0  0  0  0  0  0  0  0
   -2.0901   -2.6218   19.1503 C   0  0  0  0  0  0  0  0  0  0  0  0
   -1.1488   -2.9879   21.3389 C   0  0  0  0  0  0  0  0  0  0  0  0
   -1.0169   -2.5554   20.0278 C   0  0  0  0  0  0  0  0  0  0  0  0
    0.3175   -1.7671   18.7584 H   0  0  0  0  0  0  0  0  0  0  0  0
  4 10  1  0
  4 11  1  0
 12 18  1  0
 12 19  1  0
  1  5  1  0
  1 13  1  0
  1  2  1  0
  1  3  1  0
  5  6  2  0
  5  7  1  0
 13 14  2  0
 13 15  1  0
  6  8  1  0
 14 16  1  0
  7  9  2  0
 15 17  2  0
  8 10  2  0
 16 18  2  0
  9 10  1  0
 17 18  1  0
M  END
> <PUBCHEM_COMPOUND_CID>
6623

> <PUBCHEM_CONFORMER_RMSD>
0.6

> <PUBCHEM_CONFORMER_DIVERSEORDER>
1
3
2

> <PUBCHEM_MMFF94_PARTIAL_CHARGES>
25
1 -0.53
10 -0.15
11 -0.15
12 -0.15
13 -0.15
14 -0.15
15 -0.15
16 0.08
17 0.08
2 -0.53
24 0.15
25 0.15
26 0.15
27 0.15
28 0.15
29 0.15
3 0.29
30 0.15
31 0.15
32 0.45
33 0.45
4 -0.14
5 -0.14
8 -0.15
9 -0.15

> <PUBCHEM_EFFECTIVE_ROTOR_COUNT>
2

> <PUBCHEM_PHARMACOPHORE_FEATURES>
5
1 1 donor
1 2 donor
3 3 6 7 hydrophobe
6 4 8 10 12 14 16 rings
6 5 9 11 13 15 17 rings

> <PUBCHEM_HEAVY_ATOM_COUNT>
17

> <PUBCHEM_ATOM_DEF_STEREO_COUNT>
0

> <PUBCHEM_ATOM_UDEF_STEREO_COUNT>
0

> <PUBCHEM_BOND_DEF_STEREO_COUNT>
0

> <PUBCHEM_BOND_UDEF_STEREO_COUNT>
0

> <PUBCHEM_ISOTOPIC_ATOM_COUNT>
0

> <PUBCHEM_COMPONENT_COUNT>
1

> <PUBCHEM_CACTVS_TAUTO_COUNT>
3

> <PUBCHEM_CONFORMER_ID>
000019DF00000001

> <PUBCHEM_MMFF94_ENERGY>
64.1206

> <PUBCHEM_FEATURE_SELFOVERLAP>
25.372

> <PUBCHEM_SHAPE_FINGERPRINT>
10465860 228 18265052440146906875
10498660 4 17846494807956907777
10618630 7 8862950471944920352
11046707 91 8574440819802817220
11640471 11 18410569587104953028
12138202 97 17632297942700988494
12251169 10 15719115772587467277
12491281 212 18341893034625719138
12633257 1 15647059291015153984
12788726 201 18049710021441717058
12892183 10 15719384001885322888
13571099 52 18261397711031002503
13764800 53 18340221781019704851
14251764 38 17758668950351880149
14739800 52 17985806350554812304
15061688 2 18410575084673810317
15309172 13 17822005415182549066
15342168 16 18187090559068058613
15375462 189 9295287269996453078
15534591 1 18337673126062282338
15653759 3 15068339003624658237
15775835 57 18410853261110395364
15906896 17 18264490774389428130
16945 1 17917141818369727011
17357779 13 13899614313340361589
1741750 31 18337674225716062138
17804303 29 12829490320433961629
1813 80 17692251833473259110
18186145 218 18334012757179395950
19765921 60 18411697656461014379
19868273 293 17988923409424780430
20291156 8 9223230745321134917
20361792 2 9943803365827786299
204376 136 18186802491163379179
20645476 183 18339358668581405150
20671657 53 12751245791825749096
20871999 31 16988551447065141829
21499 59 18412825772344063143
21524375 3 18410855460138945163
21713013 43 13758065299356720749
21731228 192 17894352193594983955
23184049 59 17894627041684797236
23402539 116 17774993601125170188
23557571 272 16557885966252971863
23559900 14 17561366193283564332
298252 57 18202560691760254914
3472631 163 18202563986327517557
4028521 119 17846780714954732865
4340502 62 18114473262852369283
474 4 18336547123060049707
633830 44 18410010996606913815
7364860 26 17700693965181141591
83771 10 9223230749695054610
94968 8 10663806477749826557
9981440 41 18128808828214612290

> <PUBCHEM_SHAPE_MULTIPOLES>
338.11
7.28
2.04
1.32
0.26
0.87
0
-5.89
0
-0.06
0
0
0.27
-0.69

> <PUBCHEM_SHAPE_SELFOVERLAP>
731.212

> <PUBCHEM_SHAPE_VOLUME>
187.1

> <PUBCHEM_COORDINATE_TYPE>
2
5
10

> <Energy>
42.8498

> <minimizedAffinity>
-8.11833

> <CNNscore>
0.7757310867

> <CNNaffinity>
6.9208436012

> <CNN_VS>
5.3687133789

> <CNNaffinity_variance>
0.9760661125

$$$$
6623


 19 20  0  0  0  0  0  0  0  0999 V2000
   -4.4390   -3.0778   22.0900 C   0  0  0  0  0  0  0  0  0  0  0  0
   -5.4152   -2.0898   21.3942 C   0  0  0  0  0  0  0  0  0  0  0  0
   -4.6314   -2.8412   23.6128 C   0  0  0  0  0  0  0  0  0  0  0  0
    1.0676   -2.1083   20.8550 O   0  0  0  0  0  0  0  0  0  0  0  0
   -2.9483   -2.8037   21.7767 C   0  0  0  0  0  0  0  0  0  0  0  0
   -2.4964   -2.8537   20.4401 C   0  0  0  0  0  0  0  0  0  0  0  0
   -2.0020   -2.5047   22.7719 C   0  0  0  0  0  0  0  0  0  0  0  0
   -1.1563   -2.6259   20.1138 C   0  0  0  0  0  0  0  0  0  0  0  0
   -0.6618   -2.2717   22.4461 C   0  0  0  0  0  0  0  0  0  0  0  0
   -0.2492   -2.3367   21.1234 C   0  0  0  0  0  0  0  0  0  0  0  0
    1.3789   -2.1446   19.9720 H   0  0  0  0  0  0  0  0  0  0  0  0
   -5.8104   -8.3646   20.3751 O   0  0  0  0  0  0  0  0  0  0  0  0
   -4.8413   -4.4987   21.6284 C   0  0  0  0  0  0  0  0  0  0  0  0
   -4.3079   -5.6253   22.2906 C   0  0  0  0  0  0  0  0  0  0  0  0
   -5.7173   -4.7307   20.5531 C   0  0  0  0  0  0  0  0  0  0  0  0
   -4.6204   -6.9257   21.8845 C   0  0  0  0  0  0  0  0  0  0  0  0
   -6.0347   -6.0308   20.1499 C   0  0  0  0  0  0  0  0  0  0  0  0
   -5.4810   -7.1161   20.8124 C   0  0  0  0  0  0  0  0  0  0  0  0
   -5.4537   -9.1192   20.8007 H   0  0  0  0  0  0  0  0  0  0  0  0
  4 10  1  0
  4 11  1  0
 12 18  1  0
 12 19  1  0
  1  5  1  0
  1 13  1  0
  1  2  1  0
  1  3  1  0
  5  6  2  0
  5  7  1  0
 13 14  2  0
 13 15  1  0
  6  8  1  0
 14 16  1  0
  7  9  2  0
 15 17  2  0
  8 10  2  0
 16 18  2  0
  9 10  1  0
 17 18  1  0
M  END
> <PUBCHEM_COMPOUND_CID>
6623

> <PUBCHEM_CONFORMER_RMSD>
0.6

> <PUBCHEM_CONFORMER_DIVERSEORDER>
1
3
2

> <PUBCHEM_MMFF94_PARTIAL_CHARGES>
25
1 -0.53
10 -0.15
11 -0.15
12 -0.15
13 -0.15
14 -0.15
15 -0.15
16 0.08
17 0.08
2 -0.53
24 0.15
25 0.15
26 0.15
27 0.15
28 0.15
29 0.15
3 0.29
30 0.15
31 0.15
32 0.45
33 0.45
4 -0.14
5 -0.14
8 -0.15
9 -0.15

> <PUBCHEM_EFFECTIVE_ROTOR_COUNT>
2

> <PUBCHEM_PHARMACOPHORE_FEATURES>
5
1 1 donor
1 2 donor
3 3 6 7 hydrophobe
6 4 8 10 12 14 16 rings
6 5 9 11 13 15 17 rings

> <PUBCHEM_HEAVY_ATOM_COUNT>
17

> <PUBCHEM_ATOM_DEF_STEREO_COUNT>
0

> <PUBCHEM_ATOM_UDEF_STEREO_COUNT>
0

> <PUBCHEM_BOND_DEF_STEREO_COUNT>
0

> <PUBCHEM_BOND_UDEF_STEREO_COUNT>
0

> <PUBCHEM_ISOTOPIC_ATOM_COUNT>
0

> <PUBCHEM_COMPONENT_COUNT>
1

> <PUBCHEM_CACTVS_TAUTO_COUNT>
3

> <PUBCHEM_CONFORMER_ID>
000019DF00000001

> <PUBCHEM_MMFF94_ENERGY>
64.1206

> <PUBCHEM_FEATURE_SELFOVERLAP>
25.372

> <PUBCHEM_SHAPE_FINGERPRINT>
10465860 228 18265052440146906875
10498660 4 17846494807956907777
10618630 7 8862950471944920352
11046707 91 8574440819802817220
11640471 11 18410569587104953028
12138202 97 17632297942700988494
12251169 10 15719115772587467277
12491281 212 18341893034625719138
12633257 1 15647059291015153984
12788726 201 18049710021441717058
12892183 10 15719384001885322888
13571099 52 18261397711031002503
13764800 53 18340221781019704851
14251764 38 17758668950351880149
14739800 52 17985806350554812304
15061688 2 18410575084673810317
15309172 13 17822005415182549066
15342168 16 18187090559068058613
15375462 189 9295287269996453078
15534591 1 18337673126062282338
15653759 3 15068339003624658237
15775835 57 18410853261110395364
15906896 17 18264490774389428130
16945 1 17917141818369727011
17357779 13 13899614313340361589
1741750 31 18337674225716062138
17804303 29 12829490320433961629
1813 80 17692251833473259110
18186145 218 18334012757179395950
19765921 60 18411697656461014379
19868273 293 17988923409424780430
20291156 8 9223230745321134917
20361792 2 9943803365827786299
204376 136 18186802491163379179
20645476 183 18339358668581405150
20671657 53 12751245791825749096
20871999 31 16988551447065141829
21499 59 18412825772344063143
21524375 3 18410855460138945163
21713013 43 13758065299356720749
21731228 192 17894352193594983955
23184049 59 17894627041684797236
23402539 116 17774993601125170188
23557571 272 16557885966252971863
23559900 14 17561366193283564332
298252 57 18202560691760254914
3472631 163 18202563986327517557
4028521 119 17846780714954732865
4340502 62 18114473262852369283
474 4 18336547123060049707
633830 44 18410010996606913815
7364860 26 17700693965181141591
83771 10 9223230749695054610
94968 8 10663806477749826557
9981440 41 18128808828214612290

> <PUBCHEM_SHAPE_MULTIPOLES>
338.11
7.28
2.04
1.32
0.26
0.87
0
-5.89
0
-0.06
0
0
0.27
-0.69

> <PUBCHEM_SHAPE_SELFOVERLAP>
731.212

> <PUBCHEM_SHAPE_VOLUME>
187.1

> <PUBCHEM_COORDINATE_TYPE>
2
5
10

> <Energy>
42.8498

> <minimizedAffinity>
-7.81850

> <CNNscore>
0.7712437510

> <CNNaffinity>
6.4456729889

> <CNN_VS>
4.9711852074

> <CNNaffinity_variance>
0.1795962900

$$$$
6623


 19 20  0  0  0  0  0  0  0  0999 V2000
   -4.8063   -4.1623   21.3495 C   0  0  0  0  0  0  0  0  0  0  0  0
   -4.6919   -5.2026   22.4974 C   0  0  0  0  0  0  0  0  0  0  0  0
   -5.3815   -4.9476   20.1393 C   0  0  0  0  0  0  0  0  0  0  0  0
    0.2095   -2.0192   19.6069 O   0  0  0  0  0  0  0  0  0  0  0  0
   -3.4448   -3.5785   20.9012 C   0  0  0  0  0  0  0  0  0  0  0  0
   -3.2915   -3.1020   19.5812 C   0  0  0  0  0  0  0  0  0  0  0  0
   -2.3308   -3.4989   21.7544 C   0  0  0  0  0  0  0  0  0  0  0  0
   -2.0758   -2.5791   19.1305 C   0  0  0  0  0  0  0  0  0  0  0  0
   -1.1153   -2.9714   21.3061 C   0  0  0  0  0  0  0  0  0  0  0  0
   -0.9960   -2.5193   20.0002 C   0  0  0  0  0  0  0  0  0  0  0  0
    0.3235   -1.7055   18.7314 H   0  0  0  0  0  0  0  0  0  0  0  0
   -8.2109   -0.0154   23.3452 O   0  0  0  0  0  0  0  0  0  0  0  0
   -5.7403   -3.0392   21.8594 C   0  0  0  0  0  0  0  0  0  0  0  0
   -5.1909   -1.9225   22.5252 C   0  0  0  0  0  0  0  0  0  0  0  0
   -7.1373   -3.0806   21.7029 C   0  0  0  0  0  0  0  0  0  0  0  0
   -6.0022   -0.9021   23.0294 C   0  0  0  0  0  0  0  0  0  0  0  0
   -7.9488   -2.0579   22.2020 C   0  0  0  0  0  0  0  0  0  0  0  0
   -7.3779   -0.9820   22.8652 C   0  0  0  0  0  0  0  0  0  0  0  0
   -7.8576    0.7249   23.7980 H   0  0  0  0  0  0  0  0  0  0  0  0
  4 10  1  0
  4 11  1  0
 12 18  1  0
 12 19  1  0
  1  5  1  0
  1 13  1  0
  1  2  1  0
  1  3  1  0
  5  6  2  0
  5  7  1  0
 13 14  2  0
 13 15  1  0
  6  8  1  0
 14 16  1  0
  7  9  2  0
 15 17  2  0
  8 10  2  0
 16 18  2  0
  9 10  1  0
 17 18  1  0
M  END
> <PUBCHEM_COMPOUND_CID>
6623

> <PUBCHEM_CONFORMER_RMSD>
0.6

> <PUBCHEM_CONFORMER_DIVERSEORDER>
1
3
2

> <PUBCHEM_MMFF94_PARTIAL_CHARGES>
25
1 -0.53
10 -0.15
11 -0.15
12 -0.15
13 -0.15
14 -0.15
15 -0.15
16 0.08
17 0.08
2 -0.53
24 0.15
25 0.15
26 0.15
27 0.15
28 0.15
29 0.15
3 0.29
30 0.15
31 0.15
32 0.45
33 0.45
4 -0.14
5 -0.14
8 -0.15
9 -0.15

> <PUBCHEM_EFFECTIVE_ROTOR_COUNT>
2

> <PUBCHEM_PHARMACOPHORE_FEATURES>
5
1 1 donor
1 2 donor
3 3 6 7 hydrophobe
6 4 8 10 12 14 16 rings
6 5 9 11 13 15 17 rings

> <PUBCHEM_HEAVY_ATOM_COUNT>
17

> <PUBCHEM_ATOM_DEF_STEREO_COUNT>
0

> <PUBCHEM_ATOM_UDEF_STEREO_COUNT>
0

> <PUBCHEM_BOND_DEF_STEREO_COUNT>
0

> <PUBCHEM_BOND_UDEF_STEREO_COUNT>
0

> <PUBCHEM_ISOTOPIC_ATOM_COUNT>
0

> <PUBCHEM_COMPONENT_COUNT>
1

> <PUBCHEM_CACTVS_TAUTO_COUNT>
3

> <PUBCHEM_CONFORMER_ID>
000019DF00000001

> <PUBCHEM_MMFF94_ENERGY>
64.1206

> <PUBCHEM_FEATURE_SELFOVERLAP>
25.372

> <PUBCHEM_SHAPE_FINGERPRINT>
10465860 228 18265052440146906875
10498660 4 17846494807956907777
10618630 7 8862950471944920352
11046707 91 8574440819802817220
11640471 11 18410569587104953028
12138202 97 17632297942700988494
12251169 10 15719115772587467277
12491281 212 18341893034625719138
12633257 1 15647059291015153984
12788726 201 18049710021441717058
12892183 10 15719384001885322888
13571099 52 18261397711031002503
13764800 53 18340221781019704851
14251764 38 17758668950351880149
14739800 52 17985806350554812304
15061688 2 18410575084673810317
15309172 13 17822005415182549066
15342168 16 18187090559068058613
15375462 189 9295287269996453078
15534591 1 18337673126062282338
15653759 3 15068339003624658237
15775835 57 18410853261110395364
15906896 17 18264490774389428130
16945 1 17917141818369727011
17357779 13 13899614313340361589
1741750 31 18337674225716062138
17804303 29 12829490320433961629
1813 80 17692251833473259110
18186145 218 18334012757179395950
19765921 60 18411697656461014379
19868273 293 17988923409424780430
20291156 8 9223230745321134917
20361792 2 9943803365827786299
204376 136 18186802491163379179
20645476 183 18339358668581405150
20671657 53 12751245791825749096
20871999 31 16988551447065141829
21499 59 18412825772344063143
21524375 3 18410855460138945163
21713013 43 13758065299356720749
21731228 192 17894352193594983955
23184049 59 17894627041684797236
23402539 116 17774993601125170188
23557571 272 16557885966252971863
23559900 14 17561366193283564332
298252 57 18202560691760254914
3472631 163 18202563986327517557
4028521 119 17846780714954732865
4340502 62 18114473262852369283
474 4 18336547123060049707
633830 44 18410010996606913815
7364860 26 17700693965181141591
83771 10 9223230749695054610
94968 8 10663806477749826557
9981440 41 18128808828214612290

> <PUBCHEM_SHAPE_MULTIPOLES>
338.11
7.28
2.04
1.32
0.26
0.87
0
-5.89
0
-0.06
0
0
0.27
-0.69

> <PUBCHEM_SHAPE_SELFOVERLAP>
731.212

> <PUBCHEM_SHAPE_VOLUME>
187.1

> <PUBCHEM_COORDINATE_TYPE>
2
5
10

> <Energy>
42.8498

> <minimizedAffinity>
-8.14613

> <CNNscore>
0.7684249282

> <CNNaffinity>
6.9102015495

> <CNN_VS>
5.3099713326

> <CNNaffinity_variance>
0.9410254359

$$$$
6623


 19 20  0  0  0  0  0  0  0  0999 V2000
   -3.2925   -2.8852   22.6325 C   0  0  0  0  0  0  0  0  0  0  0  0
   -2.4571   -3.6255   23.7128 C   0  0  0  0  0  0  0  0  0  0  0  0
   -3.8267   -1.6055   23.3318 C   0  0  0  0  0  0  0  0  0  0  0  0
   -7.9129   -5.7634   20.8559 O   0  0  0  0  0  0  0  0  0  0  0  0
   -4.5276   -3.6819   22.1472 C   0  0  0  0  0  0  0  0  0  0  0  0
   -5.6837   -2.9885   21.7282 C   0  0  0  0  0  0  0  0  0  0  0  0
   -4.5605   -5.0863   22.1038 C   0  0  0  0  0  0  0  0  0  0  0  0
   -6.8259   -3.6685   21.2952 C   0  0  0  0  0  0  0  0  0  0  0  0
   -5.7010   -5.7678   21.6660 C   0  0  0  0  0  0  0  0  0  0  0  0
   -6.8233   -5.0560   21.2688 C   0  0  0  0  0  0  0  0  0  0  0  0
   -8.6872   -5.3130   20.5811 H   0  0  0  0  0  0  0  0  0  0  0  0
    0.2589   -1.6869   18.3055 O   0  0  0  0  0  0  0  0  0  0  0  0
   -2.3344   -2.5925   21.4535 C   0  0  0  0  0  0  0  0  0  0  0  0
   -1.1040   -1.9454   21.6976 C   0  0  0  0  0  0  0  0  0  0  0  0
   -2.6379   -2.9320   20.1230 C   0  0  0  0  0  0  0  0  0  0  0  0
   -0.2246   -1.6341   20.6567 C   0  0  0  0  0  0  0  0  0  0  0  0
   -1.7566   -2.6259   19.0822 C   0  0  0  0  0  0  0  0  0  0  0  0
   -0.5624   -1.9756   19.3546 C   0  0  0  0  0  0  0  0  0  0  0  0
    1.0732   -1.2482   18.4550 H   0  0  0  0  0  0  0  0  0  0  0  0
  4 10  1  0
  4 11  1  0
 12 18  1  0
 12 19  1  0
  1  5  1  0
  1 13  1  0
  1  2  1  0
  1  3  1  0
  5  6  2  0
  5  7  1  0
 13 14  2  0
 13 15  1  0
  6  8  1  0
 14 16  1  0
  7  9  2  0
 15 17  2  0
  8 10  2  0
 16 18  2  0
  9 10  1  0
 17 18  1  0
M  END
> <PUBCHEM_COMPOUND_CID>
6623

> <PUBCHEM_CONFORMER_RMSD>
0.6

> <PUBCHEM_CONFORMER_DIVERSEORDER>
1
3
2

> <PUBCHEM_MMFF94_PARTIAL_CHARGES>
25
1 -0.53
10 -0.15
11 -0.15
12 -0.15
13 -0.15
14 -0.15
15 -0.15
16 0.08
17 0.08
2 -0.53
24 0.15
25 0.15
26 0.15
27 0.15
28 0.15
29 0.15
3 0.29
30 0.15
31 0.15
32 0.45
33 0.45
4 -0.14
5 -0.14
8 -0.15
9 -0.15

> <PUBCHEM_EFFECTIVE_ROTOR_COUNT>
2

> <PUBCHEM_PHARMACOPHORE_FEATURES>
5
1 1 donor
1 2 donor
3 3 6 7 hydrophobe
6 4 8 10 12 14 16 rings
6 5 9 11 13 15 17 rings

> <PUBCHEM_HEAVY_ATOM_COUNT>
17

> <PUBCHEM_ATOM_DEF_STEREO_COUNT>
0

> <PUBCHEM_ATOM_UDEF_STEREO_COUNT>
0

> <PUBCHEM_BOND_DEF_STEREO_COUNT>
0

> <PUBCHEM_BOND_UDEF_STEREO_COUNT>
0

> <PUBCHEM_ISOTOPIC_ATOM_COUNT>
0

> <PUBCHEM_COMPONENT_COUNT>
1

> <PUBCHEM_CACTVS_TAUTO_COUNT>
3

> <PUBCHEM_CONFORMER_ID>
000019DF00000001

> <PUBCHEM_MMFF94_ENERGY>
64.1206

> <PUBCHEM_FEATURE_SELFOVERLAP>
25.372

> <PUBCHEM_SHAPE_FINGERPRINT>
10465860 228 18265052440146906875
10498660 4 17846494807956907777
10618630 7 8862950471944920352
11046707 91 8574440819802817220
11640471 11 18410569587104953028
12138202 97 17632297942700988494
12251169 10 15719115772587467277
12491281 212 18341893034625719138
12633257 1 15647059291015153984
12788726 201 18049710021441717058
12892183 10 15719384001885322888
13571099 52 18261397711031002503
13764800 53 18340221781019704851
14251764 38 17758668950351880149
14739800 52 17985806350554812304
15061688 2 18410575084673810317
15309172 13 17822005415182549066
15342168 16 18187090559068058613
15375462 189 9295287269996453078
15534591 1 18337673126062282338
15653759 3 15068339003624658237
15775835 57 18410853261110395364
15906896 17 18264490774389428130
16945 1 17917141818369727011
17357779 13 13899614313340361589
1741750 31 18337674225716062138
17804303 29 12829490320433961629
1813 80 17692251833473259110
18186145 218 18334012757179395950
19765921 60 18411697656461014379
19868273 293 17988923409424780430
20291156 8 9223230745321134917
20361792 2 9943803365827786299
204376 136 18186802491163379179
20645476 183 18339358668581405150
20671657 53 12751245791825749096
20871999 31 16988551447065141829
21499 59 18412825772344063143
21524375 3 18410855460138945163
21713013 43 13758065299356720749
21731228 192 17894352193594983955
23184049 59 17894627041684797236
23402539 116 17774993601125170188
23557571 272 16557885966252971863
23559900 14 17561366193283564332
298252 57 18202560691760254914
3472631 163 18202563986327517557
4028521 119 17846780714954732865
4340502 62 18114473262852369283
474 4 18336547123060049707
633830 44 18410010996606913815
7364860 26 17700693965181141591
83771 10 9223230749695054610
94968 8 10663806477749826557
9981440 41 18128808828214612290

> <PUBCHEM_SHAPE_MULTIPOLES>
338.11
7.28
2.04
1.32
0.26
0.87
0
-5.89
0
-0.06
0
0
0.27
-0.69

> <PUBCHEM_SHAPE_SELFOVERLAP>
731.212

> <PUBCHEM_SHAPE_VOLUME>
187.1

> <PUBCHEM_COORDINATE_TYPE>
2
5
10

> <Energy>
42.8498

> <minimizedAffinity>
-6.93559

> <CNNscore>
0.7675763369

> <CNNaffinity>
6.7185893059

> <CNN_VS>
5.1570301056

> <CNNaffinity_variance>
0.5862802863

$$$$
6623


 19 20  0  0  0  0  0  0  0  0999 V2000
   -4.8492   -4.2788   21.3089 C   0  0  0  0  0  0  0  0  0  0  0  0
   -5.4348   -5.0604   20.1009 C   0  0  0  0  0  0  0  0  0  0  0  0
   -4.7309   -5.3210   22.4542 C   0  0  0  0  0  0  0  0  0  0  0  0
   -8.1967   -0.0664   23.2683 O   0  0  0  0  0  0  0  0  0  0  0  0
   -5.7713   -3.1471   21.8236 C   0  0  0  0  0  0  0  0  0  0  0  0
   -5.2030   -2.0099   22.4374 C   0  0  0  0  0  0  0  0  0  0  0  0
   -7.1716   -3.1943   21.7127 C   0  0  0  0  0  0  0  0  0  0  0  0
   -5.9991   -0.9709   22.9283 C   0  0  0  0  0  0  0  0  0  0  0  0
   -7.9690   -2.1530   22.1990 C   0  0  0  0  0  0  0  0  0  0  0  0
   -7.3789   -1.0533   22.8043 C   0  0  0  0  0  0  0  0  0  0  0  0
   -7.8300    0.6899   23.6822 H   0  0  0  0  0  0  0  0  0  0  0  0
    0.1947   -2.0943   19.7096 O   0  0  0  0  0  0  0  0  0  0  0  0
   -3.4873   -3.7063   20.8494 C   0  0  0  0  0  0  0  0  0  0  0  0
   -2.3812   -3.7470   21.7253 C   0  0  0  0  0  0  0  0  0  0  0  0
   -3.2939   -3.1234   19.5843 C   0  0  0  0  0  0  0  0  0  0  0  0
   -1.1424   -3.2120   21.3611 C   0  0  0  0  0  0  0  0  0  0  0  0
   -2.0539   -2.5931   19.2173 C   0  0  0  0  0  0  0  0  0  0  0  0
   -0.9915   -2.6354   20.1077 C   0  0  0  0  0  0  0  0  0  0  0  0
    0.9325   -2.1065   20.2871 H   0  0  0  0  0  0  0  0  0  0  0  0
  4 10  1  0
  4 11  1  0
 12 18  1  0
 12 19  1  0
  1  5  1  0
  1 13  1  0
  1  2  1  0
  1  3  1  0
  5  6  2  0
  5  7  1  0
 13 14  2  0
 13 15  1  0
  6  8  1  0
 14 16  1  0
  7  9  2  0
 15 17  2  0
  8 10  2  0
 16 18  2  0
  9 10  1  0
 17 18  1  0
M  END
> <PUBCHEM_COMPOUND_CID>
6623

> <PUBCHEM_CONFORMER_RMSD>
0.6

> <PUBCHEM_CONFORMER_DIVERSEORDER>
1
3
2

> <PUBCHEM_MMFF94_PARTIAL_CHARGES>
25
1 -0.53
10 -0.15
11 -0.15
12 -0.15
13 -0.15
14 -0.15
15 -0.15
16 0.08
17 0.08
2 -0.53
24 0.15
25 0.15
26 0.15
27 0.15
28 0.15
29 0.15
3 0.29
30 0.15
31 0.15
32 0.45
33 0.45
4 -0.14
5 -0.14
8 -0.15
9 -0.15

> <PUBCHEM_EFFECTIVE_ROTOR_COUNT>
2

> <PUBCHEM_PHARMACOPHORE_FEATURES>
5
1 1 donor
1 2 donor
3 3 6 7 hydrophobe
6 4 8 10 12 14 16 rings
6 5 9 11 13 15 17 rings

> <PUBCHEM_HEAVY_ATOM_COUNT>
17

> <PUBCHEM_ATOM_DEF_STEREO_COUNT>
0

> <PUBCHEM_ATOM_UDEF_STEREO_COUNT>
0

> <PUBCHEM_BOND_DEF_STEREO_COUNT>
0

> <PUBCHEM_BOND_UDEF_STEREO_COUNT>
0

> <PUBCHEM_ISOTOPIC_ATOM_COUNT>
0

> <PUBCHEM_COMPONENT_COUNT>
1

> <PUBCHEM_CACTVS_TAUTO_COUNT>
3

> <PUBCHEM_CONFORMER_ID>
000019DF00000001

> <PUBCHEM_MMFF94_ENERGY>
64.1206

> <PUBCHEM_FEATURE_SELFOVERLAP>
25.372

> <PUBCHEM_SHAPE_FINGERPRINT>
10465860 228 18265052440146906875
10498660 4 17846494807956907777
10618630 7 8862950471944920352
11046707 91 8574440819802817220
11640471 11 18410569587104953028
12138202 97 17632297942700988494
12251169 10 15719115772587467277
12491281 212 18341893034625719138
12633257 1 15647059291015153984
12788726 201 18049710021441717058
12892183 10 15719384001885322888
13571099 52 18261397711031002503
13764800 53 18340221781019704851
14251764 38 17758668950351880149
14739800 52 17985806350554812304
15061688 2 18410575084673810317
15309172 13 17822005415182549066
15342168 16 18187090559068058613
15375462 189 9295287269996453078
15534591 1 18337673126062282338
15653759 3 15068339003624658237
15775835 57 18410853261110395364
15906896 17 18264490774389428130
16945 1 17917141818369727011
17357779 13 13899614313340361589
1741750 31 18337674225716062138
17804303 29 12829490320433961629
1813 80 17692251833473259110
18186145 218 18334012757179395950
19765921 60 18411697656461014379
19868273 293 17988923409424780430
20291156 8 9223230745321134917
20361792 2 9943803365827786299
204376 136 18186802491163379179
20645476 183 18339358668581405150
20671657 53 12751245791825749096
20871999 31 16988551447065141829
21499 59 18412825772344063143
21524375 3 18410855460138945163
21713013 43 13758065299356720749
21731228 192 17894352193594983955
23184049 59 17894627041684797236
23402539 116 17774993601125170188
23557571 272 16557885966252971863
23559900 14 17561366193283564332
298252 57 18202560691760254914
3472631 163 18202563986327517557
4028521 119 17846780714954732865
4340502 62 18114473262852369283
474 4 18336547123060049707
633830 44 18410010996606913815
7364860 26 17700693965181141591
83771 10 9223230749695054610
94968 8 10663806477749826557
9981440 41 18128808828214612290

> <PUBCHEM_SHAPE_MULTIPOLES>
338.11
7.28
2.04
1.32
0.26
0.87
0
-5.89
0
-0.06
0
0
0.27
-0.69

> <PUBCHEM_SHAPE_SELFOVERLAP>
731.212

> <PUBCHEM_SHAPE_VOLUME>
187.1

> <PUBCHEM_COORDINATE_TYPE>
2
5
10

> <Energy>
42.8498

> <minimizedAffinity>
-8.10118

> <CNNscore>
0.7503930926

> <CNNaffinity>
6.8912148476

> <CNN_VS>
5.1711201668

> <CNNaffinity_variance>
0.9451837540

$$$$
