6623


 19 20  0  0  0  0  0  0  0  0999 V2000
   -4.6083   -4.8479   21.0175 C   0  0  0  0  0  0  0  0  0  0  0  0
   -4.3290   -6.1450   21.8254 C   0  0  0  0  0  0  0  0  0  0  0  0
   -5.2405   -5.3243   19.6814 C   0  0  0  0  0  0  0  0  0  0  0  0
    0.1273   -1.8874   19.7536 O   0  0  0  0  0  0  0  0  0  0  0  0
   -3.3302   -4.0547   20.6531 C   0  0  0  0  0  0  0  0  0  0  0  0
   -2.3950   -3.7381   21.6622 C   0  0  0  0  0  0  0  0  0  0  0  0
   -3.0474   -3.6221   19.3461 C   0  0  0  0  0  0  0  0  0  0  0  0
   -1.2342   -3.0121   21.3798 C   0  0  0  0  0  0  0  0  0  0  0  0
   -1.8838   -2.8999   19.0613 C   0  0  0  0  0  0  0  0  0  0  0  0
   -0.9896   -2.5984   20.0779 C   0  0  0  0  0  0  0  0  0  0  0  0
    0.7515   -1.6672   20.4168 H   0  0  0  0  0  0  0  0  0  0  0  0
   -8.2015   -1.7462   24.2174 O   0  0  0  0  0  0  0  0  0  0  0  0
   -5.5595   -3.9840   21.8793 C   0  0  0  0  0  0  0  0  0  0  0  0
   -5.9889   -4.4603   23.1367 C   0  0  0  0  0  0  0  0  0  0  0  0
   -6.0388   -2.7300   21.4606 C   0  0  0  0  0  0  0  0  0  0  0  0
   -6.8730   -3.7256   23.9318 C   0  0  0  0  0  0  0  0  0  0  0  0
   -6.9186   -1.9922   22.2576 C   0  0  0  0  0  0  0  0  0  0  0  0
   -7.3332   -2.4963   23.4813 C   0  0  0  0  0  0  0  0  0  0  0  0
   -8.5013   -2.0578   25.0487 H   0  0  0  0  0  0  0  0  0  0  0  0
  4 10  1  0
  4 11  1  0
 12 18  1  0
 12 19  1  0
  1  5  1  0
  1 13  1  0
  1  2  1  0
  1  3  1  0
  5  6  2  0
  5  7  1  0
 13 14  2  0
 13 15  1  0
  6  8  1  0
 14 16  1  0
  7  9  2  0
 15 17  2  0
  8 10  2  0
 16 18  2  0
  9 10  1  0
 17 18  1  0
M  END
> <PUBCHEM_COMPOUND_CID>
6623

> <PUBCHEM_CONFORMER_RMSD>
0.6

> <PUBCHEM_CONFORMER_DIVERSEORDER>
1
3
2

> <PUBCHEM_MMFF94_PARTIAL_CHARGES>
25
1 -0.53
10 -0.15
11 -0.15
12 -0.15
13 -0.15
14 -0.15
15 -0.15
16 0.08
17 0.08
2 -0.53
24 0.15
25 0.15
26 0.15
27 0.15
28 0.15
29 0.15
3 0.29
30 0.15
31 0.15
32 0.45
33 0.45
4 -0.14
5 -0.14
8 -0.15
9 -0.15

> <PUBCHEM_EFFECTIVE_ROTOR_COUNT>
2

> <PUBCHEM_PHARMACOPHORE_FEATURES>
5
1 1 donor
1 2 donor
3 3 6 7 hydrophobe
6 4 8 10 12 14 16 rings
6 5 9 11 13 15 17 rings

> <PUBCHEM_HEAVY_ATOM_COUNT>
17

> <PUBCHEM_ATOM_DEF_STEREO_COUNT>
0

> <PUBCHEM_ATOM_UDEF_STEREO_COUNT>
0

> <PUBCHEM_BOND_DEF_STEREO_COUNT>
0

> <PUBCHEM_BOND_UDEF_STEREO_COUNT>
0

> <PUBCHEM_ISOTOPIC_ATOM_COUNT>
0

> <PUBCHEM_COMPONENT_COUNT>
1

> <PUBCHEM_CACTVS_TAUTO_COUNT>
3

> <PUBCHEM_CONFORMER_ID>
000019DF00000001

> <PUBCHEM_MMFF94_ENERGY>
64.1206

> <PUBCHEM_FEATURE_SELFOVERLAP>
25.372

> <PUBCHEM_SHAPE_FINGERPRINT>
10465860 228 18265052440146906875
10498660 4 17846494807956907777
10618630 7 8862950471944920352
11046707 91 8574440819802817220
11640471 11 18410569587104953028
12138202 97 17632297942700988494
12251169 10 15719115772587467277
12491281 212 18341893034625719138
12633257 1 15647059291015153984
12788726 201 18049710021441717058
12892183 10 15719384001885322888
13571099 52 18261397711031002503
13764800 53 18340221781019704851
14251764 38 17758668950351880149
14739800 52 17985806350554812304
15061688 2 18410575084673810317
15309172 13 17822005415182549066
15342168 16 18187090559068058613
15375462 189 9295287269996453078
15534591 1 18337673126062282338
15653759 3 15068339003624658237
15775835 57 18410853261110395364
15906896 17 18264490774389428130
16945 1 17917141818369727011
17357779 13 13899614313340361589
1741750 31 18337674225716062138
17804303 29 12829490320433961629
1813 80 17692251833473259110
18186145 218 18334012757179395950
19765921 60 18411697656461014379
19868273 293 17988923409424780430
20291156 8 9223230745321134917
20361792 2 9943803365827786299
204376 136 18186802491163379179
20645476 183 18339358668581405150
20671657 53 12751245791825749096
20871999 31 16988551447065141829
21499 59 18412825772344063143
21524375 3 18410855460138945163
21713013 43 13758065299356720749
21731228 192 17894352193594983955
23184049 59 17894627041684797236
23402539 116 17774993601125170188
23557571 272 16557885966252971863
23559900 14 17561366193283564332
298252 57 18202560691760254914
3472631 163 18202563986327517557
4028521 119 17846780714954732865
4340502 62 18114473262852369283
474 4 18336547123060049707
633830 44 18410010996606913815
7364860 26 17700693965181141591
83771 10 9223230749695054610
94968 8 10663806477749826557
9981440 41 18128808828214612290

> <PUBCHEM_SHAPE_MULTIPOLES>
338.11
7.28
2.04
1.32
0.26
0.87
0
-5.89
0
-0.06
0
0
0.27
-0.69

> <PUBCHEM_SHAPE_SELFOVERLAP>
731.212

> <PUBCHEM_SHAPE_VOLUME>
187.1

> <PUBCHEM_COORDINATE_TYPE>
2
5
10

> <Energy>
42.8498

> <minimizedAffinity>
-8.04774

> <CNNscore>
0.8918740749

> <CNNaffinity>
7.3059172630

> <CNN_VS>
6.5159583092

> <CNNaffinity_variance>
0.8901252747

$$$$
6623


 19 20  0  0  0  0  0  0  0  0999 V2000
   -4.4861   -4.5852   21.0947 C   0  0  0  0  0  0  0  0  0  0  0  0
   -5.0745   -5.0215   19.7249 C   0  0  0  0  0  0  0  0  0  0  0  0
   -4.2436   -5.9048   21.8768 C   0  0  0  0  0  0  0  0  0  0  0  0
   -8.0470   -1.3489   24.1987 O   0  0  0  0  0  0  0  0  0  0  0  0
   -5.4567   -3.7300   21.9446 C   0  0  0  0  0  0  0  0  0  0  0  0
   -5.8472   -2.4540   21.4840 C   0  0  0  0  0  0  0  0  0  0  0  0
   -5.9774   -4.1640   23.1759 C   0  0  0  0  0  0  0  0  0  0  0  0
   -6.7112   -1.6431   22.2259 C   0  0  0  0  0  0  0  0  0  0  0  0
   -6.8458   -3.3556   23.9168 C   0  0  0  0  0  0  0  0  0  0  0  0
   -7.2031   -2.1032   23.4392 C   0  0  0  0  0  0  0  0  0  0  0  0
   -8.3080   -0.4984   23.9048 H   0  0  0  0  0  0  0  0  0  0  0  0
    0.3429   -1.7575   19.8877 O   0  0  0  0  0  0  0  0  0  0  0  0
   -3.1891   -3.7983   20.7906 C   0  0  0  0  0  0  0  0  0  0  0  0
   -2.8700   -3.4667   19.4563 C   0  0  0  0  0  0  0  0  0  0  0  0
   -2.2868   -3.4005   21.7932 C   0  0  0  0  0  0  0  0  0  0  0  0
   -1.6926   -2.7851   19.1358 C   0  0  0  0  0  0  0  0  0  0  0  0
   -1.1119   -2.7140   21.4740 C   0  0  0  0  0  0  0  0  0  0  0  0
   -0.8207   -2.4172   20.1509 C   0  0  0  0  0  0  0  0  0  0  0  0
    0.5696   -1.5418   19.0046 H   0  0  0  0  0  0  0  0  0  0  0  0
  4 10  1  0
  4 11  1  0
 12 18  1  0
 12 19  1  0
  1  5  1  0
  1 13  1  0
  1  2  1  0
  1  3  1  0
  5  6  2  0
  5  7  1  0
 13 14  2  0
 13 15  1  0
  6  8  1  0
 14 16  1  0
  7  9  2  0
 15 17  2  0
  8 10  2  0
 16 18  2  0
  9 10  1  0
 17 18  1  0
M  END
> <PUBCHEM_COMPOUND_CID>
6623

> <PUBCHEM_CONFORMER_RMSD>
0.6

> <PUBCHEM_CONFORMER_DIVERSEORDER>
1
3
2

> <PUBCHEM_MMFF94_PARTIAL_CHARGES>
25
1 -0.53
10 -0.15
11 -0.15
12 -0.15
13 -0.15
14 -0.15
15 -0.15
16 0.08
17 0.08
2 -0.53
24 0.15
25 0.15
26 0.15
27 0.15
28 0.15
29 0.15
3 0.29
30 0.15
31 0.15
32 0.45
33 0.45
4 -0.14
5 -0.14
8 -0.15
9 -0.15

> <PUBCHEM_EFFECTIVE_ROTOR_COUNT>
2

> <PUBCHEM_PHARMACOPHORE_FEATURES>
5
1 1 donor
1 2 donor
3 3 6 7 hydrophobe
6 4 8 10 12 14 16 rings
6 5 9 11 13 15 17 rings

> <PUBCHEM_HEAVY_ATOM_COUNT>
17

> <PUBCHEM_ATOM_DEF_STEREO_COUNT>
0

> <PUBCHEM_ATOM_UDEF_STEREO_COUNT>
0

> <PUBCHEM_BOND_DEF_STEREO_COUNT>
0

> <PUBCHEM_BOND_UDEF_STEREO_COUNT>
0

> <PUBCHEM_ISOTOPIC_ATOM_COUNT>
0

> <PUBCHEM_COMPONENT_COUNT>
1

> <PUBCHEM_CACTVS_TAUTO_COUNT>
3

> <PUBCHEM_CONFORMER_ID>
000019DF00000001

> <PUBCHEM_MMFF94_ENERGY>
64.1206

> <PUBCHEM_FEATURE_SELFOVERLAP>
25.372

> <PUBCHEM_SHAPE_FINGERPRINT>
10465860 228 18265052440146906875
10498660 4 17846494807956907777
10618630 7 8862950471944920352
11046707 91 8574440819802817220
11640471 11 18410569587104953028
12138202 97 17632297942700988494
12251169 10 15719115772587467277
12491281 212 18341893034625719138
12633257 1 15647059291015153984
12788726 201 18049710021441717058
12892183 10 15719384001885322888
13571099 52 18261397711031002503
13764800 53 18340221781019704851
14251764 38 17758668950351880149
14739800 52 17985806350554812304
15061688 2 18410575084673810317
15309172 13 17822005415182549066
15342168 16 18187090559068058613
15375462 189 9295287269996453078
15534591 1 18337673126062282338
15653759 3 15068339003624658237
15775835 57 18410853261110395364
15906896 17 18264490774389428130
16945 1 17917141818369727011
17357779 13 13899614313340361589
1741750 31 18337674225716062138
17804303 29 12829490320433961629
1813 80 17692251833473259110
18186145 218 18334012757179395950
19765921 60 18411697656461014379
19868273 293 17988923409424780430
20291156 8 9223230745321134917
20361792 2 9943803365827786299
204376 136 18186802491163379179
20645476 183 18339358668581405150
20671657 53 12751245791825749096
20871999 31 16988551447065141829
21499 59 18412825772344063143
21524375 3 18410855460138945163
21713013 43 13758065299356720749
21731228 192 17894352193594983955
23184049 59 17894627041684797236
23402539 116 17774993601125170188
23557571 272 16557885966252971863
23559900 14 17561366193283564332
298252 57 18202560691760254914
3472631 163 18202563986327517557
4028521 119 17846780714954732865
4340502 62 18114473262852369283
474 4 18336547123060049707
633830 44 18410010996606913815
7364860 26 17700693965181141591
83771 10 9223230749695054610
94968 8 10663806477749826557
9981440 41 18128808828214612290

> <PUBCHEM_SHAPE_MULTIPOLES>
338.11
7.28
2.04
1.32
0.26
0.87
0
-5.89
0
-0.06
0
0
0.27
-0.69

> <PUBCHEM_SHAPE_SELFOVERLAP>
731.212

> <PUBCHEM_SHAPE_VOLUME>
187.1

> <PUBCHEM_COORDINATE_TYPE>
2
5
10

> <Energy>
42.8498

> <minimizedAffinity>
-8.01718

> <CNNscore>
0.8895595670

> <CNNaffinity>
7.3165488243

> <CNN_VS>
6.5085058212

> <CNNaffinity_variance>
0.9057647586

$$$$
6623


 19 20  0  0  0  0  0  0  0  0999 V2000
   -4.6153   -4.9262   21.0140 C   0  0  0  0  0  0  0  0  0  0  0  0
   -4.3215   -6.2352   21.7971 C   0  0  0  0  0  0  0  0  0  0  0  0
   -5.2381   -5.3842   19.6671 C   0  0  0  0  0  0  0  0  0  0  0  0
    0.0849   -1.8810   19.8211 O   0  0  0  0  0  0  0  0  0  0  0  0
   -3.3464   -4.1099   20.6688 C   0  0  0  0  0  0  0  0  0  0  0  0
   -2.4236   -3.7915   21.6886 C   0  0  0  0  0  0  0  0  0  0  0  0
   -3.0605   -3.6576   19.3691 C   0  0  0  0  0  0  0  0  0  0  0  0
   -1.2717   -3.0451   21.4235 C   0  0  0  0  0  0  0  0  0  0  0  0
   -1.9057   -2.9149   19.1017 C   0  0  0  0  0  0  0  0  0  0  0  0
   -1.0236   -2.6123   20.1285 C   0  0  0  0  0  0  0  0  0  0  0  0
    0.7009   -1.6596   20.4915 H   0  0  0  0  0  0  0  0  0  0  0  0
   -8.1129   -1.7408   24.2377 O   0  0  0  0  0  0  0  0  0  0  0  0
   -5.5795   -4.0915   21.8901 C   0  0  0  0  0  0  0  0  0  0  0  0
   -6.0924   -2.8724   21.3973 C   0  0  0  0  0  0  0  0  0  0  0  0
   -5.9681   -4.4854   23.1829 C   0  0  0  0  0  0  0  0  0  0  0  0
   -6.9404   -2.0729   22.1689 C   0  0  0  0  0  0  0  0  0  0  0  0
   -6.8205   -3.6892   23.9530 C   0  0  0  0  0  0  0  0  0  0  0  0
   -7.2945   -2.4891   23.4447 C   0  0  0  0  0  0  0  0  0  0  0  0
   -8.4505   -0.9248   23.9245 H   0  0  0  0  0  0  0  0  0  0  0  0
  4 10  1  0
  4 11  1  0
 12 18  1  0
 12 19  1  0
  1  5  1  0
  1 13  1  0
  1  2  1  0
  1  3  1  0
  5  6  2  0
  5  7  1  0
 13 14  2  0
 13 15  1  0
  6  8  1  0
 14 16  1  0
  7  9  2  0
 15 17  2  0
  8 10  2  0
 16 18  2  0
  9 10  1  0
 17 18  1  0
M  END
> <PUBCHEM_COMPOUND_CID>
6623

> <PUBCHEM_CONFORMER_RMSD>
0.6

> <PUBCHEM_CONFORMER_DIVERSEORDER>
1
3
2

> <PUBCHEM_MMFF94_PARTIAL_CHARGES>
25
1 -0.53
10 -0.15
11 -0.15
12 -0.15
13 -0.15
14 -0.15
15 -0.15
16 0.08
17 0.08
2 -0.53
24 0.15
25 0.15
26 0.15
27 0.15
28 0.15
29 0.15
3 0.29
30 0.15
31 0.15
32 0.45
33 0.45
4 -0.14
5 -0.14
8 -0.15
9 -0.15

> <PUBCHEM_EFFECTIVE_ROTOR_COUNT>
2

> <PUBCHEM_PHARMACOPHORE_FEATURES>
5
1 1 donor
1 2 donor
3 3 6 7 hydrophobe
6 4 8 10 12 14 16 rings
6 5 9 11 13 15 17 rings

> <PUBCHEM_HEAVY_ATOM_COUNT>
17

> <PUBCHEM_ATOM_DEF_STEREO_COUNT>
0

> <PUBCHEM_ATOM_UDEF_STEREO_COUNT>
0

> <PUBCHEM_BOND_DEF_STEREO_COUNT>
0

> <PUBCHEM_BOND_UDEF_STEREO_COUNT>
0

> <PUBCHEM_ISOTOPIC_ATOM_COUNT>
0

> <PUBCHEM_COMPONENT_COUNT>
1

> <PUBCHEM_CACTVS_TAUTO_COUNT>
3

> <PUBCHEM_CONFORMER_ID>
000019DF00000001

> <PUBCHEM_MMFF94_ENERGY>
64.1206

> <PUBCHEM_FEATURE_SELFOVERLAP>
25.372

> <PUBCHEM_SHAPE_FINGERPRINT>
10465860 228 18265052440146906875
10498660 4 17846494807956907777
10618630 7 8862950471944920352
11046707 91 8574440819802817220
11640471 11 18410569587104953028
12138202 97 17632297942700988494
12251169 10 15719115772587467277
12491281 212 18341893034625719138
12633257 1 15647059291015153984
12788726 201 18049710021441717058
12892183 10 15719384001885322888
13571099 52 18261397711031002503
13764800 53 18340221781019704851
14251764 38 17758668950351880149
14739800 52 17985806350554812304
15061688 2 18410575084673810317
15309172 13 17822005415182549066
15342168 16 18187090559068058613
15375462 189 9295287269996453078
15534591 1 18337673126062282338
15653759 3 15068339003624658237
15775835 57 18410853261110395364
15906896 17 18264490774389428130
16945 1 17917141818369727011
17357779 13 13899614313340361589
1741750 31 18337674225716062138
17804303 29 12829490320433961629
1813 80 17692251833473259110
18186145 218 18334012757179395950
19765921 60 18411697656461014379
19868273 293 17988923409424780430
20291156 8 9223230745321134917
20361792 2 9943803365827786299
204376 136 18186802491163379179
20645476 183 18339358668581405150
20671657 53 12751245791825749096
20871999 31 16988551447065141829
21499 59 18412825772344063143
21524375 3 18410855460138945163
21713013 43 13758065299356720749
21731228 192 17894352193594983955
23184049 59 17894627041684797236
23402539 116 17774993601125170188
23557571 272 16557885966252971863
23559900 14 17561366193283564332
298252 57 18202560691760254914
3472631 163 18202563986327517557
4028521 119 17846780714954732865
4340502 62 18114473262852369283
474 4 18336547123060049707
633830 44 18410010996606913815
7364860 26 17700693965181141591
83771 10 9223230749695054610
94968 8 10663806477749826557
9981440 41 18128808828214612290

> <PUBCHEM_SHAPE_MULTIPOLES>
338.11
7.28
2.04
1.32
0.26
0.87
0
-5.89
0
-0.06
0
0
0.27
-0.69

> <PUBCHEM_SHAPE_SELFOVERLAP>
731.212

> <PUBCHEM_SHAPE_VOLUME>
187.1

> <PUBCHEM_COORDINATE_TYPE>
2
5
10

> <Energy>
42.8498

> <minimizedAffinity>
-8.04650

> <CNNscore>
0.8830794692

> <CNNaffinity>
7.2683696747

> <CNN_VS>
6.4185481071

> <CNNaffinity_variance>
0.8585998416

$$$$
6623


 19 20  0  0  0  0  0  0  0  0999 V2000
   -4.9061   -3.1175   21.9833 C   0  0  0  0  0  0  0  0  0  0  0  0
   -5.0981   -2.8671   23.5044 C   0  0  0  0  0  0  0  0  0  0  0  0
   -5.8099   -2.0704   21.2773 C   0  0  0  0  0  0  0  0  0  0  0  0
   -6.7614   -8.2486   20.2460 O   0  0  0  0  0  0  0  0  0  0  0  0
   -5.3857   -4.5134   21.5174 C   0  0  0  0  0  0  0  0  0  0  0  0
   -6.5243   -4.6185   20.6893 C   0  0  0  0  0  0  0  0  0  0  0  0
   -4.7369   -5.7048   21.8846 C   0  0  0  0  0  0  0  0  0  0  0  0
   -6.9997   -5.8599   20.2563 C   0  0  0  0  0  0  0  0  0  0  0  0
   -5.2088   -6.9471   21.4480 C   0  0  0  0  0  0  0  0  0  0  0  0
   -6.3354   -7.0157   20.6417 C   0  0  0  0  0  0  0  0  0  0  0  0
   -7.5191   -8.3298   19.7010 H   0  0  0  0  0  0  0  0  0  0  0  0
    0.6738   -2.5409   20.8417 O   0  0  0  0  0  0  0  0  0  0  0  0
   -3.3983   -2.9326   21.6897 C   0  0  0  0  0  0  0  0  0  0  0  0
   -2.9176   -3.0997   20.3731 C   0  0  0  0  0  0  0  0  0  0  0  0
   -2.4613   -2.6139   22.6886 C   0  0  0  0  0  0  0  0  0  0  0  0
   -1.5587   -2.9732   20.0714 C   0  0  0  0  0  0  0  0  0  0  0  0
   -1.1030   -2.4818   22.3867 C   0  0  0  0  0  0  0  0  0  0  0  0
   -0.6615   -2.6678   21.0852 C   0  0  0  0  0  0  0  0  0  0  0  0
    1.0051   -2.6602   19.9734 H   0  0  0  0  0  0  0  0  0  0  0  0
  4 10  1  0
  4 11  1  0
 12 18  1  0
 12 19  1  0
  1  5  1  0
  1 13  1  0
  1  2  1  0
  1  3  1  0
  5  6  2  0
  5  7  1  0
 13 14  2  0
 13 15  1  0
  6  8  1  0
 14 16  1  0
  7  9  2  0
 15 17  2  0
  8 10  2  0
 16 18  2  0
  9 10  1  0
 17 18  1  0
M  END
> <PUBCHEM_COMPOUND_CID>
6623

> <PUBCHEM_CONFORMER_RMSD>
0.6

> <PUBCHEM_CONFORMER_DIVERSEORDER>
1
3
2

> <PUBCHEM_MMFF94_PARTIAL_CHARGES>
25
1 -0.53
10 -0.15
11 -0.15
12 -0.15
13 -0.15
14 -0.15
15 -0.15
16 0.08
17 0.08
2 -0.53
24 0.15
25 0.15
26 0.15
27 0.15
28 0.15
29 0.15
3 0.29
30 0.15
31 0.15
32 0.45
33 0.45
4 -0.14
5 -0.14
8 -0.15
9 -0.15

> <PUBCHEM_EFFECTIVE_ROTOR_COUNT>
2

> <PUBCHEM_PHARMACOPHORE_FEATURES>
5
1 1 donor
1 2 donor
3 3 6 7 hydrophobe
6 4 8 10 12 14 16 rings
6 5 9 11 13 15 17 rings

> <PUBCHEM_HEAVY_ATOM_COUNT>
17

> <PUBCHEM_ATOM_DEF_STEREO_COUNT>
0

> <PUBCHEM_ATOM_UDEF_STEREO_COUNT>
0

> <PUBCHEM_BOND_DEF_STEREO_COUNT>
0

> <PUBCHEM_BOND_UDEF_STEREO_COUNT>
0

> <PUBCHEM_ISOTOPIC_ATOM_COUNT>
0

> <PUBCHEM_COMPONENT_COUNT>
1

> <PUBCHEM_CACTVS_TAUTO_COUNT>
3

> <PUBCHEM_CONFORMER_ID>
000019DF00000001

> <PUBCHEM_MMFF94_ENERGY>
64.1206

> <PUBCHEM_FEATURE_SELFOVERLAP>
25.372

> <PUBCHEM_SHAPE_FINGERPRINT>
10465860 228 18265052440146906875
10498660 4 17846494807956907777
10618630 7 8862950471944920352
11046707 91 8574440819802817220
11640471 11 18410569587104953028
12138202 97 17632297942700988494
12251169 10 15719115772587467277
12491281 212 18341893034625719138
12633257 1 15647059291015153984
12788726 201 18049710021441717058
12892183 10 15719384001885322888
13571099 52 18261397711031002503
13764800 53 18340221781019704851
14251764 38 17758668950351880149
14739800 52 17985806350554812304
15061688 2 18410575084673810317
15309172 13 17822005415182549066
15342168 16 18187090559068058613
15375462 189 9295287269996453078
15534591 1 18337673126062282338
15653759 3 15068339003624658237
15775835 57 18410853261110395364
15906896 17 18264490774389428130
16945 1 17917141818369727011
17357779 13 13899614313340361589
1741750 31 18337674225716062138
17804303 29 12829490320433961629
1813 80 17692251833473259110
18186145 218 18334012757179395950
19765921 60 18411697656461014379
19868273 293 17988923409424780430
20291156 8 9223230745321134917
20361792 2 9943803365827786299
204376 136 18186802491163379179
20645476 183 18339358668581405150
20671657 53 12751245791825749096
20871999 31 16988551447065141829
21499 59 18412825772344063143
21524375 3 18410855460138945163
21713013 43 13758065299356720749
21731228 192 17894352193594983955
23184049 59 17894627041684797236
23402539 116 17774993601125170188
23557571 272 16557885966252971863
23559900 14 17561366193283564332
298252 57 18202560691760254914
3472631 163 18202563986327517557
4028521 119 17846780714954732865
4340502 62 18114473262852369283
474 4 18336547123060049707
633830 44 18410010996606913815
7364860 26 17700693965181141591
83771 10 9223230749695054610
94968 8 10663806477749826557
9981440 41 18128808828214612290

> <PUBCHEM_SHAPE_MULTIPOLES>
338.11
7.28
2.04
1.32
0.26
0.87
0
-5.89
0
-0.06
0
0
0.27
-0.69

> <PUBCHEM_SHAPE_SELFOVERLAP>
731.212

> <PUBCHEM_SHAPE_VOLUME>
187.1

> <PUBCHEM_COORDINATE_TYPE>
2
5
10

> <Energy>
42.8498

> <minimizedAffinity>
-8.46889

> <CNNscore>
0.8736070395

> <CNNaffinity>
6.7699489594

> <CNN_VS>
5.9142751694

> <CNNaffinity_variance>
0.3599030972

$$$$
6623


 19 20  0  0  0  0  0  0  0  0999 V2000
   -4.7948   -3.0919   21.9281 C   0  0  0  0  0  0  0  0  0  0  0  0
   -5.7355   -2.0436   21.2729 C   0  0  0  0  0  0  0  0  0  0  0  0
   -4.9279   -2.8636   23.4584 C   0  0  0  0  0  0  0  0  0  0  0  0
    0.7411   -2.3199   20.6844 O   0  0  0  0  0  0  0  0  0  0  0  0
   -3.3013   -2.8960   21.5720 C   0  0  0  0  0  0  0  0  0  0  0  0
   -2.3751   -2.5932   22.5935 C   0  0  0  0  0  0  0  0  0  0  0  0
   -2.8096   -3.0028   20.2596 C   0  0  0  0  0  0  0  0  0  0  0  0
   -1.0196   -2.3952   22.3146 C   0  0  0  0  0  0  0  0  0  0  0  0
   -1.4527   -2.8098   19.9799 C   0  0  0  0  0  0  0  0  0  0  0  0
   -0.5705   -2.5053   21.0061 C   0  0  0  0  0  0  0  0  0  0  0  0
    1.3630   -2.1131   21.3541 H   0  0  0  0  0  0  0  0  0  0  0  0
   -6.7323   -8.2102   20.2488 O   0  0  0  0  0  0  0  0  0  0  0  0
   -5.2883   -4.4829   21.4642 C   0  0  0  0  0  0  0  0  0  0  0  0
   -6.4113   -4.5779   20.6145 C   0  0  0  0  0  0  0  0  0  0  0  0
   -4.6723   -5.6821   21.8644 C   0  0  0  0  0  0  0  0  0  0  0  0
   -6.9086   -5.8162   20.1986 C   0  0  0  0  0  0  0  0  0  0  0  0
   -5.1656   -6.9206   21.4445 C   0  0  0  0  0  0  0  0  0  0  0  0
   -6.2806   -6.9793   20.6219 C   0  0  0  0  0  0  0  0  0  0  0  0
   -7.4834   -8.2850   19.6935 H   0  0  0  0  0  0  0  0  0  0  0  0
  4 10  1  0
  4 11  1  0
 12 18  1  0
 12 19  1  0
  1  5  1  0
  1 13  1  0
  1  2  1  0
  1  3  1  0
  5  6  2  0
  5  7  1  0
 13 14  2  0
 13 15  1  0
  6  8  1  0
 14 16  1  0
  7  9  2  0
 15 17  2  0
  8 10  2  0
 16 18  2  0
  9 10  1  0
 17 18  1  0
M  END
> <PUBCHEM_COMPOUND_CID>
6623

> <PUBCHEM_CONFORMER_RMSD>
0.6

> <PUBCHEM_CONFORMER_DIVERSEORDER>
1
3
2

> <PUBCHEM_MMFF94_PARTIAL_CHARGES>
25
1 -0.53
10 -0.15
11 -0.15
12 -0.15
13 -0.15
14 -0.15
15 -0.15
16 0.08
17 0.08
2 -0.53
24 0.15
25 0.15
26 0.15
27 0.15
28 0.15
29 0.15
3 0.29
30 0.15
31 0.15
32 0.45
33 0.45
4 -0.14
5 -0.14
8 -0.15
9 -0.15

> <PUBCHEM_EFFECTIVE_ROTOR_COUNT>
2

> <PUBCHEM_PHARMACOPHORE_FEATURES>
5
1 1 donor
1 2 donor
3 3 6 7 hydrophobe
6 4 8 10 12 14 16 rings
6 5 9 11 13 15 17 rings

> <PUBCHEM_HEAVY_ATOM_COUNT>
17

> <PUBCHEM_ATOM_DEF_STEREO_COUNT>
0

> <PUBCHEM_ATOM_UDEF_STEREO_COUNT>
0

> <PUBCHEM_BOND_DEF_STEREO_COUNT>
0

> <PUBCHEM_BOND_UDEF_STEREO_COUNT>
0

> <PUBCHEM_ISOTOPIC_ATOM_COUNT>
0

> <PUBCHEM_COMPONENT_COUNT>
1

> <PUBCHEM_CACTVS_TAUTO_COUNT>
3

> <PUBCHEM_CONFORMER_ID>
000019DF00000001

> <PUBCHEM_MMFF94_ENERGY>
64.1206

> <PUBCHEM_FEATURE_SELFOVERLAP>
25.372

> <PUBCHEM_SHAPE_FINGERPRINT>
10465860 228 18265052440146906875
10498660 4 17846494807956907777
10618630 7 8862950471944920352
11046707 91 8574440819802817220
11640471 11 18410569587104953028
12138202 97 17632297942700988494
12251169 10 15719115772587467277
12491281 212 18341893034625719138
12633257 1 15647059291015153984
12788726 201 18049710021441717058
12892183 10 15719384001885322888
13571099 52 18261397711031002503
13764800 53 18340221781019704851
14251764 38 17758668950351880149
14739800 52 17985806350554812304
15061688 2 18410575084673810317
15309172 13 17822005415182549066
15342168 16 18187090559068058613
15375462 189 9295287269996453078
15534591 1 18337673126062282338
15653759 3 15068339003624658237
15775835 57 18410853261110395364
15906896 17 18264490774389428130
16945 1 17917141818369727011
17357779 13 13899614313340361589
1741750 31 18337674225716062138
17804303 29 12829490320433961629
1813 80 17692251833473259110
18186145 218 18334012757179395950
19765921 60 18411697656461014379
19868273 293 17988923409424780430
20291156 8 9223230745321134917
20361792 2 9943803365827786299
204376 136 18186802491163379179
20645476 183 18339358668581405150
20671657 53 12751245791825749096
20871999 31 16988551447065141829
21499 59 18412825772344063143
21524375 3 18410855460138945163
21713013 43 13758065299356720749
21731228 192 17894352193594983955
23184049 59 17894627041684797236
23402539 116 17774993601125170188
23557571 272 16557885966252971863
23559900 14 17561366193283564332
298252 57 18202560691760254914
3472631 163 18202563986327517557
4028521 119 17846780714954732865
4340502 62 18114473262852369283
474 4 18336547123060049707
633830 44 18410010996606913815
7364860 26 17700693965181141591
83771 10 9223230749695054610
94968 8 10663806477749826557
9981440 41 18128808828214612290

> <PUBCHEM_SHAPE_MULTIPOLES>
338.11
7.28
2.04
1.32
0.26
0.87
0
-5.89
0
-0.06
0
0
0.27
-0.69

> <PUBCHEM_SHAPE_SELFOVERLAP>
731.212

> <PUBCHEM_SHAPE_VOLUME>
187.1

> <PUBCHEM_COORDINATE_TYPE>
2
5
10

> <Energy>
42.8498

> <minimizedAffinity>
-8.47316

> <CNNscore>
0.8733622432

> <CNNaffinity>
6.8006987572

> <CNN_VS>
5.9394736290

> <CNNaffinity_variance>
0.3620319366

$$$$
6623


 19 20  0  0  0  0  0  0  0  0999 V2000
   -4.7995   -3.0786   21.9022 C   0  0  0  0  0  0  0  0  0  0  0  0
   -4.9390   -2.8187   23.4273 C   0  0  0  0  0  0  0  0  0  0  0  0
   -5.7237   -2.0329   21.2210 C   0  0  0  0  0  0  0  0  0  0  0  0
   -6.7267   -8.2131   20.2555 O   0  0  0  0  0  0  0  0  0  0  0  0
   -5.2988   -4.4757   21.4611 C   0  0  0  0  0  0  0  0  0  0  0  0
   -6.4301   -4.5789   20.6229 C   0  0  0  0  0  0  0  0  0  0  0  0
   -4.6751   -5.6700   21.8612 C   0  0  0  0  0  0  0  0  0  0  0  0
   -6.9228   -5.8209   20.2116 C   0  0  0  0  0  0  0  0  0  0  0  0
   -5.1642   -6.9131   21.4462 C   0  0  0  0  0  0  0  0  0  0  0  0
   -6.2832   -6.9795   20.6291 C   0  0  0  0  0  0  0  0  0  0  0  0
   -7.4799   -8.2929   19.7039 H   0  0  0  0  0  0  0  0  0  0  0  0
    0.7407   -2.3127   20.6811 O   0  0  0  0  0  0  0  0  0  0  0  0
   -3.3021   -2.9001   21.5563 C   0  0  0  0  0  0  0  0  0  0  0  0
   -2.3786   -2.6057   22.5823 C   0  0  0  0  0  0  0  0  0  0  0  0
   -2.8056   -3.0045   20.2447 C   0  0  0  0  0  0  0  0  0  0  0  0
   -1.0228   -2.4053   22.3078 C   0  0  0  0  0  0  0  0  0  0  0  0
   -1.4491   -2.8097   19.9701 C   0  0  0  0  0  0  0  0  0  0  0  0
   -0.5706   -2.5063   20.9995 C   0  0  0  0  0  0  0  0  0  0  0  0
    1.3603   -2.1064   21.3529 H   0  0  0  0  0  0  0  0  0  0  0  0
  4 10  1  0
  4 11  1  0
 12 18  1  0
 12 19  1  0
  1  5  1  0
  1 13  1  0
  1  2  1  0
  1  3  1  0
  5  6  2  0
  5  7  1  0
 13 14  2  0
 13 15  1  0
  6  8  1  0
 14 16  1  0
  7  9  2  0
 15 17  2  0
  8 10  2  0
 16 18  2  0
  9 10  1  0
 17 18  1  0
M  END
> <PUBCHEM_COMPOUND_CID>
6623

> <PUBCHEM_CONFORMER_RMSD>
0.6

> <PUBCHEM_CONFORMER_DIVERSEORDER>
1
3
2

> <PUBCHEM_MMFF94_PARTIAL_CHARGES>
25
1 -0.53
10 -0.15
11 -0.15
12 -0.15
13 -0.15
14 -0.15
15 -0.15
16 0.08
17 0.08
2 -0.53
24 0.15
25 0.15
26 0.15
27 0.15
28 0.15
29 0.15
3 0.29
30 0.15
31 0.15
32 0.45
33 0.45
4 -0.14
5 -0.14
8 -0.15
9 -0.15

> <PUBCHEM_EFFECTIVE_ROTOR_COUNT>
2

> <PUBCHEM_PHARMACOPHORE_FEATURES>
5
1 1 donor
1 2 donor
3 3 6 7 hydrophobe
6 4 8 10 12 14 16 rings
6 5 9 11 13 15 17 rings

> <PUBCHEM_HEAVY_ATOM_COUNT>
17

> <PUBCHEM_ATOM_DEF_STEREO_COUNT>
0

> <PUBCHEM_ATOM_UDEF_STEREO_COUNT>
0

> <PUBCHEM_BOND_DEF_STEREO_COUNT>
0

> <PUBCHEM_BOND_UDEF_STEREO_COUNT>
0

> <PUBCHEM_ISOTOPIC_ATOM_COUNT>
0

> <PUBCHEM_COMPONENT_COUNT>
1

> <PUBCHEM_CACTVS_TAUTO_COUNT>
3

> <PUBCHEM_CONFORMER_ID>
000019DF00000001

> <PUBCHEM_MMFF94_ENERGY>
64.1206

> <PUBCHEM_FEATURE_SELFOVERLAP>
25.372

> <PUBCHEM_SHAPE_FINGERPRINT>
10465860 228 18265052440146906875
10498660 4 17846494807956907777
10618630 7 8862950471944920352
11046707 91 8574440819802817220
11640471 11 18410569587104953028
12138202 97 17632297942700988494
12251169 10 15719115772587467277
12491281 212 18341893034625719138
12633257 1 15647059291015153984
12788726 201 18049710021441717058
12892183 10 15719384001885322888
13571099 52 18261397711031002503
13764800 53 18340221781019704851
14251764 38 17758668950351880149
14739800 52 17985806350554812304
15061688 2 18410575084673810317
15309172 13 17822005415182549066
15342168 16 18187090559068058613
15375462 189 9295287269996453078
15534591 1 18337673126062282338
15653759 3 15068339003624658237
15775835 57 18410853261110395364
15906896 17 18264490774389428130
16945 1 17917141818369727011
17357779 13 13899614313340361589
1741750 31 18337674225716062138
17804303 29 12829490320433961629
1813 80 17692251833473259110
18186145 218 18334012757179395950
19765921 60 18411697656461014379
19868273 293 17988923409424780430
20291156 8 9223230745321134917
20361792 2 9943803365827786299
204376 136 18186802491163379179
20645476 183 18339358668581405150
20671657 53 12751245791825749096
20871999 31 16988551447065141829
21499 59 18412825772344063143
21524375 3 18410855460138945163
21713013 43 13758065299356720749
21731228 192 17894352193594983955
23184049 59 17894627041684797236
23402539 116 17774993601125170188
23557571 272 16557885966252971863
23559900 14 17561366193283564332
298252 57 18202560691760254914
3472631 163 18202563986327517557
4028521 119 17846780714954732865
4340502 62 18114473262852369283
474 4 18336547123060049707
633830 44 18410010996606913815
7364860 26 17700693965181141591
83771 10 9223230749695054610
94968 8 10663806477749826557
9981440 41 18128808828214612290

> <PUBCHEM_SHAPE_MULTIPOLES>
338.11
7.28
2.04
1.32
0.26
0.87
0
-5.89
0
-0.06
0
0
0.27
-0.69

> <PUBCHEM_SHAPE_SELFOVERLAP>
731.212

> <PUBCHEM_SHAPE_VOLUME>
187.1

> <PUBCHEM_COORDINATE_TYPE>
2
5
10

> <Energy>
42.8498

> <minimizedAffinity>
-8.45616

> <CNNscore>
0.8715972304

> <CNNaffinity>
6.7947592735

> <CNN_VS>
5.9222931862

> <CNNaffinity_variance>
0.3596746922

$$$$
6623


 19 20  0  0  0  0  0  0  0  0999 V2000
   -4.8919   -3.1089   21.9700 C   0  0  0  0  0  0  0  0  0  0  0  0
   -5.7878   -2.0557   21.2619 C   0  0  0  0  0  0  0  0  0  0  0  0
   -5.0967   -2.8669   23.4903 C   0  0  0  0  0  0  0  0  0  0  0  0
    0.6898   -2.5034   20.8446 O   0  0  0  0  0  0  0  0  0  0  0  0
   -3.3808   -2.9321   21.6856 C   0  0  0  0  0  0  0  0  0  0  0  0
   -2.8973   -3.0831   20.3679 C   0  0  0  0  0  0  0  0  0  0  0  0
   -2.4462   -2.6263   22.6898 C   0  0  0  0  0  0  0  0  0  0  0  0
   -1.5386   -2.9453   20.0687 C   0  0  0  0  0  0  0  0  0  0  0  0
   -1.0872   -2.4833   22.3909 C   0  0  0  0  0  0  0  0  0  0  0  0
   -0.6440   -2.6463   21.0866 C   0  0  0  0  0  0  0  0  0  0  0  0
    1.0218   -2.6070   19.9746 H   0  0  0  0  0  0  0  0  0  0  0  0
   -6.8019   -8.2215   20.2424 O   0  0  0  0  0  0  0  0  0  0  0  0
   -5.3780   -4.4981   21.4931 C   0  0  0  0  0  0  0  0  0  0  0  0
   -6.4995   -4.5911   20.6411 C   0  0  0  0  0  0  0  0  0  0  0  0
   -4.7564   -5.6978   21.8832 C   0  0  0  0  0  0  0  0  0  0  0  0
   -6.9900   -5.8281   20.2135 C   0  0  0  0  0  0  0  0  0  0  0  0
   -5.2430   -6.9349   21.4516 C   0  0  0  0  0  0  0  0  0  0  0  0
   -6.3568   -6.9917   20.6271 C   0  0  0  0  0  0  0  0  0  0  0  0
   -7.5519   -8.2951   19.6856 H   0  0  0  0  0  0  0  0  0  0  0  0
  4 10  1  0
  4 11  1  0
 12 18  1  0
 12 19  1  0
  1  5  1  0
  1 13  1  0
  1  2  1  0
  1  3  1  0
  5  6  2  0
  5  7  1  0
 13 14  2  0
 13 15  1  0
  6  8  1  0
 14 16  1  0
  7  9  2  0
 15 17  2  0
  8 10  2  0
 16 18  2  0
  9 10  1  0
 17 18  1  0
M  END
> <PUBCHEM_COMPOUND_CID>
6623

> <PUBCHEM_CONFORMER_RMSD>
0.6

> <PUBCHEM_CONFORMER_DIVERSEORDER>
1
3
2

> <PUBCHEM_MMFF94_PARTIAL_CHARGES>
25
1 -0.53
10 -0.15
11 -0.15
12 -0.15
13 -0.15
14 -0.15
15 -0.15
16 0.08
17 0.08
2 -0.53
24 0.15
25 0.15
26 0.15
27 0.15
28 0.15
29 0.15
3 0.29
30 0.15
31 0.15
32 0.45
33 0.45
4 -0.14
5 -0.14
8 -0.15
9 -0.15

> <PUBCHEM_EFFECTIVE_ROTOR_COUNT>
2

> <PUBCHEM_PHARMACOPHORE_FEATURES>
5
1 1 donor
1 2 donor
3 3 6 7 hydrophobe
6 4 8 10 12 14 16 rings
6 5 9 11 13 15 17 rings

> <PUBCHEM_HEAVY_ATOM_COUNT>
17

> <PUBCHEM_ATOM_DEF_STEREO_COUNT>
0

> <PUBCHEM_ATOM_UDEF_STEREO_COUNT>
0

> <PUBCHEM_BOND_DEF_STEREO_COUNT>
0

> <PUBCHEM_BOND_UDEF_STEREO_COUNT>
0

> <PUBCHEM_ISOTOPIC_ATOM_COUNT>
0

> <PUBCHEM_COMPONENT_COUNT>
1

> <PUBCHEM_CACTVS_TAUTO_COUNT>
3

> <PUBCHEM_CONFORMER_ID>
000019DF00000001

> <PUBCHEM_MMFF94_ENERGY>
64.1206

> <PUBCHEM_FEATURE_SELFOVERLAP>
25.372

> <PUBCHEM_SHAPE_FINGERPRINT>
10465860 228 18265052440146906875
10498660 4 17846494807956907777
10618630 7 8862950471944920352
11046707 91 8574440819802817220
11640471 11 18410569587104953028
12138202 97 17632297942700988494
12251169 10 15719115772587467277
12491281 212 18341893034625719138
12633257 1 15647059291015153984
12788726 201 18049710021441717058
12892183 10 15719384001885322888
13571099 52 18261397711031002503
13764800 53 18340221781019704851
14251764 38 17758668950351880149
14739800 52 17985806350554812304
15061688 2 18410575084673810317
15309172 13 17822005415182549066
15342168 16 18187090559068058613
15375462 189 9295287269996453078
15534591 1 18337673126062282338
15653759 3 15068339003624658237
15775835 57 18410853261110395364
15906896 17 18264490774389428130
16945 1 17917141818369727011
17357779 13 13899614313340361589
1741750 31 18337674225716062138
17804303 29 12829490320433961629
1813 80 17692251833473259110
18186145 218 18334012757179395950
19765921 60 18411697656461014379
19868273 293 17988923409424780430
20291156 8 9223230745321134917
20361792 2 9943803365827786299
204376 136 18186802491163379179
20645476 183 18339358668581405150
20671657 53 12751245791825749096
20871999 31 16988551447065141829
21499 59 18412825772344063143
21524375 3 18410855460138945163
21713013 43 13758065299356720749
21731228 192 17894352193594983955
23184049 59 17894627041684797236
23402539 116 17774993601125170188
23557571 272 16557885966252971863
23559900 14 17561366193283564332
298252 57 18202560691760254914
3472631 163 18202563986327517557
4028521 119 17846780714954732865
4340502 62 18114473262852369283
474 4 18336547123060049707
633830 44 18410010996606913815
7364860 26 17700693965181141591
83771 10 9223230749695054610
94968 8 10663806477749826557
9981440 41 18128808828214612290

> <PUBCHEM_SHAPE_MULTIPOLES>
338.11
7.28
2.04
1.32
0.26
0.87
0
-5.89
0
-0.06
0
0
0.27
-0.69

> <PUBCHEM_SHAPE_SELFOVERLAP>
731.212

> <PUBCHEM_SHAPE_VOLUME>
187.1

> <PUBCHEM_COORDINATE_TYPE>
2
5
10

> <Energy>
42.8498

> <minimizedAffinity>
-8.44541

> <CNNscore>
0.8709957004

> <CNNaffinity>
6.7903308868

> <CNN_VS>
5.9143490791

> <CNNaffinity_variance>
0.3786183298

$$$$
6623


 19 20  0  0  0  0  0  0  0  0999 V2000
   -4.9256   -3.0374   21.9965 C   0  0  0  0  0  0  0  0  0  0  0  0
   -5.0933   -2.8083   23.5238 C   0  0  0  0  0  0  0  0  0  0  0  0
   -5.8141   -1.9585   21.3193 C   0  0  0  0  0  0  0  0  0  0  0  0
   -6.7595   -8.1660   20.2293 O   0  0  0  0  0  0  0  0  0  0  0  0
   -5.4426   -4.4141   21.5136 C   0  0  0  0  0  0  0  0  0  0  0  0
   -4.8205   -5.5937   21.9768 C   0  0  0  0  0  0  0  0  0  0  0  0
   -6.5173   -4.5543   20.6187 C   0  0  0  0  0  0  0  0  0  0  0  0
   -5.2465   -6.8570   21.5561 C   0  0  0  0  0  0  0  0  0  0  0  0
   -6.9476   -5.8180   20.2009 C   0  0  0  0  0  0  0  0  0  0  0  0
   -6.3090   -6.9570   20.6690 C   0  0  0  0  0  0  0  0  0  0  0  0
   -6.3501   -8.9547   20.5263 H   0  0  0  0  0  0  0  0  0  0  0  0
    0.6518   -2.5678   20.7952 O   0  0  0  0  0  0  0  0  0  0  0  0
   -3.4178   -2.8815   21.6869 C   0  0  0  0  0  0  0  0  0  0  0  0
   -2.9555   -3.0496   20.3639 C   0  0  0  0  0  0  0  0  0  0  0  0
   -2.4632   -2.5889   22.6771 C   0  0  0  0  0  0  0  0  0  0  0  0
   -1.5978   -2.9490   20.0475 C   0  0  0  0  0  0  0  0  0  0  0  0
   -1.1059   -2.4827   22.3606 C   0  0  0  0  0  0  0  0  0  0  0  0
   -0.6831   -2.6689   21.0530 C   0  0  0  0  0  0  0  0  0  0  0  0
    0.9707   -2.6881   19.9223 H   0  0  0  0  0  0  0  0  0  0  0  0
  4 10  1  0
  4 11  1  0
 12 18  1  0
 12 19  1  0
  1  5  1  0
  1 13  1  0
  1  2  1  0
  1  3  1  0
  5  6  2  0
  5  7  1  0
 13 14  2  0
 13 15  1  0
  6  8  1  0
 14 16  1  0
  7  9  2  0
 15 17  2  0
  8 10  2  0
 16 18  2  0
  9 10  1  0
 17 18  1  0
M  END
> <PUBCHEM_COMPOUND_CID>
6623

> <PUBCHEM_CONFORMER_RMSD>
0.6

> <PUBCHEM_CONFORMER_DIVERSEORDER>
1
3
2

> <PUBCHEM_MMFF94_PARTIAL_CHARGES>
25
1 -0.53
10 -0.15
11 -0.15
12 -0.15
13 -0.15
14 -0.15
15 -0.15
16 0.08
17 0.08
2 -0.53
24 0.15
25 0.15
26 0.15
27 0.15
28 0.15
29 0.15
3 0.29
30 0.15
31 0.15
32 0.45
33 0.45
4 -0.14
5 -0.14
8 -0.15
9 -0.15

> <PUBCHEM_EFFECTIVE_ROTOR_COUNT>
2

> <PUBCHEM_PHARMACOPHORE_FEATURES>
5
1 1 donor
1 2 donor
3 3 6 7 hydrophobe
6 4 8 10 12 14 16 rings
6 5 9 11 13 15 17 rings

> <PUBCHEM_HEAVY_ATOM_COUNT>
17

> <PUBCHEM_ATOM_DEF_STEREO_COUNT>
0

> <PUBCHEM_ATOM_UDEF_STEREO_COUNT>
0

> <PUBCHEM_BOND_DEF_STEREO_COUNT>
0

> <PUBCHEM_BOND_UDEF_STEREO_COUNT>
0

> <PUBCHEM_ISOTOPIC_ATOM_COUNT>
0

> <PUBCHEM_COMPONENT_COUNT>
1

> <PUBCHEM_CACTVS_TAUTO_COUNT>
3

> <PUBCHEM_CONFORMER_ID>
000019DF00000001

> <PUBCHEM_MMFF94_ENERGY>
64.1206

> <PUBCHEM_FEATURE_SELFOVERLAP>
25.372

> <PUBCHEM_SHAPE_FINGERPRINT>
10465860 228 18265052440146906875
10498660 4 17846494807956907777
10618630 7 8862950471944920352
11046707 91 8574440819802817220
11640471 11 18410569587104953028
12138202 97 17632297942700988494
12251169 10 15719115772587467277
12491281 212 18341893034625719138
12633257 1 15647059291015153984
12788726 201 18049710021441717058
12892183 10 15719384001885322888
13571099 52 18261397711031002503
13764800 53 18340221781019704851
14251764 38 17758668950351880149
14739800 52 17985806350554812304
15061688 2 18410575084673810317
15309172 13 17822005415182549066
15342168 16 18187090559068058613
15375462 189 9295287269996453078
15534591 1 18337673126062282338
15653759 3 15068339003624658237
15775835 57 18410853261110395364
15906896 17 18264490774389428130
16945 1 17917141818369727011
17357779 13 13899614313340361589
1741750 31 18337674225716062138
17804303 29 12829490320433961629
1813 80 17692251833473259110
18186145 218 18334012757179395950
19765921 60 18411697656461014379
19868273 293 17988923409424780430
20291156 8 9223230745321134917
20361792 2 9943803365827786299
204376 136 18186802491163379179
20645476 183 18339358668581405150
20671657 53 12751245791825749096
20871999 31 16988551447065141829
21499 59 18412825772344063143
21524375 3 18410855460138945163
21713013 43 13758065299356720749
21731228 192 17894352193594983955
23184049 59 17894627041684797236
23402539 116 17774993601125170188
23557571 272 16557885966252971863
23559900 14 17561366193283564332
298252 57 18202560691760254914
3472631 163 18202563986327517557
4028521 119 17846780714954732865
4340502 62 18114473262852369283
474 4 18336547123060049707
633830 44 18410010996606913815
7364860 26 17700693965181141591
83771 10 9223230749695054610
94968 8 10663806477749826557
9981440 41 18128808828214612290

> <PUBCHEM_SHAPE_MULTIPOLES>
338.11
7.28
2.04
1.32
0.26
0.87
0
-5.89
0
-0.06
0
0
0.27
-0.69

> <PUBCHEM_SHAPE_SELFOVERLAP>
731.212

> <PUBCHEM_SHAPE_VOLUME>
187.1

> <PUBCHEM_COORDINATE_TYPE>
2
5
10

> <Energy>
42.8498

> <minimizedAffinity>
-8.45531

> <CNNscore>
0.8668588996

> <CNNaffinity>
6.7906498909

> <CNN_VS>
5.8865351677

> <CNNaffinity_variance>
0.3766613901

$$$$
6623


 19 20  0  0  0  0  0  0  0  0999 V2000
   -4.4279   -4.4685   20.9575 C   0  0  0  0  0  0  0  0  0  0  0  0
   -5.1937   -5.1144   19.7703 C   0  0  0  0  0  0  0  0  0  0  0  0
   -4.0322   -5.6510   21.8832 C   0  0  0  0  0  0  0  0  0  0  0  0
   -7.6073   -0.8340   24.0350 O   0  0  0  0  0  0  0  0  0  0  0  0
   -5.2928   -3.5038   21.8043 C   0  0  0  0  0  0  0  0  0  0  0  0
   -5.8025   -2.3261   21.2160 C   0  0  0  0  0  0  0  0  0  0  0  0
   -5.6010   -3.7416   23.1549 C   0  0  0  0  0  0  0  0  0  0  0  0
   -6.5767   -1.4207   21.9477 C   0  0  0  0  0  0  0  0  0  0  0  0
   -6.3796   -2.8390   23.8867 C   0  0  0  0  0  0  0  0  0  0  0  0
   -6.8581   -1.6868   23.2804 C   0  0  0  0  0  0  0  0  0  0  0  0
   -7.9457   -0.0469   23.6557 H   0  0  0  0  0  0  0  0  0  0  0  0
    0.0402   -1.6214   18.7892 O   0  0  0  0  0  0  0  0  0  0  0  0
   -3.2148   -3.7239   20.3512 C   0  0  0  0  0  0  0  0  0  0  0  0
   -2.2134   -3.2104   21.2031 C   0  0  0  0  0  0  0  0  0  0  0  0
   -3.0620   -3.5160   18.9687 C   0  0  0  0  0  0  0  0  0  0  0  0
   -1.1181   -2.5040   20.6982 C   0  0  0  0  0  0  0  0  0  0  0  0
   -1.9642   -2.8144   18.4626 C   0  0  0  0  0  0  0  0  0  0  0  0
   -1.0058   -2.3095   19.3286 C   0  0  0  0  0  0  0  0  0  0  0  0
    0.7050   -1.2672   19.3465 H   0  0  0  0  0  0  0  0  0  0  0  0
  4 10  1  0
  4 11  1  0
 12 18  1  0
 12 19  1  0
  1  5  1  0
  1 13  1  0
  1  2  1  0
  1  3  1  0
  5  6  2  0
  5  7  1  0
 13 14  2  0
 13 15  1  0
  6  8  1  0
 14 16  1  0
  7  9  2  0
 15 17  2  0
  8 10  2  0
 16 18  2  0
  9 10  1  0
 17 18  1  0
M  END
> <PUBCHEM_COMPOUND_CID>
6623

> <PUBCHEM_CONFORMER_RMSD>
0.6

> <PUBCHEM_CONFORMER_DIVERSEORDER>
1
3
2

> <PUBCHEM_MMFF94_PARTIAL_CHARGES>
25
1 -0.53
10 -0.15
11 -0.15
12 -0.15
13 -0.15
14 -0.15
15 -0.15
16 0.08
17 0.08
2 -0.53
24 0.15
25 0.15
26 0.15
27 0.15
28 0.15
29 0.15
3 0.29
30 0.15
31 0.15
32 0.45
33 0.45
4 -0.14
5 -0.14
8 -0.15
9 -0.15

> <PUBCHEM_EFFECTIVE_ROTOR_COUNT>
2

> <PUBCHEM_PHARMACOPHORE_FEATURES>
5
1 1 donor
1 2 donor
3 3 6 7 hydrophobe
6 4 8 10 12 14 16 rings
6 5 9 11 13 15 17 rings

> <PUBCHEM_HEAVY_ATOM_COUNT>
17

> <PUBCHEM_ATOM_DEF_STEREO_COUNT>
0

> <PUBCHEM_ATOM_UDEF_STEREO_COUNT>
0

> <PUBCHEM_BOND_DEF_STEREO_COUNT>
0

> <PUBCHEM_BOND_UDEF_STEREO_COUNT>
0

> <PUBCHEM_ISOTOPIC_ATOM_COUNT>
0

> <PUBCHEM_COMPONENT_COUNT>
1

> <PUBCHEM_CACTVS_TAUTO_COUNT>
3

> <PUBCHEM_CONFORMER_ID>
000019DF00000001

> <PUBCHEM_MMFF94_ENERGY>
64.1206

> <PUBCHEM_FEATURE_SELFOVERLAP>
25.372

> <PUBCHEM_SHAPE_FINGERPRINT>
10465860 228 18265052440146906875
10498660 4 17846494807956907777
10618630 7 8862950471944920352
11046707 91 8574440819802817220
11640471 11 18410569587104953028
12138202 97 17632297942700988494
12251169 10 15719115772587467277
12491281 212 18341893034625719138
12633257 1 15647059291015153984
12788726 201 18049710021441717058
12892183 10 15719384001885322888
13571099 52 18261397711031002503
13764800 53 18340221781019704851
14251764 38 17758668950351880149
14739800 52 17985806350554812304
15061688 2 18410575084673810317
15309172 13 17822005415182549066
15342168 16 18187090559068058613
15375462 189 9295287269996453078
15534591 1 18337673126062282338
15653759 3 15068339003624658237
15775835 57 18410853261110395364
15906896 17 18264490774389428130
16945 1 17917141818369727011
17357779 13 13899614313340361589
1741750 31 18337674225716062138
17804303 29 12829490320433961629
1813 80 17692251833473259110
18186145 218 18334012757179395950
19765921 60 18411697656461014379
19868273 293 17988923409424780430
20291156 8 9223230745321134917
20361792 2 9943803365827786299
204376 136 18186802491163379179
20645476 183 18339358668581405150
20671657 53 12751245791825749096
20871999 31 16988551447065141829
21499 59 18412825772344063143
21524375 3 18410855460138945163
21713013 43 13758065299356720749
21731228 192 17894352193594983955
23184049 59 17894627041684797236
23402539 116 17774993601125170188
23557571 272 16557885966252971863
23559900 14 17561366193283564332
298252 57 18202560691760254914
3472631 163 18202563986327517557
4028521 119 17846780714954732865
4340502 62 18114473262852369283
474 4 18336547123060049707
633830 44 18410010996606913815
7364860 26 17700693965181141591
83771 10 9223230749695054610
94968 8 10663806477749826557
9981440 41 18128808828214612290

> <PUBCHEM_SHAPE_MULTIPOLES>
338.11
7.28
2.04
1.32
0.26
0.87
0
-5.89
0
-0.06
0
0
0.27
-0.69

> <PUBCHEM_SHAPE_SELFOVERLAP>
731.212

> <PUBCHEM_SHAPE_VOLUME>
187.1

> <PUBCHEM_COORDINATE_TYPE>
2
5
10

> <Energy>
42.8498

> <minimizedAffinity>
-8.11529

> <CNNscore>
0.8508779407

> <CNNaffinity>
7.4036536217

> <CNN_VS>
6.2996053696

> <CNNaffinity_variance>
1.0359379053

$$$$
