2519


 14 15  0  0  0  0  0  0  0  0999 V2000
   -7.2472   -3.1342   13.7264 O   0  0  0  0  0  0  0  0  0  0  0  0
   -5.2732   -6.1457   10.8162 O   0  0  0  0  0  0  0  0  0  0  0  0
   -6.9546   -4.8006    9.9983 N   0  0  0  0  0  0  0  0  0  0  0  0
   -8.9543   -2.3200   11.4101 N   0  0  0  0  0  0  0  0  0  0  0  0
   -6.2420   -4.6540   12.2823 N   0  0  0  0  0  0  0  0  0  0  0  0
   -8.7521   -3.2591    9.4036 N   0  0  0  0  0  0  0  0  0  0  0  0
   -7.9621   -3.2517   11.5174 C   0  0  0  0  0  0  0  0  0  0  0  0
   -7.8633   -3.8068   10.2782 C   0  0  0  0  0  0  0  0  0  0  0  0
   -7.1489   -3.6429   12.6139 C   0  0  0  0  0  0  0  0  0  0  0  0
   -6.1073   -5.2561   11.0117 C   0  0  0  0  0  0  0  0  0  0  0  0
   -9.4021   -2.3599   10.1160 C   0  0  0  0  0  0  0  0  0  0  0  0
   -6.8840   -5.3639    8.6613 C   0  0  0  0  0  0  0  0  0  0  0  0
   -9.4435   -1.4552   12.4532 C   0  0  0  0  0  0  0  0  0  0  0  0
   -5.3554   -5.1360   13.3238 C   0  0  0  0  0  0  0  0  0  0  0  0
  1  9  2  0
  2 10  2  0
  3  8  1  0
  3 10  1  0
  3 12  1  0
  4  7  1  0
  4 11  1  0
  4 13  1  0
  5  9  1  0
  5 10  1  0
  5 14  1  0
  6  8  1  0
  6 11  2  0
  7  8  2  0
  7  9  1  0
M  END
> <PUBCHEM_COMPOUND_CID>
2519

> <PUBCHEM_CONFORMER_RMSD>
0.4

> <PUBCHEM_CONFORMER_DIVERSEORDER>
1

> <PUBCHEM_MMFF94_PARTIAL_CHARGES>
15
1 -0.57
10 0.69
11 0.04
12 0.3
13 0.26
14 0.3
15 0.15
2 -0.57
3 -0.42
4 0.05
5 -0.42
6 -0.57
7 -0.24
8 0.29
9 0.71

> <PUBCHEM_EFFECTIVE_ROTOR_COUNT>
0

> <PUBCHEM_PHARMACOPHORE_FEATURES>
5
1 1 acceptor
1 2 acceptor
3 4 6 11 cation
5 4 6 7 8 11 rings
6 3 5 7 8 9 10 rings

> <PUBCHEM_HEAVY_ATOM_COUNT>
14

> <PUBCHEM_ATOM_DEF_STEREO_COUNT>
0

> <PUBCHEM_ATOM_UDEF_STEREO_COUNT>
0

> <PUBCHEM_BOND_DEF_STEREO_COUNT>
0

> <PUBCHEM_BOND_UDEF_STEREO_COUNT>
0

> <PUBCHEM_ISOTOPIC_ATOM_COUNT>
0

> <PUBCHEM_COMPONENT_COUNT>
1

> <PUBCHEM_CACTVS_TAUTO_COUNT>
1

> <PUBCHEM_CONFORMER_ID>
000009D700000001

> <PUBCHEM_MMFF94_ENERGY>
22.901

> <PUBCHEM_FEATURE_SELFOVERLAP>
25.487

> <PUBCHEM_SHAPE_FINGERPRINT>
10967382 1 18338799025773621285
11132069 177 18339075025094499008
12524768 44 18342463625094026902
13140716 1 17978511158789908153
16945 1 18338517550775811621
193761 8 15816500986559935910
20588541 1 18339082691204868851
21501502 16 18338796715286957384
22802520 49 18128840606503503494
2334 1 18338516344016692929
23402539 116 18270382932679789735
23552423 10 18262240993325675966
23559900 14 18199193898169584358
241688 4 18266458702623303353
2748010 2 18266180539182415717
5084963 1 17698433339235542986
528886 8 18267580380709240570
53812653 166 18198902694142226312
66348 1 18339079396917369615

> <PUBCHEM_SHAPE_MULTIPOLES>
256.45
4.01
2.83
0.58
0.71
0.08
0
-0.48
0
-0.81
0
0.01
0
0

> <PUBCHEM_SHAPE_SELFOVERLAP>
550.88

> <PUBCHEM_SHAPE_VOLUME>
143.9

> <PUBCHEM_COORDINATE_TYPE>
2
5
10

> <Energy>
-122.511

> <minimizedAffinity>
-5.35717

> <CNNscore>
0.4635710120

> <CNNaffinity>
4.8304100037

> <CNN_VS>
2.2392380238

> <CNNaffinity_variance>
0.2337027192

$$$$
2519


 14 15  0  0  0  0  0  0  0  0999 V2000
   -9.2048   -3.5521    9.0597 O   0  0  0  0  0  0  0  0  0  0  0  0
   -7.5681   -2.3778   13.2284 O   0  0  0  0  0  0  0  0  0  0  0  0
   -7.1092   -4.4957   12.4478 N   0  0  0  0  0  0  0  0  0  0  0  0
   -7.9043   -6.2056    9.5171 N   0  0  0  0  0  0  0  0  0  0  0  0
   -8.3927   -2.9412   11.1510 N   0  0  0  0  0  0  0  0  0  0  0  0
   -6.7756   -6.6649   11.3782 N   0  0  0  0  0  0  0  0  0  0  0  0
   -7.9638   -5.0834   10.2923 C   0  0  0  0  0  0  0  0  0  0  0  0
   -7.2670   -5.3954   11.4196 C   0  0  0  0  0  0  0  0  0  0  0  0
   -8.5797   -3.8215   10.0809 C   0  0  0  0  0  0  0  0  0  0  0  0
   -7.6785   -3.2246   12.3361 C   0  0  0  0  0  0  0  0  0  0  0  0
   -7.1769   -7.1346   10.2134 C   0  0  0  0  0  0  0  0  0  0  0  0
   -6.3572   -4.8719   13.6323 C   0  0  0  0  0  0  0  0  0  0  0  0
   -8.4912   -6.3874    8.2141 C   0  0  0  0  0  0  0  0  0  0  0  0
   -8.9771   -1.6179   11.0487 C   0  0  0  0  0  0  0  0  0  0  0  0
  1  9  2  0
  2 10  2  0
  3  8  1  0
  3 10  1  0
  3 12  1  0
  4  7  1  0
  4 11  1  0
  4 13  1  0
  5  9  1  0
  5 10  1  0
  5 14  1  0
  6  8  1  0
  6 11  2  0
  7  8  2  0
  7  9  1  0
M  END
> <PUBCHEM_COMPOUND_CID>
2519

> <PUBCHEM_CONFORMER_RMSD>
0.4

> <PUBCHEM_CONFORMER_DIVERSEORDER>
1

> <PUBCHEM_MMFF94_PARTIAL_CHARGES>
15
1 -0.57
10 0.69
11 0.04
12 0.3
13 0.26
14 0.3
15 0.15
2 -0.57
3 -0.42
4 0.05
5 -0.42
6 -0.57
7 -0.24
8 0.29
9 0.71

> <PUBCHEM_EFFECTIVE_ROTOR_COUNT>
0

> <PUBCHEM_PHARMACOPHORE_FEATURES>
5
1 1 acceptor
1 2 acceptor
3 4 6 11 cation
5 4 6 7 8 11 rings
6 3 5 7 8 9 10 rings

> <PUBCHEM_HEAVY_ATOM_COUNT>
14

> <PUBCHEM_ATOM_DEF_STEREO_COUNT>
0

> <PUBCHEM_ATOM_UDEF_STEREO_COUNT>
0

> <PUBCHEM_BOND_DEF_STEREO_COUNT>
0

> <PUBCHEM_BOND_UDEF_STEREO_COUNT>
0

> <PUBCHEM_ISOTOPIC_ATOM_COUNT>
0

> <PUBCHEM_COMPONENT_COUNT>
1

> <PUBCHEM_CACTVS_TAUTO_COUNT>
1

> <PUBCHEM_CONFORMER_ID>
000009D700000001

> <PUBCHEM_MMFF94_ENERGY>
22.901

> <PUBCHEM_FEATURE_SELFOVERLAP>
25.487

> <PUBCHEM_SHAPE_FINGERPRINT>
10967382 1 18338799025773621285
11132069 177 18339075025094499008
12524768 44 18342463625094026902
13140716 1 17978511158789908153
16945 1 18338517550775811621
193761 8 15816500986559935910
20588541 1 18339082691204868851
21501502 16 18338796715286957384
22802520 49 18128840606503503494
2334 1 18338516344016692929
23402539 116 18270382932679789735
23552423 10 18262240993325675966
23559900 14 18199193898169584358
241688 4 18266458702623303353
2748010 2 18266180539182415717
5084963 1 17698433339235542986
528886 8 18267580380709240570
53812653 166 18198902694142226312
66348 1 18339079396917369615

> <PUBCHEM_SHAPE_MULTIPOLES>
256.45
4.01
2.83
0.58
0.71
0.08
0
-0.48
0
-0.81
0
0.01
0
0

> <PUBCHEM_SHAPE_SELFOVERLAP>
550.88

> <PUBCHEM_SHAPE_VOLUME>
143.9

> <PUBCHEM_COORDINATE_TYPE>
2
5
10

> <Energy>
-122.511

> <minimizedAffinity>
-5.22500

> <CNNscore>
0.4294044077

> <CNNaffinity>
4.4793000221

> <CNN_VS>
1.9234311581

> <CNNaffinity_variance>
0.5576940179

$$$$
2519


 14 15  0  0  0  0  0  0  0  0999 V2000
   -4.7894   -5.6249   11.9720 O   0  0  0  0  0  0  0  0  0  0  0  0
   -9.0155   -4.6207   10.3697 O   0  0  0  0  0  0  0  0  0  0  0  0
   -8.5926   -4.2469   12.6028 N   0  0  0  0  0  0  0  0  0  0  0  0
   -5.7931   -4.6922   14.6300 N   0  0  0  0  0  0  0  0  0  0  0  0
   -6.9052   -5.1278   11.1460 N   0  0  0  0  0  0  0  0  0  0  0  0
   -7.8710   -3.9515   14.9164 N   0  0  0  0  0  0  0  0  0  0  0  0
   -6.4036   -4.7724   13.4115 C   0  0  0  0  0  0  0  0  0  0  0  0
   -7.6687   -4.3142   13.6194 C   0  0  0  0  0  0  0  0  0  0  0  0
   -5.9327   -5.2145   12.1468 C   0  0  0  0  0  0  0  0  0  0  0  0
   -8.2264   -4.6595   11.3191 C   0  0  0  0  0  0  0  0  0  0  0  0
   -6.7174   -4.1912   15.5083 C   0  0  0  0  0  0  0  0  0  0  0  0
   -9.9314   -3.7509   12.8705 C   0  0  0  0  0  0  0  0  0  0  0  0
   -4.4360   -5.0615   14.9420 C   0  0  0  0  0  0  0  0  0  0  0  0
   -6.5391   -5.5516    9.8083 C   0  0  0  0  0  0  0  0  0  0  0  0
  1  9  2  0
  2 10  2  0
  3  8  1  0
  3 10  1  0
  3 12  1  0
  4  7  1  0
  4 11  1  0
  4 13  1  0
  5  9  1  0
  5 10  1  0
  5 14  1  0
  6  8  1  0
  6 11  2  0
  7  8  2  0
  7  9  1  0
M  END
> <PUBCHEM_COMPOUND_CID>
2519

> <PUBCHEM_CONFORMER_RMSD>
0.4

> <PUBCHEM_CONFORMER_DIVERSEORDER>
1

> <PUBCHEM_MMFF94_PARTIAL_CHARGES>
15
1 -0.57
10 0.69
11 0.04
12 0.3
13 0.26
14 0.3
15 0.15
2 -0.57
3 -0.42
4 0.05
5 -0.42
6 -0.57
7 -0.24
8 0.29
9 0.71

> <PUBCHEM_EFFECTIVE_ROTOR_COUNT>
0

> <PUBCHEM_PHARMACOPHORE_FEATURES>
5
1 1 acceptor
1 2 acceptor
3 4 6 11 cation
5 4 6 7 8 11 rings
6 3 5 7 8 9 10 rings

> <PUBCHEM_HEAVY_ATOM_COUNT>
14

> <PUBCHEM_ATOM_DEF_STEREO_COUNT>
0

> <PUBCHEM_ATOM_UDEF_STEREO_COUNT>
0

> <PUBCHEM_BOND_DEF_STEREO_COUNT>
0

> <PUBCHEM_BOND_UDEF_STEREO_COUNT>
0

> <PUBCHEM_ISOTOPIC_ATOM_COUNT>
0

> <PUBCHEM_COMPONENT_COUNT>
1

> <PUBCHEM_CACTVS_TAUTO_COUNT>
1

> <PUBCHEM_CONFORMER_ID>
000009D700000001

> <PUBCHEM_MMFF94_ENERGY>
22.901

> <PUBCHEM_FEATURE_SELFOVERLAP>
25.487

> <PUBCHEM_SHAPE_FINGERPRINT>
10967382 1 18338799025773621285
11132069 177 18339075025094499008
12524768 44 18342463625094026902
13140716 1 17978511158789908153
16945 1 18338517550775811621
193761 8 15816500986559935910
20588541 1 18339082691204868851
21501502 16 18338796715286957384
22802520 49 18128840606503503494
2334 1 18338516344016692929
23402539 116 18270382932679789735
23552423 10 18262240993325675966
23559900 14 18199193898169584358
241688 4 18266458702623303353
2748010 2 18266180539182415717
5084963 1 17698433339235542986
528886 8 18267580380709240570
53812653 166 18198902694142226312
66348 1 18339079396917369615

> <PUBCHEM_SHAPE_MULTIPOLES>
256.45
4.01
2.83
0.58
0.71
0.08
0
-0.48
0
-0.81
0
0.01
0
0

> <PUBCHEM_SHAPE_SELFOVERLAP>
550.88

> <PUBCHEM_SHAPE_VOLUME>
143.9

> <PUBCHEM_COORDINATE_TYPE>
2
5
10

> <Energy>
-122.511

> <minimizedAffinity>
-5.40640

> <CNNscore>
0.4239131510

> <CNNaffinity>
4.9354071617

> <CNN_VS>
2.0921840668

> <CNNaffinity_variance>
0.2095228881

$$$$
2519


 14 15  0  0  0  0  0  0  0  0999 V2000
   -7.5961   -2.9086   13.3302 O   0  0  0  0  0  0  0  0  0  0  0  0
   -9.2823   -3.2631    9.0329 O   0  0  0  0  0  0  0  0  0  0  0  0
   -7.5678   -4.6772    9.6380 N   0  0  0  0  0  0  0  0  0  0  0  0
   -5.7300   -5.1168   12.5663 N   0  0  0  0  0  0  0  0  0  0  0  0
   -8.4580   -3.0692   11.1768 N   0  0  0  0  0  0  0  0  0  0  0  0
   -5.7586   -6.0434   10.5441 N   0  0  0  0  0  0  0  0  0  0  0  0
   -6.7100   -4.4783   11.8621 C   0  0  0  0  0  0  0  0  0  0  0  0
   -6.7022   -5.0655   10.6338 C   0  0  0  0  0  0  0  0  0  0  0  0
   -7.5984   -3.4295   12.2190 C   0  0  0  0  0  0  0  0  0  0  0  0
   -8.4825   -3.6515    9.8902 C   0  0  0  0  0  0  0  0  0  0  0  0
   -5.1826   -6.0538   11.7301 C   0  0  0  0  0  0  0  0  0  0  0  0
   -7.5240   -5.3322    8.3422 C   0  0  0  0  0  0  0  0  0  0  0  0
   -5.3393   -4.8609   13.9291 C   0  0  0  0  0  0  0  0  0  0  0  0
   -9.4135   -2.0068   11.4243 C   0  0  0  0  0  0  0  0  0  0  0  0
  1  9  2  0
  2 10  2  0
  3  8  1  0
  3 10  1  0
  3 12  1  0
  4  7  1  0
  4 11  1  0
  4 13  1  0
  5  9  1  0
  5 10  1  0
  5 14  1  0
  6  8  1  0
  6 11  2  0
  7  8  2  0
  7  9  1  0
M  END
> <PUBCHEM_COMPOUND_CID>
2519

> <PUBCHEM_CONFORMER_RMSD>
0.4

> <PUBCHEM_CONFORMER_DIVERSEORDER>
1

> <PUBCHEM_MMFF94_PARTIAL_CHARGES>
15
1 -0.57
10 0.69
11 0.04
12 0.3
13 0.26
14 0.3
15 0.15
2 -0.57
3 -0.42
4 0.05
5 -0.42
6 -0.57
7 -0.24
8 0.29
9 0.71

> <PUBCHEM_EFFECTIVE_ROTOR_COUNT>
0

> <PUBCHEM_PHARMACOPHORE_FEATURES>
5
1 1 acceptor
1 2 acceptor
3 4 6 11 cation
5 4 6 7 8 11 rings
6 3 5 7 8 9 10 rings

> <PUBCHEM_HEAVY_ATOM_COUNT>
14

> <PUBCHEM_ATOM_DEF_STEREO_COUNT>
0

> <PUBCHEM_ATOM_UDEF_STEREO_COUNT>
0

> <PUBCHEM_BOND_DEF_STEREO_COUNT>
0

> <PUBCHEM_BOND_UDEF_STEREO_COUNT>
0

> <PUBCHEM_ISOTOPIC_ATOM_COUNT>
0

> <PUBCHEM_COMPONENT_COUNT>
1

> <PUBCHEM_CACTVS_TAUTO_COUNT>
1

> <PUBCHEM_CONFORMER_ID>
000009D700000001

> <PUBCHEM_MMFF94_ENERGY>
22.901

> <PUBCHEM_FEATURE_SELFOVERLAP>
25.487

> <PUBCHEM_SHAPE_FINGERPRINT>
10967382 1 18338799025773621285
11132069 177 18339075025094499008
12524768 44 18342463625094026902
13140716 1 17978511158789908153
16945 1 18338517550775811621
193761 8 15816500986559935910
20588541 1 18339082691204868851
21501502 16 18338796715286957384
22802520 49 18128840606503503494
2334 1 18338516344016692929
23402539 116 18270382932679789735
23552423 10 18262240993325675966
23559900 14 18199193898169584358
241688 4 18266458702623303353
2748010 2 18266180539182415717
5084963 1 17698433339235542986
528886 8 18267580380709240570
53812653 166 18198902694142226312
66348 1 18339079396917369615

> <PUBCHEM_SHAPE_MULTIPOLES>
256.45
4.01
2.83
0.58
0.71
0.08
0
-0.48
0
-0.81
0
0.01
0
0

> <PUBCHEM_SHAPE_SELFOVERLAP>
550.88

> <PUBCHEM_SHAPE_VOLUME>
143.9

> <PUBCHEM_COORDINATE_TYPE>
2
5
10

> <Energy>
-122.511

> <minimizedAffinity>
-5.53248

> <CNNscore>
0.4133660793

> <CNNaffinity>
4.6484303474

> <CNN_VS>
1.9215034246

> <CNNaffinity_variance>
0.2217182517

$$$$
2519


 14 15  0  0  0  0  0  0  0  0999 V2000
   -5.4456   -4.7769   11.1071 O   0  0  0  0  0  0  0  0  0  0  0  0
   -9.7705   -3.4591   10.1099 O   0  0  0  0  0  0  0  0  0  0  0  0
   -9.2157   -3.7473   12.3268 N   0  0  0  0  0  0  0  0  0  0  0  0
   -6.2938   -4.6941   13.9734 N   0  0  0  0  0  0  0  0  0  0  0  0
   -7.6123   -4.1155   10.5834 N   0  0  0  0  0  0  0  0  0  0  0  0
   -8.3571   -4.1260   14.5807 N   0  0  0  0  0  0  0  0  0  0  0  0
   -6.9768   -4.4287   12.8214 C   0  0  0  0  0  0  0  0  0  0  0  0
   -8.2309   -4.0858   13.2252 C   0  0  0  0  0  0  0  0  0  0  0  0
   -6.5799   -4.4667   11.4584 C   0  0  0  0  0  0  0  0  0  0  0  0
   -8.9247   -3.7543   10.9602 C   0  0  0  0  0  0  0  0  0  0  0  0
   -7.1674   -4.4984   15.0104 C   0  0  0  0  0  0  0  0  0  0  0  0
  -10.5401   -3.3877   12.8029 C   0  0  0  0  0  0  0  0  0  0  0  0
   -4.9170   -5.1025   14.0866 C   0  0  0  0  0  0  0  0  0  0  0  0
   -7.3246   -4.1174    9.1620 C   0  0  0  0  0  0  0  0  0  0  0  0
  1  9  2  0
  2 10  2  0
  3  8  1  0
  3 10  1  0
  3 12  1  0
  4  7  1  0
  4 11  1  0
  4 13  1  0
  5  9  1  0
  5 10  1  0
  5 14  1  0
  6  8  1  0
  6 11  2  0
  7  8  2  0
  7  9  1  0
M  END
> <PUBCHEM_COMPOUND_CID>
2519

> <PUBCHEM_CONFORMER_RMSD>
0.4

> <PUBCHEM_CONFORMER_DIVERSEORDER>
1

> <PUBCHEM_MMFF94_PARTIAL_CHARGES>
15
1 -0.57
10 0.69
11 0.04
12 0.3
13 0.26
14 0.3
15 0.15
2 -0.57
3 -0.42
4 0.05
5 -0.42
6 -0.57
7 -0.24
8 0.29
9 0.71

> <PUBCHEM_EFFECTIVE_ROTOR_COUNT>
0

> <PUBCHEM_PHARMACOPHORE_FEATURES>
5
1 1 acceptor
1 2 acceptor
3 4 6 11 cation
5 4 6 7 8 11 rings
6 3 5 7 8 9 10 rings

> <PUBCHEM_HEAVY_ATOM_COUNT>
14

> <PUBCHEM_ATOM_DEF_STEREO_COUNT>
0

> <PUBCHEM_ATOM_UDEF_STEREO_COUNT>
0

> <PUBCHEM_BOND_DEF_STEREO_COUNT>
0

> <PUBCHEM_BOND_UDEF_STEREO_COUNT>
0

> <PUBCHEM_ISOTOPIC_ATOM_COUNT>
0

> <PUBCHEM_COMPONENT_COUNT>
1

> <PUBCHEM_CACTVS_TAUTO_COUNT>
1

> <PUBCHEM_CONFORMER_ID>
000009D700000001

> <PUBCHEM_MMFF94_ENERGY>
22.901

> <PUBCHEM_FEATURE_SELFOVERLAP>
25.487

> <PUBCHEM_SHAPE_FINGERPRINT>
10967382 1 18338799025773621285
11132069 177 18339075025094499008
12524768 44 18342463625094026902
13140716 1 17978511158789908153
16945 1 18338517550775811621
193761 8 15816500986559935910
20588541 1 18339082691204868851
21501502 16 18338796715286957384
22802520 49 18128840606503503494
2334 1 18338516344016692929
23402539 116 18270382932679789735
23552423 10 18262240993325675966
23559900 14 18199193898169584358
241688 4 18266458702623303353
2748010 2 18266180539182415717
5084963 1 17698433339235542986
528886 8 18267580380709240570
53812653 166 18198902694142226312
66348 1 18339079396917369615

> <PUBCHEM_SHAPE_MULTIPOLES>
256.45
4.01
2.83
0.58
0.71
0.08
0
-0.48
0
-0.81
0
0.01
0
0

> <PUBCHEM_SHAPE_SELFOVERLAP>
550.88

> <PUBCHEM_SHAPE_VOLUME>
143.9

> <PUBCHEM_COORDINATE_TYPE>
2
5
10

> <Energy>
-122.511

> <minimizedAffinity>
-5.59498

> <CNNscore>
0.3747716546

> <CNNaffinity>
4.8531126976

> <CNN_VS>
1.8188090324

> <CNNaffinity_variance>
0.1522379071

$$$$
2519


 14 15  0  0  0  0  0  0  0  0999 V2000
   -7.9152   -6.2281   12.7472 O   0  0  0  0  0  0  0  0  0  0  0  0
   -8.8957   -1.7103   12.4946 O   0  0  0  0  0  0  0  0  0  0  0  0
   -8.3783   -2.8118   10.5391 N   0  0  0  0  0  0  0  0  0  0  0  0
   -7.5325   -6.1072    9.7839 N   0  0  0  0  0  0  0  0  0  0  0  0
   -8.4107   -3.9588   12.6436 N   0  0  0  0  0  0  0  0  0  0  0  0
   -7.7984   -4.2224    8.6326 N   0  0  0  0  0  0  0  0  0  0  0  0
   -7.8743   -5.1453   10.6904 C   0  0  0  0  0  0  0  0  0  0  0  0
   -8.0290   -4.0083    9.9576 C   0  0  0  0  0  0  0  0  0  0  0  0
   -8.0570   -5.1965   12.0978 C   0  0  0  0  0  0  0  0  0  0  0  0
   -8.5810   -2.7576   11.9205 C   0  0  0  0  0  0  0  0  0  0  0  0
   -7.4986   -5.5041    8.5543 C   0  0  0  0  0  0  0  0  0  0  0  0
   -8.5326   -1.6236    9.7179 C   0  0  0  0  0  0  0  0  0  0  0  0
   -7.2581   -7.4945   10.0587 C   0  0  0  0  0  0  0  0  0  0  0  0
   -8.6253   -3.8875   14.0761 C   0  0  0  0  0  0  0  0  0  0  0  0
  1  9  2  0
  2 10  2  0
  3  8  1  0
  3 10  1  0
  3 12  1  0
  4  7  1  0
  4 11  1  0
  4 13  1  0
  5  9  1  0
  5 10  1  0
  5 14  1  0
  6  8  1  0
  6 11  2  0
  7  8  2  0
  7  9  1  0
M  END
> <PUBCHEM_COMPOUND_CID>
2519

> <PUBCHEM_CONFORMER_RMSD>
0.4

> <PUBCHEM_CONFORMER_DIVERSEORDER>
1

> <PUBCHEM_MMFF94_PARTIAL_CHARGES>
15
1 -0.57
10 0.69
11 0.04
12 0.3
13 0.26
14 0.3
15 0.15
2 -0.57
3 -0.42
4 0.05
5 -0.42
6 -0.57
7 -0.24
8 0.29
9 0.71

> <PUBCHEM_EFFECTIVE_ROTOR_COUNT>
0

> <PUBCHEM_PHARMACOPHORE_FEATURES>
5
1 1 acceptor
1 2 acceptor
3 4 6 11 cation
5 4 6 7 8 11 rings
6 3 5 7 8 9 10 rings

> <PUBCHEM_HEAVY_ATOM_COUNT>
14

> <PUBCHEM_ATOM_DEF_STEREO_COUNT>
0

> <PUBCHEM_ATOM_UDEF_STEREO_COUNT>
0

> <PUBCHEM_BOND_DEF_STEREO_COUNT>
0

> <PUBCHEM_BOND_UDEF_STEREO_COUNT>
0

> <PUBCHEM_ISOTOPIC_ATOM_COUNT>
0

> <PUBCHEM_COMPONENT_COUNT>
1

> <PUBCHEM_CACTVS_TAUTO_COUNT>
1

> <PUBCHEM_CONFORMER_ID>
000009D700000001

> <PUBCHEM_MMFF94_ENERGY>
22.901

> <PUBCHEM_FEATURE_SELFOVERLAP>
25.487

> <PUBCHEM_SHAPE_FINGERPRINT>
10967382 1 18338799025773621285
11132069 177 18339075025094499008
12524768 44 18342463625094026902
13140716 1 17978511158789908153
16945 1 18338517550775811621
193761 8 15816500986559935910
20588541 1 18339082691204868851
21501502 16 18338796715286957384
22802520 49 18128840606503503494
2334 1 18338516344016692929
23402539 116 18270382932679789735
23552423 10 18262240993325675966
23559900 14 18199193898169584358
241688 4 18266458702623303353
2748010 2 18266180539182415717
5084963 1 17698433339235542986
528886 8 18267580380709240570
53812653 166 18198902694142226312
66348 1 18339079396917369615

> <PUBCHEM_SHAPE_MULTIPOLES>
256.45
4.01
2.83
0.58
0.71
0.08
0
-0.48
0
-0.81
0
0.01
0
0

> <PUBCHEM_SHAPE_SELFOVERLAP>
550.88

> <PUBCHEM_SHAPE_VOLUME>
143.9

> <PUBCHEM_COORDINATE_TYPE>
2
5
10

> <Energy>
-122.511

> <minimizedAffinity>
-5.24016

> <CNNscore>
0.3680140078

> <CNNaffinity>
4.6808719635

> <CNN_VS>
1.7226264477

> <CNNaffinity_variance>
0.2164631039

$$$$
2519


 14 15  0  0  0  0  0  0  0  0999 V2000
   -5.9678   -6.2156    9.9956 O   0  0  0  0  0  0  0  0  0  0  0  0
   -6.6584   -3.8664   13.9249 O   0  0  0  0  0  0  0  0  0  0  0  0
   -8.4611   -4.1804   12.5259 N   0  0  0  0  0  0  0  0  0  0  0  0
   -8.8750   -5.7727    9.4537 N   0  0  0  0  0  0  0  0  0  0  0  0
   -6.2919   -5.0384   11.9742 N   0  0  0  0  0  0  0  0  0  0  0  0
  -10.1854   -4.6593   10.8651 N   0  0  0  0  0  0  0  0  0  0  0  0
   -8.0839   -5.3961   10.5007 C   0  0  0  0  0  0  0  0  0  0  0  0
   -8.9116   -4.7193   11.3434 C   0  0  0  0  0  0  0  0  0  0  0  0
   -6.7037   -5.6029   10.7631 C   0  0  0  0  0  0  0  0  0  0  0  0
   -7.1166   -4.3297   12.8756 C   0  0  0  0  0  0  0  0  0  0  0  0
  -10.1358   -5.3058    9.7170 C   0  0  0  0  0  0  0  0  0  0  0  0
   -9.3802   -3.4661   13.3947 C   0  0  0  0  0  0  0  0  0  0  0  0
   -8.4702   -6.5191    8.2899 C   0  0  0  0  0  0  0  0  0  0  0  0
   -4.8993   -5.1863   12.3509 C   0  0  0  0  0  0  0  0  0  0  0  0
  1  9  2  0
  2 10  2  0
  3  8  1  0
  3 10  1  0
  3 12  1  0
  4  7  1  0
  4 11  1  0
  4 13  1  0
  5  9  1  0
  5 10  1  0
  5 14  1  0
  6  8  1  0
  6 11  2  0
  7  8  2  0
  7  9  1  0
M  END
> <PUBCHEM_COMPOUND_CID>
2519

> <PUBCHEM_CONFORMER_RMSD>
0.4

> <PUBCHEM_CONFORMER_DIVERSEORDER>
1

> <PUBCHEM_MMFF94_PARTIAL_CHARGES>
15
1 -0.57
10 0.69
11 0.04
12 0.3
13 0.26
14 0.3
15 0.15
2 -0.57
3 -0.42
4 0.05
5 -0.42
6 -0.57
7 -0.24
8 0.29
9 0.71

> <PUBCHEM_EFFECTIVE_ROTOR_COUNT>
0

> <PUBCHEM_PHARMACOPHORE_FEATURES>
5
1 1 acceptor
1 2 acceptor
3 4 6 11 cation
5 4 6 7 8 11 rings
6 3 5 7 8 9 10 rings

> <PUBCHEM_HEAVY_ATOM_COUNT>
14

> <PUBCHEM_ATOM_DEF_STEREO_COUNT>
0

> <PUBCHEM_ATOM_UDEF_STEREO_COUNT>
0

> <PUBCHEM_BOND_DEF_STEREO_COUNT>
0

> <PUBCHEM_BOND_UDEF_STEREO_COUNT>
0

> <PUBCHEM_ISOTOPIC_ATOM_COUNT>
0

> <PUBCHEM_COMPONENT_COUNT>
1

> <PUBCHEM_CACTVS_TAUTO_COUNT>
1

> <PUBCHEM_CONFORMER_ID>
000009D700000001

> <PUBCHEM_MMFF94_ENERGY>
22.901

> <PUBCHEM_FEATURE_SELFOVERLAP>
25.487

> <PUBCHEM_SHAPE_FINGERPRINT>
10967382 1 18338799025773621285
11132069 177 18339075025094499008
12524768 44 18342463625094026902
13140716 1 17978511158789908153
16945 1 18338517550775811621
193761 8 15816500986559935910
20588541 1 18339082691204868851
21501502 16 18338796715286957384
22802520 49 18128840606503503494
2334 1 18338516344016692929
23402539 116 18270382932679789735
23552423 10 18262240993325675966
23559900 14 18199193898169584358
241688 4 18266458702623303353
2748010 2 18266180539182415717
5084963 1 17698433339235542986
528886 8 18267580380709240570
53812653 166 18198902694142226312
66348 1 18339079396917369615

> <PUBCHEM_SHAPE_MULTIPOLES>
256.45
4.01
2.83
0.58
0.71
0.08
0
-0.48
0
-0.81
0
0.01
0
0

> <PUBCHEM_SHAPE_SELFOVERLAP>
550.88

> <PUBCHEM_SHAPE_VOLUME>
143.9

> <PUBCHEM_COORDINATE_TYPE>
2
5
10

> <Energy>
-122.511

> <minimizedAffinity>
-5.33719

> <CNNscore>
0.3548423350

> <CNNaffinity>
4.6346192360

> <CNN_VS>
1.6445591450

> <CNNaffinity_variance>
0.6762344837

$$$$
2519


 14 15  0  0  0  0  0  0  0  0999 V2000
  -10.0171   -3.5031   10.2038 O   0  0  0  0  0  0  0  0  0  0  0  0
   -6.2108   -5.9933    9.3399 O   0  0  0  0  0  0  0  0  0  0  0  0
   -6.6565   -5.4300   11.5284 N   0  0  0  0  0  0  0  0  0  0  0  0
   -9.2080   -3.6331   13.0796 N   0  0  0  0  0  0  0  0  0  0  0  0
   -8.1107   -4.7532    9.7471 N   0  0  0  0  0  0  0  0  0  0  0  0
   -7.3703   -4.6959   13.7447 N   0  0  0  0  0  0  0  0  0  0  0  0
   -8.6273   -4.1430   11.9541 C   0  0  0  0  0  0  0  0  0  0  0  0
   -7.5095   -4.7845   12.3929 C   0  0  0  0  0  0  0  0  0  0  0  0
   -9.0063   -4.0842   10.5868 C   0  0  0  0  0  0  0  0  0  0  0  0
   -6.9418   -5.4297   10.1605 C   0  0  0  0  0  0  0  0  0  0  0  0
   -8.4139   -3.9918   14.1369 C   0  0  0  0  0  0  0  0  0  0  0  0
   -5.4751   -6.1019   12.0411 C   0  0  0  0  0  0  0  0  0  0  0  0
  -10.4238   -2.8637   13.1516 C   0  0  0  0  0  0  0  0  0  0  0  0
   -8.3944   -4.7621    8.3249 C   0  0  0  0  0  0  0  0  0  0  0  0
  1  9  2  0
  2 10  2  0
  3  8  1  0
  3 10  1  0
  3 12  1  0
  4  7  1  0
  4 11  1  0
  4 13  1  0
  5  9  1  0
  5 10  1  0
  5 14  1  0
  6  8  1  0
  6 11  2  0
  7  8  2  0
  7  9  1  0
M  END
> <PUBCHEM_COMPOUND_CID>
2519

> <PUBCHEM_CONFORMER_RMSD>
0.4

> <PUBCHEM_CONFORMER_DIVERSEORDER>
1

> <PUBCHEM_MMFF94_PARTIAL_CHARGES>
15
1 -0.57
10 0.69
11 0.04
12 0.3
13 0.26
14 0.3
15 0.15
2 -0.57
3 -0.42
4 0.05
5 -0.42
6 -0.57
7 -0.24
8 0.29
9 0.71

> <PUBCHEM_EFFECTIVE_ROTOR_COUNT>
0

> <PUBCHEM_PHARMACOPHORE_FEATURES>
5
1 1 acceptor
1 2 acceptor
3 4 6 11 cation
5 4 6 7 8 11 rings
6 3 5 7 8 9 10 rings

> <PUBCHEM_HEAVY_ATOM_COUNT>
14

> <PUBCHEM_ATOM_DEF_STEREO_COUNT>
0

> <PUBCHEM_ATOM_UDEF_STEREO_COUNT>
0

> <PUBCHEM_BOND_DEF_STEREO_COUNT>
0

> <PUBCHEM_BOND_UDEF_STEREO_COUNT>
0

> <PUBCHEM_ISOTOPIC_ATOM_COUNT>
0

> <PUBCHEM_COMPONENT_COUNT>
1

> <PUBCHEM_CACTVS_TAUTO_COUNT>
1

> <PUBCHEM_CONFORMER_ID>
000009D700000001

> <PUBCHEM_MMFF94_ENERGY>
22.901

> <PUBCHEM_FEATURE_SELFOVERLAP>
25.487

> <PUBCHEM_SHAPE_FINGERPRINT>
10967382 1 18338799025773621285
11132069 177 18339075025094499008
12524768 44 18342463625094026902
13140716 1 17978511158789908153
16945 1 18338517550775811621
193761 8 15816500986559935910
20588541 1 18339082691204868851
21501502 16 18338796715286957384
22802520 49 18128840606503503494
2334 1 18338516344016692929
23402539 116 18270382932679789735
23552423 10 18262240993325675966
23559900 14 18199193898169584358
241688 4 18266458702623303353
2748010 2 18266180539182415717
5084963 1 17698433339235542986
528886 8 18267580380709240570
53812653 166 18198902694142226312
66348 1 18339079396917369615

> <PUBCHEM_SHAPE_MULTIPOLES>
256.45
4.01
2.83
0.58
0.71
0.08
0
-0.48
0
-0.81
0
0.01
0
0

> <PUBCHEM_SHAPE_SELFOVERLAP>
550.88

> <PUBCHEM_SHAPE_VOLUME>
143.9

> <PUBCHEM_COORDINATE_TYPE>
2
5
10

> <Energy>
-122.511

> <minimizedAffinity>
-5.35541

> <CNNscore>
0.3230393529

> <CNNaffinity>
4.7032504082

> <CNN_VS>
1.5193349123

> <CNNaffinity_variance>
0.6534550190

$$$$
2519


 14 15  0  0  0  0  0  0  0  0999 V2000
   -8.7556   -6.3450    9.1149 O   0  0  0  0  0  0  0  0  0  0  0  0
   -9.7395   -2.1822   10.8866 O   0  0  0  0  0  0  0  0  0  0  0  0
   -8.0333   -3.3895   11.8543 N   0  0  0  0  0  0  0  0  0  0  0  0
   -6.6332   -6.5161   11.2145 N   0  0  0  0  0  0  0  0  0  0  0  0
   -9.2668   -4.2519    9.9888 N   0  0  0  0  0  0  0  0  0  0  0  0
   -6.2828   -4.8785   12.6787 N   0  0  0  0  0  0  0  0  0  0  0  0
   -7.5405   -5.5378   10.9250 C   0  0  0  0  0  0  0  0  0  0  0  0
   -7.3015   -4.5539   11.8351 C   0  0  0  0  0  0  0  0  0  0  0  0
   -8.5503   -5.4511    9.9304 C   0  0  0  0  0  0  0  0  0  0  0  0
   -9.0515   -3.2076   10.9150 C   0  0  0  0  0  0  0  0  0  0  0  0
   -5.8952   -6.0743   12.2807 C   0  0  0  0  0  0  0  0  0  0  0  0
   -7.7431   -2.3662   12.8437 C   0  0  0  0  0  0  0  0  0  0  0  0
   -6.4747   -7.7759   10.5339 C   0  0  0  0  0  0  0  0  0  0  0  0
  -10.3261   -4.0487    9.0194 C   0  0  0  0  0  0  0  0  0  0  0  0
  1  9  2  0
  2 10  2  0
  3  8  1  0
  3 10  1  0
  3 12  1  0
  4  7  1  0
  4 11  1  0
  4 13  1  0
  5  9  1  0
  5 10  1  0
  5 14  1  0
  6  8  1  0
  6 11  2  0
  7  8  2  0
  7  9  1  0
M  END
> <PUBCHEM_COMPOUND_CID>
2519

> <PUBCHEM_CONFORMER_RMSD>
0.4

> <PUBCHEM_CONFORMER_DIVERSEORDER>
1

> <PUBCHEM_MMFF94_PARTIAL_CHARGES>
15
1 -0.57
10 0.69
11 0.04
12 0.3
13 0.26
14 0.3
15 0.15
2 -0.57
3 -0.42
4 0.05
5 -0.42
6 -0.57
7 -0.24
8 0.29
9 0.71

> <PUBCHEM_EFFECTIVE_ROTOR_COUNT>
0

> <PUBCHEM_PHARMACOPHORE_FEATURES>
5
1 1 acceptor
1 2 acceptor
3 4 6 11 cation
5 4 6 7 8 11 rings
6 3 5 7 8 9 10 rings

> <PUBCHEM_HEAVY_ATOM_COUNT>
14

> <PUBCHEM_ATOM_DEF_STEREO_COUNT>
0

> <PUBCHEM_ATOM_UDEF_STEREO_COUNT>
0

> <PUBCHEM_BOND_DEF_STEREO_COUNT>
0

> <PUBCHEM_BOND_UDEF_STEREO_COUNT>
0

> <PUBCHEM_ISOTOPIC_ATOM_COUNT>
0

> <PUBCHEM_COMPONENT_COUNT>
1

> <PUBCHEM_CACTVS_TAUTO_COUNT>
1

> <PUBCHEM_CONFORMER_ID>
000009D700000001

> <PUBCHEM_MMFF94_ENERGY>
22.901

> <PUBCHEM_FEATURE_SELFOVERLAP>
25.487

> <PUBCHEM_SHAPE_FINGERPRINT>
10967382 1 18338799025773621285
11132069 177 18339075025094499008
12524768 44 18342463625094026902
13140716 1 17978511158789908153
16945 1 18338517550775811621
193761 8 15816500986559935910
20588541 1 18339082691204868851
21501502 16 18338796715286957384
22802520 49 18128840606503503494
2334 1 18338516344016692929
23402539 116 18270382932679789735
23552423 10 18262240993325675966
23559900 14 18199193898169584358
241688 4 18266458702623303353
2748010 2 18266180539182415717
5084963 1 17698433339235542986
528886 8 18267580380709240570
53812653 166 18198902694142226312
66348 1 18339079396917369615

> <PUBCHEM_SHAPE_MULTIPOLES>
256.45
4.01
2.83
0.58
0.71
0.08
0
-0.48
0
-0.81
0
0.01
0
0

> <PUBCHEM_SHAPE_SELFOVERLAP>
550.88

> <PUBCHEM_SHAPE_VOLUME>
143.9

> <PUBCHEM_COORDINATE_TYPE>
2
5
10

> <Energy>
-122.511

> <minimizedAffinity>
-5.09015

> <CNNscore>
0.3230344057

> <CNNaffinity>
4.6889209747

> <CNN_VS>
1.5146827698

> <CNNaffinity_variance>
0.5163145661

$$$$
