5991


 24 27  0  0  0  0  0  0  0  0999 V2000
    1.6261   -2.4636   -3.1406 O   0  0  0  0  0  0  0  0  0  0  0  0
   11.4949    1.1299   -6.3400 O   0  0  0  0  0  0  0  0  0  0  0  0
    3.6598   -1.2900   -3.9158 C   0  0  0  0  0  0  0  0  0  0  0  0
    3.9957    0.2193   -3.9222 C   0  0  0  0  0  0  0  0  0  0  0  0
    5.4973    0.4877   -4.0490 C   0  0  0  0  0  0  0  0  0  0  0  0
    2.1213   -1.2350   -3.6588 C   0  0  0  0  0  0  0  0  0  0  0  0
    6.0046   -0.1106   -5.3955 C   0  0  0  0  0  0  0  0  0  0  0  0
    4.1334   -1.8887   -5.2537 C   0  0  0  0  0  0  0  0  0  0  0  0
    3.2562    0.7545   -2.6987 C   0  0  0  0  0  0  0  0  0  0  0  0
    5.6256   -1.6091   -5.5217 C   0  0  0  0  0  0  0  0  0  0  0  0
    1.9888   -0.1156   -2.5922 C   0  0  0  0  0  0  0  0  0  0  0  0
    5.8298    1.9813   -4.0119 C   0  0  0  0  0  0  0  0  0  0  0  0
    4.3482   -2.0779   -2.7622 C   0  0  0  0  0  0  0  0  0  0  0  0
    7.4840    0.2021   -5.6176 C   0  0  0  0  0  0  0  0  0  0  0  0
    7.3427    2.1742   -3.9910 C   0  0  0  0  0  0  0  0  0  0  0  0
    8.0849    1.3096   -4.9794 C   0  0  0  0  0  0  0  0  0  0  0  0
    8.2564   -0.5408   -6.5269 C   0  0  0  0  0  0  0  0  0  0  0  0
    9.4404    1.6072   -5.2175 C   0  0  0  0  0  0  0  0  0  0  0  0
    9.6018   -0.2278   -6.7630 C   0  0  0  0  0  0  0  0  0  0  0  0
   10.1839    0.8422   -6.1013 C   0  0  0  0  0  0  0  0  0  0  0  0
    2.1329   -2.7092   -2.3509 H   0  0  0  0  0  0  0  0  0  0  0  0
   11.9040    1.8497   -5.9012 H   0  0  0  0  0  0  0  0  0  0  0  0
    1.3303   -0.8924   -4.8558 C   0  0  0  0  0  0  0  0  0  0  0  0
    0.6910   -0.6250   -5.8396 C   0  0  0  0  0  0  0  0  0  0  0  0
  1  6  1  0
  1 21  1  0
  2 20  1  0
  2 22  1  0
  3  4  1  0
  3  6  1  0
  3  8  1  0
  3 13  1  0
  4  5  1  0
  4  9  1  0
  5  7  1  0
  5 12  1  0
  6 11  1  0
  6 23  1  0
  7 10  1  0
  7 14  1  0
  8 10  1  0
  9 11  1  0
 12 15  1  0
 14 16  2  0
 14 17  1  0
 15 16  1  0
 16 18  1  0
 23 24  3  0
 17 19  2  0
 18 20  2  0
 19 20  1  0
M  END
> <PUBCHEM_COMPOUND_CID>
5991

> <PUBCHEM_CONFORMER_RMSD>
0.6

> <PUBCHEM_CONFORMER_DIVERSEORDER>
1

> <PUBCHEM_MMFF94_PARTIAL_CHARGES>
19
1 -0.68
14 -0.14
15 0.14
16 -0.14
17 -0.2
18 -0.15
19 -0.15
2 -0.53
20 -0.15
21 0.08
22 -0.18
41 0.4
42 0.15
43 0.15
44 0.15
45 0.18
46 0.45
6 0.48
7 0.14

> <PUBCHEM_EFFECTIVE_ROTOR_COUNT>
1.4

> <PUBCHEM_PHARMACOPHORE_FEATURES>
8
1 1 acceptor
1 1 donor
1 2 donor
1 22 hydrophobe
5 3 4 6 9 11 rings
6 14 16 18 19 20 21 rings
6 3 4 5 7 8 10 rings
6 5 7 12 14 15 16 rings

> <PUBCHEM_HEAVY_ATOM_COUNT>
22

> <PUBCHEM_ATOM_DEF_STEREO_COUNT>
5

> <PUBCHEM_ATOM_UDEF_STEREO_COUNT>
0

> <PUBCHEM_BOND_DEF_STEREO_COUNT>
0

> <PUBCHEM_BOND_UDEF_STEREO_COUNT>
0

> <PUBCHEM_ISOTOPIC_ATOM_COUNT>
0

> <PUBCHEM_COMPONENT_COUNT>
1

> <PUBCHEM_CACTVS_TAUTO_COUNT>
9

> <PUBCHEM_CONFORMER_ID>
0000176700000001

> <PUBCHEM_MMFF94_ENERGY>
75.3654

> <PUBCHEM_FEATURE_SELFOVERLAP>
40.689

> <PUBCHEM_SHAPE_FINGERPRINT>
10498660 4 18334565854482978588
10616163 171 18412261769892000550
10906281 52 18268729332496851400
10967382 1 18409163299196382730
11132069 177 18260823830106114581
11315181 36 17846777438100329984
11552529 35 18058445585631877095
11578080 2 16952518088400902894
11796584 16 15123796154675551020
12107183 9 17697047933183828707
12236239 1 17917992754997443209
12403259 415 18260540148118003532
12403814 3 17531241756051219503
12633257 1 18411416168188185458
12644460 14 18260827060354363322
12788726 201 17059505002047033793
128620 24 17385724690407290772
13140716 1 18264499557760559337
13224815 77 18408318891198213202
13675066 3 17749393654488776519
14790565 3 18338806709892665688
15163728 17 15481289097577292713
15183329 4 18408605830407435614
15196674 1 18337388339818468438
15209289 33 18341332270467662817
15209294 21 18059584555192331817
15309172 13 18409451371427638915
15536298 74 18341610425830279326
15788980 27 17749105603943632888
16945 1 18265320738190372627
17349148 13 18114176445825312880
1813 80 17530976782159466655
18186145 218 18409161126111612646
19489759 90 15410896249631894657
19591789 44 18193273216009210722
200 152 17918273168974754922
21033648 29 17968079933063946356
21267235 1 18338240469814837151
21623110 236 18263368155990106261
23402539 116 18410566319162361766
23402655 69 18201721773563375622
23559900 14 18341325700027887232
335352 9 18410007719541319564
34934 24 18335695014618288215
350125 39 18408603674022772468
3545911 37 18408602569419241710
3680242 22 18335416829913620042
4214541 1 18412824715549947695
474 4 18408605889666299408
5104073 3 18339077194179428906
542803 24 17561084709247609168
59755656 215 18335983078396721054
633830 44 18202282537272954908
9709674 26 18410014338397756278

> <PUBCHEM_SHAPE_MULTIPOLES>
441.01
10.64
2.03
1.22
7.18
0.55
-0.05
-1.94
-1.01
0.21
-0.15
-1.94
-0.33
-0.49

> <PUBCHEM_SHAPE_SELFOVERLAP>
961.464

> <PUBCHEM_SHAPE_VOLUME>
238.8

> <PUBCHEM_COORDINATE_TYPE>
2
5
10

> <Energy>
61.5647

> <minimizedAffinity>
-8.82043

> <CNNscore>
0.8848661184

> <CNNaffinity>
7.9439177513

> <CNN_VS>
7.0293035507

> <CNNaffinity_variance>
0.4090688527

$$$$
5991


 24 27  0  0  0  0  0  0  0  0999 V2000
    1.0866   -2.1917   -4.1165 O   0  0  0  0  0  0  0  0  0  0  0  0
   11.3158    1.3235   -6.0001 O   0  0  0  0  0  0  0  0  0  0  0  0
    3.2515   -1.3071   -4.9195 C   0  0  0  0  0  0  0  0  0  0  0  0
    3.5586   -0.3291   -6.0771 C   0  0  0  0  0  0  0  0  0  0  0  0
    4.9437    0.3109   -5.9554 C   0  0  0  0  0  0  0  0  0  0  0  0
    1.7740   -1.6837   -5.2534 C   0  0  0  0  0  0  0  0  0  0  0  0
    6.0232   -0.8123   -5.9927 C   0  0  0  0  0  0  0  0  0  0  0  0
    4.2972   -2.4373   -4.9613 C   0  0  0  0  0  0  0  0  0  0  0  0
    2.3320    0.5790   -6.1116 C   0  0  0  0  0  0  0  0  0  0  0  0
    5.7407   -1.8976   -4.9214 C   0  0  0  0  0  0  0  0  0  0  0  0
    1.1598   -0.3250   -5.6836 C   0  0  0  0  0  0  0  0  0  0  0  0
    5.2270    1.3105   -7.0794 C   0  0  0  0  0  0  0  0  0  0  0  0
    3.3099   -0.6453   -3.5109 C   0  0  0  0  0  0  0  0  0  0  0  0
    7.4339   -0.2254   -5.9608 C   0  0  0  0  0  0  0  0  0  0  0  0
    6.5520    2.0198   -6.8191 C   0  0  0  0  0  0  0  0  0  0  0  0
    7.6683    1.0979   -6.3954 C   0  0  0  0  0  0  0  0  0  0  0  0
    8.5401   -1.0092   -5.5902 C   0  0  0  0  0  0  0  0  0  0  0  0
    8.9773    1.6167   -6.3925 C   0  0  0  0  0  0  0  0  0  0  0  0
    9.8394   -0.4841   -5.6017 C   0  0  0  0  0  0  0  0  0  0  0  0
   10.0459    0.8278   -5.9988 C   0  0  0  0  0  0  0  0  0  0  0  0
    1.1595   -1.5588   -3.3850 H   0  0  0  0  0  0  0  0  0  0  0  0
   11.4732    2.2082   -6.2656 H   0  0  0  0  0  0  0  0  0  0  0  0
    1.6433   -2.6684   -6.3438 C   0  0  0  0  0  0  0  0  0  0  0  0
    1.5260   -3.4792   -7.2252 C   0  0  0  0  0  0  0  0  0  0  0  0
  1  6  1  0
  1 21  1  0
  2 20  1  0
  2 22  1  0
  3  4  1  0
  3  6  1  0
  3  8  1  0
  3 13  1  0
  4  5  1  0
  4  9  1  0
  5  7  1  0
  5 12  1  0
  6 11  1  0
  6 23  1  0
  7 10  1  0
  7 14  1  0
  8 10  1  0
  9 11  1  0
 12 15  1  0
 14 16  2  0
 14 17  1  0
 15 16  1  0
 16 18  1  0
 23 24  3  0
 17 19  2  0
 18 20  2  0
 19 20  1  0
M  END
> <PUBCHEM_COMPOUND_CID>
5991

> <PUBCHEM_CONFORMER_RMSD>
0.6

> <PUBCHEM_CONFORMER_DIVERSEORDER>
1

> <PUBCHEM_MMFF94_PARTIAL_CHARGES>
19
1 -0.68
14 -0.14
15 0.14
16 -0.14
17 -0.2
18 -0.15
19 -0.15
2 -0.53
20 -0.15
21 0.08
22 -0.18
41 0.4
42 0.15
43 0.15
44 0.15
45 0.18
46 0.45
6 0.48
7 0.14

> <PUBCHEM_EFFECTIVE_ROTOR_COUNT>
1.4

> <PUBCHEM_PHARMACOPHORE_FEATURES>
8
1 1 acceptor
1 1 donor
1 2 donor
1 22 hydrophobe
5 3 4 6 9 11 rings
6 14 16 18 19 20 21 rings
6 3 4 5 7 8 10 rings
6 5 7 12 14 15 16 rings

> <PUBCHEM_HEAVY_ATOM_COUNT>
22

> <PUBCHEM_ATOM_DEF_STEREO_COUNT>
5

> <PUBCHEM_ATOM_UDEF_STEREO_COUNT>
0

> <PUBCHEM_BOND_DEF_STEREO_COUNT>
0

> <PUBCHEM_BOND_UDEF_STEREO_COUNT>
0

> <PUBCHEM_ISOTOPIC_ATOM_COUNT>
0

> <PUBCHEM_COMPONENT_COUNT>
1

> <PUBCHEM_CACTVS_TAUTO_COUNT>
9

> <PUBCHEM_CONFORMER_ID>
0000176700000001

> <PUBCHEM_MMFF94_ENERGY>
75.3654

> <PUBCHEM_FEATURE_SELFOVERLAP>
40.689

> <PUBCHEM_SHAPE_FINGERPRINT>
10498660 4 18334565854482978588
10616163 171 18412261769892000550
10906281 52 18268729332496851400
10967382 1 18409163299196382730
11132069 177 18260823830106114581
11315181 36 17846777438100329984
11552529 35 18058445585631877095
11578080 2 16952518088400902894
11796584 16 15123796154675551020
12107183 9 17697047933183828707
12236239 1 17917992754997443209
12403259 415 18260540148118003532
12403814 3 17531241756051219503
12633257 1 18411416168188185458
12644460 14 18260827060354363322
12788726 201 17059505002047033793
128620 24 17385724690407290772
13140716 1 18264499557760559337
13224815 77 18408318891198213202
13675066 3 17749393654488776519
14790565 3 18338806709892665688
15163728 17 15481289097577292713
15183329 4 18408605830407435614
15196674 1 18337388339818468438
15209289 33 18341332270467662817
15209294 21 18059584555192331817
15309172 13 18409451371427638915
15536298 74 18341610425830279326
15788980 27 17749105603943632888
16945 1 18265320738190372627
17349148 13 18114176445825312880
1813 80 17530976782159466655
18186145 218 18409161126111612646
19489759 90 15410896249631894657
19591789 44 18193273216009210722
200 152 17918273168974754922
21033648 29 17968079933063946356
21267235 1 18338240469814837151
21623110 236 18263368155990106261
23402539 116 18410566319162361766
23402655 69 18201721773563375622
23559900 14 18341325700027887232
335352 9 18410007719541319564
34934 24 18335695014618288215
350125 39 18408603674022772468
3545911 37 18408602569419241710
3680242 22 18335416829913620042
4214541 1 18412824715549947695
474 4 18408605889666299408
5104073 3 18339077194179428906
542803 24 17561084709247609168
59755656 215 18335983078396721054
633830 44 18202282537272954908
9709674 26 18410014338397756278

> <PUBCHEM_SHAPE_MULTIPOLES>
441.01
10.64
2.03
1.22
7.18
0.55
-0.05
-1.94
-1.01
0.21
-0.15
-1.94
-0.33
-0.49

> <PUBCHEM_SHAPE_SELFOVERLAP>
961.464

> <PUBCHEM_SHAPE_VOLUME>
238.8

> <PUBCHEM_COORDINATE_TYPE>
2
5
10

> <Energy>
61.5647

> <minimizedAffinity>
1.46031

> <CNNscore>
0.4826341867

> <CNNaffinity>
6.7718853951

> <CNN_VS>
3.2683434486

> <CNNaffinity_variance>
0.3599463701

$$$$
5991


 24 27  0  0  0  0  0  0  0  0999 V2000
    2.1948   -0.1880   -2.2723 O   0  0  0  0  0  0  0  0  0  0  0  0
   11.3317    2.1960   -7.8737 O   0  0  0  0  0  0  0  0  0  0  0  0
    4.1663    0.0078   -3.7520 C   0  0  0  0  0  0  0  0  0  0  0  0
    4.4166   -0.5828   -5.1588 C   0  0  0  0  0  0  0  0  0  0  0  0
    5.5423    0.1353   -5.9071 C   0  0  0  0  0  0  0  0  0  0  0  0
    2.9237   -0.8283   -3.3124 C   0  0  0  0  0  0  0  0  0  0  0  0
    6.8635   -0.0144   -5.0946 C   0  0  0  0  0  0  0  0  0  0  0  0
    5.4581   -0.1577   -2.9295 C   0  0  0  0  0  0  0  0  0  0  0  0
    3.0247   -0.6155   -5.7847 C   0  0  0  0  0  0  0  0  0  0  0  0
    6.6802    0.4669   -3.6317 C   0  0  0  0  0  0  0  0  0  0  0  0
    2.0684   -0.8826   -4.6062 C   0  0  0  0  0  0  0  0  0  0  0  0
    5.7584   -0.4240   -7.3154 C   0  0  0  0  0  0  0  0  0  0  0  0
    3.7922    1.5195   -3.7670 C   0  0  0  0  0  0  0  0  0  0  0  0
    8.0438    0.6113   -5.8370 C   0  0  0  0  0  0  0  0  0  0  0  0
    6.7837    0.4266   -8.0581 C   0  0  0  0  0  0  0  0  0  0  0  0
    8.0033    0.7708   -7.2399 C   0  0  0  0  0  0  0  0  0  0  0  0
    9.2277    0.9559   -5.1627 C   0  0  0  0  0  0  0  0  0  0  0  0
    9.1100    1.3182   -7.9168 C   0  0  0  0  0  0  0  0  0  0  0  0
   10.3262    1.4902   -5.8496 C   0  0  0  0  0  0  0  0  0  0  0  0
   10.2554    1.6713   -7.2221 C   0  0  0  0  0  0  0  0  0  0  0  0
    1.9661    0.7142   -2.5457 H   0  0  0  0  0  0  0  0  0  0  0  0
   11.3007    2.3250   -8.8013 H   0  0  0  0  0  0  0  0  0  0  0  0
    3.2544   -2.1942   -2.8643 C   0  0  0  0  0  0  0  0  0  0  0  0
    3.5360   -3.3087   -2.5084 C   0  0  0  0  0  0  0  0  0  0  0  0
  1  6  1  0
  1 21  1  0
  2 20  1  0
  2 22  1  0
  3  4  1  0
  3  6  1  0
  3  8  1  0
  3 13  1  0
  4  5  1  0
  4  9  1  0
  5  7  1  0
  5 12  1  0
  6 11  1  0
  6 23  1  0
  7 10  1  0
  7 14  1  0
  8 10  1  0
  9 11  1  0
 12 15  1  0
 14 16  2  0
 14 17  1  0
 15 16  1  0
 16 18  1  0
 23 24  3  0
 17 19  2  0
 18 20  2  0
 19 20  1  0
M  END
> <PUBCHEM_COMPOUND_CID>
5991

> <PUBCHEM_CONFORMER_RMSD>
0.6

> <PUBCHEM_CONFORMER_DIVERSEORDER>
1

> <PUBCHEM_MMFF94_PARTIAL_CHARGES>
19
1 -0.68
14 -0.14
15 0.14
16 -0.14
17 -0.2
18 -0.15
19 -0.15
2 -0.53
20 -0.15
21 0.08
22 -0.18
41 0.4
42 0.15
43 0.15
44 0.15
45 0.18
46 0.45
6 0.48
7 0.14

> <PUBCHEM_EFFECTIVE_ROTOR_COUNT>
1.4

> <PUBCHEM_PHARMACOPHORE_FEATURES>
8
1 1 acceptor
1 1 donor
1 2 donor
1 22 hydrophobe
5 3 4 6 9 11 rings
6 14 16 18 19 20 21 rings
6 3 4 5 7 8 10 rings
6 5 7 12 14 15 16 rings

> <PUBCHEM_HEAVY_ATOM_COUNT>
22

> <PUBCHEM_ATOM_DEF_STEREO_COUNT>
5

> <PUBCHEM_ATOM_UDEF_STEREO_COUNT>
0

> <PUBCHEM_BOND_DEF_STEREO_COUNT>
0

> <PUBCHEM_BOND_UDEF_STEREO_COUNT>
0

> <PUBCHEM_ISOTOPIC_ATOM_COUNT>
0

> <PUBCHEM_COMPONENT_COUNT>
1

> <PUBCHEM_CACTVS_TAUTO_COUNT>
9

> <PUBCHEM_CONFORMER_ID>
0000176700000001

> <PUBCHEM_MMFF94_ENERGY>
75.3654

> <PUBCHEM_FEATURE_SELFOVERLAP>
40.689

> <PUBCHEM_SHAPE_FINGERPRINT>
10498660 4 18334565854482978588
10616163 171 18412261769892000550
10906281 52 18268729332496851400
10967382 1 18409163299196382730
11132069 177 18260823830106114581
11315181 36 17846777438100329984
11552529 35 18058445585631877095
11578080 2 16952518088400902894
11796584 16 15123796154675551020
12107183 9 17697047933183828707
12236239 1 17917992754997443209
12403259 415 18260540148118003532
12403814 3 17531241756051219503
12633257 1 18411416168188185458
12644460 14 18260827060354363322
12788726 201 17059505002047033793
128620 24 17385724690407290772
13140716 1 18264499557760559337
13224815 77 18408318891198213202
13675066 3 17749393654488776519
14790565 3 18338806709892665688
15163728 17 15481289097577292713
15183329 4 18408605830407435614
15196674 1 18337388339818468438
15209289 33 18341332270467662817
15209294 21 18059584555192331817
15309172 13 18409451371427638915
15536298 74 18341610425830279326
15788980 27 17749105603943632888
16945 1 18265320738190372627
17349148 13 18114176445825312880
1813 80 17530976782159466655
18186145 218 18409161126111612646
19489759 90 15410896249631894657
19591789 44 18193273216009210722
200 152 17918273168974754922
21033648 29 17968079933063946356
21267235 1 18338240469814837151
21623110 236 18263368155990106261
23402539 116 18410566319162361766
23402655 69 18201721773563375622
23559900 14 18341325700027887232
335352 9 18410007719541319564
34934 24 18335695014618288215
350125 39 18408603674022772468
3545911 37 18408602569419241710
3680242 22 18335416829913620042
4214541 1 18412824715549947695
474 4 18408605889666299408
5104073 3 18339077194179428906
542803 24 17561084709247609168
59755656 215 18335983078396721054
633830 44 18202282537272954908
9709674 26 18410014338397756278

> <PUBCHEM_SHAPE_MULTIPOLES>
441.01
10.64
2.03
1.22
7.18
0.55
-0.05
-1.94
-1.01
0.21
-0.15
-1.94
-0.33
-0.49

> <PUBCHEM_SHAPE_SELFOVERLAP>
961.464

> <PUBCHEM_SHAPE_VOLUME>
238.8

> <PUBCHEM_COORDINATE_TYPE>
2
5
10

> <Energy>
61.5647

> <minimizedAffinity>
-6.31741

> <CNNscore>
0.4700310230

> <CNNaffinity>
7.5181446075

> <CNN_VS>
3.5337612629

> <CNNaffinity_variance>
0.5862110257

$$$$
5991


 24 27  0  0  0  0  0  0  0  0999 V2000
    1.1025   -1.9044   -5.0335 O   0  0  0  0  0  0  0  0  0  0  0  0
   11.1927    1.6227   -7.5413 O   0  0  0  0  0  0  0  0  0  0  0  0
    3.4391   -1.1106   -5.1892 C   0  0  0  0  0  0  0  0  0  0  0  0
    4.6046   -1.2454   -4.1822 C   0  0  0  0  0  0  0  0  0  0  0  0
    5.9734   -1.0347   -4.8341 C   0  0  0  0  0  0  0  0  0  0  0  0
    2.2319   -1.4889   -4.2752 C   0  0  0  0  0  0  0  0  0  0  0  0
    6.0325    0.4044   -5.4288 C   0  0  0  0  0  0  0  0  0  0  0  0
    3.4708    0.3176   -5.7656 C   0  0  0  0  0  0  0  0  0  0  0  0
    4.3216   -2.5734   -3.4848 C   0  0  0  0  0  0  0  0  0  0  0  0
    4.8392    0.6662   -6.3841 C   0  0  0  0  0  0  0  0  0  0  0  0
    2.7847   -2.6797   -3.4477 C   0  0  0  0  0  0  0  0  0  0  0  0
    7.1266   -1.2112   -3.8434 C   0  0  0  0  0  0  0  0  0  0  0  0
    3.5214   -2.1140   -6.3774 C   0  0  0  0  0  0  0  0  0  0  0  0
    7.4100    0.7030   -6.0195 C   0  0  0  0  0  0  0  0  0  0  0  0
    8.4591   -1.1377   -4.5821 C   0  0  0  0  0  0  0  0  0  0  0  0
    8.5481   -0.0059   -5.5754 C   0  0  0  0  0  0  0  0  0  0  0  0
    7.5951    1.7452   -6.9442 C   0  0  0  0  0  0  0  0  0  0  0  0
    9.8169    0.3007   -6.1032 C   0  0  0  0  0  0  0  0  0  0  0  0
    8.8650    2.0474   -7.4541 C   0  0  0  0  0  0  0  0  0  0  0  0
    9.9655    1.3179   -7.0319 C   0  0  0  0  0  0  0  0  0  0  0  0
    1.3617   -2.6211   -5.6334 H   0  0  0  0  0  0  0  0  0  0  0  0
   11.9471    1.1396   -7.2667 H   0  0  0  0  0  0  0  0  0  0  0  0
    1.8030   -0.4010   -3.3759 C   0  0  0  0  0  0  0  0  0  0  0  0
    1.4540    0.4767   -2.6305 C   0  0  0  0  0  0  0  0  0  0  0  0
  1  6  1  0
  1 21  1  0
  2 20  1  0
  2 22  1  0
  3  4  1  0
  3  6  1  0
  3  8  1  0
  3 13  1  0
  4  5  1  0
  4  9  1  0
  5  7  1  0
  5 12  1  0
  6 11  1  0
  6 23  1  0
  7 10  1  0
  7 14  1  0
  8 10  1  0
  9 11  1  0
 12 15  1  0
 14 16  2  0
 14 17  1  0
 15 16  1  0
 16 18  1  0
 23 24  3  0
 17 19  2  0
 18 20  2  0
 19 20  1  0
M  END
> <PUBCHEM_COMPOUND_CID>
5991

> <PUBCHEM_CONFORMER_RMSD>
0.6

> <PUBCHEM_CONFORMER_DIVERSEORDER>
1

> <PUBCHEM_MMFF94_PARTIAL_CHARGES>
19
1 -0.68
14 -0.14
15 0.14
16 -0.14
17 -0.2
18 -0.15
19 -0.15
2 -0.53
20 -0.15
21 0.08
22 -0.18
41 0.4
42 0.15
43 0.15
44 0.15
45 0.18
46 0.45
6 0.48
7 0.14

> <PUBCHEM_EFFECTIVE_ROTOR_COUNT>
1.4

> <PUBCHEM_PHARMACOPHORE_FEATURES>
8
1 1 acceptor
1 1 donor
1 2 donor
1 22 hydrophobe
5 3 4 6 9 11 rings
6 14 16 18 19 20 21 rings
6 3 4 5 7 8 10 rings
6 5 7 12 14 15 16 rings

> <PUBCHEM_HEAVY_ATOM_COUNT>
22

> <PUBCHEM_ATOM_DEF_STEREO_COUNT>
5

> <PUBCHEM_ATOM_UDEF_STEREO_COUNT>
0

> <PUBCHEM_BOND_DEF_STEREO_COUNT>
0

> <PUBCHEM_BOND_UDEF_STEREO_COUNT>
0

> <PUBCHEM_ISOTOPIC_ATOM_COUNT>
0

> <PUBCHEM_COMPONENT_COUNT>
1

> <PUBCHEM_CACTVS_TAUTO_COUNT>
9

> <PUBCHEM_CONFORMER_ID>
0000176700000001

> <PUBCHEM_MMFF94_ENERGY>
75.3654

> <PUBCHEM_FEATURE_SELFOVERLAP>
40.689

> <PUBCHEM_SHAPE_FINGERPRINT>
10498660 4 18334565854482978588
10616163 171 18412261769892000550
10906281 52 18268729332496851400
10967382 1 18409163299196382730
11132069 177 18260823830106114581
11315181 36 17846777438100329984
11552529 35 18058445585631877095
11578080 2 16952518088400902894
11796584 16 15123796154675551020
12107183 9 17697047933183828707
12236239 1 17917992754997443209
12403259 415 18260540148118003532
12403814 3 17531241756051219503
12633257 1 18411416168188185458
12644460 14 18260827060354363322
12788726 201 17059505002047033793
128620 24 17385724690407290772
13140716 1 18264499557760559337
13224815 77 18408318891198213202
13675066 3 17749393654488776519
14790565 3 18338806709892665688
15163728 17 15481289097577292713
15183329 4 18408605830407435614
15196674 1 18337388339818468438
15209289 33 18341332270467662817
15209294 21 18059584555192331817
15309172 13 18409451371427638915
15536298 74 18341610425830279326
15788980 27 17749105603943632888
16945 1 18265320738190372627
17349148 13 18114176445825312880
1813 80 17530976782159466655
18186145 218 18409161126111612646
19489759 90 15410896249631894657
19591789 44 18193273216009210722
200 152 17918273168974754922
21033648 29 17968079933063946356
21267235 1 18338240469814837151
21623110 236 18263368155990106261
23402539 116 18410566319162361766
23402655 69 18201721773563375622
23559900 14 18341325700027887232
335352 9 18410007719541319564
34934 24 18335695014618288215
350125 39 18408603674022772468
3545911 37 18408602569419241710
3680242 22 18335416829913620042
4214541 1 18412824715549947695
474 4 18408605889666299408
5104073 3 18339077194179428906
542803 24 17561084709247609168
59755656 215 18335983078396721054
633830 44 18202282537272954908
9709674 26 18410014338397756278

> <PUBCHEM_SHAPE_MULTIPOLES>
441.01
10.64
2.03
1.22
7.18
0.55
-0.05
-1.94
-1.01
0.21
-0.15
-1.94
-0.33
-0.49

> <PUBCHEM_SHAPE_SELFOVERLAP>
961.464

> <PUBCHEM_SHAPE_VOLUME>
238.8

> <PUBCHEM_COORDINATE_TYPE>
2
5
10

> <Energy>
61.5647

> <minimizedAffinity>
-3.10701

> <CNNscore>
0.4126871228

> <CNNaffinity>
7.0345740318

> <CNN_VS>
2.9030780792

> <CNNaffinity_variance>
0.3841367066

$$$$
5991


 24 27  0  0  0  0  0  0  0  0999 V2000
    8.8677   -0.2678   -6.9809 O   0  0  0  0  0  0  0  0  0  0  0  0
    0.2790    0.6746   -0.2068 O   0  0  0  0  0  0  0  0  0  0  0  0
    6.8761   -0.4592   -5.5278 C   0  0  0  0  0  0  0  0  0  0  0  0
    6.2602   -1.7010   -4.8429 C   0  0  0  0  0  0  0  0  0  0  0  0
    5.3286   -1.3336   -3.6853 C   0  0  0  0  0  0  0  0  0  0  0  0
    7.8374   -1.1473   -6.5469 C   0  0  0  0  0  0  0  0  0  0  0  0
    4.1533   -0.4724   -4.2377 C   0  0  0  0  0  0  0  0  0  0  0  0
    5.7248    0.3882   -6.1014 C   0  0  0  0  0  0  0  0  0  0  0  0
    7.4697   -2.5875   -4.5574 C   0  0  0  0  0  0  0  0  0  0  0  0
    4.6795    0.7535   -5.0287 C   0  0  0  0  0  0  0  0  0  0  0  0
    8.4445   -2.3105   -5.7183 C   0  0  0  0  0  0  0  0  0  0  0  0
    4.7545   -2.5662   -2.9826 C   0  0  0  0  0  0  0  0  0  0  0  0
    7.7045    0.4396   -4.5626 C   0  0  0  0  0  0  0  0  0  0  0  0
    3.1421   -0.1464   -3.1392 C   0  0  0  0  0  0  0  0  0  0  0  0
    3.9599   -2.1377   -1.7532 C   0  0  0  0  0  0  0  0  0  0  0  0
    3.0374   -0.9691   -1.9959 C   0  0  0  0  0  0  0  0  0  0  0  0
    2.2333    0.9166   -3.2787 C   0  0  0  0  0  0  0  0  0  0  0  0
    2.0794   -0.6776   -1.0060 C   0  0  0  0  0  0  0  0  0  0  0  0
    1.2774    1.1900   -2.2910 C   0  0  0  0  0  0  0  0  0  0  0  0
    1.2123    0.3919   -1.1594 C   0  0  0  0  0  0  0  0  0  0  0  0
    9.3307    0.0936   -6.2090 H   0  0  0  0  0  0  0  0  0  0  0  0
    0.2213    0.1453    0.5642 H   0  0  0  0  0  0  0  0  0  0  0  0
    7.1556   -1.6773   -7.7429 C   0  0  0  0  0  0  0  0  0  0  0  0
    6.6066   -2.1231   -8.7164 C   0  0  0  0  0  0  0  0  0  0  0  0
  1  6  1  0
  1 21  1  0
  2 20  1  0
  2 22  1  0
  3  4  1  0
  3  6  1  0
  3  8  1  0
  3 13  1  0
  4  5  1  0
  4  9  1  0
  5  7  1  0
  5 12  1  0
  6 11  1  0
  6 23  1  0
  7 10  1  0
  7 14  1  0
  8 10  1  0
  9 11  1  0
 12 15  1  0
 14 16  2  0
 14 17  1  0
 15 16  1  0
 16 18  1  0
 23 24  3  0
 17 19  2  0
 18 20  2  0
 19 20  1  0
M  END
> <PUBCHEM_COMPOUND_CID>
5991

> <PUBCHEM_CONFORMER_RMSD>
0.6

> <PUBCHEM_CONFORMER_DIVERSEORDER>
1

> <PUBCHEM_MMFF94_PARTIAL_CHARGES>
19
1 -0.68
14 -0.14
15 0.14
16 -0.14
17 -0.2
18 -0.15
19 -0.15
2 -0.53
20 -0.15
21 0.08
22 -0.18
41 0.4
42 0.15
43 0.15
44 0.15
45 0.18
46 0.45
6 0.48
7 0.14

> <PUBCHEM_EFFECTIVE_ROTOR_COUNT>
1.4

> <PUBCHEM_PHARMACOPHORE_FEATURES>
8
1 1 acceptor
1 1 donor
1 2 donor
1 22 hydrophobe
5 3 4 6 9 11 rings
6 14 16 18 19 20 21 rings
6 3 4 5 7 8 10 rings
6 5 7 12 14 15 16 rings

> <PUBCHEM_HEAVY_ATOM_COUNT>
22

> <PUBCHEM_ATOM_DEF_STEREO_COUNT>
5

> <PUBCHEM_ATOM_UDEF_STEREO_COUNT>
0

> <PUBCHEM_BOND_DEF_STEREO_COUNT>
0

> <PUBCHEM_BOND_UDEF_STEREO_COUNT>
0

> <PUBCHEM_ISOTOPIC_ATOM_COUNT>
0

> <PUBCHEM_COMPONENT_COUNT>
1

> <PUBCHEM_CACTVS_TAUTO_COUNT>
9

> <PUBCHEM_CONFORMER_ID>
0000176700000001

> <PUBCHEM_MMFF94_ENERGY>
75.3654

> <PUBCHEM_FEATURE_SELFOVERLAP>
40.689

> <PUBCHEM_SHAPE_FINGERPRINT>
10498660 4 18334565854482978588
10616163 171 18412261769892000550
10906281 52 18268729332496851400
10967382 1 18409163299196382730
11132069 177 18260823830106114581
11315181 36 17846777438100329984
11552529 35 18058445585631877095
11578080 2 16952518088400902894
11796584 16 15123796154675551020
12107183 9 17697047933183828707
12236239 1 17917992754997443209
12403259 415 18260540148118003532
12403814 3 17531241756051219503
12633257 1 18411416168188185458
12644460 14 18260827060354363322
12788726 201 17059505002047033793
128620 24 17385724690407290772
13140716 1 18264499557760559337
13224815 77 18408318891198213202
13675066 3 17749393654488776519
14790565 3 18338806709892665688
15163728 17 15481289097577292713
15183329 4 18408605830407435614
15196674 1 18337388339818468438
15209289 33 18341332270467662817
15209294 21 18059584555192331817
15309172 13 18409451371427638915
15536298 74 18341610425830279326
15788980 27 17749105603943632888
16945 1 18265320738190372627
17349148 13 18114176445825312880
1813 80 17530976782159466655
18186145 218 18409161126111612646
19489759 90 15410896249631894657
19591789 44 18193273216009210722
200 152 17918273168974754922
21033648 29 17968079933063946356
21267235 1 18338240469814837151
21623110 236 18263368155990106261
23402539 116 18410566319162361766
23402655 69 18201721773563375622
23559900 14 18341325700027887232
335352 9 18410007719541319564
34934 24 18335695014618288215
350125 39 18408603674022772468
3545911 37 18408602569419241710
3680242 22 18335416829913620042
4214541 1 18412824715549947695
474 4 18408605889666299408
5104073 3 18339077194179428906
542803 24 17561084709247609168
59755656 215 18335983078396721054
633830 44 18202282537272954908
9709674 26 18410014338397756278

> <PUBCHEM_SHAPE_MULTIPOLES>
441.01
10.64
2.03
1.22
7.18
0.55
-0.05
-1.94
-1.01
0.21
-0.15
-1.94
-0.33
-0.49

> <PUBCHEM_SHAPE_SELFOVERLAP>
961.464

> <PUBCHEM_SHAPE_VOLUME>
238.8

> <PUBCHEM_COORDINATE_TYPE>
2
5
10

> <Energy>
61.5647

> <minimizedAffinity>
28.97338

> <CNNscore>
0.3004174531

> <CNNaffinity>
6.3134922981

> <CNN_VS>
1.8966833353

> <CNNaffinity_variance>
1.0054970980

$$$$
5991


 24 27  0  0  0  0  0  0  0  0999 V2000
    2.2617   -2.3425   -4.1101 O   0  0  0  0  0  0  0  0  0  0  0  0
   12.0518    1.9691   -6.5810 O   0  0  0  0  0  0  0  0  0  0  0  0
    4.3308   -1.3755   -5.0577 C   0  0  0  0  0  0  0  0  0  0  0  0
    4.5579   -0.6225   -6.3889 C   0  0  0  0  0  0  0  0  0  0  0  0
    5.8506    0.1971   -6.3886 C   0  0  0  0  0  0  0  0  0  0  0  0
    2.9221   -1.9940   -5.3207 C   0  0  0  0  0  0  0  0  0  0  0  0
    7.0583   -0.7660   -6.1836 C   0  0  0  0  0  0  0  0  0  0  0  0
    5.5060   -2.3507   -4.8559 C   0  0  0  0  0  0  0  0  0  0  0  0
    3.2328    0.0988   -6.6212 C   0  0  0  0  0  0  0  0  0  0  0  0
    6.8716   -1.6377   -4.9145 C   0  0  0  0  0  0  0  0  0  0  0  0
    2.1639   -0.8389   -6.0273 C   0  0  0  0  0  0  0  0  0  0  0  0
    6.0504    0.9749   -7.6916 C   0  0  0  0  0  0  0  0  0  0  0  0
    4.2598   -0.4393   -3.8151 C   0  0  0  0  0  0  0  0  0  0  0  0
    8.3860   -0.0130   -6.2600 C   0  0  0  0  0  0  0  0  0  0  0  0
    7.2704    1.8825   -7.5705 C   0  0  0  0  0  0  0  0  0  0  0  0
    8.4742    1.2131   -6.9556 C   0  0  0  0  0  0  0  0  0  0  0  0
    9.5650   -0.5604   -5.7256 C   0  0  0  0  0  0  0  0  0  0  0  0
    9.7102    1.8814   -7.0473 C   0  0  0  0  0  0  0  0  0  0  0  0
   10.7911    0.1099   -5.8327 C   0  0  0  0  0  0  0  0  0  0  0  0
   10.8517    1.3291   -6.4896 C   0  0  0  0  0  0  0  0  0  0  0  0
    2.2321   -1.5702   -3.5240 H   0  0  0  0  0  0  0  0  0  0  0  0
   12.1105    2.7940   -7.0215 H   0  0  0  0  0  0  0  0  0  0  0  0
    2.9492   -3.1882   -6.1862 C   0  0  0  0  0  0  0  0  0  0  0  0
    2.9578   -4.1583   -6.8982 C   0  0  0  0  0  0  0  0  0  0  0  0
  1  6  1  0
  1 21  1  0
  2 20  1  0
  2 22  1  0
  3  4  1  0
  3  6  1  0
  3  8  1  0
  3 13  1  0
  4  5  1  0
  4  9  1  0
  5  7  1  0
  5 12  1  0
  6 11  1  0
  6 23  1  0
  7 10  1  0
  7 14  1  0
  8 10  1  0
  9 11  1  0
 12 15  1  0
 14 16  2  0
 14 17  1  0
 15 16  1  0
 16 18  1  0
 23 24  3  0
 17 19  2  0
 18 20  2  0
 19 20  1  0
M  END
> <PUBCHEM_COMPOUND_CID>
5991

> <PUBCHEM_CONFORMER_RMSD>
0.6

> <PUBCHEM_CONFORMER_DIVERSEORDER>
1

> <PUBCHEM_MMFF94_PARTIAL_CHARGES>
19
1 -0.68
14 -0.14
15 0.14
16 -0.14
17 -0.2
18 -0.15
19 -0.15
2 -0.53
20 -0.15
21 0.08
22 -0.18
41 0.4
42 0.15
43 0.15
44 0.15
45 0.18
46 0.45
6 0.48
7 0.14

> <PUBCHEM_EFFECTIVE_ROTOR_COUNT>
1.4

> <PUBCHEM_PHARMACOPHORE_FEATURES>
8
1 1 acceptor
1 1 donor
1 2 donor
1 22 hydrophobe
5 3 4 6 9 11 rings
6 14 16 18 19 20 21 rings
6 3 4 5 7 8 10 rings
6 5 7 12 14 15 16 rings

> <PUBCHEM_HEAVY_ATOM_COUNT>
22

> <PUBCHEM_ATOM_DEF_STEREO_COUNT>
5

> <PUBCHEM_ATOM_UDEF_STEREO_COUNT>
0

> <PUBCHEM_BOND_DEF_STEREO_COUNT>
0

> <PUBCHEM_BOND_UDEF_STEREO_COUNT>
0

> <PUBCHEM_ISOTOPIC_ATOM_COUNT>
0

> <PUBCHEM_COMPONENT_COUNT>
1

> <PUBCHEM_CACTVS_TAUTO_COUNT>
9

> <PUBCHEM_CONFORMER_ID>
0000176700000001

> <PUBCHEM_MMFF94_ENERGY>
75.3654

> <PUBCHEM_FEATURE_SELFOVERLAP>
40.689

> <PUBCHEM_SHAPE_FINGERPRINT>
10498660 4 18334565854482978588
10616163 171 18412261769892000550
10906281 52 18268729332496851400
10967382 1 18409163299196382730
11132069 177 18260823830106114581
11315181 36 17846777438100329984
11552529 35 18058445585631877095
11578080 2 16952518088400902894
11796584 16 15123796154675551020
12107183 9 17697047933183828707
12236239 1 17917992754997443209
12403259 415 18260540148118003532
12403814 3 17531241756051219503
12633257 1 18411416168188185458
12644460 14 18260827060354363322
12788726 201 17059505002047033793
128620 24 17385724690407290772
13140716 1 18264499557760559337
13224815 77 18408318891198213202
13675066 3 17749393654488776519
14790565 3 18338806709892665688
15163728 17 15481289097577292713
15183329 4 18408605830407435614
15196674 1 18337388339818468438
15209289 33 18341332270467662817
15209294 21 18059584555192331817
15309172 13 18409451371427638915
15536298 74 18341610425830279326
15788980 27 17749105603943632888
16945 1 18265320738190372627
17349148 13 18114176445825312880
1813 80 17530976782159466655
18186145 218 18409161126111612646
19489759 90 15410896249631894657
19591789 44 18193273216009210722
200 152 17918273168974754922
21033648 29 17968079933063946356
21267235 1 18338240469814837151
21623110 236 18263368155990106261
23402539 116 18410566319162361766
23402655 69 18201721773563375622
23559900 14 18341325700027887232
335352 9 18410007719541319564
34934 24 18335695014618288215
350125 39 18408603674022772468
3545911 37 18408602569419241710
3680242 22 18335416829913620042
4214541 1 18412824715549947695
474 4 18408605889666299408
5104073 3 18339077194179428906
542803 24 17561084709247609168
59755656 215 18335983078396721054
633830 44 18202282537272954908
9709674 26 18410014338397756278

> <PUBCHEM_SHAPE_MULTIPOLES>
441.01
10.64
2.03
1.22
7.18
0.55
-0.05
-1.94
-1.01
0.21
-0.15
-1.94
-0.33
-0.49

> <PUBCHEM_SHAPE_SELFOVERLAP>
961.464

> <PUBCHEM_SHAPE_VOLUME>
238.8

> <PUBCHEM_COORDINATE_TYPE>
2
5
10

> <Energy>
61.5647

> <minimizedAffinity>
-0.56675

> <CNNscore>
0.2879227698

> <CNNaffinity>
6.6179032326

> <CNN_VS>
1.9054449797

> <CNNaffinity_variance>
0.2627159655

$$$$
5991


 24 27  0  0  0  0  0  0  0  0999 V2000
    6.6719    1.2903   -2.3553 O   0  0  0  0  0  0  0  0  0  0  0  0
   -3.1839    0.3159   -7.0940 O   0  0  0  0  0  0  0  0  0  0  0  0
    4.4040    0.7429   -3.1744 C   0  0  0  0  0  0  0  0  0  0  0  0
    3.2707   -0.0642   -2.4999 C   0  0  0  0  0  0  0  0  0  0  0  0
    1.8999    0.2126   -3.1220 C   0  0  0  0  0  0  0  0  0  0  0  0
    5.6102    0.3479   -2.2661 C   0  0  0  0  0  0  0  0  0  0  0  0
    1.9361   -0.1974   -4.6249 C   0  0  0  0  0  0  0  0  0  0  0  0
    4.4674    0.3273   -4.6563 C   0  0  0  0  0  0  0  0  0  0  0  0
    3.4705    0.2150   -1.0125 C   0  0  0  0  0  0  0  0  0  0  0  0
    3.1095    0.4940   -5.3670 C   0  0  0  0  0  0  0  0  0  0  0  0
    4.9938    0.3739   -0.8421 C   0  0  0  0  0  0  0  0  0  0  0  0
    0.7748   -0.5553   -2.4240 C   0  0  0  0  0  0  0  0  0  0  0  0
    4.1943    2.2849   -3.1126 C   0  0  0  0  0  0  0  0  0  0  0  0
    0.5662   -0.0230   -5.2794 C   0  0  0  0  0  0  0  0  0  0  0  0
   -0.5745   -0.1236   -2.9895 C   0  0  0  0  0  0  0  0  0  0  0  0
   -0.6083   -0.0342   -4.4949 C   0  0  0  0  0  0  0  0  0  0  0  0
    0.4319    0.0589   -6.6761 C   0  0  0  0  0  0  0  0  0  0  0  0
   -1.8670    0.0943   -5.1127 C   0  0  0  0  0  0  0  0  0  0  0  0
   -0.8276    0.1759   -7.2795 C   0  0  0  0  0  0  0  0  0  0  0  0
   -1.9672    0.1974   -6.4906 C   0  0  0  0  0  0  0  0  0  0  0  0
    6.3321    2.1791   -2.1672 H   0  0  0  0  0  0  0  0  0  0  0  0
   -3.9643    0.3321   -6.5756 H   0  0  0  0  0  0  0  0  0  0  0  0
    6.1609   -0.9893   -2.5570 C   0  0  0  0  0  0  0  0  0  0  0  0
    6.6192   -2.0789   -2.7821 C   0  0  0  0  0  0  0  0  0  0  0  0
  1  6  1  0
  1 21  1  0
  2 20  1  0
  2 22  1  0
  3  4  1  0
  3  6  1  0
  3  8  1  0
  3 13  1  0
  4  5  1  0
  4  9  1  0
  5  7  1  0
  5 12  1  0
  6 11  1  0
  6 23  1  0
  7 10  1  0
  7 14  1  0
  8 10  1  0
  9 11  1  0
 12 15  1  0
 14 16  2  0
 14 17  1  0
 15 16  1  0
 16 18  1  0
 23 24  3  0
 17 19  2  0
 18 20  2  0
 19 20  1  0
M  END
> <PUBCHEM_COMPOUND_CID>
5991

> <PUBCHEM_CONFORMER_RMSD>
0.6

> <PUBCHEM_CONFORMER_DIVERSEORDER>
1

> <PUBCHEM_MMFF94_PARTIAL_CHARGES>
19
1 -0.68
14 -0.14
15 0.14
16 -0.14
17 -0.2
18 -0.15
19 -0.15
2 -0.53
20 -0.15
21 0.08
22 -0.18
41 0.4
42 0.15
43 0.15
44 0.15
45 0.18
46 0.45
6 0.48
7 0.14

> <PUBCHEM_EFFECTIVE_ROTOR_COUNT>
1.4

> <PUBCHEM_PHARMACOPHORE_FEATURES>
8
1 1 acceptor
1 1 donor
1 2 donor
1 22 hydrophobe
5 3 4 6 9 11 rings
6 14 16 18 19 20 21 rings
6 3 4 5 7 8 10 rings
6 5 7 12 14 15 16 rings

> <PUBCHEM_HEAVY_ATOM_COUNT>
22

> <PUBCHEM_ATOM_DEF_STEREO_COUNT>
5

> <PUBCHEM_ATOM_UDEF_STEREO_COUNT>
0

> <PUBCHEM_BOND_DEF_STEREO_COUNT>
0

> <PUBCHEM_BOND_UDEF_STEREO_COUNT>
0

> <PUBCHEM_ISOTOPIC_ATOM_COUNT>
0

> <PUBCHEM_COMPONENT_COUNT>
1

> <PUBCHEM_CACTVS_TAUTO_COUNT>
9

> <PUBCHEM_CONFORMER_ID>
0000176700000001

> <PUBCHEM_MMFF94_ENERGY>
75.3654

> <PUBCHEM_FEATURE_SELFOVERLAP>
40.689

> <PUBCHEM_SHAPE_FINGERPRINT>
10498660 4 18334565854482978588
10616163 171 18412261769892000550
10906281 52 18268729332496851400
10967382 1 18409163299196382730
11132069 177 18260823830106114581
11315181 36 17846777438100329984
11552529 35 18058445585631877095
11578080 2 16952518088400902894
11796584 16 15123796154675551020
12107183 9 17697047933183828707
12236239 1 17917992754997443209
12403259 415 18260540148118003532
12403814 3 17531241756051219503
12633257 1 18411416168188185458
12644460 14 18260827060354363322
12788726 201 17059505002047033793
128620 24 17385724690407290772
13140716 1 18264499557760559337
13224815 77 18408318891198213202
13675066 3 17749393654488776519
14790565 3 18338806709892665688
15163728 17 15481289097577292713
15183329 4 18408605830407435614
15196674 1 18337388339818468438
15209289 33 18341332270467662817
15209294 21 18059584555192331817
15309172 13 18409451371427638915
15536298 74 18341610425830279326
15788980 27 17749105603943632888
16945 1 18265320738190372627
17349148 13 18114176445825312880
1813 80 17530976782159466655
18186145 218 18409161126111612646
19489759 90 15410896249631894657
19591789 44 18193273216009210722
200 152 17918273168974754922
21033648 29 17968079933063946356
21267235 1 18338240469814837151
21623110 236 18263368155990106261
23402539 116 18410566319162361766
23402655 69 18201721773563375622
23559900 14 18341325700027887232
335352 9 18410007719541319564
34934 24 18335695014618288215
350125 39 18408603674022772468
3545911 37 18408602569419241710
3680242 22 18335416829913620042
4214541 1 18412824715549947695
474 4 18408605889666299408
5104073 3 18339077194179428906
542803 24 17561084709247609168
59755656 215 18335983078396721054
633830 44 18202282537272954908
9709674 26 18410014338397756278

> <PUBCHEM_SHAPE_MULTIPOLES>
441.01
10.64
2.03
1.22
7.18
0.55
-0.05
-1.94
-1.01
0.21
-0.15
-1.94
-0.33
-0.49

> <PUBCHEM_SHAPE_SELFOVERLAP>
961.464

> <PUBCHEM_SHAPE_VOLUME>
238.8

> <PUBCHEM_COORDINATE_TYPE>
2
5
10

> <Energy>
61.5647

> <minimizedAffinity>
51.86576

> <CNNscore>
0.2626683712

> <CNNaffinity>
6.3574771881

> <CNN_VS>
1.6699081659

> <CNNaffinity_variance>
0.8381121159

$$$$
5991


 24 27  0  0  0  0  0  0  0  0999 V2000
   10.7333    1.5100   -5.7004 O   0  0  0  0  0  0  0  0  0  0  0  0
    0.6403   -1.4955   -2.5953 O   0  0  0  0  0  0  0  0  0  0  0  0
    8.4290    0.6717   -5.3811 C   0  0  0  0  0  0  0  0  0  0  0  0
    7.6674   -0.4512   -6.1226 C   0  0  0  0  0  0  0  0  0  0  0  0
    6.4570   -0.9603   -5.3361 C   0  0  0  0  0  0  0  0  0  0  0  0
    9.6349    0.8812   -6.3496 C   0  0  0  0  0  0  0  0  0  0  0  0
    5.4613    0.2194   -5.1235 C   0  0  0  0  0  0  0  0  0  0  0  0
    7.4622    1.8551   -5.1875 C   0  0  0  0  0  0  0  0  0  0  0  0
    8.7674   -1.4412   -6.4971 C   0  0  0  0  0  0  0  0  0  0  0  0
    6.1648    1.4361   -4.4678 C   0  0  0  0  0  0  0  0  0  0  0  0
   10.0129   -0.5697   -6.7499 C   0  0  0  0  0  0  0  0  0  0  0  0
    5.7308   -2.1008   -6.0535 C   0  0  0  0  0  0  0  0  0  0  0  0
    8.9599    0.2461   -3.9801 C   0  0  0  0  0  0  0  0  0  0  0  0
    4.1903   -0.2497   -4.4162 C   0  0  0  0  0  0  0  0  0  0  0  0
    4.6325   -2.6608   -5.1553 C   0  0  0  0  0  0  0  0  0  0  0  0
    3.7945   -1.6041   -4.4797 C   0  0  0  0  0  0  0  0  0  0  0  0
    3.3392    0.6619   -3.7682 C   0  0  0  0  0  0  0  0  0  0  0  0
    2.6041   -2.0182   -3.8518 C   0  0  0  0  0  0  0  0  0  0  0  0
    2.1517    0.2387   -3.1561 C   0  0  0  0  0  0  0  0  0  0  0  0
    1.7968   -1.1007   -3.1994 C   0  0  0  0  0  0  0  0  0  0  0  0
   10.9698    1.0073   -4.9052 H   0  0  0  0  0  0  0  0  0  0  0  0
    0.3855   -2.3970   -2.6151 H   0  0  0  0  0  0  0  0  0  0  0  0
    9.3025    1.6696   -7.5512 C   0  0  0  0  0  0  0  0  0  0  0  0
    9.0339    2.3003   -8.5402 C   0  0  0  0  0  0  0  0  0  0  0  0
  1  6  1  0
  1 21  1  0
  2 20  1  0
  2 22  1  0
  3  4  1  0
  3  6  1  0
  3  8  1  0
  3 13  1  0
  4  5  1  0
  4  9  1  0
  5  7  1  0
  5 12  1  0
  6 11  1  0
  6 23  1  0
  7 10  1  0
  7 14  1  0
  8 10  1  0
  9 11  1  0
 12 15  1  0
 14 16  2  0
 14 17  1  0
 15 16  1  0
 16 18  1  0
 23 24  3  0
 17 19  2  0
 18 20  2  0
 19 20  1  0
M  END
> <PUBCHEM_COMPOUND_CID>
5991

> <PUBCHEM_CONFORMER_RMSD>
0.6

> <PUBCHEM_CONFORMER_DIVERSEORDER>
1

> <PUBCHEM_MMFF94_PARTIAL_CHARGES>
19
1 -0.68
14 -0.14
15 0.14
16 -0.14
17 -0.2
18 -0.15
19 -0.15
2 -0.53
20 -0.15
21 0.08
22 -0.18
41 0.4
42 0.15
43 0.15
44 0.15
45 0.18
46 0.45
6 0.48
7 0.14

> <PUBCHEM_EFFECTIVE_ROTOR_COUNT>
1.4

> <PUBCHEM_PHARMACOPHORE_FEATURES>
8
1 1 acceptor
1 1 donor
1 2 donor
1 22 hydrophobe
5 3 4 6 9 11 rings
6 14 16 18 19 20 21 rings
6 3 4 5 7 8 10 rings
6 5 7 12 14 15 16 rings

> <PUBCHEM_HEAVY_ATOM_COUNT>
22

> <PUBCHEM_ATOM_DEF_STEREO_COUNT>
5

> <PUBCHEM_ATOM_UDEF_STEREO_COUNT>
0

> <PUBCHEM_BOND_DEF_STEREO_COUNT>
0

> <PUBCHEM_BOND_UDEF_STEREO_COUNT>
0

> <PUBCHEM_ISOTOPIC_ATOM_COUNT>
0

> <PUBCHEM_COMPONENT_COUNT>
1

> <PUBCHEM_CACTVS_TAUTO_COUNT>
9

> <PUBCHEM_CONFORMER_ID>
0000176700000001

> <PUBCHEM_MMFF94_ENERGY>
75.3654

> <PUBCHEM_FEATURE_SELFOVERLAP>
40.689

> <PUBCHEM_SHAPE_FINGERPRINT>
10498660 4 18334565854482978588
10616163 171 18412261769892000550
10906281 52 18268729332496851400
10967382 1 18409163299196382730
11132069 177 18260823830106114581
11315181 36 17846777438100329984
11552529 35 18058445585631877095
11578080 2 16952518088400902894
11796584 16 15123796154675551020
12107183 9 17697047933183828707
12236239 1 17917992754997443209
12403259 415 18260540148118003532
12403814 3 17531241756051219503
12633257 1 18411416168188185458
12644460 14 18260827060354363322
12788726 201 17059505002047033793
128620 24 17385724690407290772
13140716 1 18264499557760559337
13224815 77 18408318891198213202
13675066 3 17749393654488776519
14790565 3 18338806709892665688
15163728 17 15481289097577292713
15183329 4 18408605830407435614
15196674 1 18337388339818468438
15209289 33 18341332270467662817
15209294 21 18059584555192331817
15309172 13 18409451371427638915
15536298 74 18341610425830279326
15788980 27 17749105603943632888
16945 1 18265320738190372627
17349148 13 18114176445825312880
1813 80 17530976782159466655
18186145 218 18409161126111612646
19489759 90 15410896249631894657
19591789 44 18193273216009210722
200 152 17918273168974754922
21033648 29 17968079933063946356
21267235 1 18338240469814837151
21623110 236 18263368155990106261
23402539 116 18410566319162361766
23402655 69 18201721773563375622
23559900 14 18341325700027887232
335352 9 18410007719541319564
34934 24 18335695014618288215
350125 39 18408603674022772468
3545911 37 18408602569419241710
3680242 22 18335416829913620042
4214541 1 18412824715549947695
474 4 18408605889666299408
5104073 3 18339077194179428906
542803 24 17561084709247609168
59755656 215 18335983078396721054
633830 44 18202282537272954908
9709674 26 18410014338397756278

> <PUBCHEM_SHAPE_MULTIPOLES>
441.01
10.64
2.03
1.22
7.18
0.55
-0.05
-1.94
-1.01
0.21
-0.15
-1.94
-0.33
-0.49

> <PUBCHEM_SHAPE_SELFOVERLAP>
961.464

> <PUBCHEM_SHAPE_VOLUME>
238.8

> <PUBCHEM_COORDINATE_TYPE>
2
5
10

> <Energy>
61.5647

> <minimizedAffinity>
-5.43435

> <CNNscore>
0.2536319196

> <CNNaffinity>
7.0885624886

> <CNN_VS>
1.7978856564

> <CNNaffinity_variance>
0.2774708271

$$$$
5991


 24 27  0  0  0  0  0  0  0  0999 V2000
    2.3699   -4.1108   -6.7489 O   0  0  0  0  0  0  0  0  0  0  0  0
   10.8485    2.3345   -4.0816 O   0  0  0  0  0  0  0  0  0  0  0  0
    3.9935   -2.3650   -6.0929 C   0  0  0  0  0  0  0  0  0  0  0  0
    3.7840   -1.0674   -5.2786 C   0  0  0  0  0  0  0  0  0  0  0  0
    5.0919   -0.5114   -4.7102 C   0  0  0  0  0  0  0  0  0  0  0  0
    2.5127   -2.7344   -6.4200 C   0  0  0  0  0  0  0  0  0  0  0  0
    6.0514   -0.1736   -5.8906 C   0  0  0  0  0  0  0  0  0  0  0  0
    4.9205   -2.0382   -7.2789 C   0  0  0  0  0  0  0  0  0  0  0  0
    2.6603   -1.4308   -4.3113 C   0  0  0  0  0  0  0  0  0  0  0  0
    6.2465   -1.3975   -6.8230 C   0  0  0  0  0  0  0  0  0  0  0  0
    1.7774   -2.4262   -5.0886 C   0  0  0  0  0  0  0  0  0  0  0  0
    4.8752    0.7489   -3.8691 C   0  0  0  0  0  0  0  0  0  0  0  0
    4.6443   -3.5183   -5.2732 C   0  0  0  0  0  0  0  0  0  0  0  0
    7.3444    0.4669   -5.3870 C   0  0  0  0  0  0  0  0  0  0  0  0
    6.1876    1.1644   -3.2120 C   0  0  0  0  0  0  0  0  0  0  0  0
    7.3761    1.1302   -4.1404 C   0  0  0  0  0  0  0  0  0  0  0  0
    8.5016    0.4943   -6.1841 C   0  0  0  0  0  0  0  0  0  0  0  0
    8.5644    1.7450   -3.7018 C   0  0  0  0  0  0  0  0  0  0  0  0
    9.6751    1.1188   -5.7405 C   0  0  0  0  0  0  0  0  0  0  0  0
    9.6973    1.7354   -4.4991 C   0  0  0  0  0  0  0  0  0  0  0  0
    2.7471   -4.6537   -6.0390 H   0  0  0  0  0  0  0  0  0  0  0  0
   10.8808    2.7557   -3.2453 H   0  0  0  0  0  0  0  0  0  0  0  0
    1.9302   -1.9398   -7.5179 C   0  0  0  0  0  0  0  0  0  0  0  0
    1.4435   -1.3016   -8.4144 C   0  0  0  0  0  0  0  0  0  0  0  0
  1  6  1  0
  1 21  1  0
  2 20  1  0
  2 22  1  0
  3  4  1  0
  3  6  1  0
  3  8  1  0
  3 13  1  0
  4  5  1  0
  4  9  1  0
  5  7  1  0
  5 12  1  0
  6 11  1  0
  6 23  1  0
  7 10  1  0
  7 14  1  0
  8 10  1  0
  9 11  1  0
 12 15  1  0
 14 16  2  0
 14 17  1  0
 15 16  1  0
 16 18  1  0
 23 24  3  0
 17 19  2  0
 18 20  2  0
 19 20  1  0
M  END
> <PUBCHEM_COMPOUND_CID>
5991

> <PUBCHEM_CONFORMER_RMSD>
0.6

> <PUBCHEM_CONFORMER_DIVERSEORDER>
1

> <PUBCHEM_MMFF94_PARTIAL_CHARGES>
19
1 -0.68
14 -0.14
15 0.14
16 -0.14
17 -0.2
18 -0.15
19 -0.15
2 -0.53
20 -0.15
21 0.08
22 -0.18
41 0.4
42 0.15
43 0.15
44 0.15
45 0.18
46 0.45
6 0.48
7 0.14

> <PUBCHEM_EFFECTIVE_ROTOR_COUNT>
1.4

> <PUBCHEM_PHARMACOPHORE_FEATURES>
8
1 1 acceptor
1 1 donor
1 2 donor
1 22 hydrophobe
5 3 4 6 9 11 rings
6 14 16 18 19 20 21 rings
6 3 4 5 7 8 10 rings
6 5 7 12 14 15 16 rings

> <PUBCHEM_HEAVY_ATOM_COUNT>
22

> <PUBCHEM_ATOM_DEF_STEREO_COUNT>
5

> <PUBCHEM_ATOM_UDEF_STEREO_COUNT>
0

> <PUBCHEM_BOND_DEF_STEREO_COUNT>
0

> <PUBCHEM_BOND_UDEF_STEREO_COUNT>
0

> <PUBCHEM_ISOTOPIC_ATOM_COUNT>
0

> <PUBCHEM_COMPONENT_COUNT>
1

> <PUBCHEM_CACTVS_TAUTO_COUNT>
9

> <PUBCHEM_CONFORMER_ID>
0000176700000001

> <PUBCHEM_MMFF94_ENERGY>
75.3654

> <PUBCHEM_FEATURE_SELFOVERLAP>
40.689

> <PUBCHEM_SHAPE_FINGERPRINT>
10498660 4 18334565854482978588
10616163 171 18412261769892000550
10906281 52 18268729332496851400
10967382 1 18409163299196382730
11132069 177 18260823830106114581
11315181 36 17846777438100329984
11552529 35 18058445585631877095
11578080 2 16952518088400902894
11796584 16 15123796154675551020
12107183 9 17697047933183828707
12236239 1 17917992754997443209
12403259 415 18260540148118003532
12403814 3 17531241756051219503
12633257 1 18411416168188185458
12644460 14 18260827060354363322
12788726 201 17059505002047033793
128620 24 17385724690407290772
13140716 1 18264499557760559337
13224815 77 18408318891198213202
13675066 3 17749393654488776519
14790565 3 18338806709892665688
15163728 17 15481289097577292713
15183329 4 18408605830407435614
15196674 1 18337388339818468438
15209289 33 18341332270467662817
15209294 21 18059584555192331817
15309172 13 18409451371427638915
15536298 74 18341610425830279326
15788980 27 17749105603943632888
16945 1 18265320738190372627
17349148 13 18114176445825312880
1813 80 17530976782159466655
18186145 218 18409161126111612646
19489759 90 15410896249631894657
19591789 44 18193273216009210722
200 152 17918273168974754922
21033648 29 17968079933063946356
21267235 1 18338240469814837151
21623110 236 18263368155990106261
23402539 116 18410566319162361766
23402655 69 18201721773563375622
23559900 14 18341325700027887232
335352 9 18410007719541319564
34934 24 18335695014618288215
350125 39 18408603674022772468
3545911 37 18408602569419241710
3680242 22 18335416829913620042
4214541 1 18412824715549947695
474 4 18408605889666299408
5104073 3 18339077194179428906
542803 24 17561084709247609168
59755656 215 18335983078396721054
633830 44 18202282537272954908
9709674 26 18410014338397756278

> <PUBCHEM_SHAPE_MULTIPOLES>
441.01
10.64
2.03
1.22
7.18
0.55
-0.05
-1.94
-1.01
0.21
-0.15
-1.94
-0.33
-0.49

> <PUBCHEM_SHAPE_SELFOVERLAP>
961.464

> <PUBCHEM_SHAPE_VOLUME>
238.8

> <PUBCHEM_COORDINATE_TYPE>
2
5
10

> <Energy>
61.5647

> <minimizedAffinity>
1.13817

> <CNNscore>
0.2088274360

> <CNNaffinity>
7.0216598511

> <CNN_VS>
1.4663152695

> <CNNaffinity_variance>
0.4170618355

$$$$
