448537


 22 23  0  0  0  0  0  0  0  0999 V2000
   -4.3613   -5.1655   21.9423 C   0  0  0  0  0  0  0  0  0  0  0  0
   -4.0488   -3.8618   21.7360 C   0  0  0  0  0  0  0  0  0  0  0  0
   -9.7108   -6.7761   22.6275 O   0  0  0  0  0  0  0  0  0  0  0  0
   -5.7657   -5.5809   22.1340 C   0  0  0  0  0  0  0  0  0  0  0  0
   -6.2612   -5.8210   23.4228 C   0  0  0  0  0  0  0  0  0  0  0  0
   -6.6115   -5.7450   21.0296 C   0  0  0  0  0  0  0  0  0  0  0  0
   -7.5865   -6.2243   23.6049 C   0  0  0  0  0  0  0  0  0  0  0  0
   -7.9356   -6.1474   21.2123 C   0  0  0  0  0  0  0  0  0  0  0  0
   -8.4113   -6.3834   22.4961 C   0  0  0  0  0  0  0  0  0  0  0  0
  -10.0657   -6.9441   23.4781 H   0  0  0  0  0  0  0  0  0  0  0  0
    1.2939   -2.2413   21.0207 O   0  0  0  0  0  0  0  0  0  0  0  0
   -2.6445   -3.4459   21.5415 C   0  0  0  0  0  0  0  0  0  0  0  0
   -1.8406   -3.1256   22.6428 C   0  0  0  0  0  0  0  0  0  0  0  0
   -2.1091   -3.3595   20.2498 C   0  0  0  0  0  0  0  0  0  0  0  0
   -0.5181   -2.7222   22.4510 C   0  0  0  0  0  0  0  0  0  0  0  0
   -0.7867   -2.9571   20.0581 C   0  0  0  0  0  0  0  0  0  0  0  0
   -0.0022   -2.6408   21.1627 C   0  0  0  0  0  0  0  0  0  0  0  0
    1.8055   -2.0328   21.7774 H   0  0  0  0  0  0  0  0  0  0  0  0
   -3.3740   -6.3190   21.9595 C   0  0  0  0  0  0  0  0  0  0  0  0
   -4.0210   -7.6638   21.6544 C   0  0  0  0  0  0  0  0  0  0  0  0
   -5.0440   -2.7191   21.6404 C   0  0  0  0  0  0  0  0  0  0  0  0
   -4.9753   -1.7679   22.8281 C   0  0  0  0  0  0  0  0  0  0  0  0
  3  9  1  0
  3 10  1  0
 11 17  1  0
 11 18  1  0
  1  2  2  0
  1 19  1  0
  1  4  1  0
  2 21  1  0
  2 12  1  0
 19 20  1  0
 21 22  1  0
  4  5  2  0
  4  6  1  0
 12 13  2  0
 12 14  1  0
  5  7  1  0
 13 15  1  0
  6  8  2  0
 14 16  2  0
  7  9  2  0
 15 17  2  0
  8  9  1  0
 16 17  1  0
M  END
> <PUBCHEM_COMPOUND_CID>
448537

> <PUBCHEM_CONFORMER_RMSD>
0.6

> <PUBCHEM_CONFORMER_DIVERSEORDER>
1
3
2

> <PUBCHEM_MMFF94_PARTIAL_CHARGES>
28
1 -0.53
11 -0.15
12 -0.15
13 -0.15
14 -0.15
15 -0.15
16 -0.15
17 -0.15
18 -0.15
19 0.08
2 -0.53
20 0.08
3 -0.17
31 0.15
32 0.15
33 0.15
34 0.15
35 0.15
36 0.15
37 0.15
38 0.15
39 0.45
4 -0.17
40 0.45
5 0.14
6 0.14
7 0.03
8 0.03

> <PUBCHEM_EFFECTIVE_ROTOR_COUNT>
4

> <PUBCHEM_PHARMACOPHORE_FEATURES>
6
1 1 donor
1 10 hydrophobe
1 2 donor
1 9 hydrophobe
6 7 11 13 15 17 19 rings
6 8 12 14 16 18 20 rings

> <PUBCHEM_HEAVY_ATOM_COUNT>
20

> <PUBCHEM_ATOM_DEF_STEREO_COUNT>
0

> <PUBCHEM_ATOM_UDEF_STEREO_COUNT>
0

> <PUBCHEM_BOND_DEF_STEREO_COUNT>
1

> <PUBCHEM_BOND_UDEF_STEREO_COUNT>
0

> <PUBCHEM_ISOTOPIC_ATOM_COUNT>
0

> <PUBCHEM_COMPONENT_COUNT>
1

> <PUBCHEM_CACTVS_TAUTO_COUNT>
3

> <PUBCHEM_CONFORMER_ID>
0006D81900000001

> <PUBCHEM_MMFF94_ENERGY>
60.231

> <PUBCHEM_FEATURE_SELFOVERLAP>
30.447

> <PUBCHEM_SHAPE_FINGERPRINT>
10366900 7 18186514428534874893
104564 63 18339924792832442081
10906281 52 18129397028286092948
11646440 116 18130798871235594657
12592029 89 16950278473467191938
12788726 201 18270697410649816016
13140716 1 18266458895859843337
13533116 47 18340201896197096762
13760787 19 16660644076447957075
14115302 16 18186806919849492430
14341114 176 15647057049052281551
15099037 51 18335139812416525942
15848700 24 18202843262111810220
15848702 151 16988848262958300981
16752209 62 18335696105492573576
16945 1 18410855473013063775
1813 80 18272378572207267076
18186145 218 18338228362096015613
187816 3 18410857663704853992
19141452 34 17131829889222033293
19784866 9 18113613452605694563
200 152 16950282905968490344
20028762 73 18055641861278493167
20600515 1 18340218469921978116
20645477 70 16009301016701038466
21285901 2 17917162606291067244
23175994 123 18333735723499757565
23402539 116 17988639696664490244
23493267 7 17313098635762053785
23557571 272 17489592229515708168
23559900 14 15554438621982335170
266924 87 18194116322357846868
347723 3 18410856551049855057
34934 24 18129105515976021729
3545911 37 15719391732852524422
4072396 5 18261662693185545291
4214541 1 15791727494979709055
465052 167 17240208741576471315
474 4 17917140731779840409
59755656 215 18270402685366324510
633830 44 18342455975941661781
69090 78 17060620005479420895
7226269 152 18410853270196137312
7495541 125 17531535390133293585
77779 3 15719110262139125926
81228 2 18128838385973970688
8272917 22 16660357039657468298
9971528 1 17775283884826915592

> <PUBCHEM_SHAPE_MULTIPOLES>
399.85
10.42
1.74
1.37
0
0
0.06
0
1.28
0
-0.74
0
0
-0.06

> <PUBCHEM_SHAPE_SELFOVERLAP>
850.96

> <PUBCHEM_SHAPE_VOLUME>
224.1

> <PUBCHEM_COORDINATE_TYPE>
2
5
10

> <Energy>
28.3223

> <minimizedAffinity>
-8.92506

> <CNNscore>
0.9262782931

> <CNNaffinity>
7.9220900536

> <CNN_VS>
7.3380599022

> <CNNaffinity_variance>
0.6300043464

$$$$
448537


 22 23  0  0  0  0  0  0  0  0999 V2000
   -4.0256   -3.8398   21.7150 C   0  0  0  0  0  0  0  0  0  0  0  0
   -4.3282   -5.1440   21.9325 C   0  0  0  0  0  0  0  0  0  0  0  0
    1.3316   -2.2390   21.0680 O   0  0  0  0  0  0  0  0  0  0  0  0
   -2.6231   -3.4134   21.5332 C   0  0  0  0  0  0  0  0  0  0  0  0
   -2.0659   -3.3482   20.2490 C   0  0  0  0  0  0  0  0  0  0  0  0
   -1.8368   -3.0777   22.6427 C   0  0  0  0  0  0  0  0  0  0  0  0
   -0.7363   -2.9552   20.0764 C   0  0  0  0  0  0  0  0  0  0  0  0
   -0.5086   -2.6847   22.4695 C   0  0  0  0  0  0  0  0  0  0  0  0
    0.0297   -2.6268   21.1901 C   0  0  0  0  0  0  0  0  0  0  0  0
    1.7279   -2.1885   20.2205 H   0  0  0  0  0  0  0  0  0  0  0  0
   -9.6588   -6.8057   22.6431 O   0  0  0  0  0  0  0  0  0  0  0  0
   -5.7310   -5.5716   22.1119 C   0  0  0  0  0  0  0  0  0  0  0  0
   -6.2579   -5.7550   23.3966 C   0  0  0  0  0  0  0  0  0  0  0  0
   -6.5430   -5.8065   20.9946 C   0  0  0  0  0  0  0  0  0  0  0  0
   -7.5807   -6.1703   23.5585 C   0  0  0  0  0  0  0  0  0  0  0  0
   -7.8656   -6.2208   21.1564 C   0  0  0  0  0  0  0  0  0  0  0  0
   -8.3729   -6.3999   22.4395 C   0  0  0  0  0  0  0  0  0  0  0  0
   -9.9814   -6.9204   23.5153 H   0  0  0  0  0  0  0  0  0  0  0  0
   -5.0303   -2.7081   21.5908 C   0  0  0  0  0  0  0  0  0  0  0  0
   -5.1360   -1.8616   22.8527 C   0  0  0  0  0  0  0  0  0  0  0  0
   -3.3298   -6.2869   21.9782 C   0  0  0  0  0  0  0  0  0  0  0  0
   -3.9603   -7.6414   21.6814 C   0  0  0  0  0  0  0  0  0  0  0  0
  3  9  1  0
  3 10  1  0
 11 17  1  0
 11 18  1  0
  1  2  2  0
  1 19  1  0
  1  4  1  0
  2 21  1  0
  2 12  1  0
 19 20  1  0
 21 22  1  0
  4  5  2  0
  4  6  1  0
 12 13  2  0
 12 14  1  0
  5  7  1  0
 13 15  1  0
  6  8  2  0
 14 16  2  0
  7  9  2  0
 15 17  2  0
  8  9  1  0
 16 17  1  0
M  END
> <PUBCHEM_COMPOUND_CID>
448537

> <PUBCHEM_CONFORMER_RMSD>
0.6

> <PUBCHEM_CONFORMER_DIVERSEORDER>
1
3
2

> <PUBCHEM_MMFF94_PARTIAL_CHARGES>
28
1 -0.53
11 -0.15
12 -0.15
13 -0.15
14 -0.15
15 -0.15
16 -0.15
17 -0.15
18 -0.15
19 0.08
2 -0.53
20 0.08
3 -0.17
31 0.15
32 0.15
33 0.15
34 0.15
35 0.15
36 0.15
37 0.15
38 0.15
39 0.45
4 -0.17
40 0.45
5 0.14
6 0.14
7 0.03
8 0.03

> <PUBCHEM_EFFECTIVE_ROTOR_COUNT>
4

> <PUBCHEM_PHARMACOPHORE_FEATURES>
6
1 1 donor
1 10 hydrophobe
1 2 donor
1 9 hydrophobe
6 7 11 13 15 17 19 rings
6 8 12 14 16 18 20 rings

> <PUBCHEM_HEAVY_ATOM_COUNT>
20

> <PUBCHEM_ATOM_DEF_STEREO_COUNT>
0

> <PUBCHEM_ATOM_UDEF_STEREO_COUNT>
0

> <PUBCHEM_BOND_DEF_STEREO_COUNT>
1

> <PUBCHEM_BOND_UDEF_STEREO_COUNT>
0

> <PUBCHEM_ISOTOPIC_ATOM_COUNT>
0

> <PUBCHEM_COMPONENT_COUNT>
1

> <PUBCHEM_CACTVS_TAUTO_COUNT>
3

> <PUBCHEM_CONFORMER_ID>
0006D81900000001

> <PUBCHEM_MMFF94_ENERGY>
60.231

> <PUBCHEM_FEATURE_SELFOVERLAP>
30.447

> <PUBCHEM_SHAPE_FINGERPRINT>
10366900 7 18186514428534874893
104564 63 18339924792832442081
10906281 52 18129397028286092948
11646440 116 18130798871235594657
12592029 89 16950278473467191938
12788726 201 18270697410649816016
13140716 1 18266458895859843337
13533116 47 18340201896197096762
13760787 19 16660644076447957075
14115302 16 18186806919849492430
14341114 176 15647057049052281551
15099037 51 18335139812416525942
15848700 24 18202843262111810220
15848702 151 16988848262958300981
16752209 62 18335696105492573576
16945 1 18410855473013063775
1813 80 18272378572207267076
18186145 218 18338228362096015613
187816 3 18410857663704853992
19141452 34 17131829889222033293
19784866 9 18113613452605694563
200 152 16950282905968490344
20028762 73 18055641861278493167
20600515 1 18340218469921978116
20645477 70 16009301016701038466
21285901 2 17917162606291067244
23175994 123 18333735723499757565
23402539 116 17988639696664490244
23493267 7 17313098635762053785
23557571 272 17489592229515708168
23559900 14 15554438621982335170
266924 87 18194116322357846868
347723 3 18410856551049855057
34934 24 18129105515976021729
3545911 37 15719391732852524422
4072396 5 18261662693185545291
4214541 1 15791727494979709055
465052 167 17240208741576471315
474 4 17917140731779840409
59755656 215 18270402685366324510
633830 44 18342455975941661781
69090 78 17060620005479420895
7226269 152 18410853270196137312
7495541 125 17531535390133293585
77779 3 15719110262139125926
81228 2 18128838385973970688
8272917 22 16660357039657468298
9971528 1 17775283884826915592

> <PUBCHEM_SHAPE_MULTIPOLES>
399.85
10.42
1.74
1.37
0
0
0.06
0
1.28
0
-0.74
0
0
-0.06

> <PUBCHEM_SHAPE_SELFOVERLAP>
850.96

> <PUBCHEM_SHAPE_VOLUME>
224.1

> <PUBCHEM_COORDINATE_TYPE>
2
5
10

> <Energy>
28.3223

> <minimizedAffinity>
-8.92092

> <CNNscore>
0.9220657945

> <CNNaffinity>
7.9455528259

> <CNN_VS>
7.3263225555

> <CNNaffinity_variance>
0.6850622296

$$$$
448537


 22 23  0  0  0  0  0  0  0  0999 V2000
   -4.3748   -5.2057   22.0246 C   0  0  0  0  0  0  0  0  0  0  0  0
   -4.0617   -3.9015   21.8226 C   0  0  0  0  0  0  0  0  0  0  0  0
   -9.7271   -6.8231   22.6710 O   0  0  0  0  0  0  0  0  0  0  0  0
   -5.7802   -5.6223   22.2058 C   0  0  0  0  0  0  0  0  0  0  0  0
   -6.3031   -5.8013   23.4936 C   0  0  0  0  0  0  0  0  0  0  0  0
   -6.5996   -5.8486   21.0925 C   0  0  0  0  0  0  0  0  0  0  0  0
   -7.6293   -6.2056   23.6663 C   0  0  0  0  0  0  0  0  0  0  0  0
   -7.9247   -6.2520   21.2658 C   0  0  0  0  0  0  0  0  0  0  0  0
   -8.4277   -6.4269   22.5489 C   0  0  0  0  0  0  0  0  0  0  0  0
  -10.1000   -6.9509   23.5210 H   0  0  0  0  0  0  0  0  0  0  0  0
    1.2997   -2.3487   21.0969 O   0  0  0  0  0  0  0  0  0  0  0  0
   -2.6563   -3.4844   21.6387 C   0  0  0  0  0  0  0  0  0  0  0  0
   -2.0991   -3.4148   20.3556 C   0  0  0  0  0  0  0  0  0  0  0  0
   -1.8665   -3.1640   22.7507 C   0  0  0  0  0  0  0  0  0  0  0  0
   -0.7672   -3.0312   20.1900 C   0  0  0  0  0  0  0  0  0  0  0  0
   -0.5354   -2.7796   22.5851 C   0  0  0  0  0  0  0  0  0  0  0  0
    0.0032   -2.7174   21.3039 C   0  0  0  0  0  0  0  0  0  0  0  0
    1.6433   -2.3130   20.2260 H   0  0  0  0  0  0  0  0  0  0  0  0
   -3.3869   -6.3587   22.0469 C   0  0  0  0  0  0  0  0  0  0  0  0
   -4.0314   -7.7037   21.7376 C   0  0  0  0  0  0  0  0  0  0  0  0
   -5.0568   -2.7593   21.7217 C   0  0  0  0  0  0  0  0  0  0  0  0
   -5.0495   -1.8526   22.9456 C   0  0  0  0  0  0  0  0  0  0  0  0
  3  9  1  0
  3 10  1  0
 11 17  1  0
 11 18  1  0
  1  2  2  0
  1 19  1  0
  1  4  1  0
  2 21  1  0
  2 12  1  0
 19 20  1  0
 21 22  1  0
  4  5  2  0
  4  6  1  0
 12 13  2  0
 12 14  1  0
  5  7  1  0
 13 15  1  0
  6  8  2  0
 14 16  2  0
  7  9  2  0
 15 17  2  0
  8  9  1  0
 16 17  1  0
M  END
> <PUBCHEM_COMPOUND_CID>
448537

> <PUBCHEM_CONFORMER_RMSD>
0.6

> <PUBCHEM_CONFORMER_DIVERSEORDER>
1
3
2

> <PUBCHEM_MMFF94_PARTIAL_CHARGES>
28
1 -0.53
11 -0.15
12 -0.15
13 -0.15
14 -0.15
15 -0.15
16 -0.15
17 -0.15
18 -0.15
19 0.08
2 -0.53
20 0.08
3 -0.17
31 0.15
32 0.15
33 0.15
34 0.15
35 0.15
36 0.15
37 0.15
38 0.15
39 0.45
4 -0.17
40 0.45
5 0.14
6 0.14
7 0.03
8 0.03

> <PUBCHEM_EFFECTIVE_ROTOR_COUNT>
4

> <PUBCHEM_PHARMACOPHORE_FEATURES>
6
1 1 donor
1 10 hydrophobe
1 2 donor
1 9 hydrophobe
6 7 11 13 15 17 19 rings
6 8 12 14 16 18 20 rings

> <PUBCHEM_HEAVY_ATOM_COUNT>
20

> <PUBCHEM_ATOM_DEF_STEREO_COUNT>
0

> <PUBCHEM_ATOM_UDEF_STEREO_COUNT>
0

> <PUBCHEM_BOND_DEF_STEREO_COUNT>
1

> <PUBCHEM_BOND_UDEF_STEREO_COUNT>
0

> <PUBCHEM_ISOTOPIC_ATOM_COUNT>
0

> <PUBCHEM_COMPONENT_COUNT>
1

> <PUBCHEM_CACTVS_TAUTO_COUNT>
3

> <PUBCHEM_CONFORMER_ID>
0006D81900000001

> <PUBCHEM_MMFF94_ENERGY>
60.231

> <PUBCHEM_FEATURE_SELFOVERLAP>
30.447

> <PUBCHEM_SHAPE_FINGERPRINT>
10366900 7 18186514428534874893
104564 63 18339924792832442081
10906281 52 18129397028286092948
11646440 116 18130798871235594657
12592029 89 16950278473467191938
12788726 201 18270697410649816016
13140716 1 18266458895859843337
13533116 47 18340201896197096762
13760787 19 16660644076447957075
14115302 16 18186806919849492430
14341114 176 15647057049052281551
15099037 51 18335139812416525942
15848700 24 18202843262111810220
15848702 151 16988848262958300981
16752209 62 18335696105492573576
16945 1 18410855473013063775
1813 80 18272378572207267076
18186145 218 18338228362096015613
187816 3 18410857663704853992
19141452 34 17131829889222033293
19784866 9 18113613452605694563
200 152 16950282905968490344
20028762 73 18055641861278493167
20600515 1 18340218469921978116
20645477 70 16009301016701038466
21285901 2 17917162606291067244
23175994 123 18333735723499757565
23402539 116 17988639696664490244
23493267 7 17313098635762053785
23557571 272 17489592229515708168
23559900 14 15554438621982335170
266924 87 18194116322357846868
347723 3 18410856551049855057
34934 24 18129105515976021729
3545911 37 15719391732852524422
4072396 5 18261662693185545291
4214541 1 15791727494979709055
465052 167 17240208741576471315
474 4 17917140731779840409
59755656 215 18270402685366324510
633830 44 18342455975941661781
69090 78 17060620005479420895
7226269 152 18410853270196137312
7495541 125 17531535390133293585
77779 3 15719110262139125926
81228 2 18128838385973970688
8272917 22 16660357039657468298
9971528 1 17775283884826915592

> <PUBCHEM_SHAPE_MULTIPOLES>
399.85
10.42
1.74
1.37
0
0
0.06
0
1.28
0
-0.74
0
0
-0.06

> <PUBCHEM_SHAPE_SELFOVERLAP>
850.96

> <PUBCHEM_SHAPE_VOLUME>
224.1

> <PUBCHEM_COORDINATE_TYPE>
2
5
10

> <Energy>
28.3223

> <minimizedAffinity>
-8.87563

> <CNNscore>
0.9176843762

> <CNNaffinity>
7.9233951569

> <CNN_VS>
7.2711758614

> <CNNaffinity_variance>
0.6847131848

$$$$
448537


 22 23  0  0  0  0  0  0  0  0999 V2000
   -4.0031   -3.9111   21.7750 C   0  0  0  0  0  0  0  0  0  0  0  0
   -4.3240   -5.2127   21.9817 C   0  0  0  0  0  0  0  0  0  0  0  0
    1.3525   -2.3290   21.0715 O   0  0  0  0  0  0  0  0  0  0  0  0
   -2.5943   -3.5021   21.6025 C   0  0  0  0  0  0  0  0  0  0  0  0
   -1.8158   -3.1638   22.7176 C   0  0  0  0  0  0  0  0  0  0  0  0
   -2.0272   -3.4424   20.3231 C   0  0  0  0  0  0  0  0  0  0  0  0
   -0.4861   -2.7666   22.5549 C   0  0  0  0  0  0  0  0  0  0  0  0
   -0.6985   -3.0459   20.1614 C   0  0  0  0  0  0  0  0  0  0  0  0
    0.0596   -2.7119   21.2766 C   0  0  0  0  0  0  0  0  0  0  0  0
    1.8934   -2.0967   21.8004 H   0  0  0  0  0  0  0  0  0  0  0  0
   -9.6795   -6.8080   22.6570 O   0  0  0  0  0  0  0  0  0  0  0  0
   -5.7332   -5.6228   22.1518 C   0  0  0  0  0  0  0  0  0  0  0  0
   -6.2707   -5.7999   23.4330 C   0  0  0  0  0  0  0  0  0  0  0  0
   -6.5407   -5.8473   21.0292 C   0  0  0  0  0  0  0  0  0  0  0  0
   -7.5996   -6.1988   23.5861 C   0  0  0  0  0  0  0  0  0  0  0  0
   -7.8694   -6.2452   21.1823 C   0  0  0  0  0  0  0  0  0  0  0  0
   -8.3873   -6.4183   22.4619 C   0  0  0  0  0  0  0  0  0  0  0  0
  -10.0091   -6.9189   23.5270 H   0  0  0  0  0  0  0  0  0  0  0  0
   -4.9922   -2.7653   21.6545 C   0  0  0  0  0  0  0  0  0  0  0  0
   -5.1545   -1.9775   22.9481 C   0  0  0  0  0  0  0  0  0  0  0  0
   -3.3411   -6.3691   22.0236 C   0  0  0  0  0  0  0  0  0  0  0  0
   -3.9809   -7.7079   21.6795 C   0  0  0  0  0  0  0  0  0  0  0  0
  3  9  1  0
  3 10  1  0
 11 17  1  0
 11 18  1  0
  1  2  2  0
  1 19  1  0
  1  4  1  0
  2 21  1  0
  2 12  1  0
 19 20  1  0
 21 22  1  0
  4  5  2  0
  4  6  1  0
 12 13  2  0
 12 14  1  0
  5  7  1  0
 13 15  1  0
  6  8  2  0
 14 16  2  0
  7  9  2  0
 15 17  2  0
  8  9  1  0
 16 17  1  0
M  END
> <PUBCHEM_COMPOUND_CID>
448537

> <PUBCHEM_CONFORMER_RMSD>
0.6

> <PUBCHEM_CONFORMER_DIVERSEORDER>
1
3
2

> <PUBCHEM_MMFF94_PARTIAL_CHARGES>
28
1 -0.53
11 -0.15
12 -0.15
13 -0.15
14 -0.15
15 -0.15
16 -0.15
17 -0.15
18 -0.15
19 0.08
2 -0.53
20 0.08
3 -0.17
31 0.15
32 0.15
33 0.15
34 0.15
35 0.15
36 0.15
37 0.15
38 0.15
39 0.45
4 -0.17
40 0.45
5 0.14
6 0.14
7 0.03
8 0.03

> <PUBCHEM_EFFECTIVE_ROTOR_COUNT>
4

> <PUBCHEM_PHARMACOPHORE_FEATURES>
6
1 1 donor
1 10 hydrophobe
1 2 donor
1 9 hydrophobe
6 7 11 13 15 17 19 rings
6 8 12 14 16 18 20 rings

> <PUBCHEM_HEAVY_ATOM_COUNT>
20

> <PUBCHEM_ATOM_DEF_STEREO_COUNT>
0

> <PUBCHEM_ATOM_UDEF_STEREO_COUNT>
0

> <PUBCHEM_BOND_DEF_STEREO_COUNT>
1

> <PUBCHEM_BOND_UDEF_STEREO_COUNT>
0

> <PUBCHEM_ISOTOPIC_ATOM_COUNT>
0

> <PUBCHEM_COMPONENT_COUNT>
1

> <PUBCHEM_CACTVS_TAUTO_COUNT>
3

> <PUBCHEM_CONFORMER_ID>
0006D81900000001

> <PUBCHEM_MMFF94_ENERGY>
60.231

> <PUBCHEM_FEATURE_SELFOVERLAP>
30.447

> <PUBCHEM_SHAPE_FINGERPRINT>
10366900 7 18186514428534874893
104564 63 18339924792832442081
10906281 52 18129397028286092948
11646440 116 18130798871235594657
12592029 89 16950278473467191938
12788726 201 18270697410649816016
13140716 1 18266458895859843337
13533116 47 18340201896197096762
13760787 19 16660644076447957075
14115302 16 18186806919849492430
14341114 176 15647057049052281551
15099037 51 18335139812416525942
15848700 24 18202843262111810220
15848702 151 16988848262958300981
16752209 62 18335696105492573576
16945 1 18410855473013063775
1813 80 18272378572207267076
18186145 218 18338228362096015613
187816 3 18410857663704853992
19141452 34 17131829889222033293
19784866 9 18113613452605694563
200 152 16950282905968490344
20028762 73 18055641861278493167
20600515 1 18340218469921978116
20645477 70 16009301016701038466
21285901 2 17917162606291067244
23175994 123 18333735723499757565
23402539 116 17988639696664490244
23493267 7 17313098635762053785
23557571 272 17489592229515708168
23559900 14 15554438621982335170
266924 87 18194116322357846868
347723 3 18410856551049855057
34934 24 18129105515976021729
3545911 37 15719391732852524422
4072396 5 18261662693185545291
4214541 1 15791727494979709055
465052 167 17240208741576471315
474 4 17917140731779840409
59755656 215 18270402685366324510
633830 44 18342455975941661781
69090 78 17060620005479420895
7226269 152 18410853270196137312
7495541 125 17531535390133293585
77779 3 15719110262139125926
81228 2 18128838385973970688
8272917 22 16660357039657468298
9971528 1 17775283884826915592

> <PUBCHEM_SHAPE_MULTIPOLES>
399.85
10.42
1.74
1.37
0
0
0.06
0
1.28
0
-0.74
0
0
-0.06

> <PUBCHEM_SHAPE_SELFOVERLAP>
850.96

> <PUBCHEM_SHAPE_VOLUME>
224.1

> <PUBCHEM_COORDINATE_TYPE>
2
5
10

> <Energy>
28.3223

> <minimizedAffinity>
-8.85060

> <CNNscore>
0.9162200689

> <CNNaffinity>
7.9064793587

> <CNN_VS>
7.2440752983

> <CNNaffinity_variance>
0.6622707844

$$$$
448537


 22 23  0  0  0  0  0  0  0  0999 V2000
   -3.4934   -4.8713   21.7965 C   0  0  0  0  0  0  0  0  0  0  0  0
   -4.6303   -4.1538   21.9769 C   0  0  0  0  0  0  0  0  0  0  0  0
    1.4507   -2.2818   21.0672 O   0  0  0  0  0  0  0  0  0  0  0  0
   -2.1989   -4.1902   21.5915 C   0  0  0  0  0  0  0  0  0  0  0  0
   -1.4939   -4.3599   20.3923 C   0  0  0  0  0  0  0  0  0  0  0  0
   -1.6621   -3.3749   22.5961 C   0  0  0  0  0  0  0  0  0  0  0  0
   -0.2642   -3.7247   20.2012 C   0  0  0  0  0  0  0  0  0  0  0  0
   -0.4337   -2.7402   22.4044 C   0  0  0  0  0  0  0  0  0  0  0  0
    0.2538   -2.9200   21.2107 C   0  0  0  0  0  0  0  0  0  0  0  0
    1.9420   -2.3801   20.2755 H   0  0  0  0  0  0  0  0  0  0  0  0
   -9.5430   -6.7766   22.7946 O   0  0  0  0  0  0  0  0  0  0  0  0
   -5.9251   -4.8345   22.1845 C   0  0  0  0  0  0  0  0  0  0  0  0
   -6.3793   -5.1152   23.4793 C   0  0  0  0  0  0  0  0  0  0  0  0
   -6.7049   -5.2133   21.0840 C   0  0  0  0  0  0  0  0  0  0  0  0
   -7.5981   -5.7689   23.6678 C   0  0  0  0  0  0  0  0  0  0  0  0
   -7.9238   -5.8660   21.2724 C   0  0  0  0  0  0  0  0  0  0  0  0
   -8.3595   -6.1390   22.5652 C   0  0  0  0  0  0  0  0  0  0  0  0
   -9.8186   -6.9510   23.6729 H   0  0  0  0  0  0  0  0  0  0  0  0
   -3.3905   -6.3860   21.8229 C   0  0  0  0  0  0  0  0  0  0  0  0
   -4.7203   -7.0702   22.1124 C   0  0  0  0  0  0  0  0  0  0  0  0
   -4.7203   -2.6391   22.0290 C   0  0  0  0  0  0  0  0  0  0  0  0
   -6.1536   -2.1295   22.1063 C   0  0  0  0  0  0  0  0  0  0  0  0
  3  9  1  0
  3 10  1  0
 11 17  1  0
 11 18  1  0
  1  2  2  0
  1 19  1  0
  1  4  1  0
  2 21  1  0
  2 12  1  0
 19 20  1  0
 21 22  1  0
  4  5  2  0
  4  6  1  0
 12 13  2  0
 12 14  1  0
  5  7  1  0
 13 15  1  0
  6  8  2  0
 14 16  2  0
  7  9  2  0
 15 17  2  0
  8  9  1  0
 16 17  1  0
M  END
> <PUBCHEM_COMPOUND_CID>
448537

> <PUBCHEM_CONFORMER_RMSD>
0.6

> <PUBCHEM_CONFORMER_DIVERSEORDER>
1
3
2

> <PUBCHEM_MMFF94_PARTIAL_CHARGES>
28
1 -0.53
11 -0.15
12 -0.15
13 -0.15
14 -0.15
15 -0.15
16 -0.15
17 -0.15
18 -0.15
19 0.08
2 -0.53
20 0.08
3 -0.17
31 0.15
32 0.15
33 0.15
34 0.15
35 0.15
36 0.15
37 0.15
38 0.15
39 0.45
4 -0.17
40 0.45
5 0.14
6 0.14
7 0.03
8 0.03

> <PUBCHEM_EFFECTIVE_ROTOR_COUNT>
4

> <PUBCHEM_PHARMACOPHORE_FEATURES>
6
1 1 donor
1 10 hydrophobe
1 2 donor
1 9 hydrophobe
6 7 11 13 15 17 19 rings
6 8 12 14 16 18 20 rings

> <PUBCHEM_HEAVY_ATOM_COUNT>
20

> <PUBCHEM_ATOM_DEF_STEREO_COUNT>
0

> <PUBCHEM_ATOM_UDEF_STEREO_COUNT>
0

> <PUBCHEM_BOND_DEF_STEREO_COUNT>
1

> <PUBCHEM_BOND_UDEF_STEREO_COUNT>
0

> <PUBCHEM_ISOTOPIC_ATOM_COUNT>
0

> <PUBCHEM_COMPONENT_COUNT>
1

> <PUBCHEM_CACTVS_TAUTO_COUNT>
3

> <PUBCHEM_CONFORMER_ID>
0006D81900000001

> <PUBCHEM_MMFF94_ENERGY>
60.231

> <PUBCHEM_FEATURE_SELFOVERLAP>
30.447

> <PUBCHEM_SHAPE_FINGERPRINT>
10366900 7 18186514428534874893
104564 63 18339924792832442081
10906281 52 18129397028286092948
11646440 116 18130798871235594657
12592029 89 16950278473467191938
12788726 201 18270697410649816016
13140716 1 18266458895859843337
13533116 47 18340201896197096762
13760787 19 16660644076447957075
14115302 16 18186806919849492430
14341114 176 15647057049052281551
15099037 51 18335139812416525942
15848700 24 18202843262111810220
15848702 151 16988848262958300981
16752209 62 18335696105492573576
16945 1 18410855473013063775
1813 80 18272378572207267076
18186145 218 18338228362096015613
187816 3 18410857663704853992
19141452 34 17131829889222033293
19784866 9 18113613452605694563
200 152 16950282905968490344
20028762 73 18055641861278493167
20600515 1 18340218469921978116
20645477 70 16009301016701038466
21285901 2 17917162606291067244
23175994 123 18333735723499757565
23402539 116 17988639696664490244
23493267 7 17313098635762053785
23557571 272 17489592229515708168
23559900 14 15554438621982335170
266924 87 18194116322357846868
347723 3 18410856551049855057
34934 24 18129105515976021729
3545911 37 15719391732852524422
4072396 5 18261662693185545291
4214541 1 15791727494979709055
465052 167 17240208741576471315
474 4 17917140731779840409
59755656 215 18270402685366324510
633830 44 18342455975941661781
69090 78 17060620005479420895
7226269 152 18410853270196137312
7495541 125 17531535390133293585
77779 3 15719110262139125926
81228 2 18128838385973970688
8272917 22 16660357039657468298
9971528 1 17775283884826915592

> <PUBCHEM_SHAPE_MULTIPOLES>
399.85
10.42
1.74
1.37
0
0
0.06
0
1.28
0
-0.74
0
0
-0.06

> <PUBCHEM_SHAPE_SELFOVERLAP>
850.96

> <PUBCHEM_SHAPE_VOLUME>
224.1

> <PUBCHEM_COORDINATE_TYPE>
2
5
10

> <Energy>
28.3223

> <minimizedAffinity>
-9.14471

> <CNNscore>
0.9097778797

> <CNNaffinity>
7.8510270119

> <CNN_VS>
7.1426906586

> <CNNaffinity_variance>
0.5640056133

$$$$
448537


 22 23  0  0  0  0  0  0  0  0999 V2000
   -3.6249   -4.7101   21.6127 C   0  0  0  0  0  0  0  0  0  0  0  0
   -4.7631   -4.0162   21.8634 C   0  0  0  0  0  0  0  0  0  0  0  0
    1.2685   -2.0172   20.9175 O   0  0  0  0  0  0  0  0  0  0  0  0
   -2.3372   -4.0067   21.4434 C   0  0  0  0  0  0  0  0  0  0  0  0
   -1.7587   -3.3237   22.5217 C   0  0  0  0  0  0  0  0  0  0  0  0
   -1.6873   -4.0107   20.2025 C   0  0  0  0  0  0  0  0  0  0  0  0
   -0.5459   -2.6491   22.3601 C   0  0  0  0  0  0  0  0  0  0  0  0
   -0.4754   -3.3368   20.0419 C   0  0  0  0  0  0  0  0  0  0  0  0
    0.0843   -2.6628   21.1201 C   0  0  0  0  0  0  0  0  0  0  0  0
    1.6751   -1.5523   21.6220 H   0  0  0  0  0  0  0  0  0  0  0  0
   -9.6536   -6.7156   22.5547 O   0  0  0  0  0  0  0  0  0  0  0  0
   -6.0511   -4.7192   22.0354 C   0  0  0  0  0  0  0  0  0  0  0  0
   -6.7024   -4.7134   23.2754 C   0  0  0  0  0  0  0  0  0  0  0  0
   -6.6264   -5.4067   20.9587 C   0  0  0  0  0  0  0  0  0  0  0  0
   -7.9132   -5.3895   23.4339 C   0  0  0  0  0  0  0  0  0  0  0  0
   -7.8373   -6.0818   21.1169 C   0  0  0  0  0  0  0  0  0  0  0  0
   -8.4704   -6.0675   22.3557 C   0  0  0  0  0  0  0  0  0  0  0  0
  -10.0639   -6.6938   23.3968 H   0  0  0  0  0  0  0  0  0  0  0  0
   -3.5134   -6.2217   21.5207 C   0  0  0  0  0  0  0  0  0  0  0  0
   -4.2447   -6.9443   22.6446 C   0  0  0  0  0  0  0  0  0  0  0  0
   -4.8606   -2.5106   22.0335 C   0  0  0  0  0  0  0  0  0  0  0  0
   -6.2780   -1.9814   21.8572 C   0  0  0  0  0  0  0  0  0  0  0  0
  3  9  1  0
  3 10  1  0
 11 17  1  0
 11 18  1  0
  1  2  2  0
  1 19  1  0
  1  4  1  0
  2 21  1  0
  2 12  1  0
 19 20  1  0
 21 22  1  0
  4  5  2  0
  4  6  1  0
 12 13  2  0
 12 14  1  0
  5  7  1  0
 13 15  1  0
  6  8  2  0
 14 16  2  0
  7  9  2  0
 15 17  2  0
  8  9  1  0
 16 17  1  0
M  END
> <PUBCHEM_COMPOUND_CID>
448537

> <PUBCHEM_CONFORMER_RMSD>
0.6

> <PUBCHEM_CONFORMER_DIVERSEORDER>
1
3
2

> <PUBCHEM_MMFF94_PARTIAL_CHARGES>
28
1 -0.53
11 -0.15
12 -0.15
13 -0.15
14 -0.15
15 -0.15
16 -0.15
17 -0.15
18 -0.15
19 0.08
2 -0.53
20 0.08
3 -0.17
31 0.15
32 0.15
33 0.15
34 0.15
35 0.15
36 0.15
37 0.15
38 0.15
39 0.45
4 -0.17
40 0.45
5 0.14
6 0.14
7 0.03
8 0.03

> <PUBCHEM_EFFECTIVE_ROTOR_COUNT>
4

> <PUBCHEM_PHARMACOPHORE_FEATURES>
6
1 1 donor
1 10 hydrophobe
1 2 donor
1 9 hydrophobe
6 7 11 13 15 17 19 rings
6 8 12 14 16 18 20 rings

> <PUBCHEM_HEAVY_ATOM_COUNT>
20

> <PUBCHEM_ATOM_DEF_STEREO_COUNT>
0

> <PUBCHEM_ATOM_UDEF_STEREO_COUNT>
0

> <PUBCHEM_BOND_DEF_STEREO_COUNT>
1

> <PUBCHEM_BOND_UDEF_STEREO_COUNT>
0

> <PUBCHEM_ISOTOPIC_ATOM_COUNT>
0

> <PUBCHEM_COMPONENT_COUNT>
1

> <PUBCHEM_CACTVS_TAUTO_COUNT>
3

> <PUBCHEM_CONFORMER_ID>
0006D81900000001

> <PUBCHEM_MMFF94_ENERGY>
60.231

> <PUBCHEM_FEATURE_SELFOVERLAP>
30.447

> <PUBCHEM_SHAPE_FINGERPRINT>
10366900 7 18186514428534874893
104564 63 18339924792832442081
10906281 52 18129397028286092948
11646440 116 18130798871235594657
12592029 89 16950278473467191938
12788726 201 18270697410649816016
13140716 1 18266458895859843337
13533116 47 18340201896197096762
13760787 19 16660644076447957075
14115302 16 18186806919849492430
14341114 176 15647057049052281551
15099037 51 18335139812416525942
15848700 24 18202843262111810220
15848702 151 16988848262958300981
16752209 62 18335696105492573576
16945 1 18410855473013063775
1813 80 18272378572207267076
18186145 218 18338228362096015613
187816 3 18410857663704853992
19141452 34 17131829889222033293
19784866 9 18113613452605694563
200 152 16950282905968490344
20028762 73 18055641861278493167
20600515 1 18340218469921978116
20645477 70 16009301016701038466
21285901 2 17917162606291067244
23175994 123 18333735723499757565
23402539 116 17988639696664490244
23493267 7 17313098635762053785
23557571 272 17489592229515708168
23559900 14 15554438621982335170
266924 87 18194116322357846868
347723 3 18410856551049855057
34934 24 18129105515976021729
3545911 37 15719391732852524422
4072396 5 18261662693185545291
4214541 1 15791727494979709055
465052 167 17240208741576471315
474 4 17917140731779840409
59755656 215 18270402685366324510
633830 44 18342455975941661781
69090 78 17060620005479420895
7226269 152 18410853270196137312
7495541 125 17531535390133293585
77779 3 15719110262139125926
81228 2 18128838385973970688
8272917 22 16660357039657468298
9971528 1 17775283884826915592

> <PUBCHEM_SHAPE_MULTIPOLES>
399.85
10.42
1.74
1.37
0
0
0.06
0
1.28
0
-0.74
0
0
-0.06

> <PUBCHEM_SHAPE_SELFOVERLAP>
850.96

> <PUBCHEM_SHAPE_VOLUME>
224.1

> <PUBCHEM_COORDINATE_TYPE>
2
5
10

> <Energy>
28.3223

> <minimizedAffinity>
-8.39299

> <CNNscore>
0.9040750861

> <CNNaffinity>
7.9847598076

> <CNN_VS>
7.2188224792

> <CNNaffinity_variance>
0.7368295789

$$$$
448537


 22 23  0  0  0  0  0  0  0  0999 V2000
   -4.7135   -3.9766   21.6227 C   0  0  0  0  0  0  0  0  0  0  0  0
   -3.5844   -4.6659   21.3230 C   0  0  0  0  0  0  0  0  0  0  0  0
   -9.6238   -6.6272   22.3608 O   0  0  0  0  0  0  0  0  0  0  0  0
   -5.9984   -4.6816   21.8067 C   0  0  0  0  0  0  0  0  0  0  0  0
   -6.6337   -5.2879   20.7146 C   0  0  0  0  0  0  0  0  0  0  0  0
   -6.5957   -4.7439   23.0721 C   0  0  0  0  0  0  0  0  0  0  0  0
   -7.8544   -5.9459   20.8851 C   0  0  0  0  0  0  0  0  0  0  0  0
   -7.8150   -5.4019   23.2419 C   0  0  0  0  0  0  0  0  0  0  0  0
   -8.4332   -5.9964   22.1490 C   0  0  0  0  0  0  0  0  0  0  0  0
  -10.0691   -7.0392   21.6469 H   0  0  0  0  0  0  0  0  0  0  0  0
    1.3024   -1.9524   20.6610 O   0  0  0  0  0  0  0  0  0  0  0  0
   -2.2984   -3.9617   21.1414 C   0  0  0  0  0  0  0  0  0  0  0  0
   -1.5168   -3.6146   22.2507 C   0  0  0  0  0  0  0  0  0  0  0  0
   -1.8554   -3.6270   19.8551 C   0  0  0  0  0  0  0  0  0  0  0  0
   -0.3084   -2.9391   22.0724 C   0  0  0  0  0  0  0  0  0  0  0  0
   -0.6469   -2.9525   19.6769 C   0  0  0  0  0  0  0  0  0  0  0  0
    0.1165   -2.6134   20.7895 C   0  0  0  0  0  0  0  0  0  0  0  0
    1.8016   -1.7333   21.4229 H   0  0  0  0  0  0  0  0  0  0  0  0
   -4.8014   -2.4767   21.8424 C   0  0  0  0  0  0  0  0  0  0  0  0
   -6.2311   -1.9518   21.8166 C   0  0  0  0  0  0  0  0  0  0  0  0
   -3.4813   -6.1740   21.1811 C   0  0  0  0  0  0  0  0  0  0  0  0
   -3.9992   -6.9243   22.4013 C   0  0  0  0  0  0  0  0  0  0  0  0
  3  9  1  0
  3 10  1  0
 11 17  1  0
 11 18  1  0
  1  2  2  0
  1 19  1  0
  1  4  1  0
  2 21  1  0
  2 12  1  0
 19 20  1  0
 21 22  1  0
  4  5  2  0
  4  6  1  0
 12 13  2  0
 12 14  1  0
  5  7  1  0
 13 15  1  0
  6  8  2  0
 14 16  2  0
  7  9  2  0
 15 17  2  0
  8  9  1  0
 16 17  1  0
M  END
> <PUBCHEM_COMPOUND_CID>
448537

> <PUBCHEM_CONFORMER_RMSD>
0.6

> <PUBCHEM_CONFORMER_DIVERSEORDER>
1
3
2

> <PUBCHEM_MMFF94_PARTIAL_CHARGES>
28
1 -0.53
11 -0.15
12 -0.15
13 -0.15
14 -0.15
15 -0.15
16 -0.15
17 -0.15
18 -0.15
19 0.08
2 -0.53
20 0.08
3 -0.17
31 0.15
32 0.15
33 0.15
34 0.15
35 0.15
36 0.15
37 0.15
38 0.15
39 0.45
4 -0.17
40 0.45
5 0.14
6 0.14
7 0.03
8 0.03

> <PUBCHEM_EFFECTIVE_ROTOR_COUNT>
4

> <PUBCHEM_PHARMACOPHORE_FEATURES>
6
1 1 donor
1 10 hydrophobe
1 2 donor
1 9 hydrophobe
6 7 11 13 15 17 19 rings
6 8 12 14 16 18 20 rings

> <PUBCHEM_HEAVY_ATOM_COUNT>
20

> <PUBCHEM_ATOM_DEF_STEREO_COUNT>
0

> <PUBCHEM_ATOM_UDEF_STEREO_COUNT>
0

> <PUBCHEM_BOND_DEF_STEREO_COUNT>
1

> <PUBCHEM_BOND_UDEF_STEREO_COUNT>
0

> <PUBCHEM_ISOTOPIC_ATOM_COUNT>
0

> <PUBCHEM_COMPONENT_COUNT>
1

> <PUBCHEM_CACTVS_TAUTO_COUNT>
3

> <PUBCHEM_CONFORMER_ID>
0006D81900000001

> <PUBCHEM_MMFF94_ENERGY>
60.231

> <PUBCHEM_FEATURE_SELFOVERLAP>
30.447

> <PUBCHEM_SHAPE_FINGERPRINT>
10366900 7 18186514428534874893
104564 63 18339924792832442081
10906281 52 18129397028286092948
11646440 116 18130798871235594657
12592029 89 16950278473467191938
12788726 201 18270697410649816016
13140716 1 18266458895859843337
13533116 47 18340201896197096762
13760787 19 16660644076447957075
14115302 16 18186806919849492430
14341114 176 15647057049052281551
15099037 51 18335139812416525942
15848700 24 18202843262111810220
15848702 151 16988848262958300981
16752209 62 18335696105492573576
16945 1 18410855473013063775
1813 80 18272378572207267076
18186145 218 18338228362096015613
187816 3 18410857663704853992
19141452 34 17131829889222033293
19784866 9 18113613452605694563
200 152 16950282905968490344
20028762 73 18055641861278493167
20600515 1 18340218469921978116
20645477 70 16009301016701038466
21285901 2 17917162606291067244
23175994 123 18333735723499757565
23402539 116 17988639696664490244
23493267 7 17313098635762053785
23557571 272 17489592229515708168
23559900 14 15554438621982335170
266924 87 18194116322357846868
347723 3 18410856551049855057
34934 24 18129105515976021729
3545911 37 15719391732852524422
4072396 5 18261662693185545291
4214541 1 15791727494979709055
465052 167 17240208741576471315
474 4 17917140731779840409
59755656 215 18270402685366324510
633830 44 18342455975941661781
69090 78 17060620005479420895
7226269 152 18410853270196137312
7495541 125 17531535390133293585
77779 3 15719110262139125926
81228 2 18128838385973970688
8272917 22 16660357039657468298
9971528 1 17775283884826915592

> <PUBCHEM_SHAPE_MULTIPOLES>
399.85
10.42
1.74
1.37
0
0
0.06
0
1.28
0
-0.74
0
0
-0.06

> <PUBCHEM_SHAPE_SELFOVERLAP>
850.96

> <PUBCHEM_SHAPE_VOLUME>
224.1

> <PUBCHEM_COORDINATE_TYPE>
2
5
10

> <Energy>
28.3223

> <minimizedAffinity>
-7.88140

> <CNNscore>
0.8946365714

> <CNNaffinity>
7.9802246094

> <CNN_VS>
7.1394009590

> <CNNaffinity_variance>
0.7308961749

$$$$
448537


 22 23  0  0  0  0  0  0  0  0999 V2000
   -3.6825   -4.6051   21.4257 C   0  0  0  0  0  0  0  0  0  0  0  0
   -4.8027   -3.8943   21.7083 C   0  0  0  0  0  0  0  0  0  0  0  0
    0.5640   -2.2117   18.6114 O   0  0  0  0  0  0  0  0  0  0  0  0
   -2.5594   -3.9806   20.6975 C   0  0  0  0  0  0  0  0  0  0  0  0
   -1.5309   -3.3397   21.4013 C   0  0  0  0  0  0  0  0  0  0  0  0
   -2.5165   -4.0176   19.2979 C   0  0  0  0  0  0  0  0  0  0  0  0
   -0.4733   -2.7394   20.7134 C   0  0  0  0  0  0  0  0  0  0  0  0
   -1.4594   -3.4181   18.6112 C   0  0  0  0  0  0  0  0  0  0  0  0
   -0.4483   -2.7850   19.3233 C   0  0  0  0  0  0  0  0  0  0  0  0
    1.2628   -1.7762   19.0584 H   0  0  0  0  0  0  0  0  0  0  0  0
   -9.0523   -6.2997   24.5076 O   0  0  0  0  0  0  0  0  0  0  0  0
   -5.9254   -4.5175   22.4389 C   0  0  0  0  0  0  0  0  0  0  0  0
   -5.8106   -4.8045   23.8050 C   0  0  0  0  0  0  0  0  0  0  0  0
   -7.1124   -4.8353   21.7659 C   0  0  0  0  0  0  0  0  0  0  0  0
   -6.8711   -5.4040   24.4864 C   0  0  0  0  0  0  0  0  0  0  0  0
   -8.1730   -5.4337   22.4473 C   0  0  0  0  0  0  0  0  0  0  0  0
   -8.0419   -5.7138   23.8038 C   0  0  0  0  0  0  0  0  0  0  0  0
   -8.9441   -6.4800   25.4206 H   0  0  0  0  0  0  0  0  0  0  0  0
   -3.4228   -6.0445   21.8333 C   0  0  0  0  0  0  0  0  0  0  0  0
   -4.3022   -7.0434   21.0922 C   0  0  0  0  0  0  0  0  0  0  0  0
   -5.0300   -2.4318   21.3696 C   0  0  0  0  0  0  0  0  0  0  0  0
   -5.8731   -1.7035   22.4083 C   0  0  0  0  0  0  0  0  0  0  0  0
  3  9  1  0
  3 10  1  0
 11 17  1  0
 11 18  1  0
  1  2  2  0
  1 19  1  0
  1  4  1  0
  2 21  1  0
  2 12  1  0
 19 20  1  0
 21 22  1  0
  4  5  2  0
  4  6  1  0
 12 13  2  0
 12 14  1  0
  5  7  1  0
 13 15  1  0
  6  8  2  0
 14 16  2  0
  7  9  2  0
 15 17  2  0
  8  9  1  0
 16 17  1  0
M  END
> <PUBCHEM_COMPOUND_CID>
448537

> <PUBCHEM_CONFORMER_RMSD>
0.6

> <PUBCHEM_CONFORMER_DIVERSEORDER>
1
3
2

> <PUBCHEM_MMFF94_PARTIAL_CHARGES>
28
1 -0.53
11 -0.15
12 -0.15
13 -0.15
14 -0.15
15 -0.15
16 -0.15
17 -0.15
18 -0.15
19 0.08
2 -0.53
20 0.08
3 -0.17
31 0.15
32 0.15
33 0.15
34 0.15
35 0.15
36 0.15
37 0.15
38 0.15
39 0.45
4 -0.17
40 0.45
5 0.14
6 0.14
7 0.03
8 0.03

> <PUBCHEM_EFFECTIVE_ROTOR_COUNT>
4

> <PUBCHEM_PHARMACOPHORE_FEATURES>
6
1 1 donor
1 10 hydrophobe
1 2 donor
1 9 hydrophobe
6 7 11 13 15 17 19 rings
6 8 12 14 16 18 20 rings

> <PUBCHEM_HEAVY_ATOM_COUNT>
20

> <PUBCHEM_ATOM_DEF_STEREO_COUNT>
0

> <PUBCHEM_ATOM_UDEF_STEREO_COUNT>
0

> <PUBCHEM_BOND_DEF_STEREO_COUNT>
1

> <PUBCHEM_BOND_UDEF_STEREO_COUNT>
0

> <PUBCHEM_ISOTOPIC_ATOM_COUNT>
0

> <PUBCHEM_COMPONENT_COUNT>
1

> <PUBCHEM_CACTVS_TAUTO_COUNT>
3

> <PUBCHEM_CONFORMER_ID>
0006D81900000001

> <PUBCHEM_MMFF94_ENERGY>
60.231

> <PUBCHEM_FEATURE_SELFOVERLAP>
30.447

> <PUBCHEM_SHAPE_FINGERPRINT>
10366900 7 18186514428534874893
104564 63 18339924792832442081
10906281 52 18129397028286092948
11646440 116 18130798871235594657
12592029 89 16950278473467191938
12788726 201 18270697410649816016
13140716 1 18266458895859843337
13533116 47 18340201896197096762
13760787 19 16660644076447957075
14115302 16 18186806919849492430
14341114 176 15647057049052281551
15099037 51 18335139812416525942
15848700 24 18202843262111810220
15848702 151 16988848262958300981
16752209 62 18335696105492573576
16945 1 18410855473013063775
1813 80 18272378572207267076
18186145 218 18338228362096015613
187816 3 18410857663704853992
19141452 34 17131829889222033293
19784866 9 18113613452605694563
200 152 16950282905968490344
20028762 73 18055641861278493167
20600515 1 18340218469921978116
20645477 70 16009301016701038466
21285901 2 17917162606291067244
23175994 123 18333735723499757565
23402539 116 17988639696664490244
23493267 7 17313098635762053785
23557571 272 17489592229515708168
23559900 14 15554438621982335170
266924 87 18194116322357846868
347723 3 18410856551049855057
34934 24 18129105515976021729
3545911 37 15719391732852524422
4072396 5 18261662693185545291
4214541 1 15791727494979709055
465052 167 17240208741576471315
474 4 17917140731779840409
59755656 215 18270402685366324510
633830 44 18342455975941661781
69090 78 17060620005479420895
7226269 152 18410853270196137312
7495541 125 17531535390133293585
77779 3 15719110262139125926
81228 2 18128838385973970688
8272917 22 16660357039657468298
9971528 1 17775283884826915592

> <PUBCHEM_SHAPE_MULTIPOLES>
399.85
10.42
1.74
1.37
0
0
0.06
0
1.28
0
-0.74
0
0
-0.06

> <PUBCHEM_SHAPE_SELFOVERLAP>
850.96

> <PUBCHEM_SHAPE_VOLUME>
224.1

> <PUBCHEM_COORDINATE_TYPE>
2
5
10

> <Energy>
28.3223

> <minimizedAffinity>
-8.41202

> <CNNscore>
0.8791738749

> <CNNaffinity>
7.8634228706

> <CNN_VS>
6.9133157730

> <CNNaffinity_variance>
0.5951476693

$$$$
448537


 22 23  0  0  0  0  0  0  0  0999 V2000
   -4.7408   -4.1564   21.6937 C   0  0  0  0  0  0  0  0  0  0  0  0
   -3.5921   -4.8745   21.6254 C   0  0  0  0  0  0  0  0  0  0  0  0
   -9.6901   -6.7722   22.2795 O   0  0  0  0  0  0  0  0  0  0  0  0
   -6.0428   -4.8343   21.8580 C   0  0  0  0  0  0  0  0  0  0  0  0
   -6.6014   -4.9904   23.1337 C   0  0  0  0  0  0  0  0  0  0  0  0
   -6.7262   -5.3326   20.7415 C   0  0  0  0  0  0  0  0  0  0  0  0
   -7.8278   -5.6408   23.2917 C   0  0  0  0  0  0  0  0  0  0  0  0
   -7.9518   -5.9818   20.9000 C   0  0  0  0  0  0  0  0  0  0  0  0
   -8.4915   -6.1303   22.1715 C   0  0  0  0  0  0  0  0  0  0  0  0
  -10.0839   -6.8904   23.1213 H   0  0  0  0  0  0  0  0  0  0  0  0
    1.3893   -2.3313   20.9933 O   0  0  0  0  0  0  0  0  0  0  0  0
   -2.2891   -4.1970   21.4637 C   0  0  0  0  0  0  0  0  0  0  0  0
   -1.6026   -4.2615   20.2446 C   0  0  0  0  0  0  0  0  0  0  0  0
   -1.7255   -3.4915   22.5349 C   0  0  0  0  0  0  0  0  0  0  0  0
   -0.3665   -3.6288   20.1023 C   0  0  0  0  0  0  0  0  0  0  0  0
   -0.4903   -2.8582   22.3924 C   0  0  0  0  0  0  0  0  0  0  0  0
    0.1794   -2.9335   21.1753 C   0  0  0  0  0  0  0  0  0  0  0  0
    1.8241   -2.3939   20.1657 H   0  0  0  0  0  0  0  0  0  0  0  0
   -4.8396   -2.6416   21.6577 C   0  0  0  0  0  0  0  0  0  0  0  0
   -6.2545   -2.1294   21.8940 C   0  0  0  0  0  0  0  0  0  0  0  0
   -3.4860   -6.3847   21.7405 C   0  0  0  0  0  0  0  0  0  0  0  0
   -4.5690   -6.9928   22.6223 C   0  0  0  0  0  0  0  0  0  0  0  0
  3  9  1  0
  3 10  1  0
 11 17  1  0
 11 18  1  0
  1  2  2  0
  1 19  1  0
  1  4  1  0
  2 21  1  0
  2 12  1  0
 19 20  1  0
 21 22  1  0
  4  5  2  0
  4  6  1  0
 12 13  2  0
 12 14  1  0
  5  7  1  0
 13 15  1  0
  6  8  2  0
 14 16  2  0
  7  9  2  0
 15 17  2  0
  8  9  1  0
 16 17  1  0
M  END
> <PUBCHEM_COMPOUND_CID>
448537

> <PUBCHEM_CONFORMER_RMSD>
0.6

> <PUBCHEM_CONFORMER_DIVERSEORDER>
1
3
2

> <PUBCHEM_MMFF94_PARTIAL_CHARGES>
28
1 -0.53
11 -0.15
12 -0.15
13 -0.15
14 -0.15
15 -0.15
16 -0.15
17 -0.15
18 -0.15
19 0.08
2 -0.53
20 0.08
3 -0.17
31 0.15
32 0.15
33 0.15
34 0.15
35 0.15
36 0.15
37 0.15
38 0.15
39 0.45
4 -0.17
40 0.45
5 0.14
6 0.14
7 0.03
8 0.03

> <PUBCHEM_EFFECTIVE_ROTOR_COUNT>
4

> <PUBCHEM_PHARMACOPHORE_FEATURES>
6
1 1 donor
1 10 hydrophobe
1 2 donor
1 9 hydrophobe
6 7 11 13 15 17 19 rings
6 8 12 14 16 18 20 rings

> <PUBCHEM_HEAVY_ATOM_COUNT>
20

> <PUBCHEM_ATOM_DEF_STEREO_COUNT>
0

> <PUBCHEM_ATOM_UDEF_STEREO_COUNT>
0

> <PUBCHEM_BOND_DEF_STEREO_COUNT>
1

> <PUBCHEM_BOND_UDEF_STEREO_COUNT>
0

> <PUBCHEM_ISOTOPIC_ATOM_COUNT>
0

> <PUBCHEM_COMPONENT_COUNT>
1

> <PUBCHEM_CACTVS_TAUTO_COUNT>
3

> <PUBCHEM_CONFORMER_ID>
0006D81900000001

> <PUBCHEM_MMFF94_ENERGY>
60.231

> <PUBCHEM_FEATURE_SELFOVERLAP>
30.447

> <PUBCHEM_SHAPE_FINGERPRINT>
10366900 7 18186514428534874893
104564 63 18339924792832442081
10906281 52 18129397028286092948
11646440 116 18130798871235594657
12592029 89 16950278473467191938
12788726 201 18270697410649816016
13140716 1 18266458895859843337
13533116 47 18340201896197096762
13760787 19 16660644076447957075
14115302 16 18186806919849492430
14341114 176 15647057049052281551
15099037 51 18335139812416525942
15848700 24 18202843262111810220
15848702 151 16988848262958300981
16752209 62 18335696105492573576
16945 1 18410855473013063775
1813 80 18272378572207267076
18186145 218 18338228362096015613
187816 3 18410857663704853992
19141452 34 17131829889222033293
19784866 9 18113613452605694563
200 152 16950282905968490344
20028762 73 18055641861278493167
20600515 1 18340218469921978116
20645477 70 16009301016701038466
21285901 2 17917162606291067244
23175994 123 18333735723499757565
23402539 116 17988639696664490244
23493267 7 17313098635762053785
23557571 272 17489592229515708168
23559900 14 15554438621982335170
266924 87 18194116322357846868
347723 3 18410856551049855057
34934 24 18129105515976021729
3545911 37 15719391732852524422
4072396 5 18261662693185545291
4214541 1 15791727494979709055
465052 167 17240208741576471315
474 4 17917140731779840409
59755656 215 18270402685366324510
633830 44 18342455975941661781
69090 78 17060620005479420895
7226269 152 18410853270196137312
7495541 125 17531535390133293585
77779 3 15719110262139125926
81228 2 18128838385973970688
8272917 22 16660357039657468298
9971528 1 17775283884826915592

> <PUBCHEM_SHAPE_MULTIPOLES>
399.85
10.42
1.74
1.37
0
0
0.06
0
1.28
0
-0.74
0
0
-0.06

> <PUBCHEM_SHAPE_SELFOVERLAP>
850.96

> <PUBCHEM_SHAPE_VOLUME>
224.1

> <PUBCHEM_COORDINATE_TYPE>
2
5
10

> <Energy>
28.3223

> <minimizedAffinity>
-8.69414

> <CNNscore>
0.8744528890

> <CNNaffinity>
7.8970427513

> <CNN_VS>
6.9055919647

> <CNNaffinity_variance>
0.6954143643

$$$$
