448537


 22 23  0  0  0  0  0  0  0  0999 V2000
   -4.1849   -3.5026   21.1407 C   0  0  0  0  0  0  0  0  0  0  0  0
   -4.7489   -2.7602   22.1259 C   0  0  0  0  0  0  0  0  0  0  0  0
    0.2963   -1.5972   18.3176 O   0  0  0  0  0  0  0  0  0  0  0  0
   -3.0006   -3.0072   20.4101 C   0  0  0  0  0  0  0  0  0  0  0  0
   -1.9036   -2.4897   21.1120 C   0  0  0  0  0  0  0  0  0  0  0  0
   -2.9671   -3.0439   19.0103 C   0  0  0  0  0  0  0  0  0  0  0  0
   -0.7870   -2.0110   20.4218 C   0  0  0  0  0  0  0  0  0  0  0  0
   -1.8510   -2.5660   18.3214 C   0  0  0  0  0  0  0  0  0  0  0  0
   -0.7722   -2.0543   19.0316 C   0  0  0  0  0  0  0  0  0  0  0  0
    1.0415   -1.2454   18.7632 H   0  0  0  0  0  0  0  0  0  0  0  0
   -9.2735   -4.6088   24.9175 O   0  0  0  0  0  0  0  0  0  0  0  0
   -5.9320   -3.2562   22.8588 C   0  0  0  0  0  0  0  0  0  0  0  0
   -7.2229   -2.9908   22.3847 C   0  0  0  0  0  0  0  0  0  0  0  0
   -5.7700   -3.9894   24.0417 C   0  0  0  0  0  0  0  0  0  0  0  0
   -8.3364   -3.4525   23.0885 C   0  0  0  0  0  0  0  0  0  0  0  0
   -6.8832   -4.4518   24.7447 C   0  0  0  0  0  0  0  0  0  0  0  0
   -8.1586   -4.1779   24.2611 C   0  0  0  0  0  0  0  0  0  0  0  0
  -10.1235   -4.4139   24.5751 H   0  0  0  0  0  0  0  0  0  0  0  0
   -4.6378   -4.8853   20.7063 C   0  0  0  0  0  0  0  0  0  0  0  0
   -4.0296   -6.0035   21.5429 C   0  0  0  0  0  0  0  0  0  0  0  0
   -4.2482   -1.4124   22.6135 C   0  0  0  0  0  0  0  0  0  0  0  0
   -3.4853   -1.5002   23.9289 C   0  0  0  0  0  0  0  0  0  0  0  0
  3  9  1  0
  3 10  1  0
 11 17  1  0
 11 18  1  0
  1  2  2  0
  1 19  1  0
  1  4  1  0
  2 21  1  0
  2 12  1  0
 19 20  1  0
 21 22  1  0
  4  5  2  0
  4  6  1  0
 12 13  2  0
 12 14  1  0
  5  7  1  0
 13 15  1  0
  6  8  2  0
 14 16  2  0
  7  9  2  0
 15 17  2  0
  8  9  1  0
 16 17  1  0
M  END
> <PUBCHEM_COMPOUND_CID>
448537

> <PUBCHEM_CONFORMER_RMSD>
0.6

> <PUBCHEM_CONFORMER_DIVERSEORDER>
1
3
2

> <PUBCHEM_MMFF94_PARTIAL_CHARGES>
28
1 -0.53
11 -0.15
12 -0.15
13 -0.15
14 -0.15
15 -0.15
16 -0.15
17 -0.15
18 -0.15
19 0.08
2 -0.53
20 0.08
3 -0.17
31 0.15
32 0.15
33 0.15
34 0.15
35 0.15
36 0.15
37 0.15
38 0.15
39 0.45
4 -0.17
40 0.45
5 0.14
6 0.14
7 0.03
8 0.03

> <PUBCHEM_EFFECTIVE_ROTOR_COUNT>
4

> <PUBCHEM_PHARMACOPHORE_FEATURES>
6
1 1 donor
1 10 hydrophobe
1 2 donor
1 9 hydrophobe
6 7 11 13 15 17 19 rings
6 8 12 14 16 18 20 rings

> <PUBCHEM_HEAVY_ATOM_COUNT>
20

> <PUBCHEM_ATOM_DEF_STEREO_COUNT>
0

> <PUBCHEM_ATOM_UDEF_STEREO_COUNT>
0

> <PUBCHEM_BOND_DEF_STEREO_COUNT>
1

> <PUBCHEM_BOND_UDEF_STEREO_COUNT>
0

> <PUBCHEM_ISOTOPIC_ATOM_COUNT>
0

> <PUBCHEM_COMPONENT_COUNT>
1

> <PUBCHEM_CACTVS_TAUTO_COUNT>
3

> <PUBCHEM_CONFORMER_ID>
0006D81900000001

> <PUBCHEM_MMFF94_ENERGY>
60.231

> <PUBCHEM_FEATURE_SELFOVERLAP>
30.447

> <PUBCHEM_SHAPE_FINGERPRINT>
10366900 7 18186514428534874893
104564 63 18339924792832442081
10906281 52 18129397028286092948
11646440 116 18130798871235594657
12592029 89 16950278473467191938
12788726 201 18270697410649816016
13140716 1 18266458895859843337
13533116 47 18340201896197096762
13760787 19 16660644076447957075
14115302 16 18186806919849492430
14341114 176 15647057049052281551
15099037 51 18335139812416525942
15848700 24 18202843262111810220
15848702 151 16988848262958300981
16752209 62 18335696105492573576
16945 1 18410855473013063775
1813 80 18272378572207267076
18186145 218 18338228362096015613
187816 3 18410857663704853992
19141452 34 17131829889222033293
19784866 9 18113613452605694563
200 152 16950282905968490344
20028762 73 18055641861278493167
20600515 1 18340218469921978116
20645477 70 16009301016701038466
21285901 2 17917162606291067244
23175994 123 18333735723499757565
23402539 116 17988639696664490244
23493267 7 17313098635762053785
23557571 272 17489592229515708168
23559900 14 15554438621982335170
266924 87 18194116322357846868
347723 3 18410856551049855057
34934 24 18129105515976021729
3545911 37 15719391732852524422
4072396 5 18261662693185545291
4214541 1 15791727494979709055
465052 167 17240208741576471315
474 4 17917140731779840409
59755656 215 18270402685366324510
633830 44 18342455975941661781
69090 78 17060620005479420895
7226269 152 18410853270196137312
7495541 125 17531535390133293585
77779 3 15719110262139125926
81228 2 18128838385973970688
8272917 22 16660357039657468298
9971528 1 17775283884826915592

> <PUBCHEM_SHAPE_MULTIPOLES>
399.85
10.42
1.74
1.37
0
0
0.06
0
1.28
0
-0.74
0
0
-0.06

> <PUBCHEM_SHAPE_SELFOVERLAP>
850.96

> <PUBCHEM_SHAPE_VOLUME>
224.1

> <PUBCHEM_COORDINATE_TYPE>
2
5
10

> <Energy>
28.3223

> <minimizedAffinity>
-7.81842

> <CNNscore>
0.8977767825

> <CNNaffinity>
7.9055771828

> <CNN_VS>
7.0974435806

> <CNNaffinity_variance>
0.6537785530

$$$$
448537


 22 23  0  0  0  0  0  0  0  0999 V2000
   -4.7785   -2.7202   22.1386 C   0  0  0  0  0  0  0  0  0  0  0  0
   -4.2147   -3.4750   21.1627 C   0  0  0  0  0  0  0  0  0  0  0  0
   -9.2466   -4.5803   25.0122 O   0  0  0  0  0  0  0  0  0  0  0  0
   -5.9582   -3.2096   22.8807 C   0  0  0  0  0  0  0  0  0  0  0  0
   -7.2502   -2.8793   22.4499 C   0  0  0  0  0  0  0  0  0  0  0  0
   -5.7953   -4.0015   24.0245 C   0  0  0  0  0  0  0  0  0  0  0  0
   -8.3667   -3.3327   23.1570 C   0  0  0  0  0  0  0  0  0  0  0  0
   -6.9113   -4.4545   24.7302 C   0  0  0  0  0  0  0  0  0  0  0  0
   -8.1854   -4.1170   24.2914 C   0  0  0  0  0  0  0  0  0  0  0  0
  -10.1204   -4.3724   24.7457 H   0  0  0  0  0  0  0  0  0  0  0  0
    0.2848   -1.5785   18.3627 O   0  0  0  0  0  0  0  0  0  0  0  0
   -3.0332   -2.9873   20.4218 C   0  0  0  0  0  0  0  0  0  0  0  0
   -1.9309   -2.4640   21.1094 C   0  0  0  0  0  0  0  0  0  0  0  0
   -3.0115   -3.0363   19.0218 C   0  0  0  0  0  0  0  0  0  0  0  0
   -0.8227   -1.9943   20.4025 C   0  0  0  0  0  0  0  0  0  0  0  0
   -1.9033   -2.5676   18.3151 C   0  0  0  0  0  0  0  0  0  0  0  0
   -0.8174   -2.0492   19.0134 C   0  0  0  0  0  0  0  0  0  0  0  0
    1.0057   -1.2334   18.8515 H   0  0  0  0  0  0  0  0  0  0  0  0
   -4.2787   -1.3655   22.6082 C   0  0  0  0  0  0  0  0  0  0  0  0
   -3.5513   -1.4276   23.9451 C   0  0  0  0  0  0  0  0  0  0  0  0
   -4.6669   -4.8635   20.7472 C   0  0  0  0  0  0  0  0  0  0  0  0
   -3.9836   -5.9736   21.5352 C   0  0  0  0  0  0  0  0  0  0  0  0
  3  9  1  0
  3 10  1  0
 11 17  1  0
 11 18  1  0
  1  2  2  0
  1 19  1  0
  1  4  1  0
  2 21  1  0
  2 12  1  0
 19 20  1  0
 21 22  1  0
  4  5  2  0
  4  6  1  0
 12 13  2  0
 12 14  1  0
  5  7  1  0
 13 15  1  0
  6  8  2  0
 14 16  2  0
  7  9  2  0
 15 17  2  0
  8  9  1  0
 16 17  1  0
M  END
> <PUBCHEM_COMPOUND_CID>
448537

> <PUBCHEM_CONFORMER_RMSD>
0.6

> <PUBCHEM_CONFORMER_DIVERSEORDER>
1
3
2

> <PUBCHEM_MMFF94_PARTIAL_CHARGES>
28
1 -0.53
11 -0.15
12 -0.15
13 -0.15
14 -0.15
15 -0.15
16 -0.15
17 -0.15
18 -0.15
19 0.08
2 -0.53
20 0.08
3 -0.17
31 0.15
32 0.15
33 0.15
34 0.15
35 0.15
36 0.15
37 0.15
38 0.15
39 0.45
4 -0.17
40 0.45
5 0.14
6 0.14
7 0.03
8 0.03

> <PUBCHEM_EFFECTIVE_ROTOR_COUNT>
4

> <PUBCHEM_PHARMACOPHORE_FEATURES>
6
1 1 donor
1 10 hydrophobe
1 2 donor
1 9 hydrophobe
6 7 11 13 15 17 19 rings
6 8 12 14 16 18 20 rings

> <PUBCHEM_HEAVY_ATOM_COUNT>
20

> <PUBCHEM_ATOM_DEF_STEREO_COUNT>
0

> <PUBCHEM_ATOM_UDEF_STEREO_COUNT>
0

> <PUBCHEM_BOND_DEF_STEREO_COUNT>
1

> <PUBCHEM_BOND_UDEF_STEREO_COUNT>
0

> <PUBCHEM_ISOTOPIC_ATOM_COUNT>
0

> <PUBCHEM_COMPONENT_COUNT>
1

> <PUBCHEM_CACTVS_TAUTO_COUNT>
3

> <PUBCHEM_CONFORMER_ID>
0006D81900000001

> <PUBCHEM_MMFF94_ENERGY>
60.231

> <PUBCHEM_FEATURE_SELFOVERLAP>
30.447

> <PUBCHEM_SHAPE_FINGERPRINT>
10366900 7 18186514428534874893
104564 63 18339924792832442081
10906281 52 18129397028286092948
11646440 116 18130798871235594657
12592029 89 16950278473467191938
12788726 201 18270697410649816016
13140716 1 18266458895859843337
13533116 47 18340201896197096762
13760787 19 16660644076447957075
14115302 16 18186806919849492430
14341114 176 15647057049052281551
15099037 51 18335139812416525942
15848700 24 18202843262111810220
15848702 151 16988848262958300981
16752209 62 18335696105492573576
16945 1 18410855473013063775
1813 80 18272378572207267076
18186145 218 18338228362096015613
187816 3 18410857663704853992
19141452 34 17131829889222033293
19784866 9 18113613452605694563
200 152 16950282905968490344
20028762 73 18055641861278493167
20600515 1 18340218469921978116
20645477 70 16009301016701038466
21285901 2 17917162606291067244
23175994 123 18333735723499757565
23402539 116 17988639696664490244
23493267 7 17313098635762053785
23557571 272 17489592229515708168
23559900 14 15554438621982335170
266924 87 18194116322357846868
347723 3 18410856551049855057
34934 24 18129105515976021729
3545911 37 15719391732852524422
4072396 5 18261662693185545291
4214541 1 15791727494979709055
465052 167 17240208741576471315
474 4 17917140731779840409
59755656 215 18270402685366324510
633830 44 18342455975941661781
69090 78 17060620005479420895
7226269 152 18410853270196137312
7495541 125 17531535390133293585
77779 3 15719110262139125926
81228 2 18128838385973970688
8272917 22 16660357039657468298
9971528 1 17775283884826915592

> <PUBCHEM_SHAPE_MULTIPOLES>
399.85
10.42
1.74
1.37
0
0
0.06
0
1.28
0
-0.74
0
0
-0.06

> <PUBCHEM_SHAPE_SELFOVERLAP>
850.96

> <PUBCHEM_SHAPE_VOLUME>
224.1

> <PUBCHEM_COORDINATE_TYPE>
2
5
10

> <Energy>
28.3223

> <minimizedAffinity>
-7.79175

> <CNNscore>
0.8949027061

> <CNNaffinity>
7.8501839638

> <CNN_VS>
7.0251507759

> <CNNaffinity_variance>
0.6026505232

$$$$
448537


 22 23  0  0  0  0  0  0  0  0999 V2000
   -4.8835   -3.6666   21.6321 C   0  0  0  0  0  0  0  0  0  0  0  0
   -3.9664   -2.6953   21.8674 C   0  0  0  0  0  0  0  0  0  0  0  0
   -9.2265   -4.3646   25.1438 O   0  0  0  0  0  0  0  0  0  0  0  0
   -6.0311   -3.8539   22.5429 C   0  0  0  0  0  0  0  0  0  0  0  0
   -7.3329   -3.5762   22.1045 C   0  0  0  0  0  0  0  0  0  0  0  0
   -5.8273   -4.3036   23.8537 C   0  0  0  0  0  0  0  0  0  0  0  0
   -8.4184   -3.7427   22.9683 C   0  0  0  0  0  0  0  0  0  0  0  0
   -6.9124   -4.4702   24.7160 C   0  0  0  0  0  0  0  0  0  0  0  0
   -8.1966   -4.1889   24.2670 C   0  0  0  0  0  0  0  0  0  0  0  0
  -10.1059   -4.1847   24.8755 H   0  0  0  0  0  0  0  0  0  0  0  0
    0.4072   -1.9313   18.4077 O   0  0  0  0  0  0  0  0  0  0  0  0
   -2.8196   -2.5058   20.9554 C   0  0  0  0  0  0  0  0  0  0  0  0
   -1.6043   -2.0044   21.4386 C   0  0  0  0  0  0  0  0  0  0  0  0
   -2.9436   -2.8182   19.5953 C   0  0  0  0  0  0  0  0  0  0  0  0
   -0.5286   -1.8169   20.5691 C   0  0  0  0  0  0  0  0  0  0  0  0
   -1.8679   -2.6316   18.7262 C   0  0  0  0  0  0  0  0  0  0  0  0
   -0.6682   -2.1310   19.2221 C   0  0  0  0  0  0  0  0  0  0  0  0
    1.2063   -1.5933   18.7613 H   0  0  0  0  0  0  0  0  0  0  0  0
   -4.8836   -4.6132   20.4448 C   0  0  0  0  0  0  0  0  0  0  0  0
   -4.9094   -6.0811   20.8509 C   0  0  0  0  0  0  0  0  0  0  0  0
   -4.0095   -1.6979   23.0113 C   0  0  0  0  0  0  0  0  0  0  0  0
   -5.1702   -0.7174   22.9037 C   0  0  0  0  0  0  0  0  0  0  0  0
  3  9  1  0
  3 10  1  0
 11 17  1  0
 11 18  1  0
  1  2  2  0
  1 19  1  0
  1  4  1  0
  2 21  1  0
  2 12  1  0
 19 20  1  0
 21 22  1  0
  4  5  2  0
  4  6  1  0
 12 13  2  0
 12 14  1  0
  5  7  1  0
 13 15  1  0
  6  8  2  0
 14 16  2  0
  7  9  2  0
 15 17  2  0
  8  9  1  0
 16 17  1  0
M  END
> <PUBCHEM_COMPOUND_CID>
448537

> <PUBCHEM_CONFORMER_RMSD>
0.6

> <PUBCHEM_CONFORMER_DIVERSEORDER>
1
3
2

> <PUBCHEM_MMFF94_PARTIAL_CHARGES>
28
1 -0.53
11 -0.15
12 -0.15
13 -0.15
14 -0.15
15 -0.15
16 -0.15
17 -0.15
18 -0.15
19 0.08
2 -0.53
20 0.08
3 -0.17
31 0.15
32 0.15
33 0.15
34 0.15
35 0.15
36 0.15
37 0.15
38 0.15
39 0.45
4 -0.17
40 0.45
5 0.14
6 0.14
7 0.03
8 0.03

> <PUBCHEM_EFFECTIVE_ROTOR_COUNT>
4

> <PUBCHEM_PHARMACOPHORE_FEATURES>
6
1 1 donor
1 10 hydrophobe
1 2 donor
1 9 hydrophobe
6 7 11 13 15 17 19 rings
6 8 12 14 16 18 20 rings

> <PUBCHEM_HEAVY_ATOM_COUNT>
20

> <PUBCHEM_ATOM_DEF_STEREO_COUNT>
0

> <PUBCHEM_ATOM_UDEF_STEREO_COUNT>
0

> <PUBCHEM_BOND_DEF_STEREO_COUNT>
1

> <PUBCHEM_BOND_UDEF_STEREO_COUNT>
0

> <PUBCHEM_ISOTOPIC_ATOM_COUNT>
0

> <PUBCHEM_COMPONENT_COUNT>
1

> <PUBCHEM_CACTVS_TAUTO_COUNT>
3

> <PUBCHEM_CONFORMER_ID>
0006D81900000001

> <PUBCHEM_MMFF94_ENERGY>
60.231

> <PUBCHEM_FEATURE_SELFOVERLAP>
30.447

> <PUBCHEM_SHAPE_FINGERPRINT>
10366900 7 18186514428534874893
104564 63 18339924792832442081
10906281 52 18129397028286092948
11646440 116 18130798871235594657
12592029 89 16950278473467191938
12788726 201 18270697410649816016
13140716 1 18266458895859843337
13533116 47 18340201896197096762
13760787 19 16660644076447957075
14115302 16 18186806919849492430
14341114 176 15647057049052281551
15099037 51 18335139812416525942
15848700 24 18202843262111810220
15848702 151 16988848262958300981
16752209 62 18335696105492573576
16945 1 18410855473013063775
1813 80 18272378572207267076
18186145 218 18338228362096015613
187816 3 18410857663704853992
19141452 34 17131829889222033293
19784866 9 18113613452605694563
200 152 16950282905968490344
20028762 73 18055641861278493167
20600515 1 18340218469921978116
20645477 70 16009301016701038466
21285901 2 17917162606291067244
23175994 123 18333735723499757565
23402539 116 17988639696664490244
23493267 7 17313098635762053785
23557571 272 17489592229515708168
23559900 14 15554438621982335170
266924 87 18194116322357846868
347723 3 18410856551049855057
34934 24 18129105515976021729
3545911 37 15719391732852524422
4072396 5 18261662693185545291
4214541 1 15791727494979709055
465052 167 17240208741576471315
474 4 17917140731779840409
59755656 215 18270402685366324510
633830 44 18342455975941661781
69090 78 17060620005479420895
7226269 152 18410853270196137312
7495541 125 17531535390133293585
77779 3 15719110262139125926
81228 2 18128838385973970688
8272917 22 16660357039657468298
9971528 1 17775283884826915592

> <PUBCHEM_SHAPE_MULTIPOLES>
399.85
10.42
1.74
1.37
0
0
0.06
0
1.28
0
-0.74
0
0
-0.06

> <PUBCHEM_SHAPE_SELFOVERLAP>
850.96

> <PUBCHEM_SHAPE_VOLUME>
224.1

> <PUBCHEM_COORDINATE_TYPE>
2
5
10

> <Energy>
28.3223

> <minimizedAffinity>
-6.73395

> <CNNscore>
0.8726103306

> <CNNaffinity>
7.8009762764

> <CNN_VS>
6.8072123528

> <CNNaffinity_variance>
0.6982675195

$$$$
448537


 22 23  0  0  0  0  0  0  0  0999 V2000
   -4.9378   -3.0452   21.7521 C   0  0  0  0  0  0  0  0  0  0  0  0
   -3.9803   -3.8144   21.1764 C   0  0  0  0  0  0  0  0  0  0  0  0
  -10.1650   -5.0401   22.3667 O   0  0  0  0  0  0  0  0  0  0  0  0
   -6.3134   -3.5565   21.9191 C   0  0  0  0  0  0  0  0  0  0  0  0
   -7.0790   -3.1739   23.0288 C   0  0  0  0  0  0  0  0  0  0  0  0
   -6.8614   -4.4331   20.9739 C   0  0  0  0  0  0  0  0  0  0  0  0
   -8.3765   -3.6651   23.1935 C   0  0  0  0  0  0  0  0  0  0  0  0
   -8.1581   -4.9231   21.1388 C   0  0  0  0  0  0  0  0  0  0  0  0
   -8.9035   -4.5358   22.2453 C   0  0  0  0  0  0  0  0  0  0  0  0
  -10.6966   -4.8006   23.1001 H   0  0  0  0  0  0  0  0  0  0  0  0
    1.2585   -1.8438   20.5816 O   0  0  0  0  0  0  0  0  0  0  0  0
   -2.6035   -3.3046   21.0114 C   0  0  0  0  0  0  0  0  0  0  0  0
   -1.7393   -3.2269   22.1108 C   0  0  0  0  0  0  0  0  0  0  0  0
   -2.1550   -2.8852   19.7520 C   0  0  0  0  0  0  0  0  0  0  0  0
   -0.4435   -2.7333   21.9499 C   0  0  0  0  0  0  0  0  0  0  0  0
   -0.8594   -2.3927   19.5910 C   0  0  0  0  0  0  0  0  0  0  0  0
   -0.0143   -2.3204   20.6938 C   0  0  0  0  0  0  0  0  0  0  0  0
    1.8119   -1.8033   21.3366 H   0  0  0  0  0  0  0  0  0  0  0  0
   -4.7313   -1.6495   22.3133 C   0  0  0  0  0  0  0  0  0  0  0  0
   -4.2847   -1.6511   23.7696 C   0  0  0  0  0  0  0  0  0  0  0  0
   -4.1677   -5.2393   20.6867 C   0  0  0  0  0  0  0  0  0  0  0  0
   -3.8345   -6.2821   21.7458 C   0  0  0  0  0  0  0  0  0  0  0  0
  3  9  1  0
  3 10  1  0
 11 17  1  0
 11 18  1  0
  1  2  2  0
  1 19  1  0
  1  4  1  0
  2 21  1  0
  2 12  1  0
 19 20  1  0
 21 22  1  0
  4  5  2  0
  4  6  1  0
 12 13  2  0
 12 14  1  0
  5  7  1  0
 13 15  1  0
  6  8  2  0
 14 16  2  0
  7  9  2  0
 15 17  2  0
  8  9  1  0
 16 17  1  0
M  END
> <PUBCHEM_COMPOUND_CID>
448537

> <PUBCHEM_CONFORMER_RMSD>
0.6

> <PUBCHEM_CONFORMER_DIVERSEORDER>
1
3
2

> <PUBCHEM_MMFF94_PARTIAL_CHARGES>
28
1 -0.53
11 -0.15
12 -0.15
13 -0.15
14 -0.15
15 -0.15
16 -0.15
17 -0.15
18 -0.15
19 0.08
2 -0.53
20 0.08
3 -0.17
31 0.15
32 0.15
33 0.15
34 0.15
35 0.15
36 0.15
37 0.15
38 0.15
39 0.45
4 -0.17
40 0.45
5 0.14
6 0.14
7 0.03
8 0.03

> <PUBCHEM_EFFECTIVE_ROTOR_COUNT>
4

> <PUBCHEM_PHARMACOPHORE_FEATURES>
6
1 1 donor
1 10 hydrophobe
1 2 donor
1 9 hydrophobe
6 7 11 13 15 17 19 rings
6 8 12 14 16 18 20 rings

> <PUBCHEM_HEAVY_ATOM_COUNT>
20

> <PUBCHEM_ATOM_DEF_STEREO_COUNT>
0

> <PUBCHEM_ATOM_UDEF_STEREO_COUNT>
0

> <PUBCHEM_BOND_DEF_STEREO_COUNT>
1

> <PUBCHEM_BOND_UDEF_STEREO_COUNT>
0

> <PUBCHEM_ISOTOPIC_ATOM_COUNT>
0

> <PUBCHEM_COMPONENT_COUNT>
1

> <PUBCHEM_CACTVS_TAUTO_COUNT>
3

> <PUBCHEM_CONFORMER_ID>
0006D81900000001

> <PUBCHEM_MMFF94_ENERGY>
60.231

> <PUBCHEM_FEATURE_SELFOVERLAP>
30.447

> <PUBCHEM_SHAPE_FINGERPRINT>
10366900 7 18186514428534874893
104564 63 18339924792832442081
10906281 52 18129397028286092948
11646440 116 18130798871235594657
12592029 89 16950278473467191938
12788726 201 18270697410649816016
13140716 1 18266458895859843337
13533116 47 18340201896197096762
13760787 19 16660644076447957075
14115302 16 18186806919849492430
14341114 176 15647057049052281551
15099037 51 18335139812416525942
15848700 24 18202843262111810220
15848702 151 16988848262958300981
16752209 62 18335696105492573576
16945 1 18410855473013063775
1813 80 18272378572207267076
18186145 218 18338228362096015613
187816 3 18410857663704853992
19141452 34 17131829889222033293
19784866 9 18113613452605694563
200 152 16950282905968490344
20028762 73 18055641861278493167
20600515 1 18340218469921978116
20645477 70 16009301016701038466
21285901 2 17917162606291067244
23175994 123 18333735723499757565
23402539 116 17988639696664490244
23493267 7 17313098635762053785
23557571 272 17489592229515708168
23559900 14 15554438621982335170
266924 87 18194116322357846868
347723 3 18410856551049855057
34934 24 18129105515976021729
3545911 37 15719391732852524422
4072396 5 18261662693185545291
4214541 1 15791727494979709055
465052 167 17240208741576471315
474 4 17917140731779840409
59755656 215 18270402685366324510
633830 44 18342455975941661781
69090 78 17060620005479420895
7226269 152 18410853270196137312
7495541 125 17531535390133293585
77779 3 15719110262139125926
81228 2 18128838385973970688
8272917 22 16660357039657468298
9971528 1 17775283884826915592

> <PUBCHEM_SHAPE_MULTIPOLES>
399.85
10.42
1.74
1.37
0
0
0.06
0
1.28
0
-0.74
0
0
-0.06

> <PUBCHEM_SHAPE_SELFOVERLAP>
850.96

> <PUBCHEM_SHAPE_VOLUME>
224.1

> <PUBCHEM_COORDINATE_TYPE>
2
5
10

> <Energy>
28.3223

> <minimizedAffinity>
-6.38304

> <CNNscore>
0.8491095304

> <CNNaffinity>
7.7323384285

> <CNN_VS>
6.5656023026

> <CNNaffinity_variance>
0.3718863428

$$$$
448537


 22 23  0  0  0  0  0  0  0  0999 V2000
   -3.6566   -2.8159   21.8482 C   0  0  0  0  0  0  0  0  0  0  0  0
   -4.8485   -3.3111   21.4314 C   0  0  0  0  0  0  0  0  0  0  0  0
    0.4844   -1.7451   18.1895 O   0  0  0  0  0  0  0  0  0  0  0  0
   -2.5794   -2.5324   20.8781 C   0  0  0  0  0  0  0  0  0  0  0  0
   -2.7325   -2.8845   19.5303 C   0  0  0  0  0  0  0  0  0  0  0  0
   -1.3939   -1.9159   21.2983 C   0  0  0  0  0  0  0  0  0  0  0  0
   -1.7101   -2.6265   18.6136 C   0  0  0  0  0  0  0  0  0  0  0  0
   -0.3730   -1.6580   20.3818 C   0  0  0  0  0  0  0  0  0  0  0  0
   -0.5392   -2.0148   19.0495 C   0  0  0  0  0  0  0  0  0  0  0  0
    0.4073   -1.9718   17.2837 H   0  0  0  0  0  0  0  0  0  0  0  0
   -8.9638   -4.3393   25.1313 O   0  0  0  0  0  0  0  0  0  0  0  0
   -5.9273   -3.5925   22.4008 C   0  0  0  0  0  0  0  0  0  0  0  0
   -7.1697   -2.9564   22.2841 C   0  0  0  0  0  0  0  0  0  0  0  0
   -5.7109   -4.4930   23.4521 C   0  0  0  0  0  0  0  0  0  0  0  0
   -8.1806   -3.2183   23.2103 C   0  0  0  0  0  0  0  0  0  0  0  0
   -6.7217   -4.7554   24.3776 C   0  0  0  0  0  0  0  0  0  0  0  0
   -7.9494   -4.1137   24.2483 C   0  0  0  0  0  0  0  0  0  0  0  0
   -9.7831   -3.8972   25.0266 H   0  0  0  0  0  0  0  0  0  0  0  0
   -3.2987   -2.4622   23.2809 C   0  0  0  0  0  0  0  0  0  0  0  0
   -4.0548   -1.2474   23.8031 C   0  0  0  0  0  0  0  0  0  0  0  0
   -5.2337   -3.5906   19.9896 C   0  0  0  0  0  0  0  0  0  0  0  0
   -5.6836   -5.0277   19.7607 C   0  0  0  0  0  0  0  0  0  0  0  0
  3  9  1  0
  3 10  1  0
 11 17  1  0
 11 18  1  0
  1  2  2  0
  1 19  1  0
  1  4  1  0
  2 21  1  0
  2 12  1  0
 19 20  1  0
 21 22  1  0
  4  5  2  0
  4  6  1  0
 12 13  2  0
 12 14  1  0
  5  7  1  0
 13 15  1  0
  6  8  2  0
 14 16  2  0
  7  9  2  0
 15 17  2  0
  8  9  1  0
 16 17  1  0
M  END
> <PUBCHEM_COMPOUND_CID>
448537

> <PUBCHEM_CONFORMER_RMSD>
0.6

> <PUBCHEM_CONFORMER_DIVERSEORDER>
1
3
2

> <PUBCHEM_MMFF94_PARTIAL_CHARGES>
28
1 -0.53
11 -0.15
12 -0.15
13 -0.15
14 -0.15
15 -0.15
16 -0.15
17 -0.15
18 -0.15
19 0.08
2 -0.53
20 0.08
3 -0.17
31 0.15
32 0.15
33 0.15
34 0.15
35 0.15
36 0.15
37 0.15
38 0.15
39 0.45
4 -0.17
40 0.45
5 0.14
6 0.14
7 0.03
8 0.03

> <PUBCHEM_EFFECTIVE_ROTOR_COUNT>
4

> <PUBCHEM_PHARMACOPHORE_FEATURES>
6
1 1 donor
1 10 hydrophobe
1 2 donor
1 9 hydrophobe
6 7 11 13 15 17 19 rings
6 8 12 14 16 18 20 rings

> <PUBCHEM_HEAVY_ATOM_COUNT>
20

> <PUBCHEM_ATOM_DEF_STEREO_COUNT>
0

> <PUBCHEM_ATOM_UDEF_STEREO_COUNT>
0

> <PUBCHEM_BOND_DEF_STEREO_COUNT>
1

> <PUBCHEM_BOND_UDEF_STEREO_COUNT>
0

> <PUBCHEM_ISOTOPIC_ATOM_COUNT>
0

> <PUBCHEM_COMPONENT_COUNT>
1

> <PUBCHEM_CACTVS_TAUTO_COUNT>
3

> <PUBCHEM_CONFORMER_ID>
0006D81900000001

> <PUBCHEM_MMFF94_ENERGY>
60.231

> <PUBCHEM_FEATURE_SELFOVERLAP>
30.447

> <PUBCHEM_SHAPE_FINGERPRINT>
10366900 7 18186514428534874893
104564 63 18339924792832442081
10906281 52 18129397028286092948
11646440 116 18130798871235594657
12592029 89 16950278473467191938
12788726 201 18270697410649816016
13140716 1 18266458895859843337
13533116 47 18340201896197096762
13760787 19 16660644076447957075
14115302 16 18186806919849492430
14341114 176 15647057049052281551
15099037 51 18335139812416525942
15848700 24 18202843262111810220
15848702 151 16988848262958300981
16752209 62 18335696105492573576
16945 1 18410855473013063775
1813 80 18272378572207267076
18186145 218 18338228362096015613
187816 3 18410857663704853992
19141452 34 17131829889222033293
19784866 9 18113613452605694563
200 152 16950282905968490344
20028762 73 18055641861278493167
20600515 1 18340218469921978116
20645477 70 16009301016701038466
21285901 2 17917162606291067244
23175994 123 18333735723499757565
23402539 116 17988639696664490244
23493267 7 17313098635762053785
23557571 272 17489592229515708168
23559900 14 15554438621982335170
266924 87 18194116322357846868
347723 3 18410856551049855057
34934 24 18129105515976021729
3545911 37 15719391732852524422
4072396 5 18261662693185545291
4214541 1 15791727494979709055
465052 167 17240208741576471315
474 4 17917140731779840409
59755656 215 18270402685366324510
633830 44 18342455975941661781
69090 78 17060620005479420895
7226269 152 18410853270196137312
7495541 125 17531535390133293585
77779 3 15719110262139125926
81228 2 18128838385973970688
8272917 22 16660357039657468298
9971528 1 17775283884826915592

> <PUBCHEM_SHAPE_MULTIPOLES>
399.85
10.42
1.74
1.37
0
0
0.06
0
1.28
0
-0.74
0
0
-0.06

> <PUBCHEM_SHAPE_SELFOVERLAP>
850.96

> <PUBCHEM_SHAPE_VOLUME>
224.1

> <PUBCHEM_COORDINATE_TYPE>
2
5
10

> <Energy>
28.3223

> <minimizedAffinity>
-7.10815

> <CNNscore>
0.8335549831

> <CNNaffinity>
7.9356651306

> <CNN_VS>
6.6148133278

> <CNNaffinity_variance>
0.9230475426

$$$$
448537


 22 23  0  0  0  0  0  0  0  0999 V2000
   -4.8295   -3.3004   21.4460 C   0  0  0  0  0  0  0  0  0  0  0  0
   -3.6228   -2.8352   21.8552 C   0  0  0  0  0  0  0  0  0  0  0  0
   -8.9470   -4.3454   25.1385 O   0  0  0  0  0  0  0  0  0  0  0  0
   -5.9004   -3.5764   22.4250 C   0  0  0  0  0  0  0  0  0  0  0  0
   -5.6927   -4.5022   23.4564 C   0  0  0  0  0  0  0  0  0  0  0  0
   -7.1342   -2.9206   22.3268 C   0  0  0  0  0  0  0  0  0  0  0  0
   -6.7086   -4.7720   24.3769 C   0  0  0  0  0  0  0  0  0  0  0  0
   -8.1486   -3.1902   23.2471 C   0  0  0  0  0  0  0  0  0  0  0  0
   -7.9278   -4.1121   24.2627 C   0  0  0  0  0  0  0  0  0  0  0  0
   -8.8337   -4.9606   25.8360 H   0  0  0  0  0  0  0  0  0  0  0  0
    0.4583   -1.7312   18.1393 O   0  0  0  0  0  0  0  0  0  0  0  0
   -2.5520   -2.5566   20.8762 C   0  0  0  0  0  0  0  0  0  0  0  0
   -1.3645   -1.9343   21.2816 C   0  0  0  0  0  0  0  0  0  0  0  0
   -2.7217   -2.9052   19.5299 C   0  0  0  0  0  0  0  0  0  0  0  0
   -0.3617   -1.6635   20.3492 C   0  0  0  0  0  0  0  0  0  0  0  0
   -1.7189   -2.6354   18.5979 C   0  0  0  0  0  0  0  0  0  0  0  0
   -0.5462   -2.0151   19.0169 C   0  0  0  0  0  0  0  0  0  0  0  0
    1.2403   -1.3130   18.4417 H   0  0  0  0  0  0  0  0  0  0  0  0
   -5.2396   -3.5461   20.0048 C   0  0  0  0  0  0  0  0  0  0  0  0
   -5.6607   -4.9859   19.7405 C   0  0  0  0  0  0  0  0  0  0  0  0
   -3.2393   -2.5149   23.2889 C   0  0  0  0  0  0  0  0  0  0  0  0
   -3.9774   -1.3052   23.8473 C   0  0  0  0  0  0  0  0  0  0  0  0
  3  9  1  0
  3 10  1  0
 11 17  1  0
 11 18  1  0
  1  2  2  0
  1 19  1  0
  1  4  1  0
  2 21  1  0
  2 12  1  0
 19 20  1  0
 21 22  1  0
  4  5  2  0
  4  6  1  0
 12 13  2  0
 12 14  1  0
  5  7  1  0
 13 15  1  0
  6  8  2  0
 14 16  2  0
  7  9  2  0
 15 17  2  0
  8  9  1  0
 16 17  1  0
M  END
> <PUBCHEM_COMPOUND_CID>
448537

> <PUBCHEM_CONFORMER_RMSD>
0.6

> <PUBCHEM_CONFORMER_DIVERSEORDER>
1
3
2

> <PUBCHEM_MMFF94_PARTIAL_CHARGES>
28
1 -0.53
11 -0.15
12 -0.15
13 -0.15
14 -0.15
15 -0.15
16 -0.15
17 -0.15
18 -0.15
19 0.08
2 -0.53
20 0.08
3 -0.17
31 0.15
32 0.15
33 0.15
34 0.15
35 0.15
36 0.15
37 0.15
38 0.15
39 0.45
4 -0.17
40 0.45
5 0.14
6 0.14
7 0.03
8 0.03

> <PUBCHEM_EFFECTIVE_ROTOR_COUNT>
4

> <PUBCHEM_PHARMACOPHORE_FEATURES>
6
1 1 donor
1 10 hydrophobe
1 2 donor
1 9 hydrophobe
6 7 11 13 15 17 19 rings
6 8 12 14 16 18 20 rings

> <PUBCHEM_HEAVY_ATOM_COUNT>
20

> <PUBCHEM_ATOM_DEF_STEREO_COUNT>
0

> <PUBCHEM_ATOM_UDEF_STEREO_COUNT>
0

> <PUBCHEM_BOND_DEF_STEREO_COUNT>
1

> <PUBCHEM_BOND_UDEF_STEREO_COUNT>
0

> <PUBCHEM_ISOTOPIC_ATOM_COUNT>
0

> <PUBCHEM_COMPONENT_COUNT>
1

> <PUBCHEM_CACTVS_TAUTO_COUNT>
3

> <PUBCHEM_CONFORMER_ID>
0006D81900000001

> <PUBCHEM_MMFF94_ENERGY>
60.231

> <PUBCHEM_FEATURE_SELFOVERLAP>
30.447

> <PUBCHEM_SHAPE_FINGERPRINT>
10366900 7 18186514428534874893
104564 63 18339924792832442081
10906281 52 18129397028286092948
11646440 116 18130798871235594657
12592029 89 16950278473467191938
12788726 201 18270697410649816016
13140716 1 18266458895859843337
13533116 47 18340201896197096762
13760787 19 16660644076447957075
14115302 16 18186806919849492430
14341114 176 15647057049052281551
15099037 51 18335139812416525942
15848700 24 18202843262111810220
15848702 151 16988848262958300981
16752209 62 18335696105492573576
16945 1 18410855473013063775
1813 80 18272378572207267076
18186145 218 18338228362096015613
187816 3 18410857663704853992
19141452 34 17131829889222033293
19784866 9 18113613452605694563
200 152 16950282905968490344
20028762 73 18055641861278493167
20600515 1 18340218469921978116
20645477 70 16009301016701038466
21285901 2 17917162606291067244
23175994 123 18333735723499757565
23402539 116 17988639696664490244
23493267 7 17313098635762053785
23557571 272 17489592229515708168
23559900 14 15554438621982335170
266924 87 18194116322357846868
347723 3 18410856551049855057
34934 24 18129105515976021729
3545911 37 15719391732852524422
4072396 5 18261662693185545291
4214541 1 15791727494979709055
465052 167 17240208741576471315
474 4 17917140731779840409
59755656 215 18270402685366324510
633830 44 18342455975941661781
69090 78 17060620005479420895
7226269 152 18410853270196137312
7495541 125 17531535390133293585
77779 3 15719110262139125926
81228 2 18128838385973970688
8272917 22 16660357039657468298
9971528 1 17775283884826915592

> <PUBCHEM_SHAPE_MULTIPOLES>
399.85
10.42
1.74
1.37
0
0
0.06
0
1.28
0
-0.74
0
0
-0.06

> <PUBCHEM_SHAPE_SELFOVERLAP>
850.96

> <PUBCHEM_SHAPE_VOLUME>
224.1

> <PUBCHEM_COORDINATE_TYPE>
2
5
10

> <Energy>
28.3223

> <minimizedAffinity>
-7.22010

> <CNNscore>
0.8292339444

> <CNNaffinity>
7.9928879738

> <CNN_VS>
6.6279740334

> <CNNaffinity_variance>
1.0174204111

$$$$
448537


 22 23  0  0  0  0  0  0  0  0999 V2000
   -4.6912   -4.3317   21.4792 C   0  0  0  0  0  0  0  0  0  0  0  0
   -4.2095   -3.0665   21.3936 C   0  0  0  0  0  0  0  0  0  0  0  0
  -10.1867   -5.3069   22.2069 O   0  0  0  0  0  0  0  0  0  0  0  0
   -6.1347   -4.5750   21.6761 C   0  0  0  0  0  0  0  0  0  0  0  0
   -6.7869   -4.0732   22.8104 C   0  0  0  0  0  0  0  0  0  0  0  0
   -6.8618   -5.3148   20.7348 C   0  0  0  0  0  0  0  0  0  0  0  0
   -8.1501   -4.3116   23.0033 C   0  0  0  0  0  0  0  0  0  0  0  0
   -8.2238   -5.5522   20.9279 C   0  0  0  0  0  0  0  0  0  0  0  0
   -8.8555   -5.0496   22.0585 C   0  0  0  0  0  0  0  0  0  0  0  0
  -10.6455   -4.9836   22.9571 H   0  0  0  0  0  0  0  0  0  0  0  0
    1.2867   -2.1002   20.6592 O   0  0  0  0  0  0  0  0  0  0  0  0
   -2.7661   -2.8224   21.1941 C   0  0  0  0  0  0  0  0  0  0  0  0
   -1.9241   -2.6098   22.2929 C   0  0  0  0  0  0  0  0  0  0  0  0
   -2.2303   -2.7925   19.8999 C   0  0  0  0  0  0  0  0  0  0  0  0
   -0.5634   -2.3682   22.0964 C   0  0  0  0  0  0  0  0  0  0  0  0
   -0.8698   -2.5519   19.7035 C   0  0  0  0  0  0  0  0  0  0  0  0
   -0.0476   -2.3408   20.8057 C   0  0  0  0  0  0  0  0  0  0  0  0
    1.8234   -1.9606   21.4144 H   0  0  0  0  0  0  0  0  0  0  0  0
   -3.8689   -5.6014   21.3475 C   0  0  0  0  0  0  0  0  0  0  0  0
   -4.4548   -6.7756   22.1209 C   0  0  0  0  0  0  0  0  0  0  0  0
   -5.0427   -1.7984   21.4465 C   0  0  0  0  0  0  0  0  0  0  0  0
   -5.0508   -1.1475   22.8236 C   0  0  0  0  0  0  0  0  0  0  0  0
  3  9  1  0
  3 10  1  0
 11 17  1  0
 11 18  1  0
  1  2  2  0
  1 19  1  0
  1  4  1  0
  2 21  1  0
  2 12  1  0
 19 20  1  0
 21 22  1  0
  4  5  2  0
  4  6  1  0
 12 13  2  0
 12 14  1  0
  5  7  1  0
 13 15  1  0
  6  8  2  0
 14 16  2  0
  7  9  2  0
 15 17  2  0
  8  9  1  0
 16 17  1  0
M  END
> <PUBCHEM_COMPOUND_CID>
448537

> <PUBCHEM_CONFORMER_RMSD>
0.6

> <PUBCHEM_CONFORMER_DIVERSEORDER>
1
3
2

> <PUBCHEM_MMFF94_PARTIAL_CHARGES>
28
1 -0.53
11 -0.15
12 -0.15
13 -0.15
14 -0.15
15 -0.15
16 -0.15
17 -0.15
18 -0.15
19 0.08
2 -0.53
20 0.08
3 -0.17
31 0.15
32 0.15
33 0.15
34 0.15
35 0.15
36 0.15
37 0.15
38 0.15
39 0.45
4 -0.17
40 0.45
5 0.14
6 0.14
7 0.03
8 0.03

> <PUBCHEM_EFFECTIVE_ROTOR_COUNT>
4

> <PUBCHEM_PHARMACOPHORE_FEATURES>
6
1 1 donor
1 10 hydrophobe
1 2 donor
1 9 hydrophobe
6 7 11 13 15 17 19 rings
6 8 12 14 16 18 20 rings

> <PUBCHEM_HEAVY_ATOM_COUNT>
20

> <PUBCHEM_ATOM_DEF_STEREO_COUNT>
0

> <PUBCHEM_ATOM_UDEF_STEREO_COUNT>
0

> <PUBCHEM_BOND_DEF_STEREO_COUNT>
1

> <PUBCHEM_BOND_UDEF_STEREO_COUNT>
0

> <PUBCHEM_ISOTOPIC_ATOM_COUNT>
0

> <PUBCHEM_COMPONENT_COUNT>
1

> <PUBCHEM_CACTVS_TAUTO_COUNT>
3

> <PUBCHEM_CONFORMER_ID>
0006D81900000001

> <PUBCHEM_MMFF94_ENERGY>
60.231

> <PUBCHEM_FEATURE_SELFOVERLAP>
30.447

> <PUBCHEM_SHAPE_FINGERPRINT>
10366900 7 18186514428534874893
104564 63 18339924792832442081
10906281 52 18129397028286092948
11646440 116 18130798871235594657
12592029 89 16950278473467191938
12788726 201 18270697410649816016
13140716 1 18266458895859843337
13533116 47 18340201896197096762
13760787 19 16660644076447957075
14115302 16 18186806919849492430
14341114 176 15647057049052281551
15099037 51 18335139812416525942
15848700 24 18202843262111810220
15848702 151 16988848262958300981
16752209 62 18335696105492573576
16945 1 18410855473013063775
1813 80 18272378572207267076
18186145 218 18338228362096015613
187816 3 18410857663704853992
19141452 34 17131829889222033293
19784866 9 18113613452605694563
200 152 16950282905968490344
20028762 73 18055641861278493167
20600515 1 18340218469921978116
20645477 70 16009301016701038466
21285901 2 17917162606291067244
23175994 123 18333735723499757565
23402539 116 17988639696664490244
23493267 7 17313098635762053785
23557571 272 17489592229515708168
23559900 14 15554438621982335170
266924 87 18194116322357846868
347723 3 18410856551049855057
34934 24 18129105515976021729
3545911 37 15719391732852524422
4072396 5 18261662693185545291
4214541 1 15791727494979709055
465052 167 17240208741576471315
474 4 17917140731779840409
59755656 215 18270402685366324510
633830 44 18342455975941661781
69090 78 17060620005479420895
7226269 152 18410853270196137312
7495541 125 17531535390133293585
77779 3 15719110262139125926
81228 2 18128838385973970688
8272917 22 16660357039657468298
9971528 1 17775283884826915592

> <PUBCHEM_SHAPE_MULTIPOLES>
399.85
10.42
1.74
1.37
0
0
0.06
0
1.28
0
-0.74
0
0
-0.06

> <PUBCHEM_SHAPE_SELFOVERLAP>
850.96

> <PUBCHEM_SHAPE_VOLUME>
224.1

> <PUBCHEM_COORDINATE_TYPE>
2
5
10

> <Energy>
28.3223

> <minimizedAffinity>
-5.90715

> <CNNscore>
0.8282827139

> <CNNaffinity>
7.9237041473

> <CNN_VS>
6.5630669594

> <CNNaffinity_variance>
0.9860484004

$$$$
448537


 22 23  0  0  0  0  0  0  0  0999 V2000
   -3.6143   -2.8624   21.8856 C   0  0  0  0  0  0  0  0  0  0  0  0
   -4.8342   -3.2835   21.4682 C   0  0  0  0  0  0  0  0  0  0  0  0
    0.4283   -1.7556   18.1288 O   0  0  0  0  0  0  0  0  0  0  0  0
   -2.5437   -2.5742   20.9096 C   0  0  0  0  0  0  0  0  0  0  0  0
   -1.3670   -1.9339   21.3209 C   0  0  0  0  0  0  0  0  0  0  0  0
   -2.6986   -2.9322   19.5642 C   0  0  0  0  0  0  0  0  0  0  0  0
   -0.3580   -1.6512   20.3967 C   0  0  0  0  0  0  0  0  0  0  0  0
   -1.6898   -2.6499   18.6415 C   0  0  0  0  0  0  0  0  0  0  0  0
   -0.5300   -2.0129   19.0646 C   0  0  0  0  0  0  0  0  0  0  0  0
    1.2235   -1.3275   18.3782 H   0  0  0  0  0  0  0  0  0  0  0  0
   -8.9223   -4.3291   25.1933 O   0  0  0  0  0  0  0  0  0  0  0  0
   -5.9064   -3.5695   22.4437 C   0  0  0  0  0  0  0  0  0  0  0  0
   -7.1266   -2.8851   22.3776 C   0  0  0  0  0  0  0  0  0  0  0  0
   -5.7053   -4.5230   23.4504 C   0  0  0  0  0  0  0  0  0  0  0  0
   -8.1309   -3.1520   23.3096 C   0  0  0  0  0  0  0  0  0  0  0  0
   -6.7096   -4.7904   24.3815 C   0  0  0  0  0  0  0  0  0  0  0  0
   -7.9152   -4.1005   24.3028 C   0  0  0  0  0  0  0  0  0  0  0  0
   -9.7268   -3.8539   25.1230 H   0  0  0  0  0  0  0  0  0  0  0  0
   -3.2151   -2.6004   23.3270 C   0  0  0  0  0  0  0  0  0  0  0  0
   -3.8721   -1.3571   23.9124 C   0  0  0  0  0  0  0  0  0  0  0  0
   -5.2576   -3.4698   20.0221 C   0  0  0  0  0  0  0  0  0  0  0  0
   -5.7210   -4.8878   19.7146 C   0  0  0  0  0  0  0  0  0  0  0  0
  3  9  1  0
  3 10  1  0
 11 17  1  0
 11 18  1  0
  1  2  2  0
  1 19  1  0
  1  4  1  0
  2 21  1  0
  2 12  1  0
 19 20  1  0
 21 22  1  0
  4  5  2  0
  4  6  1  0
 12 13  2  0
 12 14  1  0
  5  7  1  0
 13 15  1  0
  6  8  2  0
 14 16  2  0
  7  9  2  0
 15 17  2  0
  8  9  1  0
 16 17  1  0
M  END
> <PUBCHEM_COMPOUND_CID>
448537

> <PUBCHEM_CONFORMER_RMSD>
0.6

> <PUBCHEM_CONFORMER_DIVERSEORDER>
1
3
2

> <PUBCHEM_MMFF94_PARTIAL_CHARGES>
28
1 -0.53
11 -0.15
12 -0.15
13 -0.15
14 -0.15
15 -0.15
16 -0.15
17 -0.15
18 -0.15
19 0.08
2 -0.53
20 0.08
3 -0.17
31 0.15
32 0.15
33 0.15
34 0.15
35 0.15
36 0.15
37 0.15
38 0.15
39 0.45
4 -0.17
40 0.45
5 0.14
6 0.14
7 0.03
8 0.03

> <PUBCHEM_EFFECTIVE_ROTOR_COUNT>
4

> <PUBCHEM_PHARMACOPHORE_FEATURES>
6
1 1 donor
1 10 hydrophobe
1 2 donor
1 9 hydrophobe
6 7 11 13 15 17 19 rings
6 8 12 14 16 18 20 rings

> <PUBCHEM_HEAVY_ATOM_COUNT>
20

> <PUBCHEM_ATOM_DEF_STEREO_COUNT>
0

> <PUBCHEM_ATOM_UDEF_STEREO_COUNT>
0

> <PUBCHEM_BOND_DEF_STEREO_COUNT>
1

> <PUBCHEM_BOND_UDEF_STEREO_COUNT>
0

> <PUBCHEM_ISOTOPIC_ATOM_COUNT>
0

> <PUBCHEM_COMPONENT_COUNT>
1

> <PUBCHEM_CACTVS_TAUTO_COUNT>
3

> <PUBCHEM_CONFORMER_ID>
0006D81900000001

> <PUBCHEM_MMFF94_ENERGY>
60.231

> <PUBCHEM_FEATURE_SELFOVERLAP>
30.447

> <PUBCHEM_SHAPE_FINGERPRINT>
10366900 7 18186514428534874893
104564 63 18339924792832442081
10906281 52 18129397028286092948
11646440 116 18130798871235594657
12592029 89 16950278473467191938
12788726 201 18270697410649816016
13140716 1 18266458895859843337
13533116 47 18340201896197096762
13760787 19 16660644076447957075
14115302 16 18186806919849492430
14341114 176 15647057049052281551
15099037 51 18335139812416525942
15848700 24 18202843262111810220
15848702 151 16988848262958300981
16752209 62 18335696105492573576
16945 1 18410855473013063775
1813 80 18272378572207267076
18186145 218 18338228362096015613
187816 3 18410857663704853992
19141452 34 17131829889222033293
19784866 9 18113613452605694563
200 152 16950282905968490344
20028762 73 18055641861278493167
20600515 1 18340218469921978116
20645477 70 16009301016701038466
21285901 2 17917162606291067244
23175994 123 18333735723499757565
23402539 116 17988639696664490244
23493267 7 17313098635762053785
23557571 272 17489592229515708168
23559900 14 15554438621982335170
266924 87 18194116322357846868
347723 3 18410856551049855057
34934 24 18129105515976021729
3545911 37 15719391732852524422
4072396 5 18261662693185545291
4214541 1 15791727494979709055
465052 167 17240208741576471315
474 4 17917140731779840409
59755656 215 18270402685366324510
633830 44 18342455975941661781
69090 78 17060620005479420895
7226269 152 18410853270196137312
7495541 125 17531535390133293585
77779 3 15719110262139125926
81228 2 18128838385973970688
8272917 22 16660357039657468298
9971528 1 17775283884826915592

> <PUBCHEM_SHAPE_MULTIPOLES>
399.85
10.42
1.74
1.37
0
0
0.06
0
1.28
0
-0.74
0
0
-0.06

> <PUBCHEM_SHAPE_SELFOVERLAP>
850.96

> <PUBCHEM_SHAPE_VOLUME>
224.1

> <PUBCHEM_COORDINATE_TYPE>
2
5
10

> <Energy>
28.3223

> <minimizedAffinity>
-7.16363

> <CNNscore>
0.8153066039

> <CNNaffinity>
7.9807085991

> <CNN_VS>
6.5067243576

> <CNNaffinity_variance>
1.0518883467

$$$$
448537


 22 23  0  0  0  0  0  0  0  0999 V2000
   -4.2332   -3.0962   21.4013 C   0  0  0  0  0  0  0  0  0  0  0  0
   -4.6988   -4.3598   21.5637 C   0  0  0  0  0  0  0  0  0  0  0  0
    1.2579   -2.1120   20.6533 O   0  0  0  0  0  0  0  0  0  0  0  0
   -2.7894   -2.8446   21.2170 C   0  0  0  0  0  0  0  0  0  0  0  0
   -1.9661   -2.6113   22.3268 C   0  0  0  0  0  0  0  0  0  0  0  0
   -2.2328   -2.8303   19.9317 C   0  0  0  0  0  0  0  0  0  0  0  0
   -0.6022   -2.3628   22.1531 C   0  0  0  0  0  0  0  0  0  0  0  0
   -0.8700   -2.5824   19.7589 C   0  0  0  0  0  0  0  0  0  0  0  0
   -0.0674   -2.3510   20.8691 C   0  0  0  0  0  0  0  0  0  0  0  0
    1.8292   -1.9519   21.3785 H   0  0  0  0  0  0  0  0  0  0  0  0
  -10.2090   -5.3059   22.2156 O   0  0  0  0  0  0  0  0  0  0  0  0
   -6.1431   -4.6124   21.7456 C   0  0  0  0  0  0  0  0  0  0  0  0
   -6.8661   -5.3233   20.7794 C   0  0  0  0  0  0  0  0  0  0  0  0
   -6.8030   -4.1326   22.8845 C   0  0  0  0  0  0  0  0  0  0  0  0
   -8.2328   -5.5483   20.9521 C   0  0  0  0  0  0  0  0  0  0  0  0
   -8.1691   -4.3583   23.0576 C   0  0  0  0  0  0  0  0  0  0  0  0
   -8.8729   -5.0647   22.0875 C   0  0  0  0  0  0  0  0  0  0  0  0
  -10.6647   -5.7839   21.5509 H   0  0  0  0  0  0  0  0  0  0  0  0
   -5.0853   -1.8406   21.3448 C   0  0  0  0  0  0  0  0  0  0  0  0
   -5.1979   -1.1339   22.6894 C   0  0  0  0  0  0  0  0  0  0  0  0
   -3.8553   -5.6219   21.5413 C   0  0  0  0  0  0  0  0  0  0  0  0
   -4.5926   -6.8413   22.0795 C   0  0  0  0  0  0  0  0  0  0  0  0
  3  9  1  0
  3 10  1  0
 11 17  1  0
 11 18  1  0
  1  2  2  0
  1 19  1  0
  1  4  1  0
  2 21  1  0
  2 12  1  0
 19 20  1  0
 21 22  1  0
  4  5  2  0
  4  6  1  0
 12 13  2  0
 12 14  1  0
  5  7  1  0
 13 15  1  0
  6  8  2  0
 14 16  2  0
  7  9  2  0
 15 17  2  0
  8  9  1  0
 16 17  1  0
M  END
> <PUBCHEM_COMPOUND_CID>
448537

> <PUBCHEM_CONFORMER_RMSD>
0.6

> <PUBCHEM_CONFORMER_DIVERSEORDER>
1
3
2

> <PUBCHEM_MMFF94_PARTIAL_CHARGES>
28
1 -0.53
11 -0.15
12 -0.15
13 -0.15
14 -0.15
15 -0.15
16 -0.15
17 -0.15
18 -0.15
19 0.08
2 -0.53
20 0.08
3 -0.17
31 0.15
32 0.15
33 0.15
34 0.15
35 0.15
36 0.15
37 0.15
38 0.15
39 0.45
4 -0.17
40 0.45
5 0.14
6 0.14
7 0.03
8 0.03

> <PUBCHEM_EFFECTIVE_ROTOR_COUNT>
4

> <PUBCHEM_PHARMACOPHORE_FEATURES>
6
1 1 donor
1 10 hydrophobe
1 2 donor
1 9 hydrophobe
6 7 11 13 15 17 19 rings
6 8 12 14 16 18 20 rings

> <PUBCHEM_HEAVY_ATOM_COUNT>
20

> <PUBCHEM_ATOM_DEF_STEREO_COUNT>
0

> <PUBCHEM_ATOM_UDEF_STEREO_COUNT>
0

> <PUBCHEM_BOND_DEF_STEREO_COUNT>
1

> <PUBCHEM_BOND_UDEF_STEREO_COUNT>
0

> <PUBCHEM_ISOTOPIC_ATOM_COUNT>
0

> <PUBCHEM_COMPONENT_COUNT>
1

> <PUBCHEM_CACTVS_TAUTO_COUNT>
3

> <PUBCHEM_CONFORMER_ID>
0006D81900000001

> <PUBCHEM_MMFF94_ENERGY>
60.231

> <PUBCHEM_FEATURE_SELFOVERLAP>
30.447

> <PUBCHEM_SHAPE_FINGERPRINT>
10366900 7 18186514428534874893
104564 63 18339924792832442081
10906281 52 18129397028286092948
11646440 116 18130798871235594657
12592029 89 16950278473467191938
12788726 201 18270697410649816016
13140716 1 18266458895859843337
13533116 47 18340201896197096762
13760787 19 16660644076447957075
14115302 16 18186806919849492430
14341114 176 15647057049052281551
15099037 51 18335139812416525942
15848700 24 18202843262111810220
15848702 151 16988848262958300981
16752209 62 18335696105492573576
16945 1 18410855473013063775
1813 80 18272378572207267076
18186145 218 18338228362096015613
187816 3 18410857663704853992
19141452 34 17131829889222033293
19784866 9 18113613452605694563
200 152 16950282905968490344
20028762 73 18055641861278493167
20600515 1 18340218469921978116
20645477 70 16009301016701038466
21285901 2 17917162606291067244
23175994 123 18333735723499757565
23402539 116 17988639696664490244
23493267 7 17313098635762053785
23557571 272 17489592229515708168
23559900 14 15554438621982335170
266924 87 18194116322357846868
347723 3 18410856551049855057
34934 24 18129105515976021729
3545911 37 15719391732852524422
4072396 5 18261662693185545291
4214541 1 15791727494979709055
465052 167 17240208741576471315
474 4 17917140731779840409
59755656 215 18270402685366324510
633830 44 18342455975941661781
69090 78 17060620005479420895
7226269 152 18410853270196137312
7495541 125 17531535390133293585
77779 3 15719110262139125926
81228 2 18128838385973970688
8272917 22 16660357039657468298
9971528 1 17775283884826915592

> <PUBCHEM_SHAPE_MULTIPOLES>
399.85
10.42
1.74
1.37
0
0
0.06
0
1.28
0
-0.74
0
0
-0.06

> <PUBCHEM_SHAPE_SELFOVERLAP>
850.96

> <PUBCHEM_SHAPE_VOLUME>
224.1

> <PUBCHEM_COORDINATE_TYPE>
2
5
10

> <Energy>
28.3223

> <minimizedAffinity>
-5.92641

> <CNNscore>
0.8147266507

> <CNNaffinity>
7.8887333870

> <CNN_VS>
6.4271612167

> <CNNaffinity_variance>
1.0330166817

$$$$
