8814


 16 16  0  0  0  0  0  0  0  0999 V2000
   23.6703   -2.8088    7.3262 C   0  0  0  0  0  0  0  0  0  0  0  0
   24.6850   -3.9554    7.0306 C   0  0  0  0  0  0  0  0  0  0  0  0
   22.8816   -3.2924    8.5655 C   0  0  0  0  0  0  0  0  0  0  0  0
   20.4661   -2.0780    2.6517 O   0  0  0  0  0  0  0  0  0  0  0  0
   22.8098   -2.6395    6.0651 C   0  0  0  0  0  0  0  0  0  0  0  0
   23.2777   -1.8545    4.9893 C   0  0  0  0  0  0  0  0  0  0  0  0
   21.5444   -3.2350    5.9292 C   0  0  0  0  0  0  0  0  0  0  0  0
   22.5078   -1.6574    3.8400 C   0  0  0  0  0  0  0  0  0  0  0  0
   20.7723   -3.0379    4.7822 C   0  0  0  0  0  0  0  0  0  0  0  0
   21.2577   -2.2487    3.7489 C   0  0  0  0  0  0  0  0  0  0  0  0
   20.7641   -1.5511    1.9364 H   0  0  0  0  0  0  0  0  0  0  0  0
   24.5094   -1.5246    7.6665 C   0  0  0  0  0  0  0  0  0  0  0  0
   25.2700   -1.3267    9.0220 C   0  0  0  0  0  0  0  0  0  0  0  0
   25.2750    0.1953    9.3121 C   0  0  0  0  0  0  0  0  0  0  0  0
   26.7326   -1.7891    8.9608 C   0  0  0  0  0  0  0  0  0  0  0  0
   24.5875   -2.0042   10.2207 C   0  0  0  0  0  0  0  0  0  0  0  0
  4 10  1  0
  4 11  1  0
  1 12  1  0
  1  5  1  0
  1  2  1  0
  1  3  1  0
 13 12  1  0
 13 14  1  0
 13 15  1  0
 13 16  1  0
  5  6  2  0
  5  7  1  0
  6  8  1  0
  7  9  2  0
  8 10  2  0
  9 10  1  0
M  END
> <PUBCHEM_COMPOUND_CID>
8814

> <PUBCHEM_CONFORMER_RMSD>
0.6

> <PUBCHEM_CONFORMER_DIVERSEORDER>
1
5
4
3
2

> <PUBCHEM_MMFF94_PARTIAL_CHARGES>
13
1 -0.53
11 -0.15
12 -0.15
13 -0.15
14 -0.15
15 0.08
2 0.14
33 0.15
34 0.15
35 0.15
36 0.15
37 0.45
5 -0.14

> <PUBCHEM_EFFECTIVE_ROTOR_COUNT>
3

> <PUBCHEM_PHARMACOPHORE_FEATURES>
4
1 1 donor
3 2 6 7 hydrophobe
4 3 8 9 10 hydrophobe
6 5 11 12 13 14 15 rings

> <PUBCHEM_HEAVY_ATOM_COUNT>
15

> <PUBCHEM_ATOM_DEF_STEREO_COUNT>
0

> <PUBCHEM_ATOM_UDEF_STEREO_COUNT>
0

> <PUBCHEM_BOND_DEF_STEREO_COUNT>
0

> <PUBCHEM_BOND_UDEF_STEREO_COUNT>
0

> <PUBCHEM_ISOTOPIC_ATOM_COUNT>
0

> <PUBCHEM_COMPONENT_COUNT>
1

> <PUBCHEM_CACTVS_TAUTO_COUNT>
2

> <PUBCHEM_CONFORMER_ID>
0000226E00000001

> <PUBCHEM_MMFF94_ENERGY>
60.6732

> <PUBCHEM_FEATURE_SELFOVERLAP>
20.297

> <PUBCHEM_SHAPE_FINGERPRINT>
1 1 18122065299635933247
11471102 22 13984658170435925480
12138202 97 18272929444633088966
12251169 10 14923953348599690641
12423570 1 15084294979065354379
124424 183 18201999928641116818
12491281 212 18273493468196309381
12532896 13 18409735040726507851
13299463 15 16200422598337566991
13538477 17 17822291326855117498
13764800 53 18335714831507604569
13839132 238 18413110537123213324
14817 1 11689340854733718479
15375462 478 15647061443078261877
15775835 57 18339078194495494345
16945 1 17988065786023185643
18186145 218 18200036118541666588
18534176 82 18271243927656786518
19837323 101 18335708272823803859
20525323 117 18337111292773698462
20645476 183 17894351081266785547
21296965 12 18260545576729377063
21501502 16 18271800211963701222
21524375 3 18339638928324873163
21947302 44 18059017168310697110
22802520 49 18199766781279703998
23402539 116 18267296706830970519
23419403 2 17194099544908694927
23557571 272 18198918083120765556
23559900 14 18342742906418193234
25 1 17845383149850037993
2748010 2 18262817159083630983
276578 36 18189342281366350763
305870 269 18040992882718168402
430814 3 18041565736850213531
549884 4 17416683544816290937
6333449 129 18343582975122638285
6442390 28 18269297706777891659
7364860 26 17834677097914689979
81228 2 18191593162379223291

> <PUBCHEM_SHAPE_MULTIPOLES>
302.82
5.29
2.15
1.39
2.11
0.81
0.13
-3.45
0.34
-1.29
-0.24
-0.12
0.26
0.01

> <PUBCHEM_SHAPE_SELFOVERLAP>
615.427

> <PUBCHEM_SHAPE_VOLUME>
178.4

> <PUBCHEM_COORDINATE_TYPE>
2
5
10

> <Energy>
46.4329

> <minimizedAffinity>
-7.75875

> <CNNscore>
0.8989335895

> <CNNaffinity>
6.9761633873

> <CNN_VS>
6.2711076736

> <CNNaffinity_variance>
0.5839351416

$$$$
8814


 16 16  0  0  0  0  0  0  0  0999 V2000
   24.5525   -3.0261    6.8979 C   0  0  0  0  0  0  0  0  0  0  0  0
   23.8130   -2.0727    7.8857 C   0  0  0  0  0  0  0  0  0  0  0  0
   25.9961   -2.4756    6.8277 C   0  0  0  0  0  0  0  0  0  0  0  0
   21.6726   -2.8638    1.9652 O   0  0  0  0  0  0  0  0  0  0  0  0
   23.7936   -2.9610    5.5639 C   0  0  0  0  0  0  0  0  0  0  0  0
   22.4026   -2.7215    5.5521 C   0  0  0  0  0  0  0  0  0  0  0  0
   24.4297   -3.1412    4.3241 C   0  0  0  0  0  0  0  0  0  0  0  0
   21.6781   -2.6842    4.3579 C   0  0  0  0  0  0  0  0  0  0  0  0
   23.7073   -3.1063    3.1293 C   0  0  0  0  0  0  0  0  0  0  0  0
   22.3380   -2.8818    3.1554 C   0  0  0  0  0  0  0  0  0  0  0  0
   20.7476   -2.7148    1.9478 H   0  0  0  0  0  0  0  0  0  0  0  0
   24.5342   -4.4608    7.5383 C   0  0  0  0  0  0  0  0  0  0  0  0
   23.4837   -4.9127    8.6094 C   0  0  0  0  0  0  0  0  0  0  0  0
   23.7592   -4.0763    9.8843 C   0  0  0  0  0  0  0  0  0  0  0  0
   23.6176   -6.3935    8.9917 C   0  0  0  0  0  0  0  0  0  0  0  0
   22.0272   -4.6370    8.2044 C   0  0  0  0  0  0  0  0  0  0  0  0
  4 10  1  0
  4 11  1  0
  1 12  1  0
  1  5  1  0
  1  2  1  0
  1  3  1  0
 13 12  1  0
 13 14  1  0
 13 15  1  0
 13 16  1  0
  5  6  2  0
  5  7  1  0
  6  8  1  0
  7  9  2  0
  8 10  2  0
  9 10  1  0
M  END
> <PUBCHEM_COMPOUND_CID>
8814

> <PUBCHEM_CONFORMER_RMSD>
0.6

> <PUBCHEM_CONFORMER_DIVERSEORDER>
1
5
4
3
2

> <PUBCHEM_MMFF94_PARTIAL_CHARGES>
13
1 -0.53
11 -0.15
12 -0.15
13 -0.15
14 -0.15
15 0.08
2 0.14
33 0.15
34 0.15
35 0.15
36 0.15
37 0.45
5 -0.14

> <PUBCHEM_EFFECTIVE_ROTOR_COUNT>
3

> <PUBCHEM_PHARMACOPHORE_FEATURES>
4
1 1 donor
3 2 6 7 hydrophobe
4 3 8 9 10 hydrophobe
6 5 11 12 13 14 15 rings

> <PUBCHEM_HEAVY_ATOM_COUNT>
15

> <PUBCHEM_ATOM_DEF_STEREO_COUNT>
0

> <PUBCHEM_ATOM_UDEF_STEREO_COUNT>
0

> <PUBCHEM_BOND_DEF_STEREO_COUNT>
0

> <PUBCHEM_BOND_UDEF_STEREO_COUNT>
0

> <PUBCHEM_ISOTOPIC_ATOM_COUNT>
0

> <PUBCHEM_COMPONENT_COUNT>
1

> <PUBCHEM_CACTVS_TAUTO_COUNT>
2

> <PUBCHEM_CONFORMER_ID>
0000226E00000001

> <PUBCHEM_MMFF94_ENERGY>
60.6732

> <PUBCHEM_FEATURE_SELFOVERLAP>
20.297

> <PUBCHEM_SHAPE_FINGERPRINT>
1 1 18122065299635933247
11471102 22 13984658170435925480
12138202 97 18272929444633088966
12251169 10 14923953348599690641
12423570 1 15084294979065354379
124424 183 18201999928641116818
12491281 212 18273493468196309381
12532896 13 18409735040726507851
13299463 15 16200422598337566991
13538477 17 17822291326855117498
13764800 53 18335714831507604569
13839132 238 18413110537123213324
14817 1 11689340854733718479
15375462 478 15647061443078261877
15775835 57 18339078194495494345
16945 1 17988065786023185643
18186145 218 18200036118541666588
18534176 82 18271243927656786518
19837323 101 18335708272823803859
20525323 117 18337111292773698462
20645476 183 17894351081266785547
21296965 12 18260545576729377063
21501502 16 18271800211963701222
21524375 3 18339638928324873163
21947302 44 18059017168310697110
22802520 49 18199766781279703998
23402539 116 18267296706830970519
23419403 2 17194099544908694927
23557571 272 18198918083120765556
23559900 14 18342742906418193234
25 1 17845383149850037993
2748010 2 18262817159083630983
276578 36 18189342281366350763
305870 269 18040992882718168402
430814 3 18041565736850213531
549884 4 17416683544816290937
6333449 129 18343582975122638285
6442390 28 18269297706777891659
7364860 26 17834677097914689979
81228 2 18191593162379223291

> <PUBCHEM_SHAPE_MULTIPOLES>
302.82
5.29
2.15
1.39
2.11
0.81
0.13
-3.45
0.34
-1.29
-0.24
-0.12
0.26
0.01

> <PUBCHEM_SHAPE_SELFOVERLAP>
615.427

> <PUBCHEM_SHAPE_VOLUME>
178.4

> <PUBCHEM_COORDINATE_TYPE>
2
5
10

> <Energy>
46.4329

> <minimizedAffinity>
-7.38158

> <CNNscore>
0.8943050504

> <CNNaffinity>
6.8800163269

> <CNN_VS>
6.1528334618

> <CNNaffinity_variance>
0.4372537136

$$$$
8814


 16 16  0  0  0  0  0  0  0  0999 V2000
   24.3050   -2.9905    6.7005 C   0  0  0  0  0  0  0  0  0  0  0  0
   25.5133   -2.1922    6.1221 C   0  0  0  0  0  0  0  0  0  0  0  0
   24.8347   -4.4331    6.8744 C   0  0  0  0  0  0  0  0  0  0  0  0
   20.0177   -2.6150    2.9416 O   0  0  0  0  0  0  0  0  0  0  0  0
   23.1600   -2.8637    5.6843 C   0  0  0  0  0  0  0  0  0  0  0  0
   21.8202   -2.9973    6.1077 C   0  0  0  0  0  0  0  0  0  0  0  0
   23.3863   -2.6242    4.3184 C   0  0  0  0  0  0  0  0  0  0  0  0
   20.7573   -2.9154    5.2044 C   0  0  0  0  0  0  0  0  0  0  0  0
   22.3256   -2.5438    3.4133 C   0  0  0  0  0  0  0  0  0  0  0  0
   21.0208   -2.6933    3.8621 C   0  0  0  0  0  0  0  0  0  0  0  0
   19.1256   -2.7116    3.2115 H   0  0  0  0  0  0  0  0  0  0  0  0
   23.9544   -2.3543    8.0938 C   0  0  0  0  0  0  0  0  0  0  0  0
   23.9679   -3.1609    9.4370 C   0  0  0  0  0  0  0  0  0  0  0  0
   25.3985   -3.7338    9.5985 C   0  0  0  0  0  0  0  0  0  0  0  0
   22.9940   -4.3477    9.4324 C   0  0  0  0  0  0  0  0  0  0  0  0
   23.6920   -2.3004   10.6800 C   0  0  0  0  0  0  0  0  0  0  0  0
  4 10  1  0
  4 11  1  0
  1 12  1  0
  1  5  1  0
  1  2  1  0
  1  3  1  0
 13 12  1  0
 13 14  1  0
 13 15  1  0
 13 16  1  0
  5  6  2  0
  5  7  1  0
  6  8  1  0
  7  9  2  0
  8 10  2  0
  9 10  1  0
M  END
> <PUBCHEM_COMPOUND_CID>
8814

> <PUBCHEM_CONFORMER_RMSD>
0.6

> <PUBCHEM_CONFORMER_DIVERSEORDER>
1
5
4
3
2

> <PUBCHEM_MMFF94_PARTIAL_CHARGES>
13
1 -0.53
11 -0.15
12 -0.15
13 -0.15
14 -0.15
15 0.08
2 0.14
33 0.15
34 0.15
35 0.15
36 0.15
37 0.45
5 -0.14

> <PUBCHEM_EFFECTIVE_ROTOR_COUNT>
3

> <PUBCHEM_PHARMACOPHORE_FEATURES>
4
1 1 donor
3 2 6 7 hydrophobe
4 3 8 9 10 hydrophobe
6 5 11 12 13 14 15 rings

> <PUBCHEM_HEAVY_ATOM_COUNT>
15

> <PUBCHEM_ATOM_DEF_STEREO_COUNT>
0

> <PUBCHEM_ATOM_UDEF_STEREO_COUNT>
0

> <PUBCHEM_BOND_DEF_STEREO_COUNT>
0

> <PUBCHEM_BOND_UDEF_STEREO_COUNT>
0

> <PUBCHEM_ISOTOPIC_ATOM_COUNT>
0

> <PUBCHEM_COMPONENT_COUNT>
1

> <PUBCHEM_CACTVS_TAUTO_COUNT>
2

> <PUBCHEM_CONFORMER_ID>
0000226E00000001

> <PUBCHEM_MMFF94_ENERGY>
60.6732

> <PUBCHEM_FEATURE_SELFOVERLAP>
20.297

> <PUBCHEM_SHAPE_FINGERPRINT>
1 1 18122065299635933247
11471102 22 13984658170435925480
12138202 97 18272929444633088966
12251169 10 14923953348599690641
12423570 1 15084294979065354379
124424 183 18201999928641116818
12491281 212 18273493468196309381
12532896 13 18409735040726507851
13299463 15 16200422598337566991
13538477 17 17822291326855117498
13764800 53 18335714831507604569
13839132 238 18413110537123213324
14817 1 11689340854733718479
15375462 478 15647061443078261877
15775835 57 18339078194495494345
16945 1 17988065786023185643
18186145 218 18200036118541666588
18534176 82 18271243927656786518
19837323 101 18335708272823803859
20525323 117 18337111292773698462
20645476 183 17894351081266785547
21296965 12 18260545576729377063
21501502 16 18271800211963701222
21524375 3 18339638928324873163
21947302 44 18059017168310697110
22802520 49 18199766781279703998
23402539 116 18267296706830970519
23419403 2 17194099544908694927
23557571 272 18198918083120765556
23559900 14 18342742906418193234
25 1 17845383149850037993
2748010 2 18262817159083630983
276578 36 18189342281366350763
305870 269 18040992882718168402
430814 3 18041565736850213531
549884 4 17416683544816290937
6333449 129 18343582975122638285
6442390 28 18269297706777891659
7364860 26 17834677097914689979
81228 2 18191593162379223291

> <PUBCHEM_SHAPE_MULTIPOLES>
302.82
5.29
2.15
1.39
2.11
0.81
0.13
-3.45
0.34
-1.29
-0.24
-0.12
0.26
0.01

> <PUBCHEM_SHAPE_SELFOVERLAP>
615.427

> <PUBCHEM_SHAPE_VOLUME>
178.4

> <PUBCHEM_COORDINATE_TYPE>
2
5
10

> <Energy>
46.4329

> <minimizedAffinity>
-7.21638

> <CNNscore>
0.8885451555

> <CNNaffinity>
6.9015293121

> <CNN_VS>
6.1323204041

> <CNNaffinity_variance>
0.5455299616

$$$$
8814


 16 16  0  0  0  0  0  0  0  0999 V2000
   24.5483   -3.0892    6.9770 C   0  0  0  0  0  0  0  0  0  0  0  0
   23.8392   -2.0990    7.9509 C   0  0  0  0  0  0  0  0  0  0  0  0
   26.0003   -2.5668    6.8745 C   0  0  0  0  0  0  0  0  0  0  0  0
   21.7133   -2.8307    2.0224 O   0  0  0  0  0  0  0  0  0  0  0  0
   23.7726   -3.0427    5.6519 C   0  0  0  0  0  0  0  0  0  0  0  0
   24.4649   -3.1147    4.4239 C   0  0  0  0  0  0  0  0  0  0  0  0
   22.3739   -2.9202    5.6000 C   0  0  0  0  0  0  0  0  0  0  0  0
   23.7921   -3.0468    3.2012 C   0  0  0  0  0  0  0  0  0  0  0  0
   21.6993   -2.8502    4.3790 C   0  0  0  0  0  0  0  0  0  0  0  0
   22.4130   -2.9105    3.1903 C   0  0  0  0  0  0  0  0  0  0  0  0
   22.1648   -2.8682    1.2023 H   0  0  0  0  0  0  0  0  0  0  0  0
   24.5132   -4.5075    7.6524 C   0  0  0  0  0  0  0  0  0  0  0  0
   23.4848   -4.9064    8.7653 C   0  0  0  0  0  0  0  0  0  0  0  0
   23.6621   -6.4258    9.0119 C   0  0  0  0  0  0  0  0  0  0  0  0
   22.0268   -4.6749    8.3438 C   0  0  0  0  0  0  0  0  0  0  0  0
   23.7264   -4.2075   10.1123 C   0  0  0  0  0  0  0  0  0  0  0  0
  4 10  1  0
  4 11  1  0
  1 12  1  0
  1  5  1  0
  1  2  1  0
  1  3  1  0
 13 12  1  0
 13 14  1  0
 13 15  1  0
 13 16  1  0
  5  6  2  0
  5  7  1  0
  6  8  1  0
  7  9  2  0
  8 10  2  0
  9 10  1  0
M  END
> <PUBCHEM_COMPOUND_CID>
8814

> <PUBCHEM_CONFORMER_RMSD>
0.6

> <PUBCHEM_CONFORMER_DIVERSEORDER>
1
5
4
3
2

> <PUBCHEM_MMFF94_PARTIAL_CHARGES>
13
1 -0.53
11 -0.15
12 -0.15
13 -0.15
14 -0.15
15 0.08
2 0.14
33 0.15
34 0.15
35 0.15
36 0.15
37 0.45
5 -0.14

> <PUBCHEM_EFFECTIVE_ROTOR_COUNT>
3

> <PUBCHEM_PHARMACOPHORE_FEATURES>
4
1 1 donor
3 2 6 7 hydrophobe
4 3 8 9 10 hydrophobe
6 5 11 12 13 14 15 rings

> <PUBCHEM_HEAVY_ATOM_COUNT>
15

> <PUBCHEM_ATOM_DEF_STEREO_COUNT>
0

> <PUBCHEM_ATOM_UDEF_STEREO_COUNT>
0

> <PUBCHEM_BOND_DEF_STEREO_COUNT>
0

> <PUBCHEM_BOND_UDEF_STEREO_COUNT>
0

> <PUBCHEM_ISOTOPIC_ATOM_COUNT>
0

> <PUBCHEM_COMPONENT_COUNT>
1

> <PUBCHEM_CACTVS_TAUTO_COUNT>
2

> <PUBCHEM_CONFORMER_ID>
0000226E00000001

> <PUBCHEM_MMFF94_ENERGY>
60.6732

> <PUBCHEM_FEATURE_SELFOVERLAP>
20.297

> <PUBCHEM_SHAPE_FINGERPRINT>
1 1 18122065299635933247
11471102 22 13984658170435925480
12138202 97 18272929444633088966
12251169 10 14923953348599690641
12423570 1 15084294979065354379
124424 183 18201999928641116818
12491281 212 18273493468196309381
12532896 13 18409735040726507851
13299463 15 16200422598337566991
13538477 17 17822291326855117498
13764800 53 18335714831507604569
13839132 238 18413110537123213324
14817 1 11689340854733718479
15375462 478 15647061443078261877
15775835 57 18339078194495494345
16945 1 17988065786023185643
18186145 218 18200036118541666588
18534176 82 18271243927656786518
19837323 101 18335708272823803859
20525323 117 18337111292773698462
20645476 183 17894351081266785547
21296965 12 18260545576729377063
21501502 16 18271800211963701222
21524375 3 18339638928324873163
21947302 44 18059017168310697110
22802520 49 18199766781279703998
23402539 116 18267296706830970519
23419403 2 17194099544908694927
23557571 272 18198918083120765556
23559900 14 18342742906418193234
25 1 17845383149850037993
2748010 2 18262817159083630983
276578 36 18189342281366350763
305870 269 18040992882718168402
430814 3 18041565736850213531
549884 4 17416683544816290937
6333449 129 18343582975122638285
6442390 28 18269297706777891659
7364860 26 17834677097914689979
81228 2 18191593162379223291

> <PUBCHEM_SHAPE_MULTIPOLES>
302.82
5.29
2.15
1.39
2.11
0.81
0.13
-3.45
0.34
-1.29
-0.24
-0.12
0.26
0.01

> <PUBCHEM_SHAPE_SELFOVERLAP>
615.427

> <PUBCHEM_SHAPE_VOLUME>
178.4

> <PUBCHEM_COORDINATE_TYPE>
2
5
10

> <Energy>
46.4329

> <minimizedAffinity>
-7.39175

> <CNNscore>
0.8849233985

> <CNNaffinity>
6.8560376167

> <CNN_VS>
6.0670681000

> <CNNaffinity_variance>
0.4138011932

$$$$
8814


 16 16  0  0  0  0  0  0  0  0999 V2000
   24.7245   -2.1261    7.4323 C   0  0  0  0  0  0  0  0  0  0  0  0
   24.9135   -0.5925    7.6424 C   0  0  0  0  0  0  0  0  0  0  0  0
   26.1442   -2.7208    7.5825 C   0  0  0  0  0  0  0  0  0  0  0  0
   22.3719   -2.8646    2.2776 O   0  0  0  0  0  0  0  0  0  0  0  0
   24.1139   -2.3123    6.0351 C   0  0  0  0  0  0  0  0  0  0  0  0
   22.8742   -1.7157    5.7195 C   0  0  0  0  0  0  0  0  0  0  0  0
   24.7395   -3.0733    5.0333 C   0  0  0  0  0  0  0  0  0  0  0  0
   22.2781   -1.8888    4.4676 C   0  0  0  0  0  0  0  0  0  0  0  0
   24.1448   -3.2493    3.7819 C   0  0  0  0  0  0  0  0  0  0  0  0
   22.9184   -2.6592    3.5100 C   0  0  0  0  0  0  0  0  0  0  0  0
   21.5450   -2.4804    2.0618 H   0  0  0  0  0  0  0  0  0  0  0  0
   23.7821   -2.6378    8.5807 C   0  0  0  0  0  0  0  0  0  0  0  0
   23.5011   -4.1550    8.8527 C   0  0  0  0  0  0  0  0  0  0  0  0
   22.0757   -4.4468    8.3198 C   0  0  0  0  0  0  0  0  0  0  0  0
   23.5159   -4.5082   10.3467 C   0  0  0  0  0  0  0  0  0  0  0  0
   24.4547   -5.1050    8.1112 C   0  0  0  0  0  0  0  0  0  0  0  0
  4 10  1  0
  4 11  1  0
  1 12  1  0
  1  5  1  0
  1  2  1  0
  1  3  1  0
 13 12  1  0
 13 14  1  0
 13 15  1  0
 13 16  1  0
  5  6  2  0
  5  7  1  0
  6  8  1  0
  7  9  2  0
  8 10  2  0
  9 10  1  0
M  END
> <PUBCHEM_COMPOUND_CID>
8814

> <PUBCHEM_CONFORMER_RMSD>
0.6

> <PUBCHEM_CONFORMER_DIVERSEORDER>
1
5
4
3
2

> <PUBCHEM_MMFF94_PARTIAL_CHARGES>
13
1 -0.53
11 -0.15
12 -0.15
13 -0.15
14 -0.15
15 0.08
2 0.14
33 0.15
34 0.15
35 0.15
36 0.15
37 0.45
5 -0.14

> <PUBCHEM_EFFECTIVE_ROTOR_COUNT>
3

> <PUBCHEM_PHARMACOPHORE_FEATURES>
4
1 1 donor
3 2 6 7 hydrophobe
4 3 8 9 10 hydrophobe
6 5 11 12 13 14 15 rings

> <PUBCHEM_HEAVY_ATOM_COUNT>
15

> <PUBCHEM_ATOM_DEF_STEREO_COUNT>
0

> <PUBCHEM_ATOM_UDEF_STEREO_COUNT>
0

> <PUBCHEM_BOND_DEF_STEREO_COUNT>
0

> <PUBCHEM_BOND_UDEF_STEREO_COUNT>
0

> <PUBCHEM_ISOTOPIC_ATOM_COUNT>
0

> <PUBCHEM_COMPONENT_COUNT>
1

> <PUBCHEM_CACTVS_TAUTO_COUNT>
2

> <PUBCHEM_CONFORMER_ID>
0000226E00000001

> <PUBCHEM_MMFF94_ENERGY>
60.6732

> <PUBCHEM_FEATURE_SELFOVERLAP>
20.297

> <PUBCHEM_SHAPE_FINGERPRINT>
1 1 18122065299635933247
11471102 22 13984658170435925480
12138202 97 18272929444633088966
12251169 10 14923953348599690641
12423570 1 15084294979065354379
124424 183 18201999928641116818
12491281 212 18273493468196309381
12532896 13 18409735040726507851
13299463 15 16200422598337566991
13538477 17 17822291326855117498
13764800 53 18335714831507604569
13839132 238 18413110537123213324
14817 1 11689340854733718479
15375462 478 15647061443078261877
15775835 57 18339078194495494345
16945 1 17988065786023185643
18186145 218 18200036118541666588
18534176 82 18271243927656786518
19837323 101 18335708272823803859
20525323 117 18337111292773698462
20645476 183 17894351081266785547
21296965 12 18260545576729377063
21501502 16 18271800211963701222
21524375 3 18339638928324873163
21947302 44 18059017168310697110
22802520 49 18199766781279703998
23402539 116 18267296706830970519
23419403 2 17194099544908694927
23557571 272 18198918083120765556
23559900 14 18342742906418193234
25 1 17845383149850037993
2748010 2 18262817159083630983
276578 36 18189342281366350763
305870 269 18040992882718168402
430814 3 18041565736850213531
549884 4 17416683544816290937
6333449 129 18343582975122638285
6442390 28 18269297706777891659
7364860 26 17834677097914689979
81228 2 18191593162379223291

> <PUBCHEM_SHAPE_MULTIPOLES>
302.82
5.29
2.15
1.39
2.11
0.81
0.13
-3.45
0.34
-1.29
-0.24
-0.12
0.26
0.01

> <PUBCHEM_SHAPE_SELFOVERLAP>
615.427

> <PUBCHEM_SHAPE_VOLUME>
178.4

> <PUBCHEM_COORDINATE_TYPE>
2
5
10

> <Energy>
46.4329

> <minimizedAffinity>
-7.01770

> <CNNscore>
0.8796396255

> <CNNaffinity>
6.7316222191

> <CNN_VS>
5.9214015007

> <CNNaffinity_variance>
0.3498513699

$$$$
8814


 16 16  0  0  0  0  0  0  0  0999 V2000
   24.8071   -1.5033    6.7850 C   0  0  0  0  0  0  0  0  0  0  0  0
   24.6216    0.0405    6.9031 C   0  0  0  0  0  0  0  0  0  0  0  0
   26.3311   -1.7036    6.6139 C   0  0  0  0  0  0  0  0  0  0  0  0
   21.7729   -3.1383    2.2273 O   0  0  0  0  0  0  0  0  0  0  0  0
   23.9774   -1.9603    5.5757 C   0  0  0  0  0  0  0  0  0  0  0  0
   24.6129   -2.5620    4.4682 C   0  0  0  0  0  0  0  0  0  0  0  0
   22.5833   -1.7972    5.5118 C   0  0  0  0  0  0  0  0  0  0  0  0
   23.8910   -2.9631    3.3411 C   0  0  0  0  0  0  0  0  0  0  0  0
   21.8598   -2.1957    4.3856 C   0  0  0  0  0  0  0  0  0  0  0  0
   22.5188   -2.7718    3.3086 C   0  0  0  0  0  0  0  0  0  0  0  0
   22.1869   -3.5300    1.4836 H   0  0  0  0  0  0  0  0  0  0  0  0
   24.3108   -2.1338    8.1359 C   0  0  0  0  0  0  0  0  0  0  0  0
   24.9745   -1.8314    9.5227 C   0  0  0  0  0  0  0  0  0  0  0  0
   26.3582   -2.5285    9.5160 C   0  0  0  0  0  0  0  0  0  0  0  0
   24.1773   -2.4008   10.7047 C   0  0  0  0  0  0  0  0  0  0  0  0
   25.2319   -0.3375    9.7745 C   0  0  0  0  0  0  0  0  0  0  0  0
  4 10  1  0
  4 11  1  0
  1 12  1  0
  1  5  1  0
  1  2  1  0
  1  3  1  0
 13 12  1  0
 13 14  1  0
 13 15  1  0
 13 16  1  0
  5  6  2  0
  5  7  1  0
  6  8  1  0
  7  9  2  0
  8 10  2  0
  9 10  1  0
M  END
> <PUBCHEM_COMPOUND_CID>
8814

> <PUBCHEM_CONFORMER_RMSD>
0.6

> <PUBCHEM_CONFORMER_DIVERSEORDER>
1
5
4
3
2

> <PUBCHEM_MMFF94_PARTIAL_CHARGES>
13
1 -0.53
11 -0.15
12 -0.15
13 -0.15
14 -0.15
15 0.08
2 0.14
33 0.15
34 0.15
35 0.15
36 0.15
37 0.45
5 -0.14

> <PUBCHEM_EFFECTIVE_ROTOR_COUNT>
3

> <PUBCHEM_PHARMACOPHORE_FEATURES>
4
1 1 donor
3 2 6 7 hydrophobe
4 3 8 9 10 hydrophobe
6 5 11 12 13 14 15 rings

> <PUBCHEM_HEAVY_ATOM_COUNT>
15

> <PUBCHEM_ATOM_DEF_STEREO_COUNT>
0

> <PUBCHEM_ATOM_UDEF_STEREO_COUNT>
0

> <PUBCHEM_BOND_DEF_STEREO_COUNT>
0

> <PUBCHEM_BOND_UDEF_STEREO_COUNT>
0

> <PUBCHEM_ISOTOPIC_ATOM_COUNT>
0

> <PUBCHEM_COMPONENT_COUNT>
1

> <PUBCHEM_CACTVS_TAUTO_COUNT>
2

> <PUBCHEM_CONFORMER_ID>
0000226E00000001

> <PUBCHEM_MMFF94_ENERGY>
60.6732

> <PUBCHEM_FEATURE_SELFOVERLAP>
20.297

> <PUBCHEM_SHAPE_FINGERPRINT>
1 1 18122065299635933247
11471102 22 13984658170435925480
12138202 97 18272929444633088966
12251169 10 14923953348599690641
12423570 1 15084294979065354379
124424 183 18201999928641116818
12491281 212 18273493468196309381
12532896 13 18409735040726507851
13299463 15 16200422598337566991
13538477 17 17822291326855117498
13764800 53 18335714831507604569
13839132 238 18413110537123213324
14817 1 11689340854733718479
15375462 478 15647061443078261877
15775835 57 18339078194495494345
16945 1 17988065786023185643
18186145 218 18200036118541666588
18534176 82 18271243927656786518
19837323 101 18335708272823803859
20525323 117 18337111292773698462
20645476 183 17894351081266785547
21296965 12 18260545576729377063
21501502 16 18271800211963701222
21524375 3 18339638928324873163
21947302 44 18059017168310697110
22802520 49 18199766781279703998
23402539 116 18267296706830970519
23419403 2 17194099544908694927
23557571 272 18198918083120765556
23559900 14 18342742906418193234
25 1 17845383149850037993
2748010 2 18262817159083630983
276578 36 18189342281366350763
305870 269 18040992882718168402
430814 3 18041565736850213531
549884 4 17416683544816290937
6333449 129 18343582975122638285
6442390 28 18269297706777891659
7364860 26 17834677097914689979
81228 2 18191593162379223291

> <PUBCHEM_SHAPE_MULTIPOLES>
302.82
5.29
2.15
1.39
2.11
0.81
0.13
-3.45
0.34
-1.29
-0.24
-0.12
0.26
0.01

> <PUBCHEM_SHAPE_SELFOVERLAP>
615.427

> <PUBCHEM_SHAPE_VOLUME>
178.4

> <PUBCHEM_COORDINATE_TYPE>
2
5
10

> <Energy>
46.4329

> <minimizedAffinity>
-7.53050

> <CNNscore>
0.8476974368

> <CNNaffinity>
6.6224899292

> <CNN_VS>
5.6138677597

> <CNNaffinity_variance>
0.3442815840

$$$$
8814


 16 16  0  0  0  0  0  0  0  0999 V2000
   24.1174   -2.2424    7.0242 C   0  0  0  0  0  0  0  0  0  0  0  0
   25.1718   -3.3543    6.7349 C   0  0  0  0  0  0  0  0  0  0  0  0
   23.6360   -2.5236    8.4667 C   0  0  0  0  0  0  0  0  0  0  0  0
   20.0327   -2.6652    3.0507 O   0  0  0  0  0  0  0  0  0  0  0  0
   23.0183   -2.3832    5.9603 C   0  0  0  0  0  0  0  0  0  0  0  0
   23.2760   -2.0114    4.6232 C   0  0  0  0  0  0  0  0  0  0  0  0
   21.7342   -2.8678    6.2612 C   0  0  0  0  0  0  0  0  0  0  0  0
   22.2898   -2.1005    3.6374 C   0  0  0  0  0  0  0  0  0  0  0  0
   20.7463   -2.9561    5.2779 C   0  0  0  0  0  0  0  0  0  0  0  0
   21.0301   -2.5690    3.9757 C   0  0  0  0  0  0  0  0  0  0  0  0
   20.1913   -2.4120    2.1626 H   0  0  0  0  0  0  0  0  0  0  0  0
   24.8660   -0.8631    6.9459 C   0  0  0  0  0  0  0  0  0  0  0  0
   25.8901   -0.3763    8.0272 C   0  0  0  0  0  0  0  0  0  0  0  0
   26.6214    0.8512    7.4277 C   0  0  0  0  0  0  0  0  0  0  0  0
   26.9555   -1.4302    8.3602 C   0  0  0  0  0  0  0  0  0  0  0  0
   25.2345    0.0936    9.3353 C   0  0  0  0  0  0  0  0  0  0  0  0
  4 10  1  0
  4 11  1  0
  1 12  1  0
  1  5  1  0
  1  2  1  0
  1  3  1  0
 13 12  1  0
 13 14  1  0
 13 15  1  0
 13 16  1  0
  5  6  2  0
  5  7  1  0
  6  8  1  0
  7  9  2  0
  8 10  2  0
  9 10  1  0
M  END
> <PUBCHEM_COMPOUND_CID>
8814

> <PUBCHEM_CONFORMER_RMSD>
0.6

> <PUBCHEM_CONFORMER_DIVERSEORDER>
1
5
4
3
2

> <PUBCHEM_MMFF94_PARTIAL_CHARGES>
13
1 -0.53
11 -0.15
12 -0.15
13 -0.15
14 -0.15
15 0.08
2 0.14
33 0.15
34 0.15
35 0.15
36 0.15
37 0.45
5 -0.14

> <PUBCHEM_EFFECTIVE_ROTOR_COUNT>
3

> <PUBCHEM_PHARMACOPHORE_FEATURES>
4
1 1 donor
3 2 6 7 hydrophobe
4 3 8 9 10 hydrophobe
6 5 11 12 13 14 15 rings

> <PUBCHEM_HEAVY_ATOM_COUNT>
15

> <PUBCHEM_ATOM_DEF_STEREO_COUNT>
0

> <PUBCHEM_ATOM_UDEF_STEREO_COUNT>
0

> <PUBCHEM_BOND_DEF_STEREO_COUNT>
0

> <PUBCHEM_BOND_UDEF_STEREO_COUNT>
0

> <PUBCHEM_ISOTOPIC_ATOM_COUNT>
0

> <PUBCHEM_COMPONENT_COUNT>
1

> <PUBCHEM_CACTVS_TAUTO_COUNT>
2

> <PUBCHEM_CONFORMER_ID>
0000226E00000001

> <PUBCHEM_MMFF94_ENERGY>
60.6732

> <PUBCHEM_FEATURE_SELFOVERLAP>
20.297

> <PUBCHEM_SHAPE_FINGERPRINT>
1 1 18122065299635933247
11471102 22 13984658170435925480
12138202 97 18272929444633088966
12251169 10 14923953348599690641
12423570 1 15084294979065354379
124424 183 18201999928641116818
12491281 212 18273493468196309381
12532896 13 18409735040726507851
13299463 15 16200422598337566991
13538477 17 17822291326855117498
13764800 53 18335714831507604569
13839132 238 18413110537123213324
14817 1 11689340854733718479
15375462 478 15647061443078261877
15775835 57 18339078194495494345
16945 1 17988065786023185643
18186145 218 18200036118541666588
18534176 82 18271243927656786518
19837323 101 18335708272823803859
20525323 117 18337111292773698462
20645476 183 17894351081266785547
21296965 12 18260545576729377063
21501502 16 18271800211963701222
21524375 3 18339638928324873163
21947302 44 18059017168310697110
22802520 49 18199766781279703998
23402539 116 18267296706830970519
23419403 2 17194099544908694927
23557571 272 18198918083120765556
23559900 14 18342742906418193234
25 1 17845383149850037993
2748010 2 18262817159083630983
276578 36 18189342281366350763
305870 269 18040992882718168402
430814 3 18041565736850213531
549884 4 17416683544816290937
6333449 129 18343582975122638285
6442390 28 18269297706777891659
7364860 26 17834677097914689979
81228 2 18191593162379223291

> <PUBCHEM_SHAPE_MULTIPOLES>
302.82
5.29
2.15
1.39
2.11
0.81
0.13
-3.45
0.34
-1.29
-0.24
-0.12
0.26
0.01

> <PUBCHEM_SHAPE_SELFOVERLAP>
615.427

> <PUBCHEM_SHAPE_VOLUME>
178.4

> <PUBCHEM_COORDINATE_TYPE>
2
5
10

> <Energy>
46.4329

> <minimizedAffinity>
-7.88968

> <CNNscore>
0.8248113394

> <CNNaffinity>
6.5382819176

> <CNN_VS>
5.3928489685

> <CNNaffinity_variance>
0.1884806156

$$$$
8814


 16 16  0  0  0  0  0  0  0  0999 V2000
   24.5905   -1.5037    6.9423 C   0  0  0  0  0  0  0  0  0  0  0  0
   24.6333    0.0536    7.0096 C   0  0  0  0  0  0  0  0  0  0  0  0
   25.9858   -1.9124    6.4152 C   0  0  0  0  0  0  0  0  0  0  0  0
   20.2870   -2.7970    3.4125 O   0  0  0  0  0  0  0  0  0  0  0  0
   23.4338   -1.8772    6.0029 C   0  0  0  0  0  0  0  0  0  0  0  0
   23.5950   -1.7698    4.6048 C   0  0  0  0  0  0  0  0  0  0  0  0
   22.1893   -2.3233    6.4785 C   0  0  0  0  0  0  0  0  0  0  0  0
   22.5539   -2.0747    3.7241 C   0  0  0  0  0  0  0  0  0  0  0  0
   21.1465   -2.6269    5.6002 C   0  0  0  0  0  0  0  0  0  0  0  0
   21.3353   -2.4970    4.2314 C   0  0  0  0  0  0  0  0  0  0  0  0
   20.3813   -2.7200    2.4834 H   0  0  0  0  0  0  0  0  0  0  0  0
   24.3748   -2.0246    8.4089 C   0  0  0  0  0  0  0  0  0  0  0  0
   25.3990   -1.7801    9.5692 C   0  0  0  0  0  0  0  0  0  0  0  0
   25.1305   -0.3521   10.1072 C   0  0  0  0  0  0  0  0  0  0  0  0
   26.8595   -1.8283    9.0986 C   0  0  0  0  0  0  0  0  0  0  0  0
   25.2310   -2.7403   10.7572 C   0  0  0  0  0  0  0  0  0  0  0  0
  4 10  1  0
  4 11  1  0
  1 12  1  0
  1  5  1  0
  1  2  1  0
  1  3  1  0
 13 12  1  0
 13 14  1  0
 13 15  1  0
 13 16  1  0
  5  6  2  0
  5  7  1  0
  6  8  1  0
  7  9  2  0
  8 10  2  0
  9 10  1  0
M  END
> <PUBCHEM_COMPOUND_CID>
8814

> <PUBCHEM_CONFORMER_RMSD>
0.6

> <PUBCHEM_CONFORMER_DIVERSEORDER>
1
5
4
3
2

> <PUBCHEM_MMFF94_PARTIAL_CHARGES>
13
1 -0.53
11 -0.15
12 -0.15
13 -0.15
14 -0.15
15 0.08
2 0.14
33 0.15
34 0.15
35 0.15
36 0.15
37 0.45
5 -0.14

> <PUBCHEM_EFFECTIVE_ROTOR_COUNT>
3

> <PUBCHEM_PHARMACOPHORE_FEATURES>
4
1 1 donor
3 2 6 7 hydrophobe
4 3 8 9 10 hydrophobe
6 5 11 12 13 14 15 rings

> <PUBCHEM_HEAVY_ATOM_COUNT>
15

> <PUBCHEM_ATOM_DEF_STEREO_COUNT>
0

> <PUBCHEM_ATOM_UDEF_STEREO_COUNT>
0

> <PUBCHEM_BOND_DEF_STEREO_COUNT>
0

> <PUBCHEM_BOND_UDEF_STEREO_COUNT>
0

> <PUBCHEM_ISOTOPIC_ATOM_COUNT>
0

> <PUBCHEM_COMPONENT_COUNT>
1

> <PUBCHEM_CACTVS_TAUTO_COUNT>
2

> <PUBCHEM_CONFORMER_ID>
0000226E00000001

> <PUBCHEM_MMFF94_ENERGY>
60.6732

> <PUBCHEM_FEATURE_SELFOVERLAP>
20.297

> <PUBCHEM_SHAPE_FINGERPRINT>
1 1 18122065299635933247
11471102 22 13984658170435925480
12138202 97 18272929444633088966
12251169 10 14923953348599690641
12423570 1 15084294979065354379
124424 183 18201999928641116818
12491281 212 18273493468196309381
12532896 13 18409735040726507851
13299463 15 16200422598337566991
13538477 17 17822291326855117498
13764800 53 18335714831507604569
13839132 238 18413110537123213324
14817 1 11689340854733718479
15375462 478 15647061443078261877
15775835 57 18339078194495494345
16945 1 17988065786023185643
18186145 218 18200036118541666588
18534176 82 18271243927656786518
19837323 101 18335708272823803859
20525323 117 18337111292773698462
20645476 183 17894351081266785547
21296965 12 18260545576729377063
21501502 16 18271800211963701222
21524375 3 18339638928324873163
21947302 44 18059017168310697110
22802520 49 18199766781279703998
23402539 116 18267296706830970519
23419403 2 17194099544908694927
23557571 272 18198918083120765556
23559900 14 18342742906418193234
25 1 17845383149850037993
2748010 2 18262817159083630983
276578 36 18189342281366350763
305870 269 18040992882718168402
430814 3 18041565736850213531
549884 4 17416683544816290937
6333449 129 18343582975122638285
6442390 28 18269297706777891659
7364860 26 17834677097914689979
81228 2 18191593162379223291

> <PUBCHEM_SHAPE_MULTIPOLES>
302.82
5.29
2.15
1.39
2.11
0.81
0.13
-3.45
0.34
-1.29
-0.24
-0.12
0.26
0.01

> <PUBCHEM_SHAPE_SELFOVERLAP>
615.427

> <PUBCHEM_SHAPE_VOLUME>
178.4

> <PUBCHEM_COORDINATE_TYPE>
2
5
10

> <Energy>
46.4329

> <minimizedAffinity>
-7.56428

> <CNNscore>
0.8204305768

> <CNNaffinity>
6.6799788475

> <CNN_VS>
5.4804587364

> <CNNaffinity_variance>
0.3736168444

$$$$
8814


 16 16  0  0  0  0  0  0  0  0999 V2000
   24.3131   -2.3721    6.9470 C   0  0  0  0  0  0  0  0  0  0  0  0
   25.0679   -3.7330    6.8469 C   0  0  0  0  0  0  0  0  0  0  0  0
   23.8294   -2.2986    8.4141 C   0  0  0  0  0  0  0  0  0  0  0  0
   20.0747   -2.6398    3.1240 O   0  0  0  0  0  0  0  0  0  0  0  0
   23.1755   -2.4168    5.9157 C   0  0  0  0  0  0  0  0  0  0  0  0
   21.8943   -2.8717    6.2949 C   0  0  0  0  0  0  0  0  0  0  0  0
   23.3537   -2.0259    4.5780 C   0  0  0  0  0  0  0  0  0  0  0  0
   20.8457   -2.9513    5.3747 C   0  0  0  0  0  0  0  0  0  0  0  0
   22.3077   -2.1063    3.6560 C   0  0  0  0  0  0  0  0  0  0  0  0
   21.0640   -2.5711    4.0600 C   0  0  0  0  0  0  0  0  0  0  0  0
   19.2234   -2.9492    3.3639 H   0  0  0  0  0  0  0  0  0  0  0  0
   25.3601   -1.2392    6.6484 C   0  0  0  0  0  0  0  0  0  0  0  0
   26.1625   -0.4911    7.7671 C   0  0  0  0  0  0  0  0  0  0  0  0
   25.1163    0.1686    8.7004 C   0  0  0  0  0  0  0  0  0  0  0  0
   27.0582    0.6270    7.2155 C   0  0  0  0  0  0  0  0  0  0  0  0
   27.0161   -1.4200    8.6446 C   0  0  0  0  0  0  0  0  0  0  0  0
  4 10  1  0
  4 11  1  0
  1 12  1  0
  1  5  1  0
  1  2  1  0
  1  3  1  0
 13 12  1  0
 13 14  1  0
 13 15  1  0
 13 16  1  0
  5  6  2  0
  5  7  1  0
  6  8  1  0
  7  9  2  0
  8 10  2  0
  9 10  1  0
M  END
> <PUBCHEM_COMPOUND_CID>
8814

> <PUBCHEM_CONFORMER_RMSD>
0.6

> <PUBCHEM_CONFORMER_DIVERSEORDER>
1
5
4
3
2

> <PUBCHEM_MMFF94_PARTIAL_CHARGES>
13
1 -0.53
11 -0.15
12 -0.15
13 -0.15
14 -0.15
15 0.08
2 0.14
33 0.15
34 0.15
35 0.15
36 0.15
37 0.45
5 -0.14

> <PUBCHEM_EFFECTIVE_ROTOR_COUNT>
3

> <PUBCHEM_PHARMACOPHORE_FEATURES>
4
1 1 donor
3 2 6 7 hydrophobe
4 3 8 9 10 hydrophobe
6 5 11 12 13 14 15 rings

> <PUBCHEM_HEAVY_ATOM_COUNT>
15

> <PUBCHEM_ATOM_DEF_STEREO_COUNT>
0

> <PUBCHEM_ATOM_UDEF_STEREO_COUNT>
0

> <PUBCHEM_BOND_DEF_STEREO_COUNT>
0

> <PUBCHEM_BOND_UDEF_STEREO_COUNT>
0

> <PUBCHEM_ISOTOPIC_ATOM_COUNT>
0

> <PUBCHEM_COMPONENT_COUNT>
1

> <PUBCHEM_CACTVS_TAUTO_COUNT>
2

> <PUBCHEM_CONFORMER_ID>
0000226E00000001

> <PUBCHEM_MMFF94_ENERGY>
60.6732

> <PUBCHEM_FEATURE_SELFOVERLAP>
20.297

> <PUBCHEM_SHAPE_FINGERPRINT>
1 1 18122065299635933247
11471102 22 13984658170435925480
12138202 97 18272929444633088966
12251169 10 14923953348599690641
12423570 1 15084294979065354379
124424 183 18201999928641116818
12491281 212 18273493468196309381
12532896 13 18409735040726507851
13299463 15 16200422598337566991
13538477 17 17822291326855117498
13764800 53 18335714831507604569
13839132 238 18413110537123213324
14817 1 11689340854733718479
15375462 478 15647061443078261877
15775835 57 18339078194495494345
16945 1 17988065786023185643
18186145 218 18200036118541666588
18534176 82 18271243927656786518
19837323 101 18335708272823803859
20525323 117 18337111292773698462
20645476 183 17894351081266785547
21296965 12 18260545576729377063
21501502 16 18271800211963701222
21524375 3 18339638928324873163
21947302 44 18059017168310697110
22802520 49 18199766781279703998
23402539 116 18267296706830970519
23419403 2 17194099544908694927
23557571 272 18198918083120765556
23559900 14 18342742906418193234
25 1 17845383149850037993
2748010 2 18262817159083630983
276578 36 18189342281366350763
305870 269 18040992882718168402
430814 3 18041565736850213531
549884 4 17416683544816290937
6333449 129 18343582975122638285
6442390 28 18269297706777891659
7364860 26 17834677097914689979
81228 2 18191593162379223291

> <PUBCHEM_SHAPE_MULTIPOLES>
302.82
5.29
2.15
1.39
2.11
0.81
0.13
-3.45
0.34
-1.29
-0.24
-0.12
0.26
0.01

> <PUBCHEM_SHAPE_SELFOVERLAP>
615.427

> <PUBCHEM_SHAPE_VOLUME>
178.4

> <PUBCHEM_COORDINATE_TYPE>
2
5
10

> <Energy>
46.4329

> <minimizedAffinity>
-7.78313

> <CNNscore>
0.8094649315

> <CNNaffinity>
6.4526953697

> <CNN_VS>
5.2232308388

> <CNNaffinity_variance>
0.1538281590

$$$$
