6013


 22 25  0  0  0  0  0  0  0  0999 V2000
   -9.0564   -6.0977   22.8549 O   0  0  0  0  0  0  0  0  0  0  0  0
    0.1813   -1.3842   19.6469 O   0  0  0  0  0  0  0  0  0  0  0  0
   -5.9421   -4.2227   23.2223 C   0  0  0  0  0  0  0  0  0  0  0  0
   -6.7262   -5.3366   22.5018 C   0  0  0  0  0  0  0  0  0  0  0  0
   -4.4374   -4.2875   22.9443 C   0  0  0  0  0  0  0  0  0  0  0  0
   -4.2032   -4.1362   21.4080 C   0  0  0  0  0  0  0  0  0  0  0  0
   -2.6756   -4.1468   21.0181 C   0  0  0  0  0  0  0  0  0  0  0  0
   -6.5543   -5.1349   20.9906 C   0  0  0  0  0  0  0  0  0  0  0  0
   -5.0684   -5.1332   20.5880 C   0  0  0  0  0  0  0  0  0  0  0  0
   -8.1412   -5.0336   23.0354 C   0  0  0  0  0  0  0  0  0  0  0  0
   -6.4366   -4.3142   24.6638 C   0  0  0  0  0  0  0  0  0  0  0  0
   -3.6802   -3.1909   23.7040 C   0  0  0  0  0  0  0  0  0  0  0  0
   -7.9181   -4.7084   24.5267 C   0  0  0  0  0  0  0  0  0  0  0  0
   -1.9123   -3.1628   21.9158 C   0  0  0  0  0  0  0  0  0  0  0  0
   -2.1887   -3.2390   23.3989 C   0  0  0  0  0  0  0  0  0  0  0  0
   -6.3031   -6.7769   22.8834 C   0  0  0  0  0  0  0  0  0  0  0  0
   -2.5475   -3.7155   19.5272 C   0  0  0  0  0  0  0  0  0  0  0  0
   -2.0422   -5.5454   21.1907 C   0  0  0  0  0  0  0  0  0  0  0  0
   -1.1350   -3.3196   19.1229 C   0  0  0  0  0  0  0  0  0  0  0  0
   -1.0150   -2.2739   21.4563 C   0  0  0  0  0  0  0  0  0  0  0  0
   -0.6153   -2.2359   20.0298 C   0  0  0  0  0  0  0  0  0  0  0  0
   -9.1687   -6.2705   21.9071 H   0  0  0  0  0  0  0  0  0  0  0  0
  1 10  1  0
  1 22  1  0
  2 21  2  0
  3  4  1  0
  3  5  1  0
  3 11  1  0
  4  8  1  0
  4 10  1  0
  4 16  1  0
  5  6  1  0
  5 12  1  0
  6  7  1  0
  6  9  1  0
  7 14  1  0
  7 17  1  0
  7 18  1  0
  8  9  1  0
 10 13  1  0
 11 13  1  0
 12 15  1  0
 14 15  1  0
 14 20  2  0
 17 19  1  0
 19 21  1  0
 20 21  1  0
M  END
> <PUBCHEM_COMPOUND_CID>
6013

> <PUBCHEM_CONFORMER_RMSD>
0.6

> <PUBCHEM_CONFORMER_DIVERSEORDER>
1

> <PUBCHEM_MMFF94_PARTIAL_CHARGES>
11
1 -0.68
10 0.28
14 -0.28
15 0.14
19 0.06
2 -0.57
20 -0.14
21 0.49
48 0.15
49 0.4
7 0.14

> <PUBCHEM_EFFECTIVE_ROTOR_COUNT>
1.8

> <PUBCHEM_PHARMACOPHORE_FEATURES>
7
1 1 acceptor
1 1 donor
1 2 acceptor
5 3 4 10 11 13 rings
6 3 4 5 6 8 9 rings
6 5 6 7 12 14 15 rings
6 7 14 17 19 20 21 rings

> <PUBCHEM_HEAVY_ATOM_COUNT>
21

> <PUBCHEM_ATOM_DEF_STEREO_COUNT>
6

> <PUBCHEM_ATOM_UDEF_STEREO_COUNT>
0

> <PUBCHEM_BOND_DEF_STEREO_COUNT>
0

> <PUBCHEM_BOND_UDEF_STEREO_COUNT>
0

> <PUBCHEM_ISOTOPIC_ATOM_COUNT>
0

> <PUBCHEM_COMPONENT_COUNT>
1

> <PUBCHEM_CACTVS_TAUTO_COUNT>
5

> <PUBCHEM_CONFORMER_ID>
0000177D00000001

> <PUBCHEM_MMFF94_ENERGY>
67.5416

> <PUBCHEM_FEATURE_SELFOVERLAP>
35.618

> <PUBCHEM_SHAPE_FINGERPRINT>
10062212 137 18336825385559829163
10759866 29 17897457309511876188
10967382 1 18412548682291571786
11132069 177 18410018732180467827
11370993 70 18410569557056084199
11578080 2 16735503067342509174
12011746 2 18412547592124142406
12236239 1 18040155136873436768
12251169 10 18410008845387181634
12403259 226 18410006624652160988
12403259 415 18408880746209696412
12403260 363 18340481291412090749
12403814 3 17894914044785590877
12507557 5 18408881845467772304
12633257 1 18341888602346167976
12839892 36 18340758291450253690
13140716 1 18339643467883616216
13214271 11 18272369780793716703
13224815 77 18411987974316295335
13675066 3 18187087269080573787
14178342 30 18338527339117458393
14223421 5 18341052895787930134
14341114 176 18411985737129035682
14787075 74 18339640165090922602
14790565 3 18050014594947639924
15163728 17 14691189929019880809
15196674 1 18411420639180230811
15375358 24 18413110541697833299
15536298 74 18272376330249831326
15788980 27 17167859768361771669
16945 1 18267308633664624303
17349148 13 18260547844245275310
17492 89 18410012108956776131
1813 80 17168144512515476742
18186145 218 18411423903503023558
18522853 276 18412546492037592553
19050596 39 18410858775858764633
19784866 9 18412265021155473810
200 152 18202274819337965375
20715895 44 18116989984517715477
21033648 29 18262779827106925672
21267235 1 18410302427354843602
21421861 104 18042966467372004754
21637258 2 15647319828885568714
22182313 1 18189614934485510503
22854114 111 18409735070690792279
22854114 59 18343022189864506130
23402539 116 18272925046486162621
23557571 272 18059303161493107767
23559900 14 18343023255612643838
26918003 58 18409728456589012017
2748010 2 18410304609229794207
2838139 119 14835541671104639250
296302 2 16343984710473737934
335352 9 18411702045432157758
34934 24 18341610383102269379
350125 39 18410857681354741304
351380 180 18413386540454065762
3545911 37 18411703166439727155
42 15 18260548935156425576
5104073 3 18410294747868572393
59755656 215 18339930311854621398
633830 44 17988931080225984300
69090 78 18413386557386229218
7364860 26 18200601276388112774
9709674 26 18341058445033876271

> <PUBCHEM_SHAPE_MULTIPOLES>
420.43
9.43
2.1
1.06
1.16
0.42
0.43
-0.59
-2.56
-0.22
0.02
0.09
-0.22
0.11

> <PUBCHEM_SHAPE_SELFOVERLAP>
902.625

> <PUBCHEM_SHAPE_VOLUME>
230.1

> <PUBCHEM_COORDINATE_TYPE>
2
5
10

> <Energy>
71.9966

> <minimizedAffinity>
-10.12204

> <CNNscore>
0.9063749909

> <CNNaffinity>
8.0334596634

> <CNN_VS>
7.2813267708

> <CNNaffinity_variance>
0.6956748962

$$$$
6013


 22 25  0  0  0  0  0  0  0  0999 V2000
    0.2776   -4.5776   19.3638 O   0  0  0  0  0  0  0  0  0  0  0  0
   -8.7088   -4.4305   25.4521 O   0  0  0  0  0  0  0  0  0  0  0  0
   -2.1626   -3.2065   21.7123 C   0  0  0  0  0  0  0  0  0  0  0  0
   -1.8779   -4.0890   20.4814 C   0  0  0  0  0  0  0  0  0  0  0  0
   -3.6531   -2.8991   21.8843 C   0  0  0  0  0  0  0  0  0  0  0  0
   -4.4270   -4.2443   22.0564 C   0  0  0  0  0  0  0  0  0  0  0  0
   -5.9731   -4.0356   22.2844 C   0  0  0  0  0  0  0  0  0  0  0  0
   -2.5781   -5.4375   20.6937 C   0  0  0  0  0  0  0  0  0  0  0  0
   -4.0891   -5.2570   20.9272 C   0  0  0  0  0  0  0  0  0  0  0  0
   -0.3386   -4.1428   20.5612 C   0  0  0  0  0  0  0  0  0  0  0  0
   -1.1780   -2.0502   21.5570 C   0  0  0  0  0  0  0  0  0  0  0  0
   -3.9010   -1.9893   23.0942 C   0  0  0  0  0  0  0  0  0  0  0  0
    0.0685   -2.7017   20.9317 C   0  0  0  0  0  0  0  0  0  0  0  0
   -6.1904   -2.9881   23.3854 C   0  0  0  0  0  0  0  0  0  0  0  0
   -5.3871   -1.7130   23.2803 C   0  0  0  0  0  0  0  0  0  0  0  0
   -2.3268   -3.4795   19.1301 C   0  0  0  0  0  0  0  0  0  0  0  0
   -6.5927   -5.3974   22.7166 C   0  0  0  0  0  0  0  0  0  0  0  0
   -6.6874   -3.5441   21.0056 C   0  0  0  0  0  0  0  0  0  0  0  0
   -7.9807   -5.2728   23.3276 C   0  0  0  0  0  0  0  0  0  0  0  0
   -7.0575   -3.1402   24.4010 C   0  0  0  0  0  0  0  0  0  0  0  0
   -7.9575   -4.3142   24.4885 C   0  0  0  0  0  0  0  0  0  0  0  0
   -0.0032   -5.4848   19.1665 H   0  0  0  0  0  0  0  0  0  0  0  0
  1 10  1  0
  1 22  1  0
  2 21  2  0
  3  4  1  0
  3  5  1  0
  3 11  1  0
  4  8  1  0
  4 10  1  0
  4 16  1  0
  5  6  1  0
  5 12  1  0
  6  7  1  0
  6  9  1  0
  7 14  1  0
  7 17  1  0
  7 18  1  0
  8  9  1  0
 10 13  1  0
 11 13  1  0
 12 15  1  0
 14 15  1  0
 14 20  2  0
 17 19  1  0
 19 21  1  0
 20 21  1  0
M  END
> <PUBCHEM_COMPOUND_CID>
6013

> <PUBCHEM_CONFORMER_RMSD>
0.6

> <PUBCHEM_CONFORMER_DIVERSEORDER>
1

> <PUBCHEM_MMFF94_PARTIAL_CHARGES>
11
1 -0.68
10 0.28
14 -0.28
15 0.14
19 0.06
2 -0.57
20 -0.14
21 0.49
48 0.15
49 0.4
7 0.14

> <PUBCHEM_EFFECTIVE_ROTOR_COUNT>
1.8

> <PUBCHEM_PHARMACOPHORE_FEATURES>
7
1 1 acceptor
1 1 donor
1 2 acceptor
5 3 4 10 11 13 rings
6 3 4 5 6 8 9 rings
6 5 6 7 12 14 15 rings
6 7 14 17 19 20 21 rings

> <PUBCHEM_HEAVY_ATOM_COUNT>
21

> <PUBCHEM_ATOM_DEF_STEREO_COUNT>
6

> <PUBCHEM_ATOM_UDEF_STEREO_COUNT>
0

> <PUBCHEM_BOND_DEF_STEREO_COUNT>
0

> <PUBCHEM_BOND_UDEF_STEREO_COUNT>
0

> <PUBCHEM_ISOTOPIC_ATOM_COUNT>
0

> <PUBCHEM_COMPONENT_COUNT>
1

> <PUBCHEM_CACTVS_TAUTO_COUNT>
5

> <PUBCHEM_CONFORMER_ID>
0000177D00000001

> <PUBCHEM_MMFF94_ENERGY>
67.5416

> <PUBCHEM_FEATURE_SELFOVERLAP>
35.618

> <PUBCHEM_SHAPE_FINGERPRINT>
10062212 137 18336825385559829163
10759866 29 17897457309511876188
10967382 1 18412548682291571786
11132069 177 18410018732180467827
11370993 70 18410569557056084199
11578080 2 16735503067342509174
12011746 2 18412547592124142406
12236239 1 18040155136873436768
12251169 10 18410008845387181634
12403259 226 18410006624652160988
12403259 415 18408880746209696412
12403260 363 18340481291412090749
12403814 3 17894914044785590877
12507557 5 18408881845467772304
12633257 1 18341888602346167976
12839892 36 18340758291450253690
13140716 1 18339643467883616216
13214271 11 18272369780793716703
13224815 77 18411987974316295335
13675066 3 18187087269080573787
14178342 30 18338527339117458393
14223421 5 18341052895787930134
14341114 176 18411985737129035682
14787075 74 18339640165090922602
14790565 3 18050014594947639924
15163728 17 14691189929019880809
15196674 1 18411420639180230811
15375358 24 18413110541697833299
15536298 74 18272376330249831326
15788980 27 17167859768361771669
16945 1 18267308633664624303
17349148 13 18260547844245275310
17492 89 18410012108956776131
1813 80 17168144512515476742
18186145 218 18411423903503023558
18522853 276 18412546492037592553
19050596 39 18410858775858764633
19784866 9 18412265021155473810
200 152 18202274819337965375
20715895 44 18116989984517715477
21033648 29 18262779827106925672
21267235 1 18410302427354843602
21421861 104 18042966467372004754
21637258 2 15647319828885568714
22182313 1 18189614934485510503
22854114 111 18409735070690792279
22854114 59 18343022189864506130
23402539 116 18272925046486162621
23557571 272 18059303161493107767
23559900 14 18343023255612643838
26918003 58 18409728456589012017
2748010 2 18410304609229794207
2838139 119 14835541671104639250
296302 2 16343984710473737934
335352 9 18411702045432157758
34934 24 18341610383102269379
350125 39 18410857681354741304
351380 180 18413386540454065762
3545911 37 18411703166439727155
42 15 18260548935156425576
5104073 3 18410294747868572393
59755656 215 18339930311854621398
633830 44 17988931080225984300
69090 78 18413386557386229218
7364860 26 18200601276388112774
9709674 26 18341058445033876271

> <PUBCHEM_SHAPE_MULTIPOLES>
420.43
9.43
2.1
1.06
1.16
0.42
0.43
-0.59
-2.56
-0.22
0.02
0.09
-0.22
0.11

> <PUBCHEM_SHAPE_SELFOVERLAP>
902.625

> <PUBCHEM_SHAPE_VOLUME>
230.1

> <PUBCHEM_COORDINATE_TYPE>
2
5
10

> <Energy>
71.9966

> <minimizedAffinity>
-9.36003

> <CNNscore>
0.7497813702

> <CNNaffinity>
7.4268455505

> <CNN_VS>
5.5685105324

> <CNNaffinity_variance>
0.2888673842

$$$$
6013


 22 25  0  0  0  0  0  0  0  0999 V2000
   -0.2655   -1.5778   20.6864 O   0  0  0  0  0  0  0  0  0  0  0  0
   -9.5690   -6.7741   22.7568 O   0  0  0  0  0  0  0  0  0  0  0  0
   -2.5014   -4.4465   21.0341 C   0  0  0  0  0  0  0  0  0  0  0  0
   -2.0860   -3.0409   21.5101 C   0  0  0  0  0  0  0  0  0  0  0  0
   -3.4519   -5.1426   22.0126 C   0  0  0  0  0  0  0  0  0  0  0  0
   -4.7416   -4.2755   22.1632 C   0  0  0  0  0  0  0  0  0  0  0  0
   -5.8093   -4.9286   23.1220 C   0  0  0  0  0  0  0  0  0  0  0  0
   -3.3490   -2.1728   21.5812 C   0  0  0  0  0  0  0  0  0  0  0  0
   -4.4099   -2.7965   22.5061 C   0  0  0  0  0  0  0  0  0  0  0  0
   -1.1113   -2.6686   20.3745 C   0  0  0  0  0  0  0  0  0  0  0  0
   -1.1720   -5.1125   20.6877 C   0  0  0  0  0  0  0  0  0  0  0  0
   -3.8172   -6.5524   21.5308 C   0  0  0  0  0  0  0  0  0  0  0  0
   -0.3148   -3.9655   20.1232 C   0  0  0  0  0  0  0  0  0  0  0  0
   -6.0265   -6.3947   22.7217 C   0  0  0  0  0  0  0  0  0  0  0  0
   -4.7880   -7.2281   22.4904 C   0  0  0  0  0  0  0  0  0  0  0  0
   -1.3584   -3.0092   22.8771 C   0  0  0  0  0  0  0  0  0  0  0  0
   -7.1427   -4.1363   22.9824 C   0  0  0  0  0  0  0  0  0  0  0  0
   -5.3598   -4.8954   24.5998 C   0  0  0  0  0  0  0  0  0  0  0  0
   -8.3514   -4.8658   23.5499 C   0  0  0  0  0  0  0  0  0  0  0  0
   -7.2379   -6.9625   22.5925 C   0  0  0  0  0  0  0  0  0  0  0  0
   -8.4821   -6.2287   22.9233 C   0  0  0  0  0  0  0  0  0  0  0  0
   -0.8029   -0.7845   20.8368 H   0  0  0  0  0  0  0  0  0  0  0  0
  1 10  1  0
  1 22  1  0
  2 21  2  0
  3  4  1  0
  3  5  1  0
  3 11  1  0
  4  8  1  0
  4 10  1  0
  4 16  1  0
  5  6  1  0
  5 12  1  0
  6  7  1  0
  6  9  1  0
  7 14  1  0
  7 17  1  0
  7 18  1  0
  8  9  1  0
 10 13  1  0
 11 13  1  0
 12 15  1  0
 14 15  1  0
 14 20  2  0
 17 19  1  0
 19 21  1  0
 20 21  1  0
M  END
> <PUBCHEM_COMPOUND_CID>
6013

> <PUBCHEM_CONFORMER_RMSD>
0.6

> <PUBCHEM_CONFORMER_DIVERSEORDER>
1

> <PUBCHEM_MMFF94_PARTIAL_CHARGES>
11
1 -0.68
10 0.28
14 -0.28
15 0.14
19 0.06
2 -0.57
20 -0.14
21 0.49
48 0.15
49 0.4
7 0.14

> <PUBCHEM_EFFECTIVE_ROTOR_COUNT>
1.8

> <PUBCHEM_PHARMACOPHORE_FEATURES>
7
1 1 acceptor
1 1 donor
1 2 acceptor
5 3 4 10 11 13 rings
6 3 4 5 6 8 9 rings
6 5 6 7 12 14 15 rings
6 7 14 17 19 20 21 rings

> <PUBCHEM_HEAVY_ATOM_COUNT>
21

> <PUBCHEM_ATOM_DEF_STEREO_COUNT>
6

> <PUBCHEM_ATOM_UDEF_STEREO_COUNT>
0

> <PUBCHEM_BOND_DEF_STEREO_COUNT>
0

> <PUBCHEM_BOND_UDEF_STEREO_COUNT>
0

> <PUBCHEM_ISOTOPIC_ATOM_COUNT>
0

> <PUBCHEM_COMPONENT_COUNT>
1

> <PUBCHEM_CACTVS_TAUTO_COUNT>
5

> <PUBCHEM_CONFORMER_ID>
0000177D00000001

> <PUBCHEM_MMFF94_ENERGY>
67.5416

> <PUBCHEM_FEATURE_SELFOVERLAP>
35.618

> <PUBCHEM_SHAPE_FINGERPRINT>
10062212 137 18336825385559829163
10759866 29 17897457309511876188
10967382 1 18412548682291571786
11132069 177 18410018732180467827
11370993 70 18410569557056084199
11578080 2 16735503067342509174
12011746 2 18412547592124142406
12236239 1 18040155136873436768
12251169 10 18410008845387181634
12403259 226 18410006624652160988
12403259 415 18408880746209696412
12403260 363 18340481291412090749
12403814 3 17894914044785590877
12507557 5 18408881845467772304
12633257 1 18341888602346167976
12839892 36 18340758291450253690
13140716 1 18339643467883616216
13214271 11 18272369780793716703
13224815 77 18411987974316295335
13675066 3 18187087269080573787
14178342 30 18338527339117458393
14223421 5 18341052895787930134
14341114 176 18411985737129035682
14787075 74 18339640165090922602
14790565 3 18050014594947639924
15163728 17 14691189929019880809
15196674 1 18411420639180230811
15375358 24 18413110541697833299
15536298 74 18272376330249831326
15788980 27 17167859768361771669
16945 1 18267308633664624303
17349148 13 18260547844245275310
17492 89 18410012108956776131
1813 80 17168144512515476742
18186145 218 18411423903503023558
18522853 276 18412546492037592553
19050596 39 18410858775858764633
19784866 9 18412265021155473810
200 152 18202274819337965375
20715895 44 18116989984517715477
21033648 29 18262779827106925672
21267235 1 18410302427354843602
21421861 104 18042966467372004754
21637258 2 15647319828885568714
22182313 1 18189614934485510503
22854114 111 18409735070690792279
22854114 59 18343022189864506130
23402539 116 18272925046486162621
23557571 272 18059303161493107767
23559900 14 18343023255612643838
26918003 58 18409728456589012017
2748010 2 18410304609229794207
2838139 119 14835541671104639250
296302 2 16343984710473737934
335352 9 18411702045432157758
34934 24 18341610383102269379
350125 39 18410857681354741304
351380 180 18413386540454065762
3545911 37 18411703166439727155
42 15 18260548935156425576
5104073 3 18410294747868572393
59755656 215 18339930311854621398
633830 44 17988931080225984300
69090 78 18413386557386229218
7364860 26 18200601276388112774
9709674 26 18341058445033876271

> <PUBCHEM_SHAPE_MULTIPOLES>
420.43
9.43
2.1
1.06
1.16
0.42
0.43
-0.59
-2.56
-0.22
0.02
0.09
-0.22
0.11

> <PUBCHEM_SHAPE_SELFOVERLAP>
902.625

> <PUBCHEM_SHAPE_VOLUME>
230.1

> <PUBCHEM_COORDINATE_TYPE>
2
5
10

> <Energy>
71.9966

> <minimizedAffinity>
-9.08536

> <CNNscore>
0.6560600400

> <CNNaffinity>
7.5196862221

> <CNN_VS>
4.9333658218

> <CNNaffinity_variance>
0.3296864331

$$$$
6013


 22 25  0  0  0  0  0  0  0  0999 V2000
   -8.9598   -6.4134   24.3169 O   0  0  0  0  0  0  0  0  0  0  0  0
    0.8362   -2.9368   21.1874 O   0  0  0  0  0  0  0  0  0  0  0  0
   -6.3353   -5.4467   21.9660 C   0  0  0  0  0  0  0  0  0  0  0  0
   -7.0082   -5.2447   23.3376 C   0  0  0  0  0  0  0  0  0  0  0  0
   -5.3746   -4.3089   21.6082 C   0  0  0  0  0  0  0  0  0  0  0  0
   -4.2569   -4.2341   22.6959 C   0  0  0  0  0  0  0  0  0  0  0  0
   -3.1861   -3.1162   22.3968 C   0  0  0  0  0  0  0  0  0  0  0  0
   -5.9101   -5.2499   24.4089 C   0  0  0  0  0  0  0  0  0  0  0  0
   -4.8477   -4.1707   24.1319 C   0  0  0  0  0  0  0  0  0  0  0  0
   -7.9276   -6.4829   23.3514 C   0  0  0  0  0  0  0  0  0  0  0  0
   -7.5069   -5.7510   21.0357 C   0  0  0  0  0  0  0  0  0  0  0  0
   -4.7496   -4.5188   20.2231 C   0  0  0  0  0  0  0  0  0  0  0  0
   -8.4832   -6.5538   21.9141 C   0  0  0  0  0  0  0  0  0  0  0  0
   -2.7050   -3.2449   20.9447 C   0  0  0  0  0  0  0  0  0  0  0  0
   -3.7707   -3.4019   19.8856 C   0  0  0  0  0  0  0  0  0  0  0  0
   -7.8473   -3.9488   23.4623 C   0  0  0  0  0  0  0  0  0  0  0  0
   -1.9885   -3.3112   23.3729 C   0  0  0  0  0  0  0  0  0  0  0  0
   -3.7615   -1.6951   22.5882 C   0  0  0  0  0  0  0  0  0  0  0  0
   -0.7330   -2.5566   22.9611 C   0  0  0  0  0  0  0  0  0  0  0  0
   -1.4122   -3.2030   20.5792 C   0  0  0  0  0  0  0  0  0  0  0  0
   -0.3337   -2.9308   21.5583 C   0  0  0  0  0  0  0  0  0  0  0  0
   -8.5703   -6.3704   25.2042 H   0  0  0  0  0  0  0  0  0  0  0  0
  1 10  1  0
  1 22  1  0
  2 21  2  0
  3  4  1  0
  3  5  1  0
  3 11  1  0
  4  8  1  0
  4 10  1  0
  4 16  1  0
  5  6  1  0
  5 12  1  0
  6  7  1  0
  6  9  1  0
  7 14  1  0
  7 17  1  0
  7 18  1  0
  8  9  1  0
 10 13  1  0
 11 13  1  0
 12 15  1  0
 14 15  1  0
 14 20  2  0
 17 19  1  0
 19 21  1  0
 20 21  1  0
M  END
> <PUBCHEM_COMPOUND_CID>
6013

> <PUBCHEM_CONFORMER_RMSD>
0.6

> <PUBCHEM_CONFORMER_DIVERSEORDER>
1

> <PUBCHEM_MMFF94_PARTIAL_CHARGES>
11
1 -0.68
10 0.28
14 -0.28
15 0.14
19 0.06
2 -0.57
20 -0.14
21 0.49
48 0.15
49 0.4
7 0.14

> <PUBCHEM_EFFECTIVE_ROTOR_COUNT>
1.8

> <PUBCHEM_PHARMACOPHORE_FEATURES>
7
1 1 acceptor
1 1 donor
1 2 acceptor
5 3 4 10 11 13 rings
6 3 4 5 6 8 9 rings
6 5 6 7 12 14 15 rings
6 7 14 17 19 20 21 rings

> <PUBCHEM_HEAVY_ATOM_COUNT>
21

> <PUBCHEM_ATOM_DEF_STEREO_COUNT>
6

> <PUBCHEM_ATOM_UDEF_STEREO_COUNT>
0

> <PUBCHEM_BOND_DEF_STEREO_COUNT>
0

> <PUBCHEM_BOND_UDEF_STEREO_COUNT>
0

> <PUBCHEM_ISOTOPIC_ATOM_COUNT>
0

> <PUBCHEM_COMPONENT_COUNT>
1

> <PUBCHEM_CACTVS_TAUTO_COUNT>
5

> <PUBCHEM_CONFORMER_ID>
0000177D00000001

> <PUBCHEM_MMFF94_ENERGY>
67.5416

> <PUBCHEM_FEATURE_SELFOVERLAP>
35.618

> <PUBCHEM_SHAPE_FINGERPRINT>
10062212 137 18336825385559829163
10759866 29 17897457309511876188
10967382 1 18412548682291571786
11132069 177 18410018732180467827
11370993 70 18410569557056084199
11578080 2 16735503067342509174
12011746 2 18412547592124142406
12236239 1 18040155136873436768
12251169 10 18410008845387181634
12403259 226 18410006624652160988
12403259 415 18408880746209696412
12403260 363 18340481291412090749
12403814 3 17894914044785590877
12507557 5 18408881845467772304
12633257 1 18341888602346167976
12839892 36 18340758291450253690
13140716 1 18339643467883616216
13214271 11 18272369780793716703
13224815 77 18411987974316295335
13675066 3 18187087269080573787
14178342 30 18338527339117458393
14223421 5 18341052895787930134
14341114 176 18411985737129035682
14787075 74 18339640165090922602
14790565 3 18050014594947639924
15163728 17 14691189929019880809
15196674 1 18411420639180230811
15375358 24 18413110541697833299
15536298 74 18272376330249831326
15788980 27 17167859768361771669
16945 1 18267308633664624303
17349148 13 18260547844245275310
17492 89 18410012108956776131
1813 80 17168144512515476742
18186145 218 18411423903503023558
18522853 276 18412546492037592553
19050596 39 18410858775858764633
19784866 9 18412265021155473810
200 152 18202274819337965375
20715895 44 18116989984517715477
21033648 29 18262779827106925672
21267235 1 18410302427354843602
21421861 104 18042966467372004754
21637258 2 15647319828885568714
22182313 1 18189614934485510503
22854114 111 18409735070690792279
22854114 59 18343022189864506130
23402539 116 18272925046486162621
23557571 272 18059303161493107767
23559900 14 18343023255612643838
26918003 58 18409728456589012017
2748010 2 18410304609229794207
2838139 119 14835541671104639250
296302 2 16343984710473737934
335352 9 18411702045432157758
34934 24 18341610383102269379
350125 39 18410857681354741304
351380 180 18413386540454065762
3545911 37 18411703166439727155
42 15 18260548935156425576
5104073 3 18410294747868572393
59755656 215 18339930311854621398
633830 44 17988931080225984300
69090 78 18413386557386229218
7364860 26 18200601276388112774
9709674 26 18341058445033876271

> <PUBCHEM_SHAPE_MULTIPOLES>
420.43
9.43
2.1
1.06
1.16
0.42
0.43
-0.59
-2.56
-0.22
0.02
0.09
-0.22
0.11

> <PUBCHEM_SHAPE_SELFOVERLAP>
902.625

> <PUBCHEM_SHAPE_VOLUME>
230.1

> <PUBCHEM_COORDINATE_TYPE>
2
5
10

> <Energy>
71.9966

> <minimizedAffinity>
-10.81538

> <CNNscore>
0.4866779149

> <CNNaffinity>
7.5581107140

> <CNN_VS>
3.6783654690

> <CNNaffinity_variance>
0.4530962408

$$$$
6013


 22 25  0  0  0  0  0  0  0  0999 V2000
    1.2396   -2.3230   20.5710 O   0  0  0  0  0  0  0  0  0  0  0  0
   -8.8134   -4.3111   24.1526 O   0  0  0  0  0  0  0  0  0  0  0  0
   -2.3404   -3.0064   20.3141 C   0  0  0  0  0  0  0  0  0  0  0  0
   -1.0158   -3.2141   21.0737 C   0  0  0  0  0  0  0  0  0  0  0  0
   -3.4310   -3.9882   20.7527 C   0  0  0  0  0  0  0  0  0  0  0  0
   -3.7039   -3.7879   22.2770 C   0  0  0  0  0  0  0  0  0  0  0  0
   -4.8471   -4.7268   22.8222 C   0  0  0  0  0  0  0  0  0  0  0  0
   -1.2750   -2.9398   22.5608 C   0  0  0  0  0  0  0  0  0  0  0  0
   -2.3949   -3.8404   23.1129 C   0  0  0  0  0  0  0  0  0  0  0  0
   -0.1500   -2.1532   20.3643 C   0  0  0  0  0  0  0  0  0  0  0  0
   -1.9104   -2.9784   18.8495 C   0  0  0  0  0  0  0  0  0  0  0  0
   -4.7240   -3.7820   19.9536 C   0  0  0  0  0  0  0  0  0  0  0  0
   -0.5348   -2.2886   18.8766 C   0  0  0  0  0  0  0  0  0  0  0  0
   -6.0710   -4.6299   21.9006 C   0  0  0  0  0  0  0  0  0  0  0  0
   -5.8155   -4.7385   20.4157 C   0  0  0  0  0  0  0  0  0  0  0  0
   -0.3884   -4.6206   20.9083 C   0  0  0  0  0  0  0  0  0  0  0  0
   -5.2243   -4.2563   24.2580 C   0  0  0  0  0  0  0  0  0  0  0  0
   -4.4051   -6.2061   22.8803 C   0  0  0  0  0  0  0  0  0  0  0  0
   -6.5480   -4.8156   24.7583 C   0  0  0  0  0  0  0  0  0  0  0  0
   -7.3307   -4.4790   22.3444 C   0  0  0  0  0  0  0  0  0  0  0  0
   -7.6540   -4.4877   23.7905 C   0  0  0  0  0  0  0  0  0  0  0  0
    1.4397   -2.2309   21.5156 H   0  0  0  0  0  0  0  0  0  0  0  0
  1 10  1  0
  1 22  1  0
  2 21  2  0
  3  4  1  0
  3  5  1  0
  3 11  1  0
  4  8  1  0
  4 10  1  0
  4 16  1  0
  5  6  1  0
  5 12  1  0
  6  7  1  0
  6  9  1  0
  7 14  1  0
  7 17  1  0
  7 18  1  0
  8  9  1  0
 10 13  1  0
 11 13  1  0
 12 15  1  0
 14 15  1  0
 14 20  2  0
 17 19  1  0
 19 21  1  0
 20 21  1  0
M  END
> <PUBCHEM_COMPOUND_CID>
6013

> <PUBCHEM_CONFORMER_RMSD>
0.6

> <PUBCHEM_CONFORMER_DIVERSEORDER>
1

> <PUBCHEM_MMFF94_PARTIAL_CHARGES>
11
1 -0.68
10 0.28
14 -0.28
15 0.14
19 0.06
2 -0.57
20 -0.14
21 0.49
48 0.15
49 0.4
7 0.14

> <PUBCHEM_EFFECTIVE_ROTOR_COUNT>
1.8

> <PUBCHEM_PHARMACOPHORE_FEATURES>
7
1 1 acceptor
1 1 donor
1 2 acceptor
5 3 4 10 11 13 rings
6 3 4 5 6 8 9 rings
6 5 6 7 12 14 15 rings
6 7 14 17 19 20 21 rings

> <PUBCHEM_HEAVY_ATOM_COUNT>
21

> <PUBCHEM_ATOM_DEF_STEREO_COUNT>
6

> <PUBCHEM_ATOM_UDEF_STEREO_COUNT>
0

> <PUBCHEM_BOND_DEF_STEREO_COUNT>
0

> <PUBCHEM_BOND_UDEF_STEREO_COUNT>
0

> <PUBCHEM_ISOTOPIC_ATOM_COUNT>
0

> <PUBCHEM_COMPONENT_COUNT>
1

> <PUBCHEM_CACTVS_TAUTO_COUNT>
5

> <PUBCHEM_CONFORMER_ID>
0000177D00000001

> <PUBCHEM_MMFF94_ENERGY>
67.5416

> <PUBCHEM_FEATURE_SELFOVERLAP>
35.618

> <PUBCHEM_SHAPE_FINGERPRINT>
10062212 137 18336825385559829163
10759866 29 17897457309511876188
10967382 1 18412548682291571786
11132069 177 18410018732180467827
11370993 70 18410569557056084199
11578080 2 16735503067342509174
12011746 2 18412547592124142406
12236239 1 18040155136873436768
12251169 10 18410008845387181634
12403259 226 18410006624652160988
12403259 415 18408880746209696412
12403260 363 18340481291412090749
12403814 3 17894914044785590877
12507557 5 18408881845467772304
12633257 1 18341888602346167976
12839892 36 18340758291450253690
13140716 1 18339643467883616216
13214271 11 18272369780793716703
13224815 77 18411987974316295335
13675066 3 18187087269080573787
14178342 30 18338527339117458393
14223421 5 18341052895787930134
14341114 176 18411985737129035682
14787075 74 18339640165090922602
14790565 3 18050014594947639924
15163728 17 14691189929019880809
15196674 1 18411420639180230811
15375358 24 18413110541697833299
15536298 74 18272376330249831326
15788980 27 17167859768361771669
16945 1 18267308633664624303
17349148 13 18260547844245275310
17492 89 18410012108956776131
1813 80 17168144512515476742
18186145 218 18411423903503023558
18522853 276 18412546492037592553
19050596 39 18410858775858764633
19784866 9 18412265021155473810
200 152 18202274819337965375
20715895 44 18116989984517715477
21033648 29 18262779827106925672
21267235 1 18410302427354843602
21421861 104 18042966467372004754
21637258 2 15647319828885568714
22182313 1 18189614934485510503
22854114 111 18409735070690792279
22854114 59 18343022189864506130
23402539 116 18272925046486162621
23557571 272 18059303161493107767
23559900 14 18343023255612643838
26918003 58 18409728456589012017
2748010 2 18410304609229794207
2838139 119 14835541671104639250
296302 2 16343984710473737934
335352 9 18411702045432157758
34934 24 18341610383102269379
350125 39 18410857681354741304
351380 180 18413386540454065762
3545911 37 18411703166439727155
42 15 18260548935156425576
5104073 3 18410294747868572393
59755656 215 18339930311854621398
633830 44 17988931080225984300
69090 78 18413386557386229218
7364860 26 18200601276388112774
9709674 26 18341058445033876271

> <PUBCHEM_SHAPE_MULTIPOLES>
420.43
9.43
2.1
1.06
1.16
0.42
0.43
-0.59
-2.56
-0.22
0.02
0.09
-0.22
0.11

> <PUBCHEM_SHAPE_SELFOVERLAP>
902.625

> <PUBCHEM_SHAPE_VOLUME>
230.1

> <PUBCHEM_COORDINATE_TYPE>
2
5
10

> <Energy>
71.9966

> <minimizedAffinity>
-8.92267

> <CNNscore>
0.4135496616

> <CNNaffinity>
7.2179656029

> <CNN_VS>
2.9849872589

> <CNNaffinity_variance>
0.2351935655

$$$$
6013


 22 25  0  0  0  0  0  0  0  0999 V2000
   -7.6108   -7.7705   24.2654 O   0  0  0  0  0  0  0  0  0  0  0  0
    1.1140   -2.0207   21.3225 O   0  0  0  0  0  0  0  0  0  0  0  0
   -4.7862   -6.7977   22.1620 C   0  0  0  0  0  0  0  0  0  0  0  0
   -5.9007   -6.3771   23.1396 C   0  0  0  0  0  0  0  0  0  0  0  0
   -4.1568   -5.6040   21.4377 C   0  0  0  0  0  0  0  0  0  0  0  0
   -3.5388   -4.6407   22.4999 C   0  0  0  0  0  0  0  0  0  0  0  0
   -2.8242   -3.3935   21.8521 C   0  0  0  0  0  0  0  0  0  0  0  0
   -5.2704   -5.4938   24.2241 C   0  0  0  0  0  0  0  0  0  0  0  0
   -4.5588   -4.2730   23.6131 C   0  0  0  0  0  0  0  0  0  0  0  0
   -6.3494   -7.7708   23.6241 C   0  0  0  0  0  0  0  0  0  0  0  0
   -5.4343   -7.9089   21.3398 C   0  0  0  0  0  0  0  0  0  0  0  0
   -3.0784   -6.0567   20.4452 C   0  0  0  0  0  0  0  0  0  0  0  0
   -6.3512   -8.6307   22.3434 C   0  0  0  0  0  0  0  0  0  0  0  0
   -1.8769   -3.8674   20.7409 C   0  0  0  0  0  0  0  0  0  0  0  0
   -2.4329   -4.8643   19.7514 C   0  0  0  0  0  0  0  0  0  0  0  0
   -7.0867   -5.6262   22.4849 C   0  0  0  0  0  0  0  0  0  0  0  0
   -2.0157   -2.6605   22.9631 C   0  0  0  0  0  0  0  0  0  0  0  0
   -3.8347   -2.4026   21.2322 C   0  0  0  0  0  0  0  0  0  0  0  0
   -0.9882   -1.6757   22.4247 C   0  0  0  0  0  0  0  0  0  0  0  0
   -0.6141   -3.4298   20.5984 C   0  0  0  0  0  0  0  0  0  0  0  0
   -0.0556   -2.3650   21.4644 C   0  0  0  0  0  0  0  0  0  0  0  0
   -7.5679   -7.2205   25.0633 H   0  0  0  0  0  0  0  0  0  0  0  0
  1 10  1  0
  1 22  1  0
  2 21  2  0
  3  4  1  0
  3  5  1  0
  3 11  1  0
  4  8  1  0
  4 10  1  0
  4 16  1  0
  5  6  1  0
  5 12  1  0
  6  7  1  0
  6  9  1  0
  7 14  1  0
  7 17  1  0
  7 18  1  0
  8  9  1  0
 10 13  1  0
 11 13  1  0
 12 15  1  0
 14 15  1  0
 14 20  2  0
 17 19  1  0
 19 21  1  0
 20 21  1  0
M  END
> <PUBCHEM_COMPOUND_CID>
6013

> <PUBCHEM_CONFORMER_RMSD>
0.6

> <PUBCHEM_CONFORMER_DIVERSEORDER>
1

> <PUBCHEM_MMFF94_PARTIAL_CHARGES>
11
1 -0.68
10 0.28
14 -0.28
15 0.14
19 0.06
2 -0.57
20 -0.14
21 0.49
48 0.15
49 0.4
7 0.14

> <PUBCHEM_EFFECTIVE_ROTOR_COUNT>
1.8

> <PUBCHEM_PHARMACOPHORE_FEATURES>
7
1 1 acceptor
1 1 donor
1 2 acceptor
5 3 4 10 11 13 rings
6 3 4 5 6 8 9 rings
6 5 6 7 12 14 15 rings
6 7 14 17 19 20 21 rings

> <PUBCHEM_HEAVY_ATOM_COUNT>
21

> <PUBCHEM_ATOM_DEF_STEREO_COUNT>
6

> <PUBCHEM_ATOM_UDEF_STEREO_COUNT>
0

> <PUBCHEM_BOND_DEF_STEREO_COUNT>
0

> <PUBCHEM_BOND_UDEF_STEREO_COUNT>
0

> <PUBCHEM_ISOTOPIC_ATOM_COUNT>
0

> <PUBCHEM_COMPONENT_COUNT>
1

> <PUBCHEM_CACTVS_TAUTO_COUNT>
5

> <PUBCHEM_CONFORMER_ID>
0000177D00000001

> <PUBCHEM_MMFF94_ENERGY>
67.5416

> <PUBCHEM_FEATURE_SELFOVERLAP>
35.618

> <PUBCHEM_SHAPE_FINGERPRINT>
10062212 137 18336825385559829163
10759866 29 17897457309511876188
10967382 1 18412548682291571786
11132069 177 18410018732180467827
11370993 70 18410569557056084199
11578080 2 16735503067342509174
12011746 2 18412547592124142406
12236239 1 18040155136873436768
12251169 10 18410008845387181634
12403259 226 18410006624652160988
12403259 415 18408880746209696412
12403260 363 18340481291412090749
12403814 3 17894914044785590877
12507557 5 18408881845467772304
12633257 1 18341888602346167976
12839892 36 18340758291450253690
13140716 1 18339643467883616216
13214271 11 18272369780793716703
13224815 77 18411987974316295335
13675066 3 18187087269080573787
14178342 30 18338527339117458393
14223421 5 18341052895787930134
14341114 176 18411985737129035682
14787075 74 18339640165090922602
14790565 3 18050014594947639924
15163728 17 14691189929019880809
15196674 1 18411420639180230811
15375358 24 18413110541697833299
15536298 74 18272376330249831326
15788980 27 17167859768361771669
16945 1 18267308633664624303
17349148 13 18260547844245275310
17492 89 18410012108956776131
1813 80 17168144512515476742
18186145 218 18411423903503023558
18522853 276 18412546492037592553
19050596 39 18410858775858764633
19784866 9 18412265021155473810
200 152 18202274819337965375
20715895 44 18116989984517715477
21033648 29 18262779827106925672
21267235 1 18410302427354843602
21421861 104 18042966467372004754
21637258 2 15647319828885568714
22182313 1 18189614934485510503
22854114 111 18409735070690792279
22854114 59 18343022189864506130
23402539 116 18272925046486162621
23557571 272 18059303161493107767
23559900 14 18343023255612643838
26918003 58 18409728456589012017
2748010 2 18410304609229794207
2838139 119 14835541671104639250
296302 2 16343984710473737934
335352 9 18411702045432157758
34934 24 18341610383102269379
350125 39 18410857681354741304
351380 180 18413386540454065762
3545911 37 18411703166439727155
42 15 18260548935156425576
5104073 3 18410294747868572393
59755656 215 18339930311854621398
633830 44 17988931080225984300
69090 78 18413386557386229218
7364860 26 18200601276388112774
9709674 26 18341058445033876271

> <PUBCHEM_SHAPE_MULTIPOLES>
420.43
9.43
2.1
1.06
1.16
0.42
0.43
-0.59
-2.56
-0.22
0.02
0.09
-0.22
0.11

> <PUBCHEM_SHAPE_SELFOVERLAP>
902.625

> <PUBCHEM_SHAPE_VOLUME>
230.1

> <PUBCHEM_COORDINATE_TYPE>
2
5
10

> <Energy>
71.9966

> <minimizedAffinity>
-4.43257

> <CNNscore>
0.4050564766

> <CNNaffinity>
6.6001453400

> <CNN_VS>
2.6734316349

> <CNNaffinity_variance>
0.1783069819

$$$$
6013


 22 25  0  0  0  0  0  0  0  0999 V2000
    0.3459   -2.7565   18.8048 O   0  0  0  0  0  0  0  0  0  0  0  0
   -6.7837   -8.2414   24.8815 O   0  0  0  0  0  0  0  0  0  0  0  0
   -1.9608   -3.3239   21.5808 C   0  0  0  0  0  0  0  0  0  0  0  0
   -1.5953   -3.5773   20.1054 C   0  0  0  0  0  0  0  0  0  0  0  0
   -3.4007   -3.7301   21.9089 C   0  0  0  0  0  0  0  0  0  0  0  0
   -3.5718   -5.2542   21.6166 C   0  0  0  0  0  0  0  0  0  0  0  0
   -5.0153   -5.7852   21.9636 C   0  0  0  0  0  0  0  0  0  0  0  0
   -1.6910   -5.0864   19.8465 C   0  0  0  0  0  0  0  0  0  0  0  0
   -3.0910   -5.6288   20.1871 C   0  0  0  0  0  0  0  0  0  0  0  0
   -0.1602   -3.0126   20.1012 C   0  0  0  0  0  0  0  0  0  0  0  0
   -1.5243   -1.8795   21.8130 C   0  0  0  0  0  0  0  0  0  0  0  0
   -3.7465   -3.4315   23.3733 C   0  0  0  0  0  0  0  0  0  0  0  0
   -0.2603   -1.7271   20.9481 C   0  0  0  0  0  0  0  0  0  0  0  0
   -5.4045   -5.3223   23.3747 C   0  0  0  0  0  0  0  0  0  0  0  0
   -5.1683   -3.8669   23.7032 C   0  0  0  0  0  0  0  0  0  0  0  0
   -2.4759   -2.8193   19.0810 C   0  0  0  0  0  0  0  0  0  0  0  0
   -4.9928   -7.3412   21.9020 C   0  0  0  0  0  0  0  0  0  0  0  0
   -6.0801   -5.2605   20.9748 C   0  0  0  0  0  0  0  0  0  0  0  0
   -6.1916   -7.9984   22.5699 C   0  0  0  0  0  0  0  0  0  0  0  0
   -5.9528   -6.1275   24.3006 C   0  0  0  0  0  0  0  0  0  0  0  0
   -6.3179   -7.5310   23.9957 C   0  0  0  0  0  0  0  0  0  0  0  0
    0.3932   -3.5871   18.3061 H   0  0  0  0  0  0  0  0  0  0  0  0
  1 10  1  0
  1 22  1  0
  2 21  2  0
  3  4  1  0
  3  5  1  0
  3 11  1  0
  4  8  1  0
  4 10  1  0
  4 16  1  0
  5  6  1  0
  5 12  1  0
  6  7  1  0
  6  9  1  0
  7 14  1  0
  7 17  1  0
  7 18  1  0
  8  9  1  0
 10 13  1  0
 11 13  1  0
 12 15  1  0
 14 15  1  0
 14 20  2  0
 17 19  1  0
 19 21  1  0
 20 21  1  0
M  END
> <PUBCHEM_COMPOUND_CID>
6013

> <PUBCHEM_CONFORMER_RMSD>
0.6

> <PUBCHEM_CONFORMER_DIVERSEORDER>
1

> <PUBCHEM_MMFF94_PARTIAL_CHARGES>
11
1 -0.68
10 0.28
14 -0.28
15 0.14
19 0.06
2 -0.57
20 -0.14
21 0.49
48 0.15
49 0.4
7 0.14

> <PUBCHEM_EFFECTIVE_ROTOR_COUNT>
1.8

> <PUBCHEM_PHARMACOPHORE_FEATURES>
7
1 1 acceptor
1 1 donor
1 2 acceptor
5 3 4 10 11 13 rings
6 3 4 5 6 8 9 rings
6 5 6 7 12 14 15 rings
6 7 14 17 19 20 21 rings

> <PUBCHEM_HEAVY_ATOM_COUNT>
21

> <PUBCHEM_ATOM_DEF_STEREO_COUNT>
6

> <PUBCHEM_ATOM_UDEF_STEREO_COUNT>
0

> <PUBCHEM_BOND_DEF_STEREO_COUNT>
0

> <PUBCHEM_BOND_UDEF_STEREO_COUNT>
0

> <PUBCHEM_ISOTOPIC_ATOM_COUNT>
0

> <PUBCHEM_COMPONENT_COUNT>
1

> <PUBCHEM_CACTVS_TAUTO_COUNT>
5

> <PUBCHEM_CONFORMER_ID>
0000177D00000001

> <PUBCHEM_MMFF94_ENERGY>
67.5416

> <PUBCHEM_FEATURE_SELFOVERLAP>
35.618

> <PUBCHEM_SHAPE_FINGERPRINT>
10062212 137 18336825385559829163
10759866 29 17897457309511876188
10967382 1 18412548682291571786
11132069 177 18410018732180467827
11370993 70 18410569557056084199
11578080 2 16735503067342509174
12011746 2 18412547592124142406
12236239 1 18040155136873436768
12251169 10 18410008845387181634
12403259 226 18410006624652160988
12403259 415 18408880746209696412
12403260 363 18340481291412090749
12403814 3 17894914044785590877
12507557 5 18408881845467772304
12633257 1 18341888602346167976
12839892 36 18340758291450253690
13140716 1 18339643467883616216
13214271 11 18272369780793716703
13224815 77 18411987974316295335
13675066 3 18187087269080573787
14178342 30 18338527339117458393
14223421 5 18341052895787930134
14341114 176 18411985737129035682
14787075 74 18339640165090922602
14790565 3 18050014594947639924
15163728 17 14691189929019880809
15196674 1 18411420639180230811
15375358 24 18413110541697833299
15536298 74 18272376330249831326
15788980 27 17167859768361771669
16945 1 18267308633664624303
17349148 13 18260547844245275310
17492 89 18410012108956776131
1813 80 17168144512515476742
18186145 218 18411423903503023558
18522853 276 18412546492037592553
19050596 39 18410858775858764633
19784866 9 18412265021155473810
200 152 18202274819337965375
20715895 44 18116989984517715477
21033648 29 18262779827106925672
21267235 1 18410302427354843602
21421861 104 18042966467372004754
21637258 2 15647319828885568714
22182313 1 18189614934485510503
22854114 111 18409735070690792279
22854114 59 18343022189864506130
23402539 116 18272925046486162621
23557571 272 18059303161493107767
23559900 14 18343023255612643838
26918003 58 18409728456589012017
2748010 2 18410304609229794207
2838139 119 14835541671104639250
296302 2 16343984710473737934
335352 9 18411702045432157758
34934 24 18341610383102269379
350125 39 18410857681354741304
351380 180 18413386540454065762
3545911 37 18411703166439727155
42 15 18260548935156425576
5104073 3 18410294747868572393
59755656 215 18339930311854621398
633830 44 17988931080225984300
69090 78 18413386557386229218
7364860 26 18200601276388112774
9709674 26 18341058445033876271

> <PUBCHEM_SHAPE_MULTIPOLES>
420.43
9.43
2.1
1.06
1.16
0.42
0.43
-0.59
-2.56
-0.22
0.02
0.09
-0.22
0.11

> <PUBCHEM_SHAPE_SELFOVERLAP>
902.625

> <PUBCHEM_SHAPE_VOLUME>
230.1

> <PUBCHEM_COORDINATE_TYPE>
2
5
10

> <Energy>
71.9966

> <minimizedAffinity>
-6.80475

> <CNNscore>
0.3142664731

> <CNNaffinity>
6.5902848244

> <CNN_VS>
2.0711054802

> <CNNaffinity_variance>
0.2127525657

$$$$
6013


 22 25  0  0  0  0  0  0  0  0999 V2000
   -8.6465   -5.2901   24.6549 O   0  0  0  0  0  0  0  0  0  0  0  0
    1.2243   -2.7228   20.9375 O   0  0  0  0  0  0  0  0  0  0  0  0
   -5.3960   -5.8659   23.0889 C   0  0  0  0  0  0  0  0  0  0  0  0
   -6.5795   -4.9125   23.3440 C   0  0  0  0  0  0  0  0  0  0  0  0
   -4.4792   -5.3785   21.9631 C   0  0  0  0  0  0  0  0  0  0  0  0
   -3.9059   -3.9792   22.3523 C   0  0  0  0  0  0  0  0  0  0  0  0
   -2.9106   -3.4044   21.2730 C   0  0  0  0  0  0  0  0  0  0  0  0
   -6.0103   -3.5630   23.8005 C   0  0  0  0  0  0  0  0  0  0  0  0
   -5.0280   -2.9864   22.7647 C   0  0  0  0  0  0  0  0  0  0  0  0
   -7.3112   -5.7084   24.4438 C   0  0  0  0  0  0  0  0  0  0  0  0
   -6.0612   -7.2345   22.9662 C   0  0  0  0  0  0  0  0  0  0  0  0
   -3.3332   -6.3656   21.7076 C   0  0  0  0  0  0  0  0  0  0  0  0
   -7.2321   -7.1721   23.9633 C   0  0  0  0  0  0  0  0  0  0  0  0
   -1.8759   -4.4783   20.9087 C   0  0  0  0  0  0  0  0  0  0  0  0
   -2.4060   -5.8610   20.6097 C   0  0  0  0  0  0  0  0  0  0  0  0
   -7.5106   -4.6960   22.1252 C   0  0  0  0  0  0  0  0  0  0  0  0
   -2.1952   -2.1611   21.8794 C   0  0  0  0  0  0  0  0  0  0  0  0
   -3.6396   -2.9804   19.9785 C   0  0  0  0  0  0  0  0  0  0  0  0
   -0.9536   -1.7330   21.1109 C   0  0  0  0  0  0  0  0  0  0  0  0
   -0.5550   -4.2452   20.8238 C   0  0  0  0  0  0  0  0  0  0  0  0
    0.0086   -2.8845   20.9876 C   0  0  0  0  0  0  0  0  0  0  0  0
   -8.6529   -4.3678   24.9552 H   0  0  0  0  0  0  0  0  0  0  0  0
  1 10  1  0
  1 22  1  0
  2 21  2  0
  3  4  1  0
  3  5  1  0
  3 11  1  0
  4  8  1  0
  4 10  1  0
  4 16  1  0
  5  6  1  0
  5 12  1  0
  6  7  1  0
  6  9  1  0
  7 14  1  0
  7 17  1  0
  7 18  1  0
  8  9  1  0
 10 13  1  0
 11 13  1  0
 12 15  1  0
 14 15  1  0
 14 20  2  0
 17 19  1  0
 19 21  1  0
 20 21  1  0
M  END
> <PUBCHEM_COMPOUND_CID>
6013

> <PUBCHEM_CONFORMER_RMSD>
0.6

> <PUBCHEM_CONFORMER_DIVERSEORDER>
1

> <PUBCHEM_MMFF94_PARTIAL_CHARGES>
11
1 -0.68
10 0.28
14 -0.28
15 0.14
19 0.06
2 -0.57
20 -0.14
21 0.49
48 0.15
49 0.4
7 0.14

> <PUBCHEM_EFFECTIVE_ROTOR_COUNT>
1.8

> <PUBCHEM_PHARMACOPHORE_FEATURES>
7
1 1 acceptor
1 1 donor
1 2 acceptor
5 3 4 10 11 13 rings
6 3 4 5 6 8 9 rings
6 5 6 7 12 14 15 rings
6 7 14 17 19 20 21 rings

> <PUBCHEM_HEAVY_ATOM_COUNT>
21

> <PUBCHEM_ATOM_DEF_STEREO_COUNT>
6

> <PUBCHEM_ATOM_UDEF_STEREO_COUNT>
0

> <PUBCHEM_BOND_DEF_STEREO_COUNT>
0

> <PUBCHEM_BOND_UDEF_STEREO_COUNT>
0

> <PUBCHEM_ISOTOPIC_ATOM_COUNT>
0

> <PUBCHEM_COMPONENT_COUNT>
1

> <PUBCHEM_CACTVS_TAUTO_COUNT>
5

> <PUBCHEM_CONFORMER_ID>
0000177D00000001

> <PUBCHEM_MMFF94_ENERGY>
67.5416

> <PUBCHEM_FEATURE_SELFOVERLAP>
35.618

> <PUBCHEM_SHAPE_FINGERPRINT>
10062212 137 18336825385559829163
10759866 29 17897457309511876188
10967382 1 18412548682291571786
11132069 177 18410018732180467827
11370993 70 18410569557056084199
11578080 2 16735503067342509174
12011746 2 18412547592124142406
12236239 1 18040155136873436768
12251169 10 18410008845387181634
12403259 226 18410006624652160988
12403259 415 18408880746209696412
12403260 363 18340481291412090749
12403814 3 17894914044785590877
12507557 5 18408881845467772304
12633257 1 18341888602346167976
12839892 36 18340758291450253690
13140716 1 18339643467883616216
13214271 11 18272369780793716703
13224815 77 18411987974316295335
13675066 3 18187087269080573787
14178342 30 18338527339117458393
14223421 5 18341052895787930134
14341114 176 18411985737129035682
14787075 74 18339640165090922602
14790565 3 18050014594947639924
15163728 17 14691189929019880809
15196674 1 18411420639180230811
15375358 24 18413110541697833299
15536298 74 18272376330249831326
15788980 27 17167859768361771669
16945 1 18267308633664624303
17349148 13 18260547844245275310
17492 89 18410012108956776131
1813 80 17168144512515476742
18186145 218 18411423903503023558
18522853 276 18412546492037592553
19050596 39 18410858775858764633
19784866 9 18412265021155473810
200 152 18202274819337965375
20715895 44 18116989984517715477
21033648 29 18262779827106925672
21267235 1 18410302427354843602
21421861 104 18042966467372004754
21637258 2 15647319828885568714
22182313 1 18189614934485510503
22854114 111 18409735070690792279
22854114 59 18343022189864506130
23402539 116 18272925046486162621
23557571 272 18059303161493107767
23559900 14 18343023255612643838
26918003 58 18409728456589012017
2748010 2 18410304609229794207
2838139 119 14835541671104639250
296302 2 16343984710473737934
335352 9 18411702045432157758
34934 24 18341610383102269379
350125 39 18410857681354741304
351380 180 18413386540454065762
3545911 37 18411703166439727155
42 15 18260548935156425576
5104073 3 18410294747868572393
59755656 215 18339930311854621398
633830 44 17988931080225984300
69090 78 18413386557386229218
7364860 26 18200601276388112774
9709674 26 18341058445033876271

> <PUBCHEM_SHAPE_MULTIPOLES>
420.43
9.43
2.1
1.06
1.16
0.42
0.43
-0.59
-2.56
-0.22
0.02
0.09
-0.22
0.11

> <PUBCHEM_SHAPE_SELFOVERLAP>
902.625

> <PUBCHEM_SHAPE_VOLUME>
230.1

> <PUBCHEM_COORDINATE_TYPE>
2
5
10

> <Energy>
71.9966

> <minimizedAffinity>
-7.75264

> <CNNscore>
0.2780719697

> <CNNaffinity>
6.9754290581

> <CNN_VS>
1.9396712780

> <CNNaffinity_variance>
0.2720277607

$$$$
6013


 22 25  0  0  0  0  0  0  0  0999 V2000
   -3.0403   -4.0292   25.3717 O   0  0  0  0  0  0  0  0  0  0  0  0
   -2.3421   -1.0767   14.9488 O   0  0  0  0  0  0  0  0  0  0  0  0
   -1.6805   -2.2899   22.4606 C   0  0  0  0  0  0  0  0  0  0  0  0
   -2.3748   -3.5390   23.0371 C   0  0  0  0  0  0  0  0  0  0  0  0
   -1.1466   -2.5146   21.0428 C   0  0  0  0  0  0  0  0  0  0  0  0
   -2.3415   -2.8858   20.1088 C   0  0  0  0  0  0  0  0  0  0  0  0
   -1.9029   -3.0972   18.6092 C   0  0  0  0  0  0  0  0  0  0  0  0
   -3.5930   -3.8514   22.1583 C   0  0  0  0  0  0  0  0  0  0  0  0
   -3.1889   -4.0533   20.6866 C   0  0  0  0  0  0  0  0  0  0  0  0
   -2.7149   -3.0102   24.4454 C   0  0  0  0  0  0  0  0  0  0  0  0
   -0.7090   -1.8807   23.5649 C   0  0  0  0  0  0  0  0  0  0  0  0
   -0.4287   -1.2677   20.5109 C   0  0  0  0  0  0  0  0  0  0  0  0
   -1.4549   -2.2260   24.8662 C   0  0  0  0  0  0  0  0  0  0  0  0
   -1.0384   -1.9117   18.1577 C   0  0  0  0  0  0  0  0  0  0  0  0
    0.0719   -1.4849   19.0889 C   0  0  0  0  0  0  0  0  0  0  0  0
   -1.4721   -4.7938   23.1359 C   0  0  0  0  0  0  0  0  0  0  0  0
   -3.1861   -3.1842   17.7312 C   0  0  0  0  0  0  0  0  0  0  0  0
   -1.0798   -4.3912   18.4220 C   0  0  0  0  0  0  0  0  0  0  0  0
   -2.9230   -3.0111   16.2425 C   0  0  0  0  0  0  0  0  0  0  0  0
   -1.2057   -1.2665   16.9906 C   0  0  0  0  0  0  0  0  0  0  0  0
   -2.1978   -1.7166   15.9861 C   0  0  0  0  0  0  0  0  0  0  0  0
   -3.8354   -4.4970   25.0719 H   0  0  0  0  0  0  0  0  0  0  0  0
  1 10  1  0
  1 22  1  0
  2 21  2  0
  3  4  1  0
  3  5  1  0
  3 11  1  0
  4  8  1  0
  4 10  1  0
  4 16  1  0
  5  6  1  0
  5 12  1  0
  6  7  1  0
  6  9  1  0
  7 14  1  0
  7 17  1  0
  7 18  1  0
  8  9  1  0
 10 13  1  0
 11 13  1  0
 12 15  1  0
 14 15  1  0
 14 20  2  0
 17 19  1  0
 19 21  1  0
 20 21  1  0
M  END
> <PUBCHEM_COMPOUND_CID>
6013

> <PUBCHEM_CONFORMER_RMSD>
0.6

> <PUBCHEM_CONFORMER_DIVERSEORDER>
1

> <PUBCHEM_MMFF94_PARTIAL_CHARGES>
11
1 -0.68
10 0.28
14 -0.28
15 0.14
19 0.06
2 -0.57
20 -0.14
21 0.49
48 0.15
49 0.4
7 0.14

> <PUBCHEM_EFFECTIVE_ROTOR_COUNT>
1.8

> <PUBCHEM_PHARMACOPHORE_FEATURES>
7
1 1 acceptor
1 1 donor
1 2 acceptor
5 3 4 10 11 13 rings
6 3 4 5 6 8 9 rings
6 5 6 7 12 14 15 rings
6 7 14 17 19 20 21 rings

> <PUBCHEM_HEAVY_ATOM_COUNT>
21

> <PUBCHEM_ATOM_DEF_STEREO_COUNT>
6

> <PUBCHEM_ATOM_UDEF_STEREO_COUNT>
0

> <PUBCHEM_BOND_DEF_STEREO_COUNT>
0

> <PUBCHEM_BOND_UDEF_STEREO_COUNT>
0

> <PUBCHEM_ISOTOPIC_ATOM_COUNT>
0

> <PUBCHEM_COMPONENT_COUNT>
1

> <PUBCHEM_CACTVS_TAUTO_COUNT>
5

> <PUBCHEM_CONFORMER_ID>
0000177D00000001

> <PUBCHEM_MMFF94_ENERGY>
67.5416

> <PUBCHEM_FEATURE_SELFOVERLAP>
35.618

> <PUBCHEM_SHAPE_FINGERPRINT>
10062212 137 18336825385559829163
10759866 29 17897457309511876188
10967382 1 18412548682291571786
11132069 177 18410018732180467827
11370993 70 18410569557056084199
11578080 2 16735503067342509174
12011746 2 18412547592124142406
12236239 1 18040155136873436768
12251169 10 18410008845387181634
12403259 226 18410006624652160988
12403259 415 18408880746209696412
12403260 363 18340481291412090749
12403814 3 17894914044785590877
12507557 5 18408881845467772304
12633257 1 18341888602346167976
12839892 36 18340758291450253690
13140716 1 18339643467883616216
13214271 11 18272369780793716703
13224815 77 18411987974316295335
13675066 3 18187087269080573787
14178342 30 18338527339117458393
14223421 5 18341052895787930134
14341114 176 18411985737129035682
14787075 74 18339640165090922602
14790565 3 18050014594947639924
15163728 17 14691189929019880809
15196674 1 18411420639180230811
15375358 24 18413110541697833299
15536298 74 18272376330249831326
15788980 27 17167859768361771669
16945 1 18267308633664624303
17349148 13 18260547844245275310
17492 89 18410012108956776131
1813 80 17168144512515476742
18186145 218 18411423903503023558
18522853 276 18412546492037592553
19050596 39 18410858775858764633
19784866 9 18412265021155473810
200 152 18202274819337965375
20715895 44 18116989984517715477
21033648 29 18262779827106925672
21267235 1 18410302427354843602
21421861 104 18042966467372004754
21637258 2 15647319828885568714
22182313 1 18189614934485510503
22854114 111 18409735070690792279
22854114 59 18343022189864506130
23402539 116 18272925046486162621
23557571 272 18059303161493107767
23559900 14 18343023255612643838
26918003 58 18409728456589012017
2748010 2 18410304609229794207
2838139 119 14835541671104639250
296302 2 16343984710473737934
335352 9 18411702045432157758
34934 24 18341610383102269379
350125 39 18410857681354741304
351380 180 18413386540454065762
3545911 37 18411703166439727155
42 15 18260548935156425576
5104073 3 18410294747868572393
59755656 215 18339930311854621398
633830 44 17988931080225984300
69090 78 18413386557386229218
7364860 26 18200601276388112774
9709674 26 18341058445033876271

> <PUBCHEM_SHAPE_MULTIPOLES>
420.43
9.43
2.1
1.06
1.16
0.42
0.43
-0.59
-2.56
-0.22
0.02
0.09
-0.22
0.11

> <PUBCHEM_SHAPE_SELFOVERLAP>
902.625

> <PUBCHEM_SHAPE_VOLUME>
230.1

> <PUBCHEM_COORDINATE_TYPE>
2
5
10

> <Energy>
71.9966

> <minimizedAffinity>
23.31900

> <CNNscore>
0.1755582541

> <CNNaffinity>
4.4318504333

> <CNN_VS>
0.7780479193

> <CNNaffinity_variance>
0.4189121425

$$$$
