6013


 22 25  0  0  0  0  0  0  0  0999 V2000
   26.8154    3.9817   10.9300 O   0  0  0  0  0  0  0  0  0  0  0  0
   21.0766    2.5592    1.8258 O   0  0  0  0  0  0  0  0  0  0  0  0
   23.8411    3.3620    8.9004 C   0  0  0  0  0  0  0  0  0  0  0  0
   25.2063    4.0614    9.0490 C   0  0  0  0  0  0  0  0  0  0  0  0
   23.0127    3.9276    7.7430 C   0  0  0  0  0  0  0  0  0  0  0  0
   23.8091    3.7349    6.4139 C   0  0  0  0  0  0  0  0  0  0  0  0
   23.0208    4.2483    5.1486 C   0  0  0  0  0  0  0  0  0  0  0  0
   26.0127    3.8020    7.7699 C   0  0  0  0  0  0  0  0  0  0  0  0
   25.2574    4.2881    6.5195 C   0  0  0  0  0  0  0  0  0  0  0  0
   25.7298    3.3277   10.3005 C   0  0  0  0  0  0  0  0  0  0  0  0
   23.2661    3.3991   10.3141 C   0  0  0  0  0  0  0  0  0  0  0  0
   21.6460    3.2382    7.6438 C   0  0  0  0  0  0  0  0  0  0  0  0
   24.4971    3.2332   11.2231 C   0  0  0  0  0  0  0  0  0  0  0  0
   21.5956    3.6781    5.1684 C   0  0  0  0  0  0  0  0  0  0  0  0
   20.8390    3.7812    6.4718 C   0  0  0  0  0  0  0  0  0  0  0  0
   25.1274    5.5859    9.3112 C   0  0  0  0  0  0  0  0  0  0  0  0
   23.7706    3.7613    3.8735 C   0  0  0  0  0  0  0  0  0  0  0  0
   22.9214    5.7897    5.1126 C   0  0  0  0  0  0  0  0  0  0  0  0
   22.9406    3.8541    2.6015 C   0  0  0  0  0  0  0  0  0  0  0  0
   20.9970    3.1253    4.0995 C   0  0  0  0  0  0  0  0  0  0  0  0
   21.6443    3.1060    2.7666 C   0  0  0  0  0  0  0  0  0  0  0  0
   27.5678    4.0205   10.3191 H   0  0  0  0  0  0  0  0  0  0  0  0
  1 10  1  0
  1 22  1  0
  2 21  2  0
  3  4  1  0
  3  5  1  0
  3 11  1  0
  4  8  1  0
  4 10  1  0
  4 16  1  0
  5  6  1  0
  5 12  1  0
  6  7  1  0
  6  9  1  0
  7 14  1  0
  7 17  1  0
  7 18  1  0
  8  9  1  0
 10 13  1  0
 11 13  1  0
 12 15  1  0
 14 15  1  0
 14 20  2  0
 17 19  1  0
 19 21  1  0
 20 21  1  0
M  END
> <PUBCHEM_COMPOUND_CID>
6013

> <PUBCHEM_CONFORMER_RMSD>
0.6

> <PUBCHEM_CONFORMER_DIVERSEORDER>
1

> <PUBCHEM_MMFF94_PARTIAL_CHARGES>
11
1 -0.68
10 0.28
14 -0.28
15 0.14
19 0.06
2 -0.57
20 -0.14
21 0.49
48 0.15
49 0.4
7 0.14

> <PUBCHEM_EFFECTIVE_ROTOR_COUNT>
1.8

> <PUBCHEM_PHARMACOPHORE_FEATURES>
7
1 1 acceptor
1 1 donor
1 2 acceptor
5 3 4 10 11 13 rings
6 3 4 5 6 8 9 rings
6 5 6 7 12 14 15 rings
6 7 14 17 19 20 21 rings

> <PUBCHEM_HEAVY_ATOM_COUNT>
21

> <PUBCHEM_ATOM_DEF_STEREO_COUNT>
6

> <PUBCHEM_ATOM_UDEF_STEREO_COUNT>
0

> <PUBCHEM_BOND_DEF_STEREO_COUNT>
0

> <PUBCHEM_BOND_UDEF_STEREO_COUNT>
0

> <PUBCHEM_ISOTOPIC_ATOM_COUNT>
0

> <PUBCHEM_COMPONENT_COUNT>
1

> <PUBCHEM_CACTVS_TAUTO_COUNT>
5

> <PUBCHEM_CONFORMER_ID>
0000177D00000001

> <PUBCHEM_MMFF94_ENERGY>
67.5416

> <PUBCHEM_FEATURE_SELFOVERLAP>
35.618

> <PUBCHEM_SHAPE_FINGERPRINT>
10062212 137 18336825385559829163
10759866 29 17897457309511876188
10967382 1 18412548682291571786
11132069 177 18410018732180467827
11370993 70 18410569557056084199
11578080 2 16735503067342509174
12011746 2 18412547592124142406
12236239 1 18040155136873436768
12251169 10 18410008845387181634
12403259 226 18410006624652160988
12403259 415 18408880746209696412
12403260 363 18340481291412090749
12403814 3 17894914044785590877
12507557 5 18408881845467772304
12633257 1 18341888602346167976
12839892 36 18340758291450253690
13140716 1 18339643467883616216
13214271 11 18272369780793716703
13224815 77 18411987974316295335
13675066 3 18187087269080573787
14178342 30 18338527339117458393
14223421 5 18341052895787930134
14341114 176 18411985737129035682
14787075 74 18339640165090922602
14790565 3 18050014594947639924
15163728 17 14691189929019880809
15196674 1 18411420639180230811
15375358 24 18413110541697833299
15536298 74 18272376330249831326
15788980 27 17167859768361771669
16945 1 18267308633664624303
17349148 13 18260547844245275310
17492 89 18410012108956776131
1813 80 17168144512515476742
18186145 218 18411423903503023558
18522853 276 18412546492037592553
19050596 39 18410858775858764633
19784866 9 18412265021155473810
200 152 18202274819337965375
20715895 44 18116989984517715477
21033648 29 18262779827106925672
21267235 1 18410302427354843602
21421861 104 18042966467372004754
21637258 2 15647319828885568714
22182313 1 18189614934485510503
22854114 111 18409735070690792279
22854114 59 18343022189864506130
23402539 116 18272925046486162621
23557571 272 18059303161493107767
23559900 14 18343023255612643838
26918003 58 18409728456589012017
2748010 2 18410304609229794207
2838139 119 14835541671104639250
296302 2 16343984710473737934
335352 9 18411702045432157758
34934 24 18341610383102269379
350125 39 18410857681354741304
351380 180 18413386540454065762
3545911 37 18411703166439727155
42 15 18260548935156425576
5104073 3 18410294747868572393
59755656 215 18339930311854621398
633830 44 17988931080225984300
69090 78 18413386557386229218
7364860 26 18200601276388112774
9709674 26 18341058445033876271

> <PUBCHEM_SHAPE_MULTIPOLES>
420.43
9.43
2.1
1.06
1.16
0.42
0.43
-0.59
-2.56
-0.22
0.02
0.09
-0.22
0.11

> <PUBCHEM_SHAPE_SELFOVERLAP>
902.625

> <PUBCHEM_SHAPE_VOLUME>
230.1

> <PUBCHEM_COORDINATE_TYPE>
2
5
10

> <Energy>
71.9966

> <minimizedAffinity>
-10.47013

> <CNNscore>
0.9164310098

> <CNNaffinity>
8.0017690659

> <CNN_VS>
7.3330693245

> <CNNaffinity_variance>
0.5502626300

$$$$
6013


 22 25  0  0  0  0  0  0  0  0999 V2000
   21.1840    4.9244    2.3933 O   0  0  0  0  0  0  0  0  0  0  0  0
   25.8862    4.2582   12.1548 O   0  0  0  0  0  0  0  0  0  0  0  0
   21.7394    3.6448    5.7702 C   0  0  0  0  0  0  0  0  0  0  0  0
   22.3300    4.2549    4.4842 C   0  0  0  0  0  0  0  0  0  0  0  0
   22.8147    3.0700    6.6970 C   0  0  0  0  0  0  0  0  0  0  0  0
   23.7930    4.2170    7.1035 C   0  0  0  0  0  0  0  0  0  0  0  0
   24.9194    3.7368    8.0968 C   0  0  0  0  0  0  0  0  0  0  0  0
   23.2295    5.4303    4.8878 C   0  0  0  0  0  0  0  0  0  0  0  0
   24.3325    4.9858    5.8655 C   0  0  0  0  0  0  0  0  0  0  0  0
   21.0221    4.6588    3.7737 C   0  0  0  0  0  0  0  0  0  0  0  0
   20.6344    2.7265    5.2539 C   0  0  0  0  0  0  0  0  0  0  0  0
   22.1944    2.4371    7.9491 C   0  0  0  0  0  0  0  0  0  0  0  0
   20.0744    3.4682    4.0270 C   0  0  0  0  0  0  0  0  0  0  0  0
   24.2812    2.9546    9.2534 C   0  0  0  0  0  0  0  0  0  0  0  0
   23.2691    1.8961    8.8829 C   0  0  0  0  0  0  0  0  0  0  0  0
   23.1355    3.2635    3.6082 C   0  0  0  0  0  0  0  0  0  0  0  0
   25.6553    4.9939    8.6475 C   0  0  0  0  0  0  0  0  0  0  0  0
   25.9498    2.8167    7.4050 C   0  0  0  0  0  0  0  0  0  0  0  0
   26.5006    4.7174    9.8822 C   0  0  0  0  0  0  0  0  0  0  0  0
   24.5906    3.1481   10.5469 C   0  0  0  0  0  0  0  0  0  0  0  0
   25.6609    4.0857   10.9607 C   0  0  0  0  0  0  0  0  0  0  0  0
   21.7847    5.6770    2.2770 H   0  0  0  0  0  0  0  0  0  0  0  0
  1 10  1  0
  1 22  1  0
  2 21  2  0
  3  4  1  0
  3  5  1  0
  3 11  1  0
  4  8  1  0
  4 10  1  0
  4 16  1  0
  5  6  1  0
  5 12  1  0
  6  7  1  0
  6  9  1  0
  7 14  1  0
  7 17  1  0
  7 18  1  0
  8  9  1  0
 10 13  1  0
 11 13  1  0
 12 15  1  0
 14 15  1  0
 14 20  2  0
 17 19  1  0
 19 21  1  0
 20 21  1  0
M  END
> <PUBCHEM_COMPOUND_CID>
6013

> <PUBCHEM_CONFORMER_RMSD>
0.6

> <PUBCHEM_CONFORMER_DIVERSEORDER>
1

> <PUBCHEM_MMFF94_PARTIAL_CHARGES>
11
1 -0.68
10 0.28
14 -0.28
15 0.14
19 0.06
2 -0.57
20 -0.14
21 0.49
48 0.15
49 0.4
7 0.14

> <PUBCHEM_EFFECTIVE_ROTOR_COUNT>
1.8

> <PUBCHEM_PHARMACOPHORE_FEATURES>
7
1 1 acceptor
1 1 donor
1 2 acceptor
5 3 4 10 11 13 rings
6 3 4 5 6 8 9 rings
6 5 6 7 12 14 15 rings
6 7 14 17 19 20 21 rings

> <PUBCHEM_HEAVY_ATOM_COUNT>
21

> <PUBCHEM_ATOM_DEF_STEREO_COUNT>
6

> <PUBCHEM_ATOM_UDEF_STEREO_COUNT>
0

> <PUBCHEM_BOND_DEF_STEREO_COUNT>
0

> <PUBCHEM_BOND_UDEF_STEREO_COUNT>
0

> <PUBCHEM_ISOTOPIC_ATOM_COUNT>
0

> <PUBCHEM_COMPONENT_COUNT>
1

> <PUBCHEM_CACTVS_TAUTO_COUNT>
5

> <PUBCHEM_CONFORMER_ID>
0000177D00000001

> <PUBCHEM_MMFF94_ENERGY>
67.5416

> <PUBCHEM_FEATURE_SELFOVERLAP>
35.618

> <PUBCHEM_SHAPE_FINGERPRINT>
10062212 137 18336825385559829163
10759866 29 17897457309511876188
10967382 1 18412548682291571786
11132069 177 18410018732180467827
11370993 70 18410569557056084199
11578080 2 16735503067342509174
12011746 2 18412547592124142406
12236239 1 18040155136873436768
12251169 10 18410008845387181634
12403259 226 18410006624652160988
12403259 415 18408880746209696412
12403260 363 18340481291412090749
12403814 3 17894914044785590877
12507557 5 18408881845467772304
12633257 1 18341888602346167976
12839892 36 18340758291450253690
13140716 1 18339643467883616216
13214271 11 18272369780793716703
13224815 77 18411987974316295335
13675066 3 18187087269080573787
14178342 30 18338527339117458393
14223421 5 18341052895787930134
14341114 176 18411985737129035682
14787075 74 18339640165090922602
14790565 3 18050014594947639924
15163728 17 14691189929019880809
15196674 1 18411420639180230811
15375358 24 18413110541697833299
15536298 74 18272376330249831326
15788980 27 17167859768361771669
16945 1 18267308633664624303
17349148 13 18260547844245275310
17492 89 18410012108956776131
1813 80 17168144512515476742
18186145 218 18411423903503023558
18522853 276 18412546492037592553
19050596 39 18410858775858764633
19784866 9 18412265021155473810
200 152 18202274819337965375
20715895 44 18116989984517715477
21033648 29 18262779827106925672
21267235 1 18410302427354843602
21421861 104 18042966467372004754
21637258 2 15647319828885568714
22182313 1 18189614934485510503
22854114 111 18409735070690792279
22854114 59 18343022189864506130
23402539 116 18272925046486162621
23557571 272 18059303161493107767
23559900 14 18343023255612643838
26918003 58 18409728456589012017
2748010 2 18410304609229794207
2838139 119 14835541671104639250
296302 2 16343984710473737934
335352 9 18411702045432157758
34934 24 18341610383102269379
350125 39 18410857681354741304
351380 180 18413386540454065762
3545911 37 18411703166439727155
42 15 18260548935156425576
5104073 3 18410294747868572393
59755656 215 18339930311854621398
633830 44 17988931080225984300
69090 78 18413386557386229218
7364860 26 18200601276388112774
9709674 26 18341058445033876271

> <PUBCHEM_SHAPE_MULTIPOLES>
420.43
9.43
2.1
1.06
1.16
0.42
0.43
-0.59
-2.56
-0.22
0.02
0.09
-0.22
0.11

> <PUBCHEM_SHAPE_SELFOVERLAP>
902.625

> <PUBCHEM_SHAPE_VOLUME>
230.1

> <PUBCHEM_COORDINATE_TYPE>
2
5
10

> <Energy>
71.9966

> <minimizedAffinity>
-8.12949

> <CNNscore>
0.8342509866

> <CNNaffinity>
7.7182502747

> <CNN_VS>
6.4389576912

> <CNNaffinity_variance>
0.4454571307

$$$$
6013


 22 25  0  0  0  0  0  0  0  0999 V2000
   22.7159    5.4083    1.9291 O   0  0  0  0  0  0  0  0  0  0  0  0
   24.5083    2.9359   12.3463 O   0  0  0  0  0  0  0  0  0  0  0  0
   22.1110    3.7806    5.1438 C   0  0  0  0  0  0  0  0  0  0  0  0
   23.1240    4.3357    4.1238 C   0  0  0  0  0  0  0  0  0  0  0  0
   22.7714    2.9053    6.2131 C   0  0  0  0  0  0  0  0  0  0  0  0
   23.8237    3.7627    6.9847 C   0  0  0  0  0  0  0  0  0  0  0  0
   24.5345    2.9625    8.1424 C   0  0  0  0  0  0  0  0  0  0  0  0
   24.1084    5.2390    4.8779 C   0  0  0  0  0  0  0  0  0  0  0  0
   24.8083    4.4799    6.0197 C   0  0  0  0  0  0  0  0  0  0  0  0
   22.1534    5.0819    3.1859 C   0  0  0  0  0  0  0  0  0  0  0  0
   21.0138    3.1825    4.2669 C   0  0  0  0  0  0  0  0  0  0  0  0
   21.7345    2.3376    7.1905 C   0  0  0  0  0  0  0  0  0  0  0  0
   20.9513    4.1246    3.0513 C   0  0  0  0  0  0  0  0  0  0  0  0
   23.4750    2.2612    9.0040 C   0  0  0  0  0  0  0  0  0  0  0  0
   22.3994    1.4946    8.2708 C   0  0  0  0  0  0  0  0  0  0  0  0
   23.9094    3.2561    3.3385 C   0  0  0  0  0  0  0  0  0  0  0  0
   25.3430    3.9713    9.0106 C   0  0  0  0  0  0  0  0  0  0  0  0
   25.4994    1.8863    7.5967 C   0  0  0  0  0  0  0  0  0  0  0  0
   25.7673    3.4146   10.3616 C   0  0  0  0  0  0  0  0  0  0  0  0
   23.4733    2.2790   10.3479 C   0  0  0  0  0  0  0  0  0  0  0  0
   24.5681    2.9116   11.1206 C   0  0  0  0  0  0  0  0  0  0  0  0
   23.4661    6.0096    2.0569 H   0  0  0  0  0  0  0  0  0  0  0  0
  1 10  1  0
  1 22  1  0
  2 21  2  0
  3  4  1  0
  3  5  1  0
  3 11  1  0
  4  8  1  0
  4 10  1  0
  4 16  1  0
  5  6  1  0
  5 12  1  0
  6  7  1  0
  6  9  1  0
  7 14  1  0
  7 17  1  0
  7 18  1  0
  8  9  1  0
 10 13  1  0
 11 13  1  0
 12 15  1  0
 14 15  1  0
 14 20  2  0
 17 19  1  0
 19 21  1  0
 20 21  1  0
M  END
> <PUBCHEM_COMPOUND_CID>
6013

> <PUBCHEM_CONFORMER_RMSD>
0.6

> <PUBCHEM_CONFORMER_DIVERSEORDER>
1

> <PUBCHEM_MMFF94_PARTIAL_CHARGES>
11
1 -0.68
10 0.28
14 -0.28
15 0.14
19 0.06
2 -0.57
20 -0.14
21 0.49
48 0.15
49 0.4
7 0.14

> <PUBCHEM_EFFECTIVE_ROTOR_COUNT>
1.8

> <PUBCHEM_PHARMACOPHORE_FEATURES>
7
1 1 acceptor
1 1 donor
1 2 acceptor
5 3 4 10 11 13 rings
6 3 4 5 6 8 9 rings
6 5 6 7 12 14 15 rings
6 7 14 17 19 20 21 rings

> <PUBCHEM_HEAVY_ATOM_COUNT>
21

> <PUBCHEM_ATOM_DEF_STEREO_COUNT>
6

> <PUBCHEM_ATOM_UDEF_STEREO_COUNT>
0

> <PUBCHEM_BOND_DEF_STEREO_COUNT>
0

> <PUBCHEM_BOND_UDEF_STEREO_COUNT>
0

> <PUBCHEM_ISOTOPIC_ATOM_COUNT>
0

> <PUBCHEM_COMPONENT_COUNT>
1

> <PUBCHEM_CACTVS_TAUTO_COUNT>
5

> <PUBCHEM_CONFORMER_ID>
0000177D00000001

> <PUBCHEM_MMFF94_ENERGY>
67.5416

> <PUBCHEM_FEATURE_SELFOVERLAP>
35.618

> <PUBCHEM_SHAPE_FINGERPRINT>
10062212 137 18336825385559829163
10759866 29 17897457309511876188
10967382 1 18412548682291571786
11132069 177 18410018732180467827
11370993 70 18410569557056084199
11578080 2 16735503067342509174
12011746 2 18412547592124142406
12236239 1 18040155136873436768
12251169 10 18410008845387181634
12403259 226 18410006624652160988
12403259 415 18408880746209696412
12403260 363 18340481291412090749
12403814 3 17894914044785590877
12507557 5 18408881845467772304
12633257 1 18341888602346167976
12839892 36 18340758291450253690
13140716 1 18339643467883616216
13214271 11 18272369780793716703
13224815 77 18411987974316295335
13675066 3 18187087269080573787
14178342 30 18338527339117458393
14223421 5 18341052895787930134
14341114 176 18411985737129035682
14787075 74 18339640165090922602
14790565 3 18050014594947639924
15163728 17 14691189929019880809
15196674 1 18411420639180230811
15375358 24 18413110541697833299
15536298 74 18272376330249831326
15788980 27 17167859768361771669
16945 1 18267308633664624303
17349148 13 18260547844245275310
17492 89 18410012108956776131
1813 80 17168144512515476742
18186145 218 18411423903503023558
18522853 276 18412546492037592553
19050596 39 18410858775858764633
19784866 9 18412265021155473810
200 152 18202274819337965375
20715895 44 18116989984517715477
21033648 29 18262779827106925672
21267235 1 18410302427354843602
21421861 104 18042966467372004754
21637258 2 15647319828885568714
22182313 1 18189614934485510503
22854114 111 18409735070690792279
22854114 59 18343022189864506130
23402539 116 18272925046486162621
23557571 272 18059303161493107767
23559900 14 18343023255612643838
26918003 58 18409728456589012017
2748010 2 18410304609229794207
2838139 119 14835541671104639250
296302 2 16343984710473737934
335352 9 18411702045432157758
34934 24 18341610383102269379
350125 39 18410857681354741304
351380 180 18413386540454065762
3545911 37 18411703166439727155
42 15 18260548935156425576
5104073 3 18410294747868572393
59755656 215 18339930311854621398
633830 44 17988931080225984300
69090 78 18413386557386229218
7364860 26 18200601276388112774
9709674 26 18341058445033876271

> <PUBCHEM_SHAPE_MULTIPOLES>
420.43
9.43
2.1
1.06
1.16
0.42
0.43
-0.59
-2.56
-0.22
0.02
0.09
-0.22
0.11

> <PUBCHEM_SHAPE_SELFOVERLAP>
902.625

> <PUBCHEM_SHAPE_VOLUME>
230.1

> <PUBCHEM_COORDINATE_TYPE>
2
5
10

> <Energy>
71.9966

> <minimizedAffinity>
-8.83822

> <CNNscore>
0.7664669156

> <CNNaffinity>
7.5163006783

> <CNN_VS>
5.7609958649

> <CNNaffinity_variance>
0.4355943203

$$$$
6013


 22 25  0  0  0  0  0  0  0  0999 V2000
   20.3602    2.6665    3.2924 O   0  0  0  0  0  0  0  0  0  0  0  0
   27.7505    4.2437   11.0859 O   0  0  0  0  0  0  0  0  0  0  0  0
   22.8982    4.4826    5.1923 C   0  0  0  0  0  0  0  0  0  0  0  0
   21.7455    3.4599    5.1858 C   0  0  0  0  0  0  0  0  0  0  0  0
   23.2704    4.9415    6.6053 C   0  0  0  0  0  0  0  0  0  0  0  0
   23.7150    3.6971    7.4369 C   0  0  0  0  0  0  0  0  0  0  0  0
   24.1622    4.0688    8.9024 C   0  0  0  0  0  0  0  0  0  0  0  0
   22.2181    2.2094    5.9386 C   0  0  0  0  0  0  0  0  0  0  0  0
   22.6682    2.5505    7.3707 C   0  0  0  0  0  0  0  0  0  0  0  0
   21.5837    3.2729    3.6635 C   0  0  0  0  0  0  0  0  0  0  0  0
   22.4578    5.5223    4.1647 C   0  0  0  0  0  0  0  0  0  0  0  0
   24.3936    5.9858    6.5770 C   0  0  0  0  0  0  0  0  0  0  0  0
   21.7190    4.7000    3.0937 C   0  0  0  0  0  0  0  0  0  0  0  0
   25.1581    5.2359    8.8523 C   0  0  0  0  0  0  0  0  0  0  0  0
   24.7824    6.4149    7.9857 C   0  0  0  0  0  0  0  0  0  0  0  0
   20.4232    3.9710    5.8097 C   0  0  0  0  0  0  0  0  0  0  0  0
   24.8390    2.8194    9.5398 C   0  0  0  0  0  0  0  0  0  0  0  0
   22.9667    4.4945    9.7838 C   0  0  0  0  0  0  0  0  0  0  0  0
   25.6460    3.1313   10.7916 C   0  0  0  0  0  0  0  0  0  0  0  0
   26.3099    5.2658    9.5444 C   0  0  0  0  0  0  0  0  0  0  0  0
   26.6723    4.1941   10.5015 C   0  0  0  0  0  0  0  0  0  0  0  0
   20.3142    1.7739    3.6691 H   0  0  0  0  0  0  0  0  0  0  0  0
  1 10  1  0
  1 22  1  0
  2 21  2  0
  3  4  1  0
  3  5  1  0
  3 11  1  0
  4  8  1  0
  4 10  1  0
  4 16  1  0
  5  6  1  0
  5 12  1  0
  6  7  1  0
  6  9  1  0
  7 14  1  0
  7 17  1  0
  7 18  1  0
  8  9  1  0
 10 13  1  0
 11 13  1  0
 12 15  1  0
 14 15  1  0
 14 20  2  0
 17 19  1  0
 19 21  1  0
 20 21  1  0
M  END
> <PUBCHEM_COMPOUND_CID>
6013

> <PUBCHEM_CONFORMER_RMSD>
0.6

> <PUBCHEM_CONFORMER_DIVERSEORDER>
1

> <PUBCHEM_MMFF94_PARTIAL_CHARGES>
11
1 -0.68
10 0.28
14 -0.28
15 0.14
19 0.06
2 -0.57
20 -0.14
21 0.49
48 0.15
49 0.4
7 0.14

> <PUBCHEM_EFFECTIVE_ROTOR_COUNT>
1.8

> <PUBCHEM_PHARMACOPHORE_FEATURES>
7
1 1 acceptor
1 1 donor
1 2 acceptor
5 3 4 10 11 13 rings
6 3 4 5 6 8 9 rings
6 5 6 7 12 14 15 rings
6 7 14 17 19 20 21 rings

> <PUBCHEM_HEAVY_ATOM_COUNT>
21

> <PUBCHEM_ATOM_DEF_STEREO_COUNT>
6

> <PUBCHEM_ATOM_UDEF_STEREO_COUNT>
0

> <PUBCHEM_BOND_DEF_STEREO_COUNT>
0

> <PUBCHEM_BOND_UDEF_STEREO_COUNT>
0

> <PUBCHEM_ISOTOPIC_ATOM_COUNT>
0

> <PUBCHEM_COMPONENT_COUNT>
1

> <PUBCHEM_CACTVS_TAUTO_COUNT>
5

> <PUBCHEM_CONFORMER_ID>
0000177D00000001

> <PUBCHEM_MMFF94_ENERGY>
67.5416

> <PUBCHEM_FEATURE_SELFOVERLAP>
35.618

> <PUBCHEM_SHAPE_FINGERPRINT>
10062212 137 18336825385559829163
10759866 29 17897457309511876188
10967382 1 18412548682291571786
11132069 177 18410018732180467827
11370993 70 18410569557056084199
11578080 2 16735503067342509174
12011746 2 18412547592124142406
12236239 1 18040155136873436768
12251169 10 18410008845387181634
12403259 226 18410006624652160988
12403259 415 18408880746209696412
12403260 363 18340481291412090749
12403814 3 17894914044785590877
12507557 5 18408881845467772304
12633257 1 18341888602346167976
12839892 36 18340758291450253690
13140716 1 18339643467883616216
13214271 11 18272369780793716703
13224815 77 18411987974316295335
13675066 3 18187087269080573787
14178342 30 18338527339117458393
14223421 5 18341052895787930134
14341114 176 18411985737129035682
14787075 74 18339640165090922602
14790565 3 18050014594947639924
15163728 17 14691189929019880809
15196674 1 18411420639180230811
15375358 24 18413110541697833299
15536298 74 18272376330249831326
15788980 27 17167859768361771669
16945 1 18267308633664624303
17349148 13 18260547844245275310
17492 89 18410012108956776131
1813 80 17168144512515476742
18186145 218 18411423903503023558
18522853 276 18412546492037592553
19050596 39 18410858775858764633
19784866 9 18412265021155473810
200 152 18202274819337965375
20715895 44 18116989984517715477
21033648 29 18262779827106925672
21267235 1 18410302427354843602
21421861 104 18042966467372004754
21637258 2 15647319828885568714
22182313 1 18189614934485510503
22854114 111 18409735070690792279
22854114 59 18343022189864506130
23402539 116 18272925046486162621
23557571 272 18059303161493107767
23559900 14 18343023255612643838
26918003 58 18409728456589012017
2748010 2 18410304609229794207
2838139 119 14835541671104639250
296302 2 16343984710473737934
335352 9 18411702045432157758
34934 24 18341610383102269379
350125 39 18410857681354741304
351380 180 18413386540454065762
3545911 37 18411703166439727155
42 15 18260548935156425576
5104073 3 18410294747868572393
59755656 215 18339930311854621398
633830 44 17988931080225984300
69090 78 18413386557386229218
7364860 26 18200601276388112774
9709674 26 18341058445033876271

> <PUBCHEM_SHAPE_MULTIPOLES>
420.43
9.43
2.1
1.06
1.16
0.42
0.43
-0.59
-2.56
-0.22
0.02
0.09
-0.22
0.11

> <PUBCHEM_SHAPE_SELFOVERLAP>
902.625

> <PUBCHEM_SHAPE_VOLUME>
230.1

> <PUBCHEM_COORDINATE_TYPE>
2
5
10

> <Energy>
71.9966

> <minimizedAffinity>
-8.99313

> <CNNscore>
0.7467876077

> <CNNaffinity>
7.3491549492

> <CNN_VS>
5.4882578850

> <CNNaffinity_variance>
0.2358497381

$$$$
6013


 22 25  0  0  0  0  0  0  0  0999 V2000
   20.1537    3.7549    2.4576 O   0  0  0  0  0  0  0  0  0  0  0  0
   26.3353    4.1618   11.3719 O   0  0  0  0  0  0  0  0  0  0  0  0
   23.2034    3.4336    4.4439 C   0  0  0  0  0  0  0  0  0  0  0  0
   21.8743    4.1709    4.1896 C   0  0  0  0  0  0  0  0  0  0  0  0
   24.1307    4.2010    5.3909 C   0  0  0  0  0  0  0  0  0  0  0  0
   23.4055    4.3898    6.7607 C   0  0  0  0  0  0  0  0  0  0  0  0
   24.2962    5.1355    7.8267 C   0  0  0  0  0  0  0  0  0  0  0  0
   21.1323    4.2839    5.5277 C   0  0  0  0  0  0  0  0  0  0  0  0
   21.9876    5.0018    6.5874 C   0  0  0  0  0  0  0  0  0  0  0  0
   21.2356    3.1968    3.1789 C   0  0  0  0  0  0  0  0  0  0  0  0
   23.6941    3.0895    3.0398 C   0  0  0  0  0  0  0  0  0  0  0  0
   25.4591    3.4614    5.5947 C   0  0  0  0  0  0  0  0  0  0  0  0
   22.4035    2.7970    2.2537 C   0  0  0  0  0  0  0  0  0  0  0  0
   25.6825    4.4785    7.8837 C   0  0  0  0  0  0  0  0  0  0  0  0
   26.3646    4.2120    6.5624 C   0  0  0  0  0  0  0  0  0  0  0  0
   22.0249    5.5783    3.5607 C   0  0  0  0  0  0  0  0  0  0  0  0
   23.5973    5.0230    9.2138 C   0  0  0  0  0  0  0  0  0  0  0  0
   24.4861    6.6294    7.4817 C   0  0  0  0  0  0  0  0  0  0  0  0
   24.5058    5.3601   10.3870 C   0  0  0  0  0  0  0  0  0  0  0  0
   26.3112    4.1580    9.0276 C   0  0  0  0  0  0  0  0  0  0  0  0
   25.7447    4.5051   10.3522 C   0  0  0  0  0  0  0  0  0  0  0  0
   19.4427    3.9922    3.0731 H   0  0  0  0  0  0  0  0  0  0  0  0
  1 10  1  0
  1 22  1  0
  2 21  2  0
  3  4  1  0
  3  5  1  0
  3 11  1  0
  4  8  1  0
  4 10  1  0
  4 16  1  0
  5  6  1  0
  5 12  1  0
  6  7  1  0
  6  9  1  0
  7 14  1  0
  7 17  1  0
  7 18  1  0
  8  9  1  0
 10 13  1  0
 11 13  1  0
 12 15  1  0
 14 15  1  0
 14 20  2  0
 17 19  1  0
 19 21  1  0
 20 21  1  0
M  END
> <PUBCHEM_COMPOUND_CID>
6013

> <PUBCHEM_CONFORMER_RMSD>
0.6

> <PUBCHEM_CONFORMER_DIVERSEORDER>
1

> <PUBCHEM_MMFF94_PARTIAL_CHARGES>
11
1 -0.68
10 0.28
14 -0.28
15 0.14
19 0.06
2 -0.57
20 -0.14
21 0.49
48 0.15
49 0.4
7 0.14

> <PUBCHEM_EFFECTIVE_ROTOR_COUNT>
1.8

> <PUBCHEM_PHARMACOPHORE_FEATURES>
7
1 1 acceptor
1 1 donor
1 2 acceptor
5 3 4 10 11 13 rings
6 3 4 5 6 8 9 rings
6 5 6 7 12 14 15 rings
6 7 14 17 19 20 21 rings

> <PUBCHEM_HEAVY_ATOM_COUNT>
21

> <PUBCHEM_ATOM_DEF_STEREO_COUNT>
6

> <PUBCHEM_ATOM_UDEF_STEREO_COUNT>
0

> <PUBCHEM_BOND_DEF_STEREO_COUNT>
0

> <PUBCHEM_BOND_UDEF_STEREO_COUNT>
0

> <PUBCHEM_ISOTOPIC_ATOM_COUNT>
0

> <PUBCHEM_COMPONENT_COUNT>
1

> <PUBCHEM_CACTVS_TAUTO_COUNT>
5

> <PUBCHEM_CONFORMER_ID>
0000177D00000001

> <PUBCHEM_MMFF94_ENERGY>
67.5416

> <PUBCHEM_FEATURE_SELFOVERLAP>
35.618

> <PUBCHEM_SHAPE_FINGERPRINT>
10062212 137 18336825385559829163
10759866 29 17897457309511876188
10967382 1 18412548682291571786
11132069 177 18410018732180467827
11370993 70 18410569557056084199
11578080 2 16735503067342509174
12011746 2 18412547592124142406
12236239 1 18040155136873436768
12251169 10 18410008845387181634
12403259 226 18410006624652160988
12403259 415 18408880746209696412
12403260 363 18340481291412090749
12403814 3 17894914044785590877
12507557 5 18408881845467772304
12633257 1 18341888602346167976
12839892 36 18340758291450253690
13140716 1 18339643467883616216
13214271 11 18272369780793716703
13224815 77 18411987974316295335
13675066 3 18187087269080573787
14178342 30 18338527339117458393
14223421 5 18341052895787930134
14341114 176 18411985737129035682
14787075 74 18339640165090922602
14790565 3 18050014594947639924
15163728 17 14691189929019880809
15196674 1 18411420639180230811
15375358 24 18413110541697833299
15536298 74 18272376330249831326
15788980 27 17167859768361771669
16945 1 18267308633664624303
17349148 13 18260547844245275310
17492 89 18410012108956776131
1813 80 17168144512515476742
18186145 218 18411423903503023558
18522853 276 18412546492037592553
19050596 39 18410858775858764633
19784866 9 18412265021155473810
200 152 18202274819337965375
20715895 44 18116989984517715477
21033648 29 18262779827106925672
21267235 1 18410302427354843602
21421861 104 18042966467372004754
21637258 2 15647319828885568714
22182313 1 18189614934485510503
22854114 111 18409735070690792279
22854114 59 18343022189864506130
23402539 116 18272925046486162621
23557571 272 18059303161493107767
23559900 14 18343023255612643838
26918003 58 18409728456589012017
2748010 2 18410304609229794207
2838139 119 14835541671104639250
296302 2 16343984710473737934
335352 9 18411702045432157758
34934 24 18341610383102269379
350125 39 18410857681354741304
351380 180 18413386540454065762
3545911 37 18411703166439727155
42 15 18260548935156425576
5104073 3 18410294747868572393
59755656 215 18339930311854621398
633830 44 17988931080225984300
69090 78 18413386557386229218
7364860 26 18200601276388112774
9709674 26 18341058445033876271

> <PUBCHEM_SHAPE_MULTIPOLES>
420.43
9.43
2.1
1.06
1.16
0.42
0.43
-0.59
-2.56
-0.22
0.02
0.09
-0.22
0.11

> <PUBCHEM_SHAPE_SELFOVERLAP>
902.625

> <PUBCHEM_SHAPE_VOLUME>
230.1

> <PUBCHEM_COORDINATE_TYPE>
2
5
10

> <Energy>
71.9966

> <minimizedAffinity>
-9.14107

> <CNNscore>
0.6257863045

> <CNNaffinity>
7.0884976387

> <CNN_VS>
4.4358849525

> <CNNaffinity_variance>
0.1611826867

$$$$
6013


 22 25  0  0  0  0  0  0  0  0999 V2000
   25.9316    4.3633   11.9110 O   0  0  0  0  0  0  0  0  0  0  0  0
   19.9212    4.3584    2.8712 O   0  0  0  0  0  0  0  0  0  0  0  0
   25.2669    4.1732    8.3233 C   0  0  0  0  0  0  0  0  0  0  0  0
   24.7970    3.8844    9.7623 C   0  0  0  0  0  0  0  0  0  0  0  0
   24.4376    3.4290    7.2725 C   0  0  0  0  0  0  0  0  0  0  0  0
   22.9470    3.8758    7.4000 C   0  0  0  0  0  0  0  0  0  0  0  0
   22.0109    3.1959    6.3289 C   0  0  0  0  0  0  0  0  0  0  0  0
   23.3576    4.3966    9.9019 C   0  0  0  0  0  0  0  0  0  0  0  0
   22.4266    3.7518    8.8591 C   0  0  0  0  0  0  0  0  0  0  0  0
   25.8497    4.7010   10.5392 C   0  0  0  0  0  0  0  0  0  0  0  0
   26.7737    3.9358    8.3862 C   0  0  0  0  0  0  0  0  0  0  0  0
   24.9521    3.7063    5.8543 C   0  0  0  0  0  0  0  0  0  0  0  0
   27.1699    4.4175    9.7933 C   0  0  0  0  0  0  0  0  0  0  0  0
   22.6400    3.3392    4.9359 C   0  0  0  0  0  0  0  0  0  0  0  0
   24.1045    2.9902    4.8110 C   0  0  0  0  0  0  0  0  0  0  0  0
   24.8584    2.3931   10.1762 C   0  0  0  0  0  0  0  0  0  0  0  0
   20.6275    3.9102    6.3635 C   0  0  0  0  0  0  0  0  0  0  0  0
   21.8041    1.6909    6.6104 C   0  0  0  0  0  0  0  0  0  0  0  0
   19.7584    3.6221    5.1481 C   0  0  0  0  0  0  0  0  0  0  0  0
   21.9591    3.7298    3.8450 C   0  0  0  0  0  0  0  0  0  0  0  0
   20.4970    3.9683    3.8825 C   0  0  0  0  0  0  0  0  0  0  0  0
   25.0846    4.5558   12.3426 H   0  0  0  0  0  0  0  0  0  0  0  0
  1 10  1  0
  1 22  1  0
  2 21  2  0
  3  4  1  0
  3  5  1  0
  3 11  1  0
  4  8  1  0
  4 10  1  0
  4 16  1  0
  5  6  1  0
  5 12  1  0
  6  7  1  0
  6  9  1  0
  7 14  1  0
  7 17  1  0
  7 18  1  0
  8  9  1  0
 10 13  1  0
 11 13  1  0
 12 15  1  0
 14 15  1  0
 14 20  2  0
 17 19  1  0
 19 21  1  0
 20 21  1  0
M  END
> <PUBCHEM_COMPOUND_CID>
6013

> <PUBCHEM_CONFORMER_RMSD>
0.6

> <PUBCHEM_CONFORMER_DIVERSEORDER>
1

> <PUBCHEM_MMFF94_PARTIAL_CHARGES>
11
1 -0.68
10 0.28
14 -0.28
15 0.14
19 0.06
2 -0.57
20 -0.14
21 0.49
48 0.15
49 0.4
7 0.14

> <PUBCHEM_EFFECTIVE_ROTOR_COUNT>
1.8

> <PUBCHEM_PHARMACOPHORE_FEATURES>
7
1 1 acceptor
1 1 donor
1 2 acceptor
5 3 4 10 11 13 rings
6 3 4 5 6 8 9 rings
6 5 6 7 12 14 15 rings
6 7 14 17 19 20 21 rings

> <PUBCHEM_HEAVY_ATOM_COUNT>
21

> <PUBCHEM_ATOM_DEF_STEREO_COUNT>
6

> <PUBCHEM_ATOM_UDEF_STEREO_COUNT>
0

> <PUBCHEM_BOND_DEF_STEREO_COUNT>
0

> <PUBCHEM_BOND_UDEF_STEREO_COUNT>
0

> <PUBCHEM_ISOTOPIC_ATOM_COUNT>
0

> <PUBCHEM_COMPONENT_COUNT>
1

> <PUBCHEM_CACTVS_TAUTO_COUNT>
5

> <PUBCHEM_CONFORMER_ID>
0000177D00000001

> <PUBCHEM_MMFF94_ENERGY>
67.5416

> <PUBCHEM_FEATURE_SELFOVERLAP>
35.618

> <PUBCHEM_SHAPE_FINGERPRINT>
10062212 137 18336825385559829163
10759866 29 17897457309511876188
10967382 1 18412548682291571786
11132069 177 18410018732180467827
11370993 70 18410569557056084199
11578080 2 16735503067342509174
12011746 2 18412547592124142406
12236239 1 18040155136873436768
12251169 10 18410008845387181634
12403259 226 18410006624652160988
12403259 415 18408880746209696412
12403260 363 18340481291412090749
12403814 3 17894914044785590877
12507557 5 18408881845467772304
12633257 1 18341888602346167976
12839892 36 18340758291450253690
13140716 1 18339643467883616216
13214271 11 18272369780793716703
13224815 77 18411987974316295335
13675066 3 18187087269080573787
14178342 30 18338527339117458393
14223421 5 18341052895787930134
14341114 176 18411985737129035682
14787075 74 18339640165090922602
14790565 3 18050014594947639924
15163728 17 14691189929019880809
15196674 1 18411420639180230811
15375358 24 18413110541697833299
15536298 74 18272376330249831326
15788980 27 17167859768361771669
16945 1 18267308633664624303
17349148 13 18260547844245275310
17492 89 18410012108956776131
1813 80 17168144512515476742
18186145 218 18411423903503023558
18522853 276 18412546492037592553
19050596 39 18410858775858764633
19784866 9 18412265021155473810
200 152 18202274819337965375
20715895 44 18116989984517715477
21033648 29 18262779827106925672
21267235 1 18410302427354843602
21421861 104 18042966467372004754
21637258 2 15647319828885568714
22182313 1 18189614934485510503
22854114 111 18409735070690792279
22854114 59 18343022189864506130
23402539 116 18272925046486162621
23557571 272 18059303161493107767
23559900 14 18343023255612643838
26918003 58 18409728456589012017
2748010 2 18410304609229794207
2838139 119 14835541671104639250
296302 2 16343984710473737934
335352 9 18411702045432157758
34934 24 18341610383102269379
350125 39 18410857681354741304
351380 180 18413386540454065762
3545911 37 18411703166439727155
42 15 18260548935156425576
5104073 3 18410294747868572393
59755656 215 18339930311854621398
633830 44 17988931080225984300
69090 78 18413386557386229218
7364860 26 18200601276388112774
9709674 26 18341058445033876271

> <PUBCHEM_SHAPE_MULTIPOLES>
420.43
9.43
2.1
1.06
1.16
0.42
0.43
-0.59
-2.56
-0.22
0.02
0.09
-0.22
0.11

> <PUBCHEM_SHAPE_SELFOVERLAP>
902.625

> <PUBCHEM_SHAPE_VOLUME>
230.1

> <PUBCHEM_COORDINATE_TYPE>
2
5
10

> <Energy>
71.9966

> <minimizedAffinity>
-9.90196

> <CNNscore>
0.4907720387

> <CNNaffinity>
7.3076915741

> <CNN_VS>
3.5864107609

> <CNNaffinity_variance>
0.2353748828

$$$$
6013


 22 25  0  0  0  0  0  0  0  0999 V2000
   25.2660    3.5776   11.7809 O   0  0  0  0  0  0  0  0  0  0  0  0
   19.6402    4.3776    2.5314 O   0  0  0  0  0  0  0  0  0  0  0  0
   24.1962    5.0704    8.6223 C   0  0  0  0  0  0  0  0  0  0  0  0
   24.4720    3.7970    9.4453 C   0  0  0  0  0  0  0  0  0  0  0  0
   24.0399    4.7823    7.1262 C   0  0  0  0  0  0  0  0  0  0  0  0
   22.8423    3.8006    6.9260 C   0  0  0  0  0  0  0  0  0  0  0  0
   22.5685    3.4714    5.4086 C   0  0  0  0  0  0  0  0  0  0  0  0
   23.2570    2.8708    9.3056 C   0  0  0  0  0  0  0  0  0  0  0  0
   22.9654    2.5426    7.8300 C   0  0  0  0  0  0  0  0  0  0  0  0
   24.6416    4.4313   10.8408 C   0  0  0  0  0  0  0  0  0  0  0  0
   25.2851    6.0357    9.0839 C   0  0  0  0  0  0  0  0  0  0  0  0
   23.8041    6.0717    6.3296 C   0  0  0  0  0  0  0  0  0  0  0  0
   25.4701    5.7052   10.5758 C   0  0  0  0  0  0  0  0  0  0  0  0
   22.5098    4.7780    4.6048 C   0  0  0  0  0  0  0  0  0  0  0  0
   23.6169    5.7768    4.8471 C   0  0  0  0  0  0  0  0  0  0  0  0
   25.7562    3.0309    9.0416 C   0  0  0  0  0  0  0  0  0  0  0  0
   21.2062    2.7236    5.3077 C   0  0  0  0  0  0  0  0  0  0  0  0
   23.6743    2.5812    4.7989 C   0  0  0  0  0  0  0  0  0  0  0  0
   20.6360    2.6762    3.8978 C   0  0  0  0  0  0  0  0  0  0  0  0
   21.5547    5.0574    3.7013 C   0  0  0  0  0  0  0  0  0  0  0  0
   20.5144    4.0676    3.3352 C   0  0  0  0  0  0  0  0  0  0  0  0
   24.7155    2.7911   11.9192 H   0  0  0  0  0  0  0  0  0  0  0  0
  1 10  1  0
  1 22  1  0
  2 21  2  0
  3  4  1  0
  3  5  1  0
  3 11  1  0
  4  8  1  0
  4 10  1  0
  4 16  1  0
  5  6  1  0
  5 12  1  0
  6  7  1  0
  6  9  1  0
  7 14  1  0
  7 17  1  0
  7 18  1  0
  8  9  1  0
 10 13  1  0
 11 13  1  0
 12 15  1  0
 14 15  1  0
 14 20  2  0
 17 19  1  0
 19 21  1  0
 20 21  1  0
M  END
> <PUBCHEM_COMPOUND_CID>
6013

> <PUBCHEM_CONFORMER_RMSD>
0.6

> <PUBCHEM_CONFORMER_DIVERSEORDER>
1

> <PUBCHEM_MMFF94_PARTIAL_CHARGES>
11
1 -0.68
10 0.28
14 -0.28
15 0.14
19 0.06
2 -0.57
20 -0.14
21 0.49
48 0.15
49 0.4
7 0.14

> <PUBCHEM_EFFECTIVE_ROTOR_COUNT>
1.8

> <PUBCHEM_PHARMACOPHORE_FEATURES>
7
1 1 acceptor
1 1 donor
1 2 acceptor
5 3 4 10 11 13 rings
6 3 4 5 6 8 9 rings
6 5 6 7 12 14 15 rings
6 7 14 17 19 20 21 rings

> <PUBCHEM_HEAVY_ATOM_COUNT>
21

> <PUBCHEM_ATOM_DEF_STEREO_COUNT>
6

> <PUBCHEM_ATOM_UDEF_STEREO_COUNT>
0

> <PUBCHEM_BOND_DEF_STEREO_COUNT>
0

> <PUBCHEM_BOND_UDEF_STEREO_COUNT>
0

> <PUBCHEM_ISOTOPIC_ATOM_COUNT>
0

> <PUBCHEM_COMPONENT_COUNT>
1

> <PUBCHEM_CACTVS_TAUTO_COUNT>
5

> <PUBCHEM_CONFORMER_ID>
0000177D00000001

> <PUBCHEM_MMFF94_ENERGY>
67.5416

> <PUBCHEM_FEATURE_SELFOVERLAP>
35.618

> <PUBCHEM_SHAPE_FINGERPRINT>
10062212 137 18336825385559829163
10759866 29 17897457309511876188
10967382 1 18412548682291571786
11132069 177 18410018732180467827
11370993 70 18410569557056084199
11578080 2 16735503067342509174
12011746 2 18412547592124142406
12236239 1 18040155136873436768
12251169 10 18410008845387181634
12403259 226 18410006624652160988
12403259 415 18408880746209696412
12403260 363 18340481291412090749
12403814 3 17894914044785590877
12507557 5 18408881845467772304
12633257 1 18341888602346167976
12839892 36 18340758291450253690
13140716 1 18339643467883616216
13214271 11 18272369780793716703
13224815 77 18411987974316295335
13675066 3 18187087269080573787
14178342 30 18338527339117458393
14223421 5 18341052895787930134
14341114 176 18411985737129035682
14787075 74 18339640165090922602
14790565 3 18050014594947639924
15163728 17 14691189929019880809
15196674 1 18411420639180230811
15375358 24 18413110541697833299
15536298 74 18272376330249831326
15788980 27 17167859768361771669
16945 1 18267308633664624303
17349148 13 18260547844245275310
17492 89 18410012108956776131
1813 80 17168144512515476742
18186145 218 18411423903503023558
18522853 276 18412546492037592553
19050596 39 18410858775858764633
19784866 9 18412265021155473810
200 152 18202274819337965375
20715895 44 18116989984517715477
21033648 29 18262779827106925672
21267235 1 18410302427354843602
21421861 104 18042966467372004754
21637258 2 15647319828885568714
22182313 1 18189614934485510503
22854114 111 18409735070690792279
22854114 59 18343022189864506130
23402539 116 18272925046486162621
23557571 272 18059303161493107767
23559900 14 18343023255612643838
26918003 58 18409728456589012017
2748010 2 18410304609229794207
2838139 119 14835541671104639250
296302 2 16343984710473737934
335352 9 18411702045432157758
34934 24 18341610383102269379
350125 39 18410857681354741304
351380 180 18413386540454065762
3545911 37 18411703166439727155
42 15 18260548935156425576
5104073 3 18410294747868572393
59755656 215 18339930311854621398
633830 44 17988931080225984300
69090 78 18413386557386229218
7364860 26 18200601276388112774
9709674 26 18341058445033876271

> <PUBCHEM_SHAPE_MULTIPOLES>
420.43
9.43
2.1
1.06
1.16
0.42
0.43
-0.59
-2.56
-0.22
0.02
0.09
-0.22
0.11

> <PUBCHEM_SHAPE_SELFOVERLAP>
902.625

> <PUBCHEM_SHAPE_VOLUME>
230.1

> <PUBCHEM_COORDINATE_TYPE>
2
5
10

> <Energy>
71.9966

> <minimizedAffinity>
-8.04084

> <CNNscore>
0.4332936108

> <CNNaffinity>
7.0943508148

> <CNN_VS>
3.0739369392

> <CNNaffinity_variance>
0.3529481888

$$$$
6013


 22 25  0  0  0  0  0  0  0  0999 V2000
   22.3075    7.2509    1.8306 O   0  0  0  0  0  0  0  0  0  0  0  0
   26.7992    1.3334    9.7458 O   0  0  0  0  0  0  0  0  0  0  0  0
   23.8613    6.6150    5.0757 C   0  0  0  0  0  0  0  0  0  0  0  0
   22.9438    6.1208    3.9405 C   0  0  0  0  0  0  0  0  0  0  0  0
   23.7336    5.7695    6.3464 C   0  0  0  0  0  0  0  0  0  0  0  0
   24.1214    4.2950    6.0099 C   0  0  0  0  0  0  0  0  0  0  0  0
   24.0638    3.3453    7.2671 C   0  0  0  0  0  0  0  0  0  0  0  0
   23.3815    4.6997    3.5629 C   0  0  0  0  0  0  0  0  0  0  0  0
   23.3413    3.7561    4.7786 C   0  0  0  0  0  0  0  0  0  0  0  0
   23.2565    7.1948    2.8788 C   0  0  0  0  0  0  0  0  0  0  0  0
   23.5672    8.1114    5.1455 C   0  0  0  0  0  0  0  0  0  0  0  0
   24.6296    6.3077    7.4691 C   0  0  0  0  0  0  0  0  0  0  0  0
   23.3112    8.5111    3.6813 C   0  0  0  0  0  0  0  0  0  0  0  0
   24.8256    3.9929    8.4320 C   0  0  0  0  0  0  0  0  0  0  0  0
   24.5237    5.4448    8.7197 C   0  0  0  0  0  0  0  0  0  0  0  0
   21.4329    6.1238    4.2816 C   0  0  0  0  0  0  0  0  0  0  0  0
   24.7271    1.9886    6.8870 C   0  0  0  0  0  0  0  0  0  0  0  0
   22.6133    3.0811    7.7292 C   0  0  0  0  0  0  0  0  0  0  0  0
   25.0802    1.1216    8.0866 C   0  0  0  0  0  0  0  0  0  0  0  0
   25.7105    3.3374    9.2026 C   0  0  0  0  0  0  0  0  0  0  0  0
   25.9564    1.8847    9.0442 C   0  0  0  0  0  0  0  0  0  0  0  0
   22.3039    6.4072    1.3521 H   0  0  0  0  0  0  0  0  0  0  0  0
  1 10  1  0
  1 22  1  0
  2 21  2  0
  3  4  1  0
  3  5  1  0
  3 11  1  0
  4  8  1  0
  4 10  1  0
  4 16  1  0
  5  6  1  0
  5 12  1  0
  6  7  1  0
  6  9  1  0
  7 14  1  0
  7 17  1  0
  7 18  1  0
  8  9  1  0
 10 13  1  0
 11 13  1  0
 12 15  1  0
 14 15  1  0
 14 20  2  0
 17 19  1  0
 19 21  1  0
 20 21  1  0
M  END
> <PUBCHEM_COMPOUND_CID>
6013

> <PUBCHEM_CONFORMER_RMSD>
0.6

> <PUBCHEM_CONFORMER_DIVERSEORDER>
1

> <PUBCHEM_MMFF94_PARTIAL_CHARGES>
11
1 -0.68
10 0.28
14 -0.28
15 0.14
19 0.06
2 -0.57
20 -0.14
21 0.49
48 0.15
49 0.4
7 0.14

> <PUBCHEM_EFFECTIVE_ROTOR_COUNT>
1.8

> <PUBCHEM_PHARMACOPHORE_FEATURES>
7
1 1 acceptor
1 1 donor
1 2 acceptor
5 3 4 10 11 13 rings
6 3 4 5 6 8 9 rings
6 5 6 7 12 14 15 rings
6 7 14 17 19 20 21 rings

> <PUBCHEM_HEAVY_ATOM_COUNT>
21

> <PUBCHEM_ATOM_DEF_STEREO_COUNT>
6

> <PUBCHEM_ATOM_UDEF_STEREO_COUNT>
0

> <PUBCHEM_BOND_DEF_STEREO_COUNT>
0

> <PUBCHEM_BOND_UDEF_STEREO_COUNT>
0

> <PUBCHEM_ISOTOPIC_ATOM_COUNT>
0

> <PUBCHEM_COMPONENT_COUNT>
1

> <PUBCHEM_CACTVS_TAUTO_COUNT>
5

> <PUBCHEM_CONFORMER_ID>
0000177D00000001

> <PUBCHEM_MMFF94_ENERGY>
67.5416

> <PUBCHEM_FEATURE_SELFOVERLAP>
35.618

> <PUBCHEM_SHAPE_FINGERPRINT>
10062212 137 18336825385559829163
10759866 29 17897457309511876188
10967382 1 18412548682291571786
11132069 177 18410018732180467827
11370993 70 18410569557056084199
11578080 2 16735503067342509174
12011746 2 18412547592124142406
12236239 1 18040155136873436768
12251169 10 18410008845387181634
12403259 226 18410006624652160988
12403259 415 18408880746209696412
12403260 363 18340481291412090749
12403814 3 17894914044785590877
12507557 5 18408881845467772304
12633257 1 18341888602346167976
12839892 36 18340758291450253690
13140716 1 18339643467883616216
13214271 11 18272369780793716703
13224815 77 18411987974316295335
13675066 3 18187087269080573787
14178342 30 18338527339117458393
14223421 5 18341052895787930134
14341114 176 18411985737129035682
14787075 74 18339640165090922602
14790565 3 18050014594947639924
15163728 17 14691189929019880809
15196674 1 18411420639180230811
15375358 24 18413110541697833299
15536298 74 18272376330249831326
15788980 27 17167859768361771669
16945 1 18267308633664624303
17349148 13 18260547844245275310
17492 89 18410012108956776131
1813 80 17168144512515476742
18186145 218 18411423903503023558
18522853 276 18412546492037592553
19050596 39 18410858775858764633
19784866 9 18412265021155473810
200 152 18202274819337965375
20715895 44 18116989984517715477
21033648 29 18262779827106925672
21267235 1 18410302427354843602
21421861 104 18042966467372004754
21637258 2 15647319828885568714
22182313 1 18189614934485510503
22854114 111 18409735070690792279
22854114 59 18343022189864506130
23402539 116 18272925046486162621
23557571 272 18059303161493107767
23559900 14 18343023255612643838
26918003 58 18409728456589012017
2748010 2 18410304609229794207
2838139 119 14835541671104639250
296302 2 16343984710473737934
335352 9 18411702045432157758
34934 24 18341610383102269379
350125 39 18410857681354741304
351380 180 18413386540454065762
3545911 37 18411703166439727155
42 15 18260548935156425576
5104073 3 18410294747868572393
59755656 215 18339930311854621398
633830 44 17988931080225984300
69090 78 18413386557386229218
7364860 26 18200601276388112774
9709674 26 18341058445033876271

> <PUBCHEM_SHAPE_MULTIPOLES>
420.43
9.43
2.1
1.06
1.16
0.42
0.43
-0.59
-2.56
-0.22
0.02
0.09
-0.22
0.11

> <PUBCHEM_SHAPE_SELFOVERLAP>
902.625

> <PUBCHEM_SHAPE_VOLUME>
230.1

> <PUBCHEM_COORDINATE_TYPE>
2
5
10

> <Energy>
71.9966

> <minimizedAffinity>
24.67714

> <CNNscore>
0.2480172664

> <CNNaffinity>
6.0762386322

> <CNN_VS>
1.5070121288

> <CNNaffinity_variance>
0.3378525674

$$$$
6013


 22 25  0  0  0  0  0  0  0  0999 V2000
   26.1880    7.5763    9.4188 O   0  0  0  0  0  0  0  0  0  0  0  0
   19.4547    3.0397    2.2128 O   0  0  0  0  0  0  0  0  0  0  0  0
   25.2362    5.8005    6.3708 C   0  0  0  0  0  0  0  0  0  0  0  0
   24.9559    6.1023    7.8558 C   0  0  0  0  0  0  0  0  0  0  0  0
   24.4494    4.5911    5.8569 C   0  0  0  0  0  0  0  0  0  0  0  0
   22.9233    4.8789    6.0187 C   0  0  0  0  0  0  0  0  0  0  0  0
   22.0191    3.7065    5.4768 C   0  0  0  0  0  0  0  0  0  0  0  0
   23.4703    6.4596    7.9939 C   0  0  0  0  0  0  0  0  0  0  0  0
   22.5678    5.3314    7.4622 C   0  0  0  0  0  0  0  0  0  0  0  0
   25.9247    7.2849    8.0593 C   0  0  0  0  0  0  0  0  0  0  0  0
   26.7608    5.7837    6.2923 C   0  0  0  0  0  0  0  0  0  0  0  0
   24.7774    4.2929    4.3884 C   0  0  0  0  0  0  0  0  0  0  0  0
   27.1991    6.8609    7.3006 C   0  0  0  0  0  0  0  0  0  0  0  0
   22.4842    3.3117    4.0681 C   0  0  0  0  0  0  0  0  0  0  0  0
   23.9685    3.1099    3.8727 C   0  0  0  0  0  0  0  0  0  0  0  0
   25.3033    4.9474    8.8277 C   0  0  0  0  0  0  0  0  0  0  0  0
   20.5450    4.2067    5.4292 C   0  0  0  0  0  0  0  0  0  0  0  0
   22.0932    2.4527    6.3765 C   0  0  0  0  0  0  0  0  0  0  0  0
   19.6279    3.3319    4.5872 C   0  0  0  0  0  0  0  0  0  0  0  0
   21.6499    3.1203    3.0319 C   0  0  0  0  0  0  0  0  0  0  0  0
   20.1783    3.1858    3.1933 C   0  0  0  0  0  0  0  0  0  0  0  0
   25.3642    7.8378    9.8589 H   0  0  0  0  0  0  0  0  0  0  0  0
  1 10  1  0
  1 22  1  0
  2 21  2  0
  3  4  1  0
  3  5  1  0
  3 11  1  0
  4  8  1  0
  4 10  1  0
  4 16  1  0
  5  6  1  0
  5 12  1  0
  6  7  1  0
  6  9  1  0
  7 14  1  0
  7 17  1  0
  7 18  1  0
  8  9  1  0
 10 13  1  0
 11 13  1  0
 12 15  1  0
 14 15  1  0
 14 20  2  0
 17 19  1  0
 19 21  1  0
 20 21  1  0
M  END
> <PUBCHEM_COMPOUND_CID>
6013

> <PUBCHEM_CONFORMER_RMSD>
0.6

> <PUBCHEM_CONFORMER_DIVERSEORDER>
1

> <PUBCHEM_MMFF94_PARTIAL_CHARGES>
11
1 -0.68
10 0.28
14 -0.28
15 0.14
19 0.06
2 -0.57
20 -0.14
21 0.49
48 0.15
49 0.4
7 0.14

> <PUBCHEM_EFFECTIVE_ROTOR_COUNT>
1.8

> <PUBCHEM_PHARMACOPHORE_FEATURES>
7
1 1 acceptor
1 1 donor
1 2 acceptor
5 3 4 10 11 13 rings
6 3 4 5 6 8 9 rings
6 5 6 7 12 14 15 rings
6 7 14 17 19 20 21 rings

> <PUBCHEM_HEAVY_ATOM_COUNT>
21

> <PUBCHEM_ATOM_DEF_STEREO_COUNT>
6

> <PUBCHEM_ATOM_UDEF_STEREO_COUNT>
0

> <PUBCHEM_BOND_DEF_STEREO_COUNT>
0

> <PUBCHEM_BOND_UDEF_STEREO_COUNT>
0

> <PUBCHEM_ISOTOPIC_ATOM_COUNT>
0

> <PUBCHEM_COMPONENT_COUNT>
1

> <PUBCHEM_CACTVS_TAUTO_COUNT>
5

> <PUBCHEM_CONFORMER_ID>
0000177D00000001

> <PUBCHEM_MMFF94_ENERGY>
67.5416

> <PUBCHEM_FEATURE_SELFOVERLAP>
35.618

> <PUBCHEM_SHAPE_FINGERPRINT>
10062212 137 18336825385559829163
10759866 29 17897457309511876188
10967382 1 18412548682291571786
11132069 177 18410018732180467827
11370993 70 18410569557056084199
11578080 2 16735503067342509174
12011746 2 18412547592124142406
12236239 1 18040155136873436768
12251169 10 18410008845387181634
12403259 226 18410006624652160988
12403259 415 18408880746209696412
12403260 363 18340481291412090749
12403814 3 17894914044785590877
12507557 5 18408881845467772304
12633257 1 18341888602346167976
12839892 36 18340758291450253690
13140716 1 18339643467883616216
13214271 11 18272369780793716703
13224815 77 18411987974316295335
13675066 3 18187087269080573787
14178342 30 18338527339117458393
14223421 5 18341052895787930134
14341114 176 18411985737129035682
14787075 74 18339640165090922602
14790565 3 18050014594947639924
15163728 17 14691189929019880809
15196674 1 18411420639180230811
15375358 24 18413110541697833299
15536298 74 18272376330249831326
15788980 27 17167859768361771669
16945 1 18267308633664624303
17349148 13 18260547844245275310
17492 89 18410012108956776131
1813 80 17168144512515476742
18186145 218 18411423903503023558
18522853 276 18412546492037592553
19050596 39 18410858775858764633
19784866 9 18412265021155473810
200 152 18202274819337965375
20715895 44 18116989984517715477
21033648 29 18262779827106925672
21267235 1 18410302427354843602
21421861 104 18042966467372004754
21637258 2 15647319828885568714
22182313 1 18189614934485510503
22854114 111 18409735070690792279
22854114 59 18343022189864506130
23402539 116 18272925046486162621
23557571 272 18059303161493107767
23559900 14 18343023255612643838
26918003 58 18409728456589012017
2748010 2 18410304609229794207
2838139 119 14835541671104639250
296302 2 16343984710473737934
335352 9 18411702045432157758
34934 24 18341610383102269379
350125 39 18410857681354741304
351380 180 18413386540454065762
3545911 37 18411703166439727155
42 15 18260548935156425576
5104073 3 18410294747868572393
59755656 215 18339930311854621398
633830 44 17988931080225984300
69090 78 18413386557386229218
7364860 26 18200601276388112774
9709674 26 18341058445033876271

> <PUBCHEM_SHAPE_MULTIPOLES>
420.43
9.43
2.1
1.06
1.16
0.42
0.43
-0.59
-2.56
-0.22
0.02
0.09
-0.22
0.11

> <PUBCHEM_SHAPE_SELFOVERLAP>
902.625

> <PUBCHEM_SHAPE_VOLUME>
230.1

> <PUBCHEM_COORDINATE_TYPE>
2
5
10

> <Energy>
71.9966

> <minimizedAffinity>
-2.66025

> <CNNscore>
0.2075185925

> <CNNaffinity>
6.2920517921

> <CNN_VS>
1.3057177067

> <CNNaffinity_variance>
0.0722712204

$$$$
