7184


 15 15  0  0  0  0  0  0  0  0999 V2000
    1.4122   -1.4826   26.7333 O   0  0  0  0  0  0  0  0  0  0  0  0
   -0.9269   -2.9212   23.6359 C   0  0  0  0  0  0  0  0  0  0  0  0
   -1.4635   -2.8123   24.9246 C   0  0  0  0  0  0  0  0  0  0  0  0
    0.4009   -2.5588   23.3922 C   0  0  0  0  0  0  0  0  0  0  0  0
   -0.6696   -2.3225   25.9641 C   0  0  0  0  0  0  0  0  0  0  0  0
    1.1888   -2.0726   24.4292 C   0  0  0  0  0  0  0  0  0  0  0  0
    0.6495   -1.9550   25.7111 C   0  0  0  0  0  0  0  0  0  0  0  0
    1.0474   -1.4048   27.5928 H   0  0  0  0  0  0  0  0  0  0  0  0
   -1.9614   -4.6393   22.3579 O   0  0  0  0  0  0  0  0  0  0  0  0
   -1.7643   -3.4491   22.5418 C   0  0  0  0  0  0  0  0  0  0  0  0
   -2.2767   -2.4177   21.8232 O   0  0  0  0  0  0  0  0  0  0  0  0
   -2.6077   -2.7349   20.4662 C   0  0  0  0  0  0  0  0  0  0  0  0
   -3.7194   -1.7928   20.0116 C   0  0  0  0  0  0  0  0  0  0  0  0
   -4.2163   -0.9183   21.1600 C   0  0  0  0  0  0  0  0  0  0  0  0
   -5.5899   -1.3569   21.6414 C   0  0  0  0  0  0  0  0  0  0  0  0
 11 12  1  0
 11 10  1  0
  9 10  2  0
  1  7  1  0
  1  8  1  0
 13 14  1  0
 13 12  1  0
 14 15  1  0
  2 10  1  0
  2  3  2  0
  2  4  1  0
  3  5  1  0
  4  6  2  0
  5  7  2  0
  6  7  1  0
M  END
> <PUBCHEM_COMPOUND_CID>
7184

> <PUBCHEM_CONFORMER_RMSD>
0.6

> <PUBCHEM_CONFORMER_DIVERSEORDER>
1
44
15
20
41
3
43
64
40
47
74
50
4
6
22
69
55
77
16
75
28
26
73
53
11
32
49
58
67
63
62
24
65
27
19
38
12
48
76
25
57
10
31
17
42
34
68
51
9
23
8
14
21
33
18
30
5
66
70
2
56
45
39
37
46
35
60
36
52
59
54
29
71
72
61
13
7

> <PUBCHEM_MMFF94_PARTIAL_CHARGES>
16
1 -0.43
10 -0.15
11 -0.15
12 -0.15
13 -0.15
14 0.08
2 -0.57
24 0.15
25 0.15
26 0.15
27 0.15
28 0.45
3 -0.53
6 0.28
8 0.09
9 0.63

> <PUBCHEM_EFFECTIVE_ROTOR_COUNT>
5

> <PUBCHEM_PHARMACOPHORE_FEATURES>
4
1 2 acceptor
1 3 donor
1 7 hydrophobe
6 8 10 11 12 13 14 rings

> <PUBCHEM_HEAVY_ATOM_COUNT>
14

> <PUBCHEM_ATOM_DEF_STEREO_COUNT>
0

> <PUBCHEM_ATOM_UDEF_STEREO_COUNT>
0

> <PUBCHEM_BOND_DEF_STEREO_COUNT>
0

> <PUBCHEM_BOND_UDEF_STEREO_COUNT>
0

> <PUBCHEM_ISOTOPIC_ATOM_COUNT>
0

> <PUBCHEM_COMPONENT_COUNT>
1

> <PUBCHEM_CACTVS_TAUTO_COUNT>
3

> <PUBCHEM_CONFORMER_ID>
00001C1000000001

> <PUBCHEM_MMFF94_ENERGY>
26.8162

> <PUBCHEM_FEATURE_SELFOVERLAP>
20.297

> <PUBCHEM_SHAPE_FINGERPRINT>
100836 57 10159698014692119138
10465860 250 17561082501386551480
10968037 39 18334860532716625766
11046707 91 18409446968869733128
12032990 46 18409167722807014732
12251169 10 18060418027818494140
13167823 11 18408602527187214402
13288520 33 18409730651148371639
13551218 46 18270963440792261598
13690532 89 18409730694483049495
13862211 1 18342737464162399199
14252887 29 17989215824084205230
17804303 29 18273497883401759577
17834072 33 18410577323021717172
1813 80 17968106291699631366
18186145 218 14923950067535008876
200 152 17530965761531918920
20281475 54 18337672035103360796
20767249 213 10735876175026745610
20828058 44 18273214175553485034
21267235 1 18410019844213228018
22485316 2 18408601440280660184
2297311 6 18130235869953600908
23402539 116 17846774109970031213
23463225 33 18411140233692529510
23559900 14 18270389602695558633
351380 180 10665231458300457486
351380 3 18259982652836299658
42 15 18342740719346176002
4214541 1 18340769252190604880
5104073 3 18271533095046590721
559249 180 18335415712557464698
7364860 26 18126566957732624024
83771 10 18407476665592062532

> <PUBCHEM_SHAPE_MULTIPOLES>
270.51
10.85
1.64
0.68
12.98
0.32
0
-5.61
1.62
-0.51
-0.11
-0.08
0
-0.42

> <PUBCHEM_SHAPE_SELFOVERLAP>
550.017

> <PUBCHEM_SHAPE_VOLUME>
158.1

> <PUBCHEM_COORDINATE_TYPE>
2
5
10

> <Energy>
17.0404

> <minimizedAffinity>
-6.66032

> <CNNscore>
0.9375027418

> <CNNaffinity>
5.7926096916

> <CNN_VS>
5.4305872917

> <CNNaffinity_variance>
0.4007217884

$$$$
7184


 15 15  0  0  0  0  0  0  0  0999 V2000
    1.3129   -1.2775   26.5751 O   0  0  0  0  0  0  0  0  0  0  0  0
   -0.8401   -3.0193   23.4985 C   0  0  0  0  0  0  0  0  0  0  0  0
    0.5012   -2.6685   23.3017 C   0  0  0  0  0  0  0  0  0  0  0  0
   -1.4607   -2.7715   24.7262 C   0  0  0  0  0  0  0  0  0  0  0  0
    1.2226   -2.0846   24.3454 C   0  0  0  0  0  0  0  0  0  0  0  0
   -0.7402   -2.1893   25.7627 C   0  0  0  0  0  0  0  0  0  0  0  0
    0.5995   -1.8496   25.5684 C   0  0  0  0  0  0  0  0  0  0  0  0
    2.2121   -1.0504   26.4416 H   0  0  0  0  0  0  0  0  0  0  0  0
   -1.4580   -4.7815   22.0259 O   0  0  0  0  0  0  0  0  0  0  0  0
   -1.6030   -3.6260   22.3908 C   0  0  0  0  0  0  0  0  0  0  0  0
   -2.4769   -2.7165   21.8890 O   0  0  0  0  0  0  0  0  0  0  0  0
   -2.5717   -2.6971   20.4600 C   0  0  0  0  0  0  0  0  0  0  0  0
   -3.6545   -1.6961   20.0654 C   0  0  0  0  0  0  0  0  0  0  0  0
   -4.1449   -0.8980   21.2708 C   0  0  0  0  0  0  0  0  0  0  0  0
   -5.5634   -1.2850   21.6566 C   0  0  0  0  0  0  0  0  0  0  0  0
 11 12  1  0
 11 10  1  0
  9 10  2  0
  1  7  1  0
  1  8  1  0
 13 14  1  0
 13 12  1  0
 14 15  1  0
  2 10  1  0
  2  3  2  0
  2  4  1  0
  3  5  1  0
  4  6  2  0
  5  7  2  0
  6  7  1  0
M  END
> <PUBCHEM_COMPOUND_CID>
7184

> <PUBCHEM_CONFORMER_RMSD>
0.6

> <PUBCHEM_CONFORMER_DIVERSEORDER>
1
44
15
20
41
3
43
64
40
47
74
50
4
6
22
69
55
77
16
75
28
26
73
53
11
32
49
58
67
63
62
24
65
27
19
38
12
48
76
25
57
10
31
17
42
34
68
51
9
23
8
14
21
33
18
30
5
66
70
2
56
45
39
37
46
35
60
36
52
59
54
29
71
72
61
13
7

> <PUBCHEM_MMFF94_PARTIAL_CHARGES>
16
1 -0.43
10 -0.15
11 -0.15
12 -0.15
13 -0.15
14 0.08
2 -0.57
24 0.15
25 0.15
26 0.15
27 0.15
28 0.45
3 -0.53
6 0.28
8 0.09
9 0.63

> <PUBCHEM_EFFECTIVE_ROTOR_COUNT>
5

> <PUBCHEM_PHARMACOPHORE_FEATURES>
4
1 2 acceptor
1 3 donor
1 7 hydrophobe
6 8 10 11 12 13 14 rings

> <PUBCHEM_HEAVY_ATOM_COUNT>
14

> <PUBCHEM_ATOM_DEF_STEREO_COUNT>
0

> <PUBCHEM_ATOM_UDEF_STEREO_COUNT>
0

> <PUBCHEM_BOND_DEF_STEREO_COUNT>
0

> <PUBCHEM_BOND_UDEF_STEREO_COUNT>
0

> <PUBCHEM_ISOTOPIC_ATOM_COUNT>
0

> <PUBCHEM_COMPONENT_COUNT>
1

> <PUBCHEM_CACTVS_TAUTO_COUNT>
3

> <PUBCHEM_CONFORMER_ID>
00001C1000000001

> <PUBCHEM_MMFF94_ENERGY>
26.8162

> <PUBCHEM_FEATURE_SELFOVERLAP>
20.297

> <PUBCHEM_SHAPE_FINGERPRINT>
100836 57 10159698014692119138
10465860 250 17561082501386551480
10968037 39 18334860532716625766
11046707 91 18409446968869733128
12032990 46 18409167722807014732
12251169 10 18060418027818494140
13167823 11 18408602527187214402
13288520 33 18409730651148371639
13551218 46 18270963440792261598
13690532 89 18409730694483049495
13862211 1 18342737464162399199
14252887 29 17989215824084205230
17804303 29 18273497883401759577
17834072 33 18410577323021717172
1813 80 17968106291699631366
18186145 218 14923950067535008876
200 152 17530965761531918920
20281475 54 18337672035103360796
20767249 213 10735876175026745610
20828058 44 18273214175553485034
21267235 1 18410019844213228018
22485316 2 18408601440280660184
2297311 6 18130235869953600908
23402539 116 17846774109970031213
23463225 33 18411140233692529510
23559900 14 18270389602695558633
351380 180 10665231458300457486
351380 3 18259982652836299658
42 15 18342740719346176002
4214541 1 18340769252190604880
5104073 3 18271533095046590721
559249 180 18335415712557464698
7364860 26 18126566957732624024
83771 10 18407476665592062532

> <PUBCHEM_SHAPE_MULTIPOLES>
270.51
10.85
1.64
0.68
12.98
0.32
0
-5.61
1.62
-0.51
-0.11
-0.08
0
-0.42

> <PUBCHEM_SHAPE_SELFOVERLAP>
550.017

> <PUBCHEM_SHAPE_VOLUME>
158.1

> <PUBCHEM_COORDINATE_TYPE>
2
5
10

> <Energy>
17.0404

> <minimizedAffinity>
-6.67920

> <CNNscore>
0.9367437363

> <CNNaffinity>
5.7512545586

> <CNN_VS>
5.3874516487

> <CNNaffinity_variance>
0.3621961772

$$$$
7184


 15 15  0  0  0  0  0  0  0  0999 V2000
    1.1593   -1.6033   26.7648 O   0  0  0  0  0  0  0  0  0  0  0  0
   -0.8390   -2.9482   23.3983 C   0  0  0  0  0  0  0  0  0  0  0  0
   -1.4915   -2.9280   24.6370 C   0  0  0  0  0  0  0  0  0  0  0  0
    0.4903   -2.5286   23.2949 C   0  0  0  0  0  0  0  0  0  0  0  0
   -0.8124   -2.4694   25.7680 C   0  0  0  0  0  0  0  0  0  0  0  0
    1.1639   -2.0737   24.4226 C   0  0  0  0  0  0  0  0  0  0  0  0
    0.5089   -2.0445   25.6548 C   0  0  0  0  0  0  0  0  0  0  0  0
    0.7170   -1.5849   27.5906 H   0  0  0  0  0  0  0  0  0  0  0  0
   -1.2471   -3.1478   21.0640 O   0  0  0  0  0  0  0  0  0  0  0  0
   -1.5552   -3.4434   22.2072 C   0  0  0  0  0  0  0  0  0  0  0  0
   -2.5586   -4.2726   22.5922 O   0  0  0  0  0  0  0  0  0  0  0  0
   -3.3126   -4.8452   21.5173 C   0  0  0  0  0  0  0  0  0  0  0  0
   -4.6532   -4.1200   21.4332 C   0  0  0  0  0  0  0  0  0  0  0  0
   -5.6961   -4.9555   20.6951 C   0  0  0  0  0  0  0  0  0  0  0  0
   -5.6866   -4.6680   19.2024 C   0  0  0  0  0  0  0  0  0  0  0  0
 11 12  1  0
 11 10  1  0
  9 10  2  0
  1  7  1  0
  1  8  1  0
 13 14  1  0
 13 12  1  0
 14 15  1  0
  2 10  1  0
  2  3  2  0
  2  4  1  0
  3  5  1  0
  4  6  2  0
  5  7  2  0
  6  7  1  0
M  END
> <PUBCHEM_COMPOUND_CID>
7184

> <PUBCHEM_CONFORMER_RMSD>
0.6

> <PUBCHEM_CONFORMER_DIVERSEORDER>
1
44
15
20
41
3
43
64
40
47
74
50
4
6
22
69
55
77
16
75
28
26
73
53
11
32
49
58
67
63
62
24
65
27
19
38
12
48
76
25
57
10
31
17
42
34
68
51
9
23
8
14
21
33
18
30
5
66
70
2
56
45
39
37
46
35
60
36
52
59
54
29
71
72
61
13
7

> <PUBCHEM_MMFF94_PARTIAL_CHARGES>
16
1 -0.43
10 -0.15
11 -0.15
12 -0.15
13 -0.15
14 0.08
2 -0.57
24 0.15
25 0.15
26 0.15
27 0.15
28 0.45
3 -0.53
6 0.28
8 0.09
9 0.63

> <PUBCHEM_EFFECTIVE_ROTOR_COUNT>
5

> <PUBCHEM_PHARMACOPHORE_FEATURES>
4
1 2 acceptor
1 3 donor
1 7 hydrophobe
6 8 10 11 12 13 14 rings

> <PUBCHEM_HEAVY_ATOM_COUNT>
14

> <PUBCHEM_ATOM_DEF_STEREO_COUNT>
0

> <PUBCHEM_ATOM_UDEF_STEREO_COUNT>
0

> <PUBCHEM_BOND_DEF_STEREO_COUNT>
0

> <PUBCHEM_BOND_UDEF_STEREO_COUNT>
0

> <PUBCHEM_ISOTOPIC_ATOM_COUNT>
0

> <PUBCHEM_COMPONENT_COUNT>
1

> <PUBCHEM_CACTVS_TAUTO_COUNT>
3

> <PUBCHEM_CONFORMER_ID>
00001C1000000001

> <PUBCHEM_MMFF94_ENERGY>
26.8162

> <PUBCHEM_FEATURE_SELFOVERLAP>
20.297

> <PUBCHEM_SHAPE_FINGERPRINT>
100836 57 10159698014692119138
10465860 250 17561082501386551480
10968037 39 18334860532716625766
11046707 91 18409446968869733128
12032990 46 18409167722807014732
12251169 10 18060418027818494140
13167823 11 18408602527187214402
13288520 33 18409730651148371639
13551218 46 18270963440792261598
13690532 89 18409730694483049495
13862211 1 18342737464162399199
14252887 29 17989215824084205230
17804303 29 18273497883401759577
17834072 33 18410577323021717172
1813 80 17968106291699631366
18186145 218 14923950067535008876
200 152 17530965761531918920
20281475 54 18337672035103360796
20767249 213 10735876175026745610
20828058 44 18273214175553485034
21267235 1 18410019844213228018
22485316 2 18408601440280660184
2297311 6 18130235869953600908
23402539 116 17846774109970031213
23463225 33 18411140233692529510
23559900 14 18270389602695558633
351380 180 10665231458300457486
351380 3 18259982652836299658
42 15 18342740719346176002
4214541 1 18340769252190604880
5104073 3 18271533095046590721
559249 180 18335415712557464698
7364860 26 18126566957732624024
83771 10 18407476665592062532

> <PUBCHEM_SHAPE_MULTIPOLES>
270.51
10.85
1.64
0.68
12.98
0.32
0
-5.61
1.62
-0.51
-0.11
-0.08
0
-0.42

> <PUBCHEM_SHAPE_SELFOVERLAP>
550.017

> <PUBCHEM_SHAPE_VOLUME>
158.1

> <PUBCHEM_COORDINATE_TYPE>
2
5
10

> <Energy>
17.0404

> <minimizedAffinity>
-6.19178

> <CNNscore>
0.9280506968

> <CNNaffinity>
5.9592995644

> <CNN_VS>
5.5305318832

> <CNNaffinity_variance>
0.4284700155

$$$$
7184


 15 15  0  0  0  0  0  0  0  0999 V2000
    1.3191   -1.2657   26.5913 O   0  0  0  0  0  0  0  0  0  0  0  0
   -0.8679   -3.0103   23.5404 C   0  0  0  0  0  0  0  0  0  0  0  0
   -1.4672   -2.7753   24.7840 C   0  0  0  0  0  0  0  0  0  0  0  0
    0.4712   -2.6707   23.3278 C   0  0  0  0  0  0  0  0  0  0  0  0
   -0.7243   -2.1829   25.8076 C   0  0  0  0  0  0  0  0  0  0  0  0
    1.2081   -2.0821   24.3490 C   0  0  0  0  0  0  0  0  0  0  0  0
    0.6065   -1.8391   25.5847 C   0  0  0  0  0  0  0  0  0  0  0  0
    0.9125   -1.1039   27.4199 H   0  0  0  0  0  0  0  0  0  0  0  0
   -1.9140   -4.8378   22.4352 O   0  0  0  0  0  0  0  0  0  0  0  0
   -1.6517   -3.6463   22.4642 C   0  0  0  0  0  0  0  0  0  0  0  0
   -2.0357   -2.7052   21.5645 O   0  0  0  0  0  0  0  0  0  0  0  0
   -3.4210   -2.3456   21.6232 C   0  0  0  0  0  0  0  0  0  0  0  0
   -3.6915   -1.3033   20.5412 C   0  0  0  0  0  0  0  0  0  0  0  0
   -3.3694   -1.8439   19.1504 C   0  0  0  0  0  0  0  0  0  0  0  0
   -4.1400   -3.1207   18.8559 C   0  0  0  0  0  0  0  0  0  0  0  0
 11 12  1  0
 11 10  1  0
  9 10  2  0
  1  7  1  0
  1  8  1  0
 13 14  1  0
 13 12  1  0
 14 15  1  0
  2 10  1  0
  2  3  2  0
  2  4  1  0
  3  5  1  0
  4  6  2  0
  5  7  2  0
  6  7  1  0
M  END
> <PUBCHEM_COMPOUND_CID>
7184

> <PUBCHEM_CONFORMER_RMSD>
0.6

> <PUBCHEM_CONFORMER_DIVERSEORDER>
1
44
15
20
41
3
43
64
40
47
74
50
4
6
22
69
55
77
16
75
28
26
73
53
11
32
49
58
67
63
62
24
65
27
19
38
12
48
76
25
57
10
31
17
42
34
68
51
9
23
8
14
21
33
18
30
5
66
70
2
56
45
39
37
46
35
60
36
52
59
54
29
71
72
61
13
7

> <PUBCHEM_MMFF94_PARTIAL_CHARGES>
16
1 -0.43
10 -0.15
11 -0.15
12 -0.15
13 -0.15
14 0.08
2 -0.57
24 0.15
25 0.15
26 0.15
27 0.15
28 0.45
3 -0.53
6 0.28
8 0.09
9 0.63

> <PUBCHEM_EFFECTIVE_ROTOR_COUNT>
5

> <PUBCHEM_PHARMACOPHORE_FEATURES>
4
1 2 acceptor
1 3 donor
1 7 hydrophobe
6 8 10 11 12 13 14 rings

> <PUBCHEM_HEAVY_ATOM_COUNT>
14

> <PUBCHEM_ATOM_DEF_STEREO_COUNT>
0

> <PUBCHEM_ATOM_UDEF_STEREO_COUNT>
0

> <PUBCHEM_BOND_DEF_STEREO_COUNT>
0

> <PUBCHEM_BOND_UDEF_STEREO_COUNT>
0

> <PUBCHEM_ISOTOPIC_ATOM_COUNT>
0

> <PUBCHEM_COMPONENT_COUNT>
1

> <PUBCHEM_CACTVS_TAUTO_COUNT>
3

> <PUBCHEM_CONFORMER_ID>
00001C1000000001

> <PUBCHEM_MMFF94_ENERGY>
26.8162

> <PUBCHEM_FEATURE_SELFOVERLAP>
20.297

> <PUBCHEM_SHAPE_FINGERPRINT>
100836 57 10159698014692119138
10465860 250 17561082501386551480
10968037 39 18334860532716625766
11046707 91 18409446968869733128
12032990 46 18409167722807014732
12251169 10 18060418027818494140
13167823 11 18408602527187214402
13288520 33 18409730651148371639
13551218 46 18270963440792261598
13690532 89 18409730694483049495
13862211 1 18342737464162399199
14252887 29 17989215824084205230
17804303 29 18273497883401759577
17834072 33 18410577323021717172
1813 80 17968106291699631366
18186145 218 14923950067535008876
200 152 17530965761531918920
20281475 54 18337672035103360796
20767249 213 10735876175026745610
20828058 44 18273214175553485034
21267235 1 18410019844213228018
22485316 2 18408601440280660184
2297311 6 18130235869953600908
23402539 116 17846774109970031213
23463225 33 18411140233692529510
23559900 14 18270389602695558633
351380 180 10665231458300457486
351380 3 18259982652836299658
42 15 18342740719346176002
4214541 1 18340769252190604880
5104073 3 18271533095046590721
559249 180 18335415712557464698
7364860 26 18126566957732624024
83771 10 18407476665592062532

> <PUBCHEM_SHAPE_MULTIPOLES>
270.51
10.85
1.64
0.68
12.98
0.32
0
-5.61
1.62
-0.51
-0.11
-0.08
0
-0.42

> <PUBCHEM_SHAPE_SELFOVERLAP>
550.017

> <PUBCHEM_SHAPE_VOLUME>
158.1

> <PUBCHEM_COORDINATE_TYPE>
2
5
10

> <Energy>
17.0404

> <minimizedAffinity>
-6.48794

> <CNNscore>
0.9174226522

> <CNNaffinity>
6.0484681129

> <CNN_VS>
5.5490016937

> <CNNaffinity_variance>
0.5440639853

$$$$
7184


 15 15  0  0  0  0  0  0  0  0999 V2000
    1.1215   -1.2343   26.2784 O   0  0  0  0  0  0  0  0  0  0  0  0
   -0.8927   -2.8627   23.0495 C   0  0  0  0  0  0  0  0  0  0  0  0
    0.4964   -2.6952   22.9945 C   0  0  0  0  0  0  0  0  0  0  0  0
   -1.6058   -2.4697   24.1856 C   0  0  0  0  0  0  0  0  0  0  0  0
    1.1699   -2.1485   24.0891 C   0  0  0  0  0  0  0  0  0  0  0  0
   -0.9326   -1.9250   25.2731 C   0  0  0  0  0  0  0  0  0  0  0  0
    0.4533   -1.7681   25.2209 C   0  0  0  0  0  0  0  0  0  0  0  0
    2.0519   -1.1301   26.2404 H   0  0  0  0  0  0  0  0  0  0  0  0
   -1.5819   -4.6155   21.5975 O   0  0  0  0  0  0  0  0  0  0  0  0
   -1.6032   -3.4303   21.8875 C   0  0  0  0  0  0  0  0  0  0  0  0
   -2.2780   -2.4453   21.2417 O   0  0  0  0  0  0  0  0  0  0  0  0
   -3.5926   -2.8049   20.8011 C   0  0  0  0  0  0  0  0  0  0  0  0
   -3.7000   -2.4933   19.3105 C   0  0  0  0  0  0  0  0  0  0  0  0
   -4.0703   -3.7357   18.5044 C   0  0  0  0  0  0  0  0  0  0  0  0
   -2.8427   -4.5636   18.1599 C   0  0  0  0  0  0  0  0  0  0  0  0
 11 12  1  0
 11 10  1  0
  9 10  2  0
  1  7  1  0
  1  8  1  0
 13 14  1  0
 13 12  1  0
 14 15  1  0
  2 10  1  0
  2  3  2  0
  2  4  1  0
  3  5  1  0
  4  6  2  0
  5  7  2  0
  6  7  1  0
M  END
> <PUBCHEM_COMPOUND_CID>
7184

> <PUBCHEM_CONFORMER_RMSD>
0.6

> <PUBCHEM_CONFORMER_DIVERSEORDER>
1
44
15
20
41
3
43
64
40
47
74
50
4
6
22
69
55
77
16
75
28
26
73
53
11
32
49
58
67
63
62
24
65
27
19
38
12
48
76
25
57
10
31
17
42
34
68
51
9
23
8
14
21
33
18
30
5
66
70
2
56
45
39
37
46
35
60
36
52
59
54
29
71
72
61
13
7

> <PUBCHEM_MMFF94_PARTIAL_CHARGES>
16
1 -0.43
10 -0.15
11 -0.15
12 -0.15
13 -0.15
14 0.08
2 -0.57
24 0.15
25 0.15
26 0.15
27 0.15
28 0.45
3 -0.53
6 0.28
8 0.09
9 0.63

> <PUBCHEM_EFFECTIVE_ROTOR_COUNT>
5

> <PUBCHEM_PHARMACOPHORE_FEATURES>
4
1 2 acceptor
1 3 donor
1 7 hydrophobe
6 8 10 11 12 13 14 rings

> <PUBCHEM_HEAVY_ATOM_COUNT>
14

> <PUBCHEM_ATOM_DEF_STEREO_COUNT>
0

> <PUBCHEM_ATOM_UDEF_STEREO_COUNT>
0

> <PUBCHEM_BOND_DEF_STEREO_COUNT>
0

> <PUBCHEM_BOND_UDEF_STEREO_COUNT>
0

> <PUBCHEM_ISOTOPIC_ATOM_COUNT>
0

> <PUBCHEM_COMPONENT_COUNT>
1

> <PUBCHEM_CACTVS_TAUTO_COUNT>
3

> <PUBCHEM_CONFORMER_ID>
00001C1000000001

> <PUBCHEM_MMFF94_ENERGY>
26.8162

> <PUBCHEM_FEATURE_SELFOVERLAP>
20.297

> <PUBCHEM_SHAPE_FINGERPRINT>
100836 57 10159698014692119138
10465860 250 17561082501386551480
10968037 39 18334860532716625766
11046707 91 18409446968869733128
12032990 46 18409167722807014732
12251169 10 18060418027818494140
13167823 11 18408602527187214402
13288520 33 18409730651148371639
13551218 46 18270963440792261598
13690532 89 18409730694483049495
13862211 1 18342737464162399199
14252887 29 17989215824084205230
17804303 29 18273497883401759577
17834072 33 18410577323021717172
1813 80 17968106291699631366
18186145 218 14923950067535008876
200 152 17530965761531918920
20281475 54 18337672035103360796
20767249 213 10735876175026745610
20828058 44 18273214175553485034
21267235 1 18410019844213228018
22485316 2 18408601440280660184
2297311 6 18130235869953600908
23402539 116 17846774109970031213
23463225 33 18411140233692529510
23559900 14 18270389602695558633
351380 180 10665231458300457486
351380 3 18259982652836299658
42 15 18342740719346176002
4214541 1 18340769252190604880
5104073 3 18271533095046590721
559249 180 18335415712557464698
7364860 26 18126566957732624024
83771 10 18407476665592062532

> <PUBCHEM_SHAPE_MULTIPOLES>
270.51
10.85
1.64
0.68
12.98
0.32
0
-5.61
1.62
-0.51
-0.11
-0.08
0
-0.42

> <PUBCHEM_SHAPE_SELFOVERLAP>
550.017

> <PUBCHEM_SHAPE_VOLUME>
158.1

> <PUBCHEM_COORDINATE_TYPE>
2
5
10

> <Energy>
17.0404

> <minimizedAffinity>
-6.31847

> <CNNscore>
0.9148868918

> <CNNaffinity>
6.0428528786

> <CNN_VS>
5.5285267830

> <CNNaffinity_variance>
0.5749300122

$$$$
7184


 15 15  0  0  0  0  0  0  0  0999 V2000
    1.2995   -1.5745   26.5670 O   0  0  0  0  0  0  0  0  0  0  0  0
   -0.9373   -2.8944   23.3437 C   0  0  0  0  0  0  0  0  0  0  0  0
   -1.5246   -2.8030   24.6115 C   0  0  0  0  0  0  0  0  0  0  0  0
    0.4065   -2.5546   23.1632 C   0  0  0  0  0  0  0  0  0  0  0  0
   -0.7649   -2.3533   25.6938 C   0  0  0  0  0  0  0  0  0  0  0  0
    1.1602   -2.1082   24.2426 C   0  0  0  0  0  0  0  0  0  0  0  0
    0.5706   -2.0079   25.5037 C   0  0  0  0  0  0  0  0  0  0  0  0
    0.9010   -1.5082   27.4124 H   0  0  0  0  0  0  0  0  0  0  0  0
   -1.4169   -3.2229   21.0378 O   0  0  0  0  0  0  0  0  0  0  0  0
   -1.7390   -3.3801   22.2043 C   0  0  0  0  0  0  0  0  0  0  0  0
   -2.8383   -4.0292   22.6658 O   0  0  0  0  0  0  0  0  0  0  0  0
   -4.0396   -3.7796   21.9268 C   0  0  0  0  0  0  0  0  0  0  0  0
   -4.8490   -2.7213   22.6719 C   0  0  0  0  0  0  0  0  0  0  0  0
   -5.3346   -1.6224   21.7301 C   0  0  0  0  0  0  0  0  0  0  0  0
   -4.2343   -0.6167   21.4319 C   0  0  0  0  0  0  0  0  0  0  0  0
 11 12  1  0
 11 10  1  0
  9 10  2  0
  1  7  1  0
  1  8  1  0
 13 14  1  0
 13 12  1  0
 14 15  1  0
  2 10  1  0
  2  3  2  0
  2  4  1  0
  3  5  1  0
  4  6  2  0
  5  7  2  0
  6  7  1  0
M  END
> <PUBCHEM_COMPOUND_CID>
7184

> <PUBCHEM_CONFORMER_RMSD>
0.6

> <PUBCHEM_CONFORMER_DIVERSEORDER>
1
44
15
20
41
3
43
64
40
47
74
50
4
6
22
69
55
77
16
75
28
26
73
53
11
32
49
58
67
63
62
24
65
27
19
38
12
48
76
25
57
10
31
17
42
34
68
51
9
23
8
14
21
33
18
30
5
66
70
2
56
45
39
37
46
35
60
36
52
59
54
29
71
72
61
13
7

> <PUBCHEM_MMFF94_PARTIAL_CHARGES>
16
1 -0.43
10 -0.15
11 -0.15
12 -0.15
13 -0.15
14 0.08
2 -0.57
24 0.15
25 0.15
26 0.15
27 0.15
28 0.45
3 -0.53
6 0.28
8 0.09
9 0.63

> <PUBCHEM_EFFECTIVE_ROTOR_COUNT>
5

> <PUBCHEM_PHARMACOPHORE_FEATURES>
4
1 2 acceptor
1 3 donor
1 7 hydrophobe
6 8 10 11 12 13 14 rings

> <PUBCHEM_HEAVY_ATOM_COUNT>
14

> <PUBCHEM_ATOM_DEF_STEREO_COUNT>
0

> <PUBCHEM_ATOM_UDEF_STEREO_COUNT>
0

> <PUBCHEM_BOND_DEF_STEREO_COUNT>
0

> <PUBCHEM_BOND_UDEF_STEREO_COUNT>
0

> <PUBCHEM_ISOTOPIC_ATOM_COUNT>
0

> <PUBCHEM_COMPONENT_COUNT>
1

> <PUBCHEM_CACTVS_TAUTO_COUNT>
3

> <PUBCHEM_CONFORMER_ID>
00001C1000000001

> <PUBCHEM_MMFF94_ENERGY>
26.8162

> <PUBCHEM_FEATURE_SELFOVERLAP>
20.297

> <PUBCHEM_SHAPE_FINGERPRINT>
100836 57 10159698014692119138
10465860 250 17561082501386551480
10968037 39 18334860532716625766
11046707 91 18409446968869733128
12032990 46 18409167722807014732
12251169 10 18060418027818494140
13167823 11 18408602527187214402
13288520 33 18409730651148371639
13551218 46 18270963440792261598
13690532 89 18409730694483049495
13862211 1 18342737464162399199
14252887 29 17989215824084205230
17804303 29 18273497883401759577
17834072 33 18410577323021717172
1813 80 17968106291699631366
18186145 218 14923950067535008876
200 152 17530965761531918920
20281475 54 18337672035103360796
20767249 213 10735876175026745610
20828058 44 18273214175553485034
21267235 1 18410019844213228018
22485316 2 18408601440280660184
2297311 6 18130235869953600908
23402539 116 17846774109970031213
23463225 33 18411140233692529510
23559900 14 18270389602695558633
351380 180 10665231458300457486
351380 3 18259982652836299658
42 15 18342740719346176002
4214541 1 18340769252190604880
5104073 3 18271533095046590721
559249 180 18335415712557464698
7364860 26 18126566957732624024
83771 10 18407476665592062532

> <PUBCHEM_SHAPE_MULTIPOLES>
270.51
10.85
1.64
0.68
12.98
0.32
0
-5.61
1.62
-0.51
-0.11
-0.08
0
-0.42

> <PUBCHEM_SHAPE_SELFOVERLAP>
550.017

> <PUBCHEM_SHAPE_VOLUME>
158.1

> <PUBCHEM_COORDINATE_TYPE>
2
5
10

> <Energy>
17.0404

> <minimizedAffinity>
-6.55750

> <CNNscore>
0.9056380987

> <CNNaffinity>
5.7457346916

> <CNN_VS>
5.2035560608

> <CNNaffinity_variance>
0.1567719728

$$$$
7184


 15 15  0  0  0  0  0  0  0  0999 V2000
    1.0518   -2.2706   26.7797 O   0  0  0  0  0  0  0  0  0  0  0  0
   -1.1171   -2.3831   23.2558 C   0  0  0  0  0  0  0  0  0  0  0  0
    0.2739   -2.2275   23.2157 C   0  0  0  0  0  0  0  0  0  0  0  0
   -1.7798   -2.4872   24.4821 C   0  0  0  0  0  0  0  0  0  0  0  0
    0.9997   -2.1941   24.4085 C   0  0  0  0  0  0  0  0  0  0  0  0
   -1.0546   -2.4527   25.6676 C   0  0  0  0  0  0  0  0  0  0  0  0
    0.3330   -2.3078   25.6257 C   0  0  0  0  0  0  0  0  0  0  0  0
    1.9832   -2.1731   26.7484 H   0  0  0  0  0  0  0  0  0  0  0  0
   -3.0067   -1.9459   21.8796 O   0  0  0  0  0  0  0  0  0  0  0  0
   -1.8827   -2.4070   21.9947 C   0  0  0  0  0  0  0  0  0  0  0  0
   -1.1351   -2.9846   21.0199 O   0  0  0  0  0  0  0  0  0  0  0  0
   -1.7412   -4.1181   20.3879 C   0  0  0  0  0  0  0  0  0  0  0  0
   -2.3298   -5.0143   21.4745 C   0  0  0  0  0  0  0  0  0  0  0  0
   -1.3201   -6.0569   21.9478 C   0  0  0  0  0  0  0  0  0  0  0  0
   -0.0068   -5.9457   21.1904 C   0  0  0  0  0  0  0  0  0  0  0  0
 11 12  1  0
 11 10  1  0
  9 10  2  0
  1  7  1  0
  1  8  1  0
 13 14  1  0
 13 12  1  0
 14 15  1  0
  2 10  1  0
  2  3  2  0
  2  4  1  0
  3  5  1  0
  4  6  2  0
  5  7  2  0
  6  7  1  0
M  END
> <PUBCHEM_COMPOUND_CID>
7184

> <PUBCHEM_CONFORMER_RMSD>
0.6

> <PUBCHEM_CONFORMER_DIVERSEORDER>
1
44
15
20
41
3
43
64
40
47
74
50
4
6
22
69
55
77
16
75
28
26
73
53
11
32
49
58
67
63
62
24
65
27
19
38
12
48
76
25
57
10
31
17
42
34
68
51
9
23
8
14
21
33
18
30
5
66
70
2
56
45
39
37
46
35
60
36
52
59
54
29
71
72
61
13
7

> <PUBCHEM_MMFF94_PARTIAL_CHARGES>
16
1 -0.43
10 -0.15
11 -0.15
12 -0.15
13 -0.15
14 0.08
2 -0.57
24 0.15
25 0.15
26 0.15
27 0.15
28 0.45
3 -0.53
6 0.28
8 0.09
9 0.63

> <PUBCHEM_EFFECTIVE_ROTOR_COUNT>
5

> <PUBCHEM_PHARMACOPHORE_FEATURES>
4
1 2 acceptor
1 3 donor
1 7 hydrophobe
6 8 10 11 12 13 14 rings

> <PUBCHEM_HEAVY_ATOM_COUNT>
14

> <PUBCHEM_ATOM_DEF_STEREO_COUNT>
0

> <PUBCHEM_ATOM_UDEF_STEREO_COUNT>
0

> <PUBCHEM_BOND_DEF_STEREO_COUNT>
0

> <PUBCHEM_BOND_UDEF_STEREO_COUNT>
0

> <PUBCHEM_ISOTOPIC_ATOM_COUNT>
0

> <PUBCHEM_COMPONENT_COUNT>
1

> <PUBCHEM_CACTVS_TAUTO_COUNT>
3

> <PUBCHEM_CONFORMER_ID>
00001C1000000001

> <PUBCHEM_MMFF94_ENERGY>
26.8162

> <PUBCHEM_FEATURE_SELFOVERLAP>
20.297

> <PUBCHEM_SHAPE_FINGERPRINT>
100836 57 10159698014692119138
10465860 250 17561082501386551480
10968037 39 18334860532716625766
11046707 91 18409446968869733128
12032990 46 18409167722807014732
12251169 10 18060418027818494140
13167823 11 18408602527187214402
13288520 33 18409730651148371639
13551218 46 18270963440792261598
13690532 89 18409730694483049495
13862211 1 18342737464162399199
14252887 29 17989215824084205230
17804303 29 18273497883401759577
17834072 33 18410577323021717172
1813 80 17968106291699631366
18186145 218 14923950067535008876
200 152 17530965761531918920
20281475 54 18337672035103360796
20767249 213 10735876175026745610
20828058 44 18273214175553485034
21267235 1 18410019844213228018
22485316 2 18408601440280660184
2297311 6 18130235869953600908
23402539 116 17846774109970031213
23463225 33 18411140233692529510
23559900 14 18270389602695558633
351380 180 10665231458300457486
351380 3 18259982652836299658
42 15 18342740719346176002
4214541 1 18340769252190604880
5104073 3 18271533095046590721
559249 180 18335415712557464698
7364860 26 18126566957732624024
83771 10 18407476665592062532

> <PUBCHEM_SHAPE_MULTIPOLES>
270.51
10.85
1.64
0.68
12.98
0.32
0
-5.61
1.62
-0.51
-0.11
-0.08
0
-0.42

> <PUBCHEM_SHAPE_SELFOVERLAP>
550.017

> <PUBCHEM_SHAPE_VOLUME>
158.1

> <PUBCHEM_COORDINATE_TYPE>
2
5
10

> <Energy>
17.0404

> <minimizedAffinity>
-6.25737

> <CNNscore>
0.9018995166

> <CNNaffinity>
5.7089247704

> <CNN_VS>
5.1488766670

> <CNNaffinity_variance>
0.2043105215

$$$$
7184


 15 15  0  0  0  0  0  0  0  0999 V2000
    1.0992   -2.3326   26.7868 O   0  0  0  0  0  0  0  0  0  0  0  0
   -1.3918   -2.2964   23.4809 C   0  0  0  0  0  0  0  0  0  0  0  0
   -1.9119   -2.6014   24.7447 C   0  0  0  0  0  0  0  0  0  0  0  0
   -0.0309   -2.0168   23.3274 C   0  0  0  0  0  0  0  0  0  0  0  0
   -1.0663   -2.6081   25.8563 C   0  0  0  0  0  0  0  0  0  0  0  0
    0.8083   -2.0252   24.4357 C   0  0  0  0  0  0  0  0  0  0  0  0
    0.2865   -2.3195   25.6963 C   0  0  0  0  0  0  0  0  0  0  0  0
    0.7460   -2.5305   27.6318 H   0  0  0  0  0  0  0  0  0  0  0  0
   -3.0031   -1.3620   22.0024 O   0  0  0  0  0  0  0  0  0  0  0  0
   -2.2851   -2.3007   22.3066 C   0  0  0  0  0  0  0  0  0  0  0  0
   -2.1515   -3.4746   21.6382 O   0  0  0  0  0  0  0  0  0  0  0  0
   -1.8883   -3.3428   20.2364 C   0  0  0  0  0  0  0  0  0  0  0  0
   -0.9992   -4.5061   19.8045 C   0  0  0  0  0  0  0  0  0  0  0  0
    0.0740   -4.8073   20.8475 C   0  0  0  0  0  0  0  0  0  0  0  0
   -0.0778   -6.2091   21.4156 C   0  0  0  0  0  0  0  0  0  0  0  0
 11 12  1  0
 11 10  1  0
  9 10  2  0
  1  7  1  0
  1  8  1  0
 13 14  1  0
 13 12  1  0
 14 15  1  0
  2 10  1  0
  2  3  2  0
  2  4  1  0
  3  5  1  0
  4  6  2  0
  5  7  2  0
  6  7  1  0
M  END
> <PUBCHEM_COMPOUND_CID>
7184

> <PUBCHEM_CONFORMER_RMSD>
0.6

> <PUBCHEM_CONFORMER_DIVERSEORDER>
1
44
15
20
41
3
43
64
40
47
74
50
4
6
22
69
55
77
16
75
28
26
73
53
11
32
49
58
67
63
62
24
65
27
19
38
12
48
76
25
57
10
31
17
42
34
68
51
9
23
8
14
21
33
18
30
5
66
70
2
56
45
39
37
46
35
60
36
52
59
54
29
71
72
61
13
7

> <PUBCHEM_MMFF94_PARTIAL_CHARGES>
16
1 -0.43
10 -0.15
11 -0.15
12 -0.15
13 -0.15
14 0.08
2 -0.57
24 0.15
25 0.15
26 0.15
27 0.15
28 0.45
3 -0.53
6 0.28
8 0.09
9 0.63

> <PUBCHEM_EFFECTIVE_ROTOR_COUNT>
5

> <PUBCHEM_PHARMACOPHORE_FEATURES>
4
1 2 acceptor
1 3 donor
1 7 hydrophobe
6 8 10 11 12 13 14 rings

> <PUBCHEM_HEAVY_ATOM_COUNT>
14

> <PUBCHEM_ATOM_DEF_STEREO_COUNT>
0

> <PUBCHEM_ATOM_UDEF_STEREO_COUNT>
0

> <PUBCHEM_BOND_DEF_STEREO_COUNT>
0

> <PUBCHEM_BOND_UDEF_STEREO_COUNT>
0

> <PUBCHEM_ISOTOPIC_ATOM_COUNT>
0

> <PUBCHEM_COMPONENT_COUNT>
1

> <PUBCHEM_CACTVS_TAUTO_COUNT>
3

> <PUBCHEM_CONFORMER_ID>
00001C1000000001

> <PUBCHEM_MMFF94_ENERGY>
26.8162

> <PUBCHEM_FEATURE_SELFOVERLAP>
20.297

> <PUBCHEM_SHAPE_FINGERPRINT>
100836 57 10159698014692119138
10465860 250 17561082501386551480
10968037 39 18334860532716625766
11046707 91 18409446968869733128
12032990 46 18409167722807014732
12251169 10 18060418027818494140
13167823 11 18408602527187214402
13288520 33 18409730651148371639
13551218 46 18270963440792261598
13690532 89 18409730694483049495
13862211 1 18342737464162399199
14252887 29 17989215824084205230
17804303 29 18273497883401759577
17834072 33 18410577323021717172
1813 80 17968106291699631366
18186145 218 14923950067535008876
200 152 17530965761531918920
20281475 54 18337672035103360796
20767249 213 10735876175026745610
20828058 44 18273214175553485034
21267235 1 18410019844213228018
22485316 2 18408601440280660184
2297311 6 18130235869953600908
23402539 116 17846774109970031213
23463225 33 18411140233692529510
23559900 14 18270389602695558633
351380 180 10665231458300457486
351380 3 18259982652836299658
42 15 18342740719346176002
4214541 1 18340769252190604880
5104073 3 18271533095046590721
559249 180 18335415712557464698
7364860 26 18126566957732624024
83771 10 18407476665592062532

> <PUBCHEM_SHAPE_MULTIPOLES>
270.51
10.85
1.64
0.68
12.98
0.32
0
-5.61
1.62
-0.51
-0.11
-0.08
0
-0.42

> <PUBCHEM_SHAPE_SELFOVERLAP>
550.017

> <PUBCHEM_SHAPE_VOLUME>
158.1

> <PUBCHEM_COORDINATE_TYPE>
2
5
10

> <Energy>
17.0404

> <minimizedAffinity>
-6.18927

> <CNNscore>
0.8992605805

> <CNNaffinity>
5.6091384888

> <CNN_VS>
5.0440769196

> <CNNaffinity_variance>
0.1732913405

$$$$
7184


 15 15  0  0  0  0  0  0  0  0999 V2000
    0.6460   -1.6272   26.0735 O   0  0  0  0  0  0  0  0  0  0  0  0
   -2.4783   -2.9068   23.6786 C   0  0  0  0  0  0  0  0  0  0  0  0
   -1.4105   -2.1980   23.1148 C   0  0  0  0  0  0  0  0  0  0  0  0
   -2.5015   -3.1732   25.0506 C   0  0  0  0  0  0  0  0  0  0  0  0
   -0.3578   -1.7725   23.9283 C   0  0  0  0  0  0  0  0  0  0  0  0
   -1.4527   -2.7476   25.8577 C   0  0  0  0  0  0  0  0  0  0  0  0
   -0.3840   -2.0501   25.2926 C   0  0  0  0  0  0  0  0  0  0  0  0
    1.3621   -1.1591   25.6913 H   0  0  0  0  0  0  0  0  0  0  0  0
   -4.7174   -2.8718   22.8781 O   0  0  0  0  0  0  0  0  0  0  0  0
   -3.5944   -3.3455   22.8189 C   0  0  0  0  0  0  0  0  0  0  0  0
   -3.1607   -4.3102   21.9681 O   0  0  0  0  0  0  0  0  0  0  0  0
   -4.1409   -4.7723   21.0315 C   0  0  0  0  0  0  0  0  0  0  0  0
   -3.7263   -4.3100   19.6370 C   0  0  0  0  0  0  0  0  0  0  0  0
   -4.3792   -2.9794   19.2714 C   0  0  0  0  0  0  0  0  0  0  0  0
   -3.3925   -1.8274   19.3724 C   0  0  0  0  0  0  0  0  0  0  0  0
 11 12  1  0
 11 10  1  0
  9 10  2  0
  1  7  1  0
  1  8  1  0
 13 14  1  0
 13 12  1  0
 14 15  1  0
  2 10  1  0
  2  3  2  0
  2  4  1  0
  3  5  1  0
  4  6  2  0
  5  7  2  0
  6  7  1  0
M  END
> <PUBCHEM_COMPOUND_CID>
7184

> <PUBCHEM_CONFORMER_RMSD>
0.6

> <PUBCHEM_CONFORMER_DIVERSEORDER>
1
44
15
20
41
3
43
64
40
47
74
50
4
6
22
69
55
77
16
75
28
26
73
53
11
32
49
58
67
63
62
24
65
27
19
38
12
48
76
25
57
10
31
17
42
34
68
51
9
23
8
14
21
33
18
30
5
66
70
2
56
45
39
37
46
35
60
36
52
59
54
29
71
72
61
13
7

> <PUBCHEM_MMFF94_PARTIAL_CHARGES>
16
1 -0.43
10 -0.15
11 -0.15
12 -0.15
13 -0.15
14 0.08
2 -0.57
24 0.15
25 0.15
26 0.15
27 0.15
28 0.45
3 -0.53
6 0.28
8 0.09
9 0.63

> <PUBCHEM_EFFECTIVE_ROTOR_COUNT>
5

> <PUBCHEM_PHARMACOPHORE_FEATURES>
4
1 2 acceptor
1 3 donor
1 7 hydrophobe
6 8 10 11 12 13 14 rings

> <PUBCHEM_HEAVY_ATOM_COUNT>
14

> <PUBCHEM_ATOM_DEF_STEREO_COUNT>
0

> <PUBCHEM_ATOM_UDEF_STEREO_COUNT>
0

> <PUBCHEM_BOND_DEF_STEREO_COUNT>
0

> <PUBCHEM_BOND_UDEF_STEREO_COUNT>
0

> <PUBCHEM_ISOTOPIC_ATOM_COUNT>
0

> <PUBCHEM_COMPONENT_COUNT>
1

> <PUBCHEM_CACTVS_TAUTO_COUNT>
3

> <PUBCHEM_CONFORMER_ID>
00001C1000000001

> <PUBCHEM_MMFF94_ENERGY>
26.8162

> <PUBCHEM_FEATURE_SELFOVERLAP>
20.297

> <PUBCHEM_SHAPE_FINGERPRINT>
100836 57 10159698014692119138
10465860 250 17561082501386551480
10968037 39 18334860532716625766
11046707 91 18409446968869733128
12032990 46 18409167722807014732
12251169 10 18060418027818494140
13167823 11 18408602527187214402
13288520 33 18409730651148371639
13551218 46 18270963440792261598
13690532 89 18409730694483049495
13862211 1 18342737464162399199
14252887 29 17989215824084205230
17804303 29 18273497883401759577
17834072 33 18410577323021717172
1813 80 17968106291699631366
18186145 218 14923950067535008876
200 152 17530965761531918920
20281475 54 18337672035103360796
20767249 213 10735876175026745610
20828058 44 18273214175553485034
21267235 1 18410019844213228018
22485316 2 18408601440280660184
2297311 6 18130235869953600908
23402539 116 17846774109970031213
23463225 33 18411140233692529510
23559900 14 18270389602695558633
351380 180 10665231458300457486
351380 3 18259982652836299658
42 15 18342740719346176002
4214541 1 18340769252190604880
5104073 3 18271533095046590721
559249 180 18335415712557464698
7364860 26 18126566957732624024
83771 10 18407476665592062532

> <PUBCHEM_SHAPE_MULTIPOLES>
270.51
10.85
1.64
0.68
12.98
0.32
0
-5.61
1.62
-0.51
-0.11
-0.08
0
-0.42

> <PUBCHEM_SHAPE_SELFOVERLAP>
550.017

> <PUBCHEM_SHAPE_VOLUME>
158.1

> <PUBCHEM_COORDINATE_TYPE>
2
5
10

> <Energy>
17.0404

> <minimizedAffinity>
-6.11795

> <CNNscore>
0.8479049206

> <CNNaffinity>
5.8503036499

> <CNN_VS>
4.9605011940

> <CNNaffinity_variance>
0.7301802635

$$$$
