5991


 24 27  0  0  0  0  0  0  0  0999 V2000
   26.3619   -2.2424   11.5106 O   0  0  0  0  0  0  0  0  0  0  0  0
   20.2351   -1.8158    2.4099 O   0  0  0  0  0  0  0  0  0  0  0  0
   24.9400   -2.5550    9.5120 C   0  0  0  0  0  0  0  0  0  0  0  0
   23.9443   -3.6864    9.1668 C   0  0  0  0  0  0  0  0  0  0  0  0
   22.9477   -3.2817    8.0778 C   0  0  0  0  0  0  0  0  0  0  0  0
   25.7138   -3.2127   10.6972 C   0  0  0  0  0  0  0  0  0  0  0  0
   23.7340   -2.9372    6.7774 C   0  0  0  0  0  0  0  0  0  0  0  0
   25.7425   -2.2226    8.2399 C   0  0  0  0  0  0  0  0  0  0  0  0
   23.4068   -4.1165   10.5293 C   0  0  0  0  0  0  0  0  0  0  0  0
   24.8283   -1.8722    7.0490 C   0  0  0  0  0  0  0  0  0  0  0  0
   24.5856   -3.9128   11.5005 C   0  0  0  0  0  0  0  0  0  0  0  0
   21.9369   -4.3889    7.7692 C   0  0  0  0  0  0  0  0  0  0  0  0
   24.2527   -1.2478   10.0062 C   0  0  0  0  0  0  0  0  0  0  0  0
   22.7836   -2.6074    5.6269 C   0  0  0  0  0  0  0  0  0  0  0  0
   20.8865   -3.8726    6.7911 C   0  0  0  0  0  0  0  0  0  0  0  0
   21.4578   -3.0943    5.6320 C   0  0  0  0  0  0  0  0  0  0  0  0
   23.2262   -1.8960    4.4984 C   0  0  0  0  0  0  0  0  0  0  0  0
   20.6014   -2.8115    4.5507 C   0  0  0  0  0  0  0  0  0  0  0  0
   22.3667   -1.6301    3.4238 C   0  0  0  0  0  0  0  0  0  0  0  0
   21.0585   -2.0869    3.4620 C   0  0  0  0  0  0  0  0  0  0  0  0
   25.7153   -1.5807   11.8020 H   0  0  0  0  0  0  0  0  0  0  0  0
   19.3479   -2.1171    2.4196 H   0  0  0  0  0  0  0  0  0  0  0  0
   26.7236   -4.2007   10.2728 C   0  0  0  0  0  0  0  0  0  0  0  0
   27.5414   -5.0065    9.9123 C   0  0  0  0  0  0  0  0  0  0  0  0
  1  6  1  0
  1 21  1  0
  2 20  1  0
  2 22  1  0
  3  4  1  0
  3  6  1  0
  3  8  1  0
  3 13  1  0
  4  5  1  0
  4  9  1  0
  5  7  1  0
  5 12  1  0
  6 11  1  0
  6 23  1  0
  7 10  1  0
  7 14  1  0
  8 10  1  0
  9 11  1  0
 12 15  1  0
 14 16  2  0
 14 17  1  0
 15 16  1  0
 16 18  1  0
 23 24  3  0
 17 19  2  0
 18 20  2  0
 19 20  1  0
M  END
> <PUBCHEM_COMPOUND_CID>
5991

> <PUBCHEM_CONFORMER_RMSD>
0.6

> <PUBCHEM_CONFORMER_DIVERSEORDER>
1

> <PUBCHEM_MMFF94_PARTIAL_CHARGES>
19
1 -0.68
14 -0.14
15 0.14
16 -0.14
17 -0.2
18 -0.15
19 -0.15
2 -0.53
20 -0.15
21 0.08
22 -0.18
41 0.4
42 0.15
43 0.15
44 0.15
45 0.18
46 0.45
6 0.48
7 0.14

> <PUBCHEM_EFFECTIVE_ROTOR_COUNT>
1.4

> <PUBCHEM_PHARMACOPHORE_FEATURES>
8
1 1 acceptor
1 1 donor
1 2 donor
1 22 hydrophobe
5 3 4 6 9 11 rings
6 14 16 18 19 20 21 rings
6 3 4 5 7 8 10 rings
6 5 7 12 14 15 16 rings

> <PUBCHEM_HEAVY_ATOM_COUNT>
22

> <PUBCHEM_ATOM_DEF_STEREO_COUNT>
5

> <PUBCHEM_ATOM_UDEF_STEREO_COUNT>
0

> <PUBCHEM_BOND_DEF_STEREO_COUNT>
0

> <PUBCHEM_BOND_UDEF_STEREO_COUNT>
0

> <PUBCHEM_ISOTOPIC_ATOM_COUNT>
0

> <PUBCHEM_COMPONENT_COUNT>
1

> <PUBCHEM_CACTVS_TAUTO_COUNT>
9

> <PUBCHEM_CONFORMER_ID>
0000176700000001

> <PUBCHEM_MMFF94_ENERGY>
75.3654

> <PUBCHEM_FEATURE_SELFOVERLAP>
40.689

> <PUBCHEM_SHAPE_FINGERPRINT>
10498660 4 18334565854482978588
10616163 171 18412261769892000550
10906281 52 18268729332496851400
10967382 1 18409163299196382730
11132069 177 18260823830106114581
11315181 36 17846777438100329984
11552529 35 18058445585631877095
11578080 2 16952518088400902894
11796584 16 15123796154675551020
12107183 9 17697047933183828707
12236239 1 17917992754997443209
12403259 415 18260540148118003532
12403814 3 17531241756051219503
12633257 1 18411416168188185458
12644460 14 18260827060354363322
12788726 201 17059505002047033793
128620 24 17385724690407290772
13140716 1 18264499557760559337
13224815 77 18408318891198213202
13675066 3 17749393654488776519
14790565 3 18338806709892665688
15163728 17 15481289097577292713
15183329 4 18408605830407435614
15196674 1 18337388339818468438
15209289 33 18341332270467662817
15209294 21 18059584555192331817
15309172 13 18409451371427638915
15536298 74 18341610425830279326
15788980 27 17749105603943632888
16945 1 18265320738190372627
17349148 13 18114176445825312880
1813 80 17530976782159466655
18186145 218 18409161126111612646
19489759 90 15410896249631894657
19591789 44 18193273216009210722
200 152 17918273168974754922
21033648 29 17968079933063946356
21267235 1 18338240469814837151
21623110 236 18263368155990106261
23402539 116 18410566319162361766
23402655 69 18201721773563375622
23559900 14 18341325700027887232
335352 9 18410007719541319564
34934 24 18335695014618288215
350125 39 18408603674022772468
3545911 37 18408602569419241710
3680242 22 18335416829913620042
4214541 1 18412824715549947695
474 4 18408605889666299408
5104073 3 18339077194179428906
542803 24 17561084709247609168
59755656 215 18335983078396721054
633830 44 18202282537272954908
9709674 26 18410014338397756278

> <PUBCHEM_SHAPE_MULTIPOLES>
441.01
10.64
2.03
1.22
7.18
0.55
-0.05
-1.94
-1.01
0.21
-0.15
-1.94
-0.33
-0.49

> <PUBCHEM_SHAPE_SELFOVERLAP>
961.464

> <PUBCHEM_SHAPE_VOLUME>
238.8

> <PUBCHEM_COORDINATE_TYPE>
2
5
10

> <Energy>
61.5647

> <minimizedAffinity>
-9.23616

> <CNNscore>
0.8846681714

> <CNNaffinity>
8.2161836624

> <CNN_VS>
7.2685961723

> <CNNaffinity_variance>
0.8172330856

$$$$
5991


 24 27  0  0  0  0  0  0  0  0999 V2000
   25.5706   -5.1660   11.4413 O   0  0  0  0  0  0  0  0  0  0  0  0
   20.1868   -2.4612    2.2631 O   0  0  0  0  0  0  0  0  0  0  0  0
   24.6648   -4.2849    9.3159 C   0  0  0  0  0  0  0  0  0  0  0  0
   25.3797   -3.5495    8.1589 C   0  0  0  0  0  0  0  0  0  0  0  0
   24.5781   -3.5831    6.8554 C   0  0  0  0  0  0  0  0  0  0  0  0
   25.7532   -4.1828   10.4299 C   0  0  0  0  0  0  0  0  0  0  0  0
   23.2100   -2.8738    7.0864 C   0  0  0  0  0  0  0  0  0  0  0  0
   23.3210   -3.5767    9.5718 C   0  0  0  0  0  0  0  0  0  0  0  0
   26.7847   -4.1465    8.1710 C   0  0  0  0  0  0  0  0  0  0  0  0
   22.4583   -3.4855    8.2973 C   0  0  0  0  0  0  0  0  0  0  0  0
   27.0690   -4.4557    9.6536 C   0  0  0  0  0  0  0  0  0  0  0  0
   25.3083   -2.8914    5.7017 C   0  0  0  0  0  0  0  0  0  0  0  0
   24.3721   -5.7849    9.0160 C   0  0  0  0  0  0  0  0  0  0  0  0
   22.3991   -2.8008    5.7930 C   0  0  0  0  0  0  0  0  0  0  0  0
   24.5307   -3.0894    4.4045 C   0  0  0  0  0  0  0  0  0  0  0  0
   23.0456   -2.8611    4.5387 C   0  0  0  0  0  0  0  0  0  0  0  0
   21.0113   -2.5799    5.8156 C   0  0  0  0  0  0  0  0  0  0  0  0
   22.2914   -2.7596    3.3541 C   0  0  0  0  0  0  0  0  0  0  0  0
   20.2734   -2.4702    4.6292 C   0  0  0  0  0  0  0  0  0  0  0  0
   20.9207   -2.5661    3.4071 C   0  0  0  0  0  0  0  0  0  0  0  0
   25.5280   -6.0452   11.0337 H   0  0  0  0  0  0  0  0  0  0  0  0
   20.6085   -2.5237    1.4286 H   0  0  0  0  0  0  0  0  0  0  0  0
   25.8135   -2.8615   11.0831 C   0  0  0  0  0  0  0  0  0  0  0  0
   25.8654   -1.7772   11.6022 C   0  0  0  0  0  0  0  0  0  0  0  0
  1  6  1  0
  1 21  1  0
  2 20  1  0
  2 22  1  0
  3  4  1  0
  3  6  1  0
  3  8  1  0
  3 13  1  0
  4  5  1  0
  4  9  1  0
  5  7  1  0
  5 12  1  0
  6 11  1  0
  6 23  1  0
  7 10  1  0
  7 14  1  0
  8 10  1  0
  9 11  1  0
 12 15  1  0
 14 16  2  0
 14 17  1  0
 15 16  1  0
 16 18  1  0
 23 24  3  0
 17 19  2  0
 18 20  2  0
 19 20  1  0
M  END
> <PUBCHEM_COMPOUND_CID>
5991

> <PUBCHEM_CONFORMER_RMSD>
0.6

> <PUBCHEM_CONFORMER_DIVERSEORDER>
1

> <PUBCHEM_MMFF94_PARTIAL_CHARGES>
19
1 -0.68
14 -0.14
15 0.14
16 -0.14
17 -0.2
18 -0.15
19 -0.15
2 -0.53
20 -0.15
21 0.08
22 -0.18
41 0.4
42 0.15
43 0.15
44 0.15
45 0.18
46 0.45
6 0.48
7 0.14

> <PUBCHEM_EFFECTIVE_ROTOR_COUNT>
1.4

> <PUBCHEM_PHARMACOPHORE_FEATURES>
8
1 1 acceptor
1 1 donor
1 2 donor
1 22 hydrophobe
5 3 4 6 9 11 rings
6 14 16 18 19 20 21 rings
6 3 4 5 7 8 10 rings
6 5 7 12 14 15 16 rings

> <PUBCHEM_HEAVY_ATOM_COUNT>
22

> <PUBCHEM_ATOM_DEF_STEREO_COUNT>
5

> <PUBCHEM_ATOM_UDEF_STEREO_COUNT>
0

> <PUBCHEM_BOND_DEF_STEREO_COUNT>
0

> <PUBCHEM_BOND_UDEF_STEREO_COUNT>
0

> <PUBCHEM_ISOTOPIC_ATOM_COUNT>
0

> <PUBCHEM_COMPONENT_COUNT>
1

> <PUBCHEM_CACTVS_TAUTO_COUNT>
9

> <PUBCHEM_CONFORMER_ID>
0000176700000001

> <PUBCHEM_MMFF94_ENERGY>
75.3654

> <PUBCHEM_FEATURE_SELFOVERLAP>
40.689

> <PUBCHEM_SHAPE_FINGERPRINT>
10498660 4 18334565854482978588
10616163 171 18412261769892000550
10906281 52 18268729332496851400
10967382 1 18409163299196382730
11132069 177 18260823830106114581
11315181 36 17846777438100329984
11552529 35 18058445585631877095
11578080 2 16952518088400902894
11796584 16 15123796154675551020
12107183 9 17697047933183828707
12236239 1 17917992754997443209
12403259 415 18260540148118003532
12403814 3 17531241756051219503
12633257 1 18411416168188185458
12644460 14 18260827060354363322
12788726 201 17059505002047033793
128620 24 17385724690407290772
13140716 1 18264499557760559337
13224815 77 18408318891198213202
13675066 3 17749393654488776519
14790565 3 18338806709892665688
15163728 17 15481289097577292713
15183329 4 18408605830407435614
15196674 1 18337388339818468438
15209289 33 18341332270467662817
15209294 21 18059584555192331817
15309172 13 18409451371427638915
15536298 74 18341610425830279326
15788980 27 17749105603943632888
16945 1 18265320738190372627
17349148 13 18114176445825312880
1813 80 17530976782159466655
18186145 218 18409161126111612646
19489759 90 15410896249631894657
19591789 44 18193273216009210722
200 152 17918273168974754922
21033648 29 17968079933063946356
21267235 1 18338240469814837151
21623110 236 18263368155990106261
23402539 116 18410566319162361766
23402655 69 18201721773563375622
23559900 14 18341325700027887232
335352 9 18410007719541319564
34934 24 18335695014618288215
350125 39 18408603674022772468
3545911 37 18408602569419241710
3680242 22 18335416829913620042
4214541 1 18412824715549947695
474 4 18408605889666299408
5104073 3 18339077194179428906
542803 24 17561084709247609168
59755656 215 18335983078396721054
633830 44 18202282537272954908
9709674 26 18410014338397756278

> <PUBCHEM_SHAPE_MULTIPOLES>
441.01
10.64
2.03
1.22
7.18
0.55
-0.05
-1.94
-1.01
0.21
-0.15
-1.94
-0.33
-0.49

> <PUBCHEM_SHAPE_SELFOVERLAP>
961.464

> <PUBCHEM_SHAPE_VOLUME>
238.8

> <PUBCHEM_COORDINATE_TYPE>
2
5
10

> <Energy>
61.5647

> <minimizedAffinity>
-8.07209

> <CNNscore>
0.5109050274

> <CNNaffinity>
7.7263417244

> <CNN_VS>
3.9474267960

> <CNNaffinity_variance>
0.5610892773

$$$$
5991


 24 27  0  0  0  0  0  0  0  0999 V2000
   26.9750   -2.5828    8.1341 O   0  0  0  0  0  0  0  0  0  0  0  0
   18.5877   -5.6805   14.5059 O   0  0  0  0  0  0  0  0  0  0  0  0
   24.8462   -3.1307    9.2666 C   0  0  0  0  0  0  0  0  0  0  0  0
   23.4306   -3.3338    8.6791 C   0  0  0  0  0  0  0  0  0  0  0  0
   22.5031   -4.0968    9.6280 C   0  0  0  0  0  0  0  0  0  0  0  0
   25.5605   -2.4562    8.0537 C   0  0  0  0  0  0  0  0  0  0  0  0
   22.3500   -3.2815   10.9472 C   0  0  0  0  0  0  0  0  0  0  0  0
   24.7111   -2.3030   10.5587 C   0  0  0  0  0  0  0  0  0  0  0  0
   23.6995   -3.9142    7.2930 C   0  0  0  0  0  0  0  0  0  0  0  0
   23.7332   -2.9452   11.5627 C   0  0  0  0  0  0  0  0  0  0  0  0
   25.0218   -3.2635    6.8428 C   0  0  0  0  0  0  0  0  0  0  0  0
   21.1160   -4.3334    9.0258 C   0  0  0  0  0  0  0  0  0  0  0  0
   25.5731   -4.4623    9.6185 C   0  0  0  0  0  0  0  0  0  0  0  0
   21.3647   -3.9542   11.9023 C   0  0  0  0  0  0  0  0  0  0  0  0
   20.2942   -5.2229    9.9531 C   0  0  0  0  0  0  0  0  0  0  0  0
   20.3756   -4.8330   11.4080 C   0  0  0  0  0  0  0  0  0  0  0  0
   21.3560   -3.6476   13.2739 C   0  0  0  0  0  0  0  0  0  0  0  0
   19.4524   -5.4212   12.2937 C   0  0  0  0  0  0  0  0  0  0  0  0
   20.4250   -4.2317   14.1434 C   0  0  0  0  0  0  0  0  0  0  0  0
   19.4831   -5.1185   13.6452 C   0  0  0  0  0  0  0  0  0  0  0  0
   27.2105   -3.5178    8.2394 H   0  0  0  0  0  0  0  0  0  0  0  0
   17.9444   -6.2820   14.1858 H   0  0  0  0  0  0  0  0  0  0  0  0
   25.2384   -1.0255    7.8944 C   0  0  0  0  0  0  0  0  0  0  0  0
   24.9606    0.1381    7.7650 C   0  0  0  0  0  0  0  0  0  0  0  0
  1  6  1  0
  1 21  1  0
  2 20  1  0
  2 22  1  0
  3  4  1  0
  3  6  1  0
  3  8  1  0
  3 13  1  0
  4  5  1  0
  4  9  1  0
  5  7  1  0
  5 12  1  0
  6 11  1  0
  6 23  1  0
  7 10  1  0
  7 14  1  0
  8 10  1  0
  9 11  1  0
 12 15  1  0
 14 16  2  0
 14 17  1  0
 15 16  1  0
 16 18  1  0
 23 24  3  0
 17 19  2  0
 18 20  2  0
 19 20  1  0
M  END
> <PUBCHEM_COMPOUND_CID>
5991

> <PUBCHEM_CONFORMER_RMSD>
0.6

> <PUBCHEM_CONFORMER_DIVERSEORDER>
1

> <PUBCHEM_MMFF94_PARTIAL_CHARGES>
19
1 -0.68
14 -0.14
15 0.14
16 -0.14
17 -0.2
18 -0.15
19 -0.15
2 -0.53
20 -0.15
21 0.08
22 -0.18
41 0.4
42 0.15
43 0.15
44 0.15
45 0.18
46 0.45
6 0.48
7 0.14

> <PUBCHEM_EFFECTIVE_ROTOR_COUNT>
1.4

> <PUBCHEM_PHARMACOPHORE_FEATURES>
8
1 1 acceptor
1 1 donor
1 2 donor
1 22 hydrophobe
5 3 4 6 9 11 rings
6 14 16 18 19 20 21 rings
6 3 4 5 7 8 10 rings
6 5 7 12 14 15 16 rings

> <PUBCHEM_HEAVY_ATOM_COUNT>
22

> <PUBCHEM_ATOM_DEF_STEREO_COUNT>
5

> <PUBCHEM_ATOM_UDEF_STEREO_COUNT>
0

> <PUBCHEM_BOND_DEF_STEREO_COUNT>
0

> <PUBCHEM_BOND_UDEF_STEREO_COUNT>
0

> <PUBCHEM_ISOTOPIC_ATOM_COUNT>
0

> <PUBCHEM_COMPONENT_COUNT>
1

> <PUBCHEM_CACTVS_TAUTO_COUNT>
9

> <PUBCHEM_CONFORMER_ID>
0000176700000001

> <PUBCHEM_MMFF94_ENERGY>
75.3654

> <PUBCHEM_FEATURE_SELFOVERLAP>
40.689

> <PUBCHEM_SHAPE_FINGERPRINT>
10498660 4 18334565854482978588
10616163 171 18412261769892000550
10906281 52 18268729332496851400
10967382 1 18409163299196382730
11132069 177 18260823830106114581
11315181 36 17846777438100329984
11552529 35 18058445585631877095
11578080 2 16952518088400902894
11796584 16 15123796154675551020
12107183 9 17697047933183828707
12236239 1 17917992754997443209
12403259 415 18260540148118003532
12403814 3 17531241756051219503
12633257 1 18411416168188185458
12644460 14 18260827060354363322
12788726 201 17059505002047033793
128620 24 17385724690407290772
13140716 1 18264499557760559337
13224815 77 18408318891198213202
13675066 3 17749393654488776519
14790565 3 18338806709892665688
15163728 17 15481289097577292713
15183329 4 18408605830407435614
15196674 1 18337388339818468438
15209289 33 18341332270467662817
15209294 21 18059584555192331817
15309172 13 18409451371427638915
15536298 74 18341610425830279326
15788980 27 17749105603943632888
16945 1 18265320738190372627
17349148 13 18114176445825312880
1813 80 17530976782159466655
18186145 218 18409161126111612646
19489759 90 15410896249631894657
19591789 44 18193273216009210722
200 152 17918273168974754922
21033648 29 17968079933063946356
21267235 1 18338240469814837151
21623110 236 18263368155990106261
23402539 116 18410566319162361766
23402655 69 18201721773563375622
23559900 14 18341325700027887232
335352 9 18410007719541319564
34934 24 18335695014618288215
350125 39 18408603674022772468
3545911 37 18408602569419241710
3680242 22 18335416829913620042
4214541 1 18412824715549947695
474 4 18408605889666299408
5104073 3 18339077194179428906
542803 24 17561084709247609168
59755656 215 18335983078396721054
633830 44 18202282537272954908
9709674 26 18410014338397756278

> <PUBCHEM_SHAPE_MULTIPOLES>
441.01
10.64
2.03
1.22
7.18
0.55
-0.05
-1.94
-1.01
0.21
-0.15
-1.94
-0.33
-0.49

> <PUBCHEM_SHAPE_SELFOVERLAP>
961.464

> <PUBCHEM_SHAPE_VOLUME>
238.8

> <PUBCHEM_COORDINATE_TYPE>
2
5
10

> <Energy>
61.5647

> <minimizedAffinity>
19.34649

> <CNNscore>
0.2493394464

> <CNNaffinity>
5.9366364479

> <CNN_VS>
1.4802376032

> <CNNaffinity_variance>
0.1676093489

$$$$
5991


 24 27  0  0  0  0  0  0  0  0999 V2000
   20.0629   -2.7748    3.8181 O   0  0  0  0  0  0  0  0  0  0  0  0
   27.8984   -2.6836   11.5084 O   0  0  0  0  0  0  0  0  0  0  0  0
   22.0803   -2.6425    5.2418 C   0  0  0  0  0  0  0  0  0  0  0  0
   23.4006   -1.8671    5.0265 C   0  0  0  0  0  0  0  0  0  0  0  0
   24.1917   -1.6798    6.3234 C   0  0  0  0  0  0  0  0  0  0  0  0
   21.4693   -2.5620    3.8078 C   0  0  0  0  0  0  0  0  0  0  0  0
   24.5600   -3.0813    6.8963 C   0  0  0  0  0  0  0  0  0  0  0  0
   22.4324   -4.0406    5.7842 C   0  0  0  0  0  0  0  0  0  0  0  0
   22.9639   -0.6283    4.2488 C   0  0  0  0  0  0  0  0  0  0  0  0
   23.2996   -3.9706    7.0569 C   0  0  0  0  0  0  0  0  0  0  0  0
   21.7839   -1.1041    3.3794 C   0  0  0  0  0  0  0  0  0  0  0  0
   25.4765   -0.8749    6.1138 C   0  0  0  0  0  0  0  0  0  0  0  0
   21.1134   -1.9600    6.2541 C   0  0  0  0  0  0  0  0  0  0  0  0
   25.4262   -2.9569    8.1492 C   0  0  0  0  0  0  0  0  0  0  0  0
   26.1377   -0.5960    7.4598 C   0  0  0  0  0  0  0  0  0  0  0  0
   26.1959   -1.7941    8.3744 C   0  0  0  0  0  0  0  0  0  0  0  0
   25.5522   -4.0234    9.0559 C   0  0  0  0  0  0  0  0  0  0  0  0
   27.0156   -1.7045    9.5157 C   0  0  0  0  0  0  0  0  0  0  0  0
   26.3797   -3.9255   10.1826 C   0  0  0  0  0  0  0  0  0  0  0  0
   27.1014   -2.7631   10.4052 C   0  0  0  0  0  0  0  0  0  0  0  0
   19.6472   -2.1588    4.4415 H   0  0  0  0  0  0  0  0  0  0  0  0
   28.3930   -1.9052   11.6739 H   0  0  0  0  0  0  0  0  0  0  0  0
   22.0680   -3.5129    2.8521 C   0  0  0  0  0  0  0  0  0  0  0  0
   22.5540   -4.2785    2.0611 C   0  0  0  0  0  0  0  0  0  0  0  0
  1  6  1  0
  1 21  1  0
  2 20  1  0
  2 22  1  0
  3  4  1  0
  3  6  1  0
  3  8  1  0
  3 13  1  0
  4  5  1  0
  4  9  1  0
  5  7  1  0
  5 12  1  0
  6 11  1  0
  6 23  1  0
  7 10  1  0
  7 14  1  0
  8 10  1  0
  9 11  1  0
 12 15  1  0
 14 16  2  0
 14 17  1  0
 15 16  1  0
 16 18  1  0
 23 24  3  0
 17 19  2  0
 18 20  2  0
 19 20  1  0
M  END
> <PUBCHEM_COMPOUND_CID>
5991

> <PUBCHEM_CONFORMER_RMSD>
0.6

> <PUBCHEM_CONFORMER_DIVERSEORDER>
1

> <PUBCHEM_MMFF94_PARTIAL_CHARGES>
19
1 -0.68
14 -0.14
15 0.14
16 -0.14
17 -0.2
18 -0.15
19 -0.15
2 -0.53
20 -0.15
21 0.08
22 -0.18
41 0.4
42 0.15
43 0.15
44 0.15
45 0.18
46 0.45
6 0.48
7 0.14

> <PUBCHEM_EFFECTIVE_ROTOR_COUNT>
1.4

> <PUBCHEM_PHARMACOPHORE_FEATURES>
8
1 1 acceptor
1 1 donor
1 2 donor
1 22 hydrophobe
5 3 4 6 9 11 rings
6 14 16 18 19 20 21 rings
6 3 4 5 7 8 10 rings
6 5 7 12 14 15 16 rings

> <PUBCHEM_HEAVY_ATOM_COUNT>
22

> <PUBCHEM_ATOM_DEF_STEREO_COUNT>
5

> <PUBCHEM_ATOM_UDEF_STEREO_COUNT>
0

> <PUBCHEM_BOND_DEF_STEREO_COUNT>
0

> <PUBCHEM_BOND_UDEF_STEREO_COUNT>
0

> <PUBCHEM_ISOTOPIC_ATOM_COUNT>
0

> <PUBCHEM_COMPONENT_COUNT>
1

> <PUBCHEM_CACTVS_TAUTO_COUNT>
9

> <PUBCHEM_CONFORMER_ID>
0000176700000001

> <PUBCHEM_MMFF94_ENERGY>
75.3654

> <PUBCHEM_FEATURE_SELFOVERLAP>
40.689

> <PUBCHEM_SHAPE_FINGERPRINT>
10498660 4 18334565854482978588
10616163 171 18412261769892000550
10906281 52 18268729332496851400
10967382 1 18409163299196382730
11132069 177 18260823830106114581
11315181 36 17846777438100329984
11552529 35 18058445585631877095
11578080 2 16952518088400902894
11796584 16 15123796154675551020
12107183 9 17697047933183828707
12236239 1 17917992754997443209
12403259 415 18260540148118003532
12403814 3 17531241756051219503
12633257 1 18411416168188185458
12644460 14 18260827060354363322
12788726 201 17059505002047033793
128620 24 17385724690407290772
13140716 1 18264499557760559337
13224815 77 18408318891198213202
13675066 3 17749393654488776519
14790565 3 18338806709892665688
15163728 17 15481289097577292713
15183329 4 18408605830407435614
15196674 1 18337388339818468438
15209289 33 18341332270467662817
15209294 21 18059584555192331817
15309172 13 18409451371427638915
15536298 74 18341610425830279326
15788980 27 17749105603943632888
16945 1 18265320738190372627
17349148 13 18114176445825312880
1813 80 17530976782159466655
18186145 218 18409161126111612646
19489759 90 15410896249631894657
19591789 44 18193273216009210722
200 152 17918273168974754922
21033648 29 17968079933063946356
21267235 1 18338240469814837151
21623110 236 18263368155990106261
23402539 116 18410566319162361766
23402655 69 18201721773563375622
23559900 14 18341325700027887232
335352 9 18410007719541319564
34934 24 18335695014618288215
350125 39 18408603674022772468
3545911 37 18408602569419241710
3680242 22 18335416829913620042
4214541 1 18412824715549947695
474 4 18408605889666299408
5104073 3 18339077194179428906
542803 24 17561084709247609168
59755656 215 18335983078396721054
633830 44 18202282537272954908
9709674 26 18410014338397756278

> <PUBCHEM_SHAPE_MULTIPOLES>
441.01
10.64
2.03
1.22
7.18
0.55
-0.05
-1.94
-1.01
0.21
-0.15
-1.94
-0.33
-0.49

> <PUBCHEM_SHAPE_SELFOVERLAP>
961.464

> <PUBCHEM_SHAPE_VOLUME>
238.8

> <PUBCHEM_COORDINATE_TYPE>
2
5
10

> <Energy>
61.5647

> <minimizedAffinity>
-5.10306

> <CNNscore>
0.1984518319

> <CNNaffinity>
7.0858101845

> <CNN_VS>
1.4061920643

> <CNNaffinity_variance>
0.4084988534

$$$$
5991


 24 27  0  0  0  0  0  0  0  0999 V2000
   20.4978   -1.5343    3.4522 O   0  0  0  0  0  0  0  0  0  0  0  0
   25.6142   -5.4377   12.3476 O   0  0  0  0  0  0  0  0  0  0  0  0
   21.9753   -2.4629    5.2041 C   0  0  0  0  0  0  0  0  0  0  0  0
   23.5187   -2.5210    5.2756 C   0  0  0  0  0  0  0  0  0  0  0  0
   24.0340   -2.7502    6.6985 C   0  0  0  0  0  0  0  0  0  0  0  0
   21.7762   -2.1077    3.6974 C   0  0  0  0  0  0  0  0  0  0  0  0
   23.4896   -4.1146    7.2183 C   0  0  0  0  0  0  0  0  0  0  0  0
   21.4249   -3.8165    5.6914 C   0  0  0  0  0  0  0  0  0  0  0  0
   23.9579   -1.2629    4.5307 C   0  0  0  0  0  0  0  0  0  0  0  0
   21.9453   -4.1862    7.0947 C   0  0  0  0  0  0  0  0  0  0  0  0
   22.8890   -1.0572    3.4399 C   0  0  0  0  0  0  0  0  0  0  0  0
   25.5628   -2.7643    6.7718 C   0  0  0  0  0  0  0  0  0  0  0  0
   21.3512   -1.3409    6.0858 C   0  0  0  0  0  0  0  0  0  0  0  0
   24.0418   -4.4384    8.6061 C   0  0  0  0  0  0  0  0  0  0  0  0
   26.0102   -2.8454    8.2278 C   0  0  0  0  0  0  0  0  0  0  0  0
   25.2542   -3.8626    9.0460 C   0  0  0  0  0  0  0  0  0  0  0  0
   23.4133   -5.3810    9.4378 C   0  0  0  0  0  0  0  0  0  0  0  0
   25.7701   -4.1940   10.3135 C   0  0  0  0  0  0  0  0  0  0  0  0
   23.9426   -5.7100   10.6930 C   0  0  0  0  0  0  0  0  0  0  0  0
   25.1157   -5.1088   11.1222 C   0  0  0  0  0  0  0  0  0  0  0  0
   20.3661   -0.7743    4.0405 H   0  0  0  0  0  0  0  0  0  0  0  0
   26.4061   -5.0407   12.6532 H   0  0  0  0  0  0  0  0  0  0  0  0
   21.9428   -3.2575    2.7884 C   0  0  0  0  0  0  0  0  0  0  0  0
   22.0698   -4.1884    2.0365 C   0  0  0  0  0  0  0  0  0  0  0  0
  1  6  1  0
  1 21  1  0
  2 20  1  0
  2 22  1  0
  3  4  1  0
  3  6  1  0
  3  8  1  0
  3 13  1  0
  4  5  1  0
  4  9  1  0
  5  7  1  0
  5 12  1  0
  6 11  1  0
  6 23  1  0
  7 10  1  0
  7 14  1  0
  8 10  1  0
  9 11  1  0
 12 15  1  0
 14 16  2  0
 14 17  1  0
 15 16  1  0
 16 18  1  0
 23 24  3  0
 17 19  2  0
 18 20  2  0
 19 20  1  0
M  END
> <PUBCHEM_COMPOUND_CID>
5991

> <PUBCHEM_CONFORMER_RMSD>
0.6

> <PUBCHEM_CONFORMER_DIVERSEORDER>
1

> <PUBCHEM_MMFF94_PARTIAL_CHARGES>
19
1 -0.68
14 -0.14
15 0.14
16 -0.14
17 -0.2
18 -0.15
19 -0.15
2 -0.53
20 -0.15
21 0.08
22 -0.18
41 0.4
42 0.15
43 0.15
44 0.15
45 0.18
46 0.45
6 0.48
7 0.14

> <PUBCHEM_EFFECTIVE_ROTOR_COUNT>
1.4

> <PUBCHEM_PHARMACOPHORE_FEATURES>
8
1 1 acceptor
1 1 donor
1 2 donor
1 22 hydrophobe
5 3 4 6 9 11 rings
6 14 16 18 19 20 21 rings
6 3 4 5 7 8 10 rings
6 5 7 12 14 15 16 rings

> <PUBCHEM_HEAVY_ATOM_COUNT>
22

> <PUBCHEM_ATOM_DEF_STEREO_COUNT>
5

> <PUBCHEM_ATOM_UDEF_STEREO_COUNT>
0

> <PUBCHEM_BOND_DEF_STEREO_COUNT>
0

> <PUBCHEM_BOND_UDEF_STEREO_COUNT>
0

> <PUBCHEM_ISOTOPIC_ATOM_COUNT>
0

> <PUBCHEM_COMPONENT_COUNT>
1

> <PUBCHEM_CACTVS_TAUTO_COUNT>
9

> <PUBCHEM_CONFORMER_ID>
0000176700000001

> <PUBCHEM_MMFF94_ENERGY>
75.3654

> <PUBCHEM_FEATURE_SELFOVERLAP>
40.689

> <PUBCHEM_SHAPE_FINGERPRINT>
10498660 4 18334565854482978588
10616163 171 18412261769892000550
10906281 52 18268729332496851400
10967382 1 18409163299196382730
11132069 177 18260823830106114581
11315181 36 17846777438100329984
11552529 35 18058445585631877095
11578080 2 16952518088400902894
11796584 16 15123796154675551020
12107183 9 17697047933183828707
12236239 1 17917992754997443209
12403259 415 18260540148118003532
12403814 3 17531241756051219503
12633257 1 18411416168188185458
12644460 14 18260827060354363322
12788726 201 17059505002047033793
128620 24 17385724690407290772
13140716 1 18264499557760559337
13224815 77 18408318891198213202
13675066 3 17749393654488776519
14790565 3 18338806709892665688
15163728 17 15481289097577292713
15183329 4 18408605830407435614
15196674 1 18337388339818468438
15209289 33 18341332270467662817
15209294 21 18059584555192331817
15309172 13 18409451371427638915
15536298 74 18341610425830279326
15788980 27 17749105603943632888
16945 1 18265320738190372627
17349148 13 18114176445825312880
1813 80 17530976782159466655
18186145 218 18409161126111612646
19489759 90 15410896249631894657
19591789 44 18193273216009210722
200 152 17918273168974754922
21033648 29 17968079933063946356
21267235 1 18338240469814837151
21623110 236 18263368155990106261
23402539 116 18410566319162361766
23402655 69 18201721773563375622
23559900 14 18341325700027887232
335352 9 18410007719541319564
34934 24 18335695014618288215
350125 39 18408603674022772468
3545911 37 18408602569419241710
3680242 22 18335416829913620042
4214541 1 18412824715549947695
474 4 18408605889666299408
5104073 3 18339077194179428906
542803 24 17561084709247609168
59755656 215 18335983078396721054
633830 44 18202282537272954908
9709674 26 18410014338397756278

> <PUBCHEM_SHAPE_MULTIPOLES>
441.01
10.64
2.03
1.22
7.18
0.55
-0.05
-1.94
-1.01
0.21
-0.15
-1.94
-0.33
-0.49

> <PUBCHEM_SHAPE_SELFOVERLAP>
961.464

> <PUBCHEM_SHAPE_VOLUME>
238.8

> <PUBCHEM_COORDINATE_TYPE>
2
5
10

> <Energy>
61.5647

> <minimizedAffinity>
-6.38174

> <CNNscore>
0.1808531135

> <CNNaffinity>
6.9482684135

> <CNN_VS>
1.2566159964

> <CNNaffinity_variance>
0.2679652274

$$$$
5991


 24 27  0  0  0  0  0  0  0  0999 V2000
   22.2119   -3.1777    1.3784 O   0  0  0  0  0  0  0  0  0  0  0  0
   26.2951   -1.2301   11.3822 O   0  0  0  0  0  0  0  0  0  0  0  0
   22.7380   -2.7607    3.7582 C   0  0  0  0  0  0  0  0  0  0  0  0
   21.9300   -3.1053    5.0306 C   0  0  0  0  0  0  0  0  0  0  0  0
   22.7919   -3.0971    6.2955 C   0  0  0  0  0  0  0  0  0  0  0  0
   21.6432   -2.9669    2.6650 C   0  0  0  0  0  0  0  0  0  0  0  0
   23.3870   -1.6703    6.4910 C   0  0  0  0  0  0  0  0  0  0  0  0
   23.3107   -1.3408    3.9280 C   0  0  0  0  0  0  0  0  0  0  0  0
   21.1975   -4.3897    4.6511 C   0  0  0  0  0  0  0  0  0  0  0  0
   24.1394   -1.1973    5.2200 C   0  0  0  0  0  0  0  0  0  0  0  0
   20.9157   -4.2518    3.1424 C   0  0  0  0  0  0  0  0  0  0  0  0
   21.9981   -3.4805    7.5468 C   0  0  0  0  0  0  0  0  0  0  0  0
   23.9250   -3.7326    3.4900 C   0  0  0  0  0  0  0  0  0  0  0  0
   24.1898   -1.5783    7.7882 C   0  0  0  0  0  0  0  0  0  0  0  0
   22.9399   -3.5996    8.7407 C   0  0  0  0  0  0  0  0  0  0  0  0
   23.9337   -2.4704    8.8529 C   0  0  0  0  0  0  0  0  0  0  0  0
   25.1312   -0.5545    7.9905 C   0  0  0  0  0  0  0  0  0  0  0  0
   24.6570   -2.3549   10.0555 C   0  0  0  0  0  0  0  0  0  0  0  0
   25.8370   -0.4441    9.1962 C   0  0  0  0  0  0  0  0  0  0  0  0
   25.5965   -1.3498   10.2177 C   0  0  0  0  0  0  0  0  0  0  0  0
   22.8462   -3.9103    1.4213 H   0  0  0  0  0  0  0  0  0  0  0  0
   26.1449   -1.8339   12.0828 H   0  0  0  0  0  0  0  0  0  0  0  0
   20.6861   -1.8491    2.5636 C   0  0  0  0  0  0  0  0  0  0  0  0
   19.8992   -0.9437    2.4684 C   0  0  0  0  0  0  0  0  0  0  0  0
  1  6  1  0
  1 21  1  0
  2 20  1  0
  2 22  1  0
  3  4  1  0
  3  6  1  0
  3  8  1  0
  3 13  1  0
  4  5  1  0
  4  9  1  0
  5  7  1  0
  5 12  1  0
  6 11  1  0
  6 23  1  0
  7 10  1  0
  7 14  1  0
  8 10  1  0
  9 11  1  0
 12 15  1  0
 14 16  2  0
 14 17  1  0
 15 16  1  0
 16 18  1  0
 23 24  3  0
 17 19  2  0
 18 20  2  0
 19 20  1  0
M  END
> <PUBCHEM_COMPOUND_CID>
5991

> <PUBCHEM_CONFORMER_RMSD>
0.6

> <PUBCHEM_CONFORMER_DIVERSEORDER>
1

> <PUBCHEM_MMFF94_PARTIAL_CHARGES>
19
1 -0.68
14 -0.14
15 0.14
16 -0.14
17 -0.2
18 -0.15
19 -0.15
2 -0.53
20 -0.15
21 0.08
22 -0.18
41 0.4
42 0.15
43 0.15
44 0.15
45 0.18
46 0.45
6 0.48
7 0.14

> <PUBCHEM_EFFECTIVE_ROTOR_COUNT>
1.4

> <PUBCHEM_PHARMACOPHORE_FEATURES>
8
1 1 acceptor
1 1 donor
1 2 donor
1 22 hydrophobe
5 3 4 6 9 11 rings
6 14 16 18 19 20 21 rings
6 3 4 5 7 8 10 rings
6 5 7 12 14 15 16 rings

> <PUBCHEM_HEAVY_ATOM_COUNT>
22

> <PUBCHEM_ATOM_DEF_STEREO_COUNT>
5

> <PUBCHEM_ATOM_UDEF_STEREO_COUNT>
0

> <PUBCHEM_BOND_DEF_STEREO_COUNT>
0

> <PUBCHEM_BOND_UDEF_STEREO_COUNT>
0

> <PUBCHEM_ISOTOPIC_ATOM_COUNT>
0

> <PUBCHEM_COMPONENT_COUNT>
1

> <PUBCHEM_CACTVS_TAUTO_COUNT>
9

> <PUBCHEM_CONFORMER_ID>
0000176700000001

> <PUBCHEM_MMFF94_ENERGY>
75.3654

> <PUBCHEM_FEATURE_SELFOVERLAP>
40.689

> <PUBCHEM_SHAPE_FINGERPRINT>
10498660 4 18334565854482978588
10616163 171 18412261769892000550
10906281 52 18268729332496851400
10967382 1 18409163299196382730
11132069 177 18260823830106114581
11315181 36 17846777438100329984
11552529 35 18058445585631877095
11578080 2 16952518088400902894
11796584 16 15123796154675551020
12107183 9 17697047933183828707
12236239 1 17917992754997443209
12403259 415 18260540148118003532
12403814 3 17531241756051219503
12633257 1 18411416168188185458
12644460 14 18260827060354363322
12788726 201 17059505002047033793
128620 24 17385724690407290772
13140716 1 18264499557760559337
13224815 77 18408318891198213202
13675066 3 17749393654488776519
14790565 3 18338806709892665688
15163728 17 15481289097577292713
15183329 4 18408605830407435614
15196674 1 18337388339818468438
15209289 33 18341332270467662817
15209294 21 18059584555192331817
15309172 13 18409451371427638915
15536298 74 18341610425830279326
15788980 27 17749105603943632888
16945 1 18265320738190372627
17349148 13 18114176445825312880
1813 80 17530976782159466655
18186145 218 18409161126111612646
19489759 90 15410896249631894657
19591789 44 18193273216009210722
200 152 17918273168974754922
21033648 29 17968079933063946356
21267235 1 18338240469814837151
21623110 236 18263368155990106261
23402539 116 18410566319162361766
23402655 69 18201721773563375622
23559900 14 18341325700027887232
335352 9 18410007719541319564
34934 24 18335695014618288215
350125 39 18408603674022772468
3545911 37 18408602569419241710
3680242 22 18335416829913620042
4214541 1 18412824715549947695
474 4 18408605889666299408
5104073 3 18339077194179428906
542803 24 17561084709247609168
59755656 215 18335983078396721054
633830 44 18202282537272954908
9709674 26 18410014338397756278

> <PUBCHEM_SHAPE_MULTIPOLES>
441.01
10.64
2.03
1.22
7.18
0.55
-0.05
-1.94
-1.01
0.21
-0.15
-1.94
-0.33
-0.49

> <PUBCHEM_SHAPE_SELFOVERLAP>
961.464

> <PUBCHEM_SHAPE_VOLUME>
238.8

> <PUBCHEM_COORDINATE_TYPE>
2
5
10

> <Energy>
61.5647

> <minimizedAffinity>
-3.67218

> <CNNscore>
0.1679428667

> <CNNaffinity>
6.4958825111

> <CNN_VS>
1.0909371376

> <CNNaffinity_variance>
0.3560000360

$$$$
5991


 24 27  0  0  0  0  0  0  0  0999 V2000
   23.7917   -2.8792    2.1422 O   0  0  0  0  0  0  0  0  0  0  0  0
   25.4352   -3.7651   12.9614 O   0  0  0  0  0  0  0  0  0  0  0  0
   23.7829   -2.9158    4.6146 C   0  0  0  0  0  0  0  0  0  0  0  0
   22.5958   -2.9066    5.6052 C   0  0  0  0  0  0  0  0  0  0  0  0
   22.9906   -3.3932    7.0017 C   0  0  0  0  0  0  0  0  0  0  0  0
   23.0544   -2.5007    3.2981 C   0  0  0  0  0  0  0  0  0  0  0  0
   24.0862   -2.4451    7.5751 C   0  0  0  0  0  0  0  0  0  0  0  0
   24.8632   -1.9613    5.1573 C   0  0  0  0  0  0  0  0  0  0  0  0
   21.4972   -3.6527    4.8524 C   0  0  0  0  0  0  0  0  0  0  0  0
   25.2834   -2.3154    6.5977 C   0  0  0  0  0  0  0  0  0  0  0  0
   21.7278   -3.3028    3.3695 C   0  0  0  0  0  0  0  0  0  0  0  0
   21.8038   -3.4234    7.9679 C   0  0  0  0  0  0  0  0  0  0  0  0
   24.4283   -4.3206    4.4265 C   0  0  0  0  0  0  0  0  0  0  0  0
   24.4597   -2.8320    9.0056 C   0  0  0  0  0  0  0  0  0  0  0  0
   22.2286   -4.0555    9.2895 C   0  0  0  0  0  0  0  0  0  0  0  0
   23.5521   -3.5543    9.8116 C   0  0  0  0  0  0  0  0  0  0  0  0
   25.6667   -2.4034    9.5841 C   0  0  0  0  0  0  0  0  0  0  0  0
   23.8941   -3.8765   11.1390 C   0  0  0  0  0  0  0  0  0  0  0  0
   25.9908   -2.7218   10.9098 C   0  0  0  0  0  0  0  0  0  0  0  0
   25.1020   -3.4609   11.6750 C   0  0  0  0  0  0  0  0  0  0  0  0
   23.9902   -3.8278    2.1815 H   0  0  0  0  0  0  0  0  0  0  0  0
   24.8460   -4.2639   13.4925 H   0  0  0  0  0  0  0  0  0  0  0  0
   22.7703   -1.0561    3.2058 C   0  0  0  0  0  0  0  0  0  0  0  0
   22.5537    0.1252    3.1307 C   0  0  0  0  0  0  0  0  0  0  0  0
  1  6  1  0
  1 21  1  0
  2 20  1  0
  2 22  1  0
  3  4  1  0
  3  6  1  0
  3  8  1  0
  3 13  1  0
  4  5  1  0
  4  9  1  0
  5  7  1  0
  5 12  1  0
  6 11  1  0
  6 23  1  0
  7 10  1  0
  7 14  1  0
  8 10  1  0
  9 11  1  0
 12 15  1  0
 14 16  2  0
 14 17  1  0
 15 16  1  0
 16 18  1  0
 23 24  3  0
 17 19  2  0
 18 20  2  0
 19 20  1  0
M  END
> <PUBCHEM_COMPOUND_CID>
5991

> <PUBCHEM_CONFORMER_RMSD>
0.6

> <PUBCHEM_CONFORMER_DIVERSEORDER>
1

> <PUBCHEM_MMFF94_PARTIAL_CHARGES>
19
1 -0.68
14 -0.14
15 0.14
16 -0.14
17 -0.2
18 -0.15
19 -0.15
2 -0.53
20 -0.15
21 0.08
22 -0.18
41 0.4
42 0.15
43 0.15
44 0.15
45 0.18
46 0.45
6 0.48
7 0.14

> <PUBCHEM_EFFECTIVE_ROTOR_COUNT>
1.4

> <PUBCHEM_PHARMACOPHORE_FEATURES>
8
1 1 acceptor
1 1 donor
1 2 donor
1 22 hydrophobe
5 3 4 6 9 11 rings
6 14 16 18 19 20 21 rings
6 3 4 5 7 8 10 rings
6 5 7 12 14 15 16 rings

> <PUBCHEM_HEAVY_ATOM_COUNT>
22

> <PUBCHEM_ATOM_DEF_STEREO_COUNT>
5

> <PUBCHEM_ATOM_UDEF_STEREO_COUNT>
0

> <PUBCHEM_BOND_DEF_STEREO_COUNT>
0

> <PUBCHEM_BOND_UDEF_STEREO_COUNT>
0

> <PUBCHEM_ISOTOPIC_ATOM_COUNT>
0

> <PUBCHEM_COMPONENT_COUNT>
1

> <PUBCHEM_CACTVS_TAUTO_COUNT>
9

> <PUBCHEM_CONFORMER_ID>
0000176700000001

> <PUBCHEM_MMFF94_ENERGY>
75.3654

> <PUBCHEM_FEATURE_SELFOVERLAP>
40.689

> <PUBCHEM_SHAPE_FINGERPRINT>
10498660 4 18334565854482978588
10616163 171 18412261769892000550
10906281 52 18268729332496851400
10967382 1 18409163299196382730
11132069 177 18260823830106114581
11315181 36 17846777438100329984
11552529 35 18058445585631877095
11578080 2 16952518088400902894
11796584 16 15123796154675551020
12107183 9 17697047933183828707
12236239 1 17917992754997443209
12403259 415 18260540148118003532
12403814 3 17531241756051219503
12633257 1 18411416168188185458
12644460 14 18260827060354363322
12788726 201 17059505002047033793
128620 24 17385724690407290772
13140716 1 18264499557760559337
13224815 77 18408318891198213202
13675066 3 17749393654488776519
14790565 3 18338806709892665688
15163728 17 15481289097577292713
15183329 4 18408605830407435614
15196674 1 18337388339818468438
15209289 33 18341332270467662817
15209294 21 18059584555192331817
15309172 13 18409451371427638915
15536298 74 18341610425830279326
15788980 27 17749105603943632888
16945 1 18265320738190372627
17349148 13 18114176445825312880
1813 80 17530976782159466655
18186145 218 18409161126111612646
19489759 90 15410896249631894657
19591789 44 18193273216009210722
200 152 17918273168974754922
21033648 29 17968079933063946356
21267235 1 18338240469814837151
21623110 236 18263368155990106261
23402539 116 18410566319162361766
23402655 69 18201721773563375622
23559900 14 18341325700027887232
335352 9 18410007719541319564
34934 24 18335695014618288215
350125 39 18408603674022772468
3545911 37 18408602569419241710
3680242 22 18335416829913620042
4214541 1 18412824715549947695
474 4 18408605889666299408
5104073 3 18339077194179428906
542803 24 17561084709247609168
59755656 215 18335983078396721054
633830 44 18202282537272954908
9709674 26 18410014338397756278

> <PUBCHEM_SHAPE_MULTIPOLES>
441.01
10.64
2.03
1.22
7.18
0.55
-0.05
-1.94
-1.01
0.21
-0.15
-1.94
-0.33
-0.49

> <PUBCHEM_SHAPE_SELFOVERLAP>
961.464

> <PUBCHEM_SHAPE_VOLUME>
238.8

> <PUBCHEM_COORDINATE_TYPE>
2
5
10

> <Energy>
61.5647

> <minimizedAffinity>
-1.15037

> <CNNscore>
0.1612052172

> <CNNaffinity>
6.7371940613

> <CNN_VS>
1.0860707760

> <CNNaffinity_variance>
0.3768732548

$$$$
5991


 24 27  0  0  0  0  0  0  0  0999 V2000
   28.2533   -1.6374    7.3105 O   0  0  0  0  0  0  0  0  0  0  0  0
   19.4303   -5.6755   12.4478 O   0  0  0  0  0  0  0  0  0  0  0  0
   26.0485   -2.3256    8.1935 C   0  0  0  0  0  0  0  0  0  0  0  0
   24.6625   -2.3380    7.5083 C   0  0  0  0  0  0  0  0  0  0  0  0
   23.6602   -3.2473    8.2236 C   0  0  0  0  0  0  0  0  0  0  0  0
   26.8501   -1.4371    7.1915 C   0  0  0  0  0  0  0  0  0  0  0  0
   23.4584   -2.7287    9.6791 C   0  0  0  0  0  0  0  0  0  0  0  0
   25.8665   -1.7898    9.6262 C   0  0  0  0  0  0  0  0  0  0  0  0
   24.9909   -2.6180    6.0441 C   0  0  0  0  0  0  0  0  0  0  0  0
   24.8145   -2.5910   10.4188 C   0  0  0  0  0  0  0  0  0  0  0  0
   26.3557   -1.9420    5.8098 C   0  0  0  0  0  0  0  0  0  0  0  0
   22.3025   -3.2904    7.5182 C   0  0  0  0  0  0  0  0  0  0  0  0
   26.7133   -3.7312    8.2831 C   0  0  0  0  0  0  0  0  0  0  0  0
   22.4008   -3.5487   10.4172 C   0  0  0  0  0  0  0  0  0  0  0  0
   21.4030   -4.3229    8.1900 C   0  0  0  0  0  0  0  0  0  0  0  0
   21.4145   -4.2584    9.6971 C   0  0  0  0  0  0  0  0  0  0  0  0
   22.3245   -3.5437   11.8206 C   0  0  0  0  0  0  0  0  0  0  0  0
   20.4254   -4.9836   10.3887 C   0  0  0  0  0  0  0  0  0  0  0  0
   21.3287   -4.2613   12.4968 C   0  0  0  0  0  0  0  0  0  0  0  0
   20.3895   -4.9799   11.7736 C   0  0  0  0  0  0  0  0  0  0  0  0
   28.4537   -2.5823    7.2220 H   0  0  0  0  0  0  0  0  0  0  0  0
   18.7878   -6.1665   11.9744 H   0  0  0  0  0  0  0  0  0  0  0  0
   26.5815    0.0067    7.3306 C   0  0  0  0  0  0  0  0  0  0  0  0
   26.3754    1.1875    7.4367 C   0  0  0  0  0  0  0  0  0  0  0  0
  1  6  1  0
  1 21  1  0
  2 20  1  0
  2 22  1  0
  3  4  1  0
  3  6  1  0
  3  8  1  0
  3 13  1  0
  4  5  1  0
  4  9  1  0
  5  7  1  0
  5 12  1  0
  6 11  1  0
  6 23  1  0
  7 10  1  0
  7 14  1  0
  8 10  1  0
  9 11  1  0
 12 15  1  0
 14 16  2  0
 14 17  1  0
 15 16  1  0
 16 18  1  0
 23 24  3  0
 17 19  2  0
 18 20  2  0
 19 20  1  0
M  END
> <PUBCHEM_COMPOUND_CID>
5991

> <PUBCHEM_CONFORMER_RMSD>
0.6

> <PUBCHEM_CONFORMER_DIVERSEORDER>
1

> <PUBCHEM_MMFF94_PARTIAL_CHARGES>
19
1 -0.68
14 -0.14
15 0.14
16 -0.14
17 -0.2
18 -0.15
19 -0.15
2 -0.53
20 -0.15
21 0.08
22 -0.18
41 0.4
42 0.15
43 0.15
44 0.15
45 0.18
46 0.45
6 0.48
7 0.14

> <PUBCHEM_EFFECTIVE_ROTOR_COUNT>
1.4

> <PUBCHEM_PHARMACOPHORE_FEATURES>
8
1 1 acceptor
1 1 donor
1 2 donor
1 22 hydrophobe
5 3 4 6 9 11 rings
6 14 16 18 19 20 21 rings
6 3 4 5 7 8 10 rings
6 5 7 12 14 15 16 rings

> <PUBCHEM_HEAVY_ATOM_COUNT>
22

> <PUBCHEM_ATOM_DEF_STEREO_COUNT>
5

> <PUBCHEM_ATOM_UDEF_STEREO_COUNT>
0

> <PUBCHEM_BOND_DEF_STEREO_COUNT>
0

> <PUBCHEM_BOND_UDEF_STEREO_COUNT>
0

> <PUBCHEM_ISOTOPIC_ATOM_COUNT>
0

> <PUBCHEM_COMPONENT_COUNT>
1

> <PUBCHEM_CACTVS_TAUTO_COUNT>
9

> <PUBCHEM_CONFORMER_ID>
0000176700000001

> <PUBCHEM_MMFF94_ENERGY>
75.3654

> <PUBCHEM_FEATURE_SELFOVERLAP>
40.689

> <PUBCHEM_SHAPE_FINGERPRINT>
10498660 4 18334565854482978588
10616163 171 18412261769892000550
10906281 52 18268729332496851400
10967382 1 18409163299196382730
11132069 177 18260823830106114581
11315181 36 17846777438100329984
11552529 35 18058445585631877095
11578080 2 16952518088400902894
11796584 16 15123796154675551020
12107183 9 17697047933183828707
12236239 1 17917992754997443209
12403259 415 18260540148118003532
12403814 3 17531241756051219503
12633257 1 18411416168188185458
12644460 14 18260827060354363322
12788726 201 17059505002047033793
128620 24 17385724690407290772
13140716 1 18264499557760559337
13224815 77 18408318891198213202
13675066 3 17749393654488776519
14790565 3 18338806709892665688
15163728 17 15481289097577292713
15183329 4 18408605830407435614
15196674 1 18337388339818468438
15209289 33 18341332270467662817
15209294 21 18059584555192331817
15309172 13 18409451371427638915
15536298 74 18341610425830279326
15788980 27 17749105603943632888
16945 1 18265320738190372627
17349148 13 18114176445825312880
1813 80 17530976782159466655
18186145 218 18409161126111612646
19489759 90 15410896249631894657
19591789 44 18193273216009210722
200 152 17918273168974754922
21033648 29 17968079933063946356
21267235 1 18338240469814837151
21623110 236 18263368155990106261
23402539 116 18410566319162361766
23402655 69 18201721773563375622
23559900 14 18341325700027887232
335352 9 18410007719541319564
34934 24 18335695014618288215
350125 39 18408603674022772468
3545911 37 18408602569419241710
3680242 22 18335416829913620042
4214541 1 18412824715549947695
474 4 18408605889666299408
5104073 3 18339077194179428906
542803 24 17561084709247609168
59755656 215 18335983078396721054
633830 44 18202282537272954908
9709674 26 18410014338397756278

> <PUBCHEM_SHAPE_MULTIPOLES>
441.01
10.64
2.03
1.22
7.18
0.55
-0.05
-1.94
-1.01
0.21
-0.15
-1.94
-0.33
-0.49

> <PUBCHEM_SHAPE_SELFOVERLAP>
961.464

> <PUBCHEM_SHAPE_VOLUME>
238.8

> <PUBCHEM_COORDINATE_TYPE>
2
5
10

> <Energy>
61.5647

> <minimizedAffinity>
8.07554

> <CNNscore>
0.1435967833

> <CNNaffinity>
5.5209813118

> <CNN_VS>
0.7927951813

> <CNNaffinity_variance>
0.4710305035

$$$$
5991


 24 27  0  0  0  0  0  0  0  0999 V2000
   26.3072   -0.6597   10.0376 O   0  0  0  0  0  0  0  0  0  0  0  0
   19.8090   -3.5240    1.6644 O   0  0  0  0  0  0  0  0  0  0  0  0
   25.1901   -1.2952    7.9252 C   0  0  0  0  0  0  0  0  0  0  0  0
   25.7745   -1.9330    6.6437 C   0  0  0  0  0  0  0  0  0  0  0  0
   24.7004   -2.5782    5.7646 C   0  0  0  0  0  0  0  0  0  0  0  0
   26.5029   -0.8484    8.6414 C   0  0  0  0  0  0  0  0  0  0  0  0
   23.6861   -1.4816    5.3210 C   0  0  0  0  0  0  0  0  0  0  0  0
   24.2042   -0.1906    7.5001 C   0  0  0  0  0  0  0  0  0  0  0  0
   26.9142   -2.8037    7.1665 C   0  0  0  0  0  0  0  0  0  0  0  0
   23.1155   -0.7174    6.5440 C   0  0  0  0  0  0  0  0  0  0  0  0
   27.4564   -2.0478    8.3950 C   0  0  0  0  0  0  0  0  0  0  0  0
   25.2875   -3.2458    4.5186 C   0  0  0  0  0  0  0  0  0  0  0  0
   24.4250   -2.3042    8.8318 C   0  0  0  0  0  0  0  0  0  0  0  0
   22.6357   -2.0519    4.3686 C   0  0  0  0  0  0  0  0  0  0  0  0
   24.1912   -3.9946    3.7677 C   0  0  0  0  0  0  0  0  0  0  0  0
   22.9101   -3.2134    3.6133 C   0  0  0  0  0  0  0  0  0  0  0  0
   21.4152   -1.3900    4.1504 C   0  0  0  0  0  0  0  0  0  0  0  0
   21.9470   -3.7107    2.7145 C   0  0  0  0  0  0  0  0  0  0  0  0
   20.4692   -1.8896    3.2452 C   0  0  0  0  0  0  0  0  0  0  0  0
   20.7422   -3.0501    2.5378 C   0  0  0  0  0  0  0  0  0  0  0  0
   25.9214   -1.4625   10.4215 H   0  0  0  0  0  0  0  0  0  0  0  0
   19.9773   -4.3072    1.1783 H   0  0  0  0  0  0  0  0  0  0  0  0
   27.0892    0.3882    8.0912 C   0  0  0  0  0  0  0  0  0  0  0  0
   27.5814    1.3927    7.6475 C   0  0  0  0  0  0  0  0  0  0  0  0
  1  6  1  0
  1 21  1  0
  2 20  1  0
  2 22  1  0
  3  4  1  0
  3  6  1  0
  3  8  1  0
  3 13  1  0
  4  5  1  0
  4  9  1  0
  5  7  1  0
  5 12  1  0
  6 11  1  0
  6 23  1  0
  7 10  1  0
  7 14  1  0
  8 10  1  0
  9 11  1  0
 12 15  1  0
 14 16  2  0
 14 17  1  0
 15 16  1  0
 16 18  1  0
 23 24  3  0
 17 19  2  0
 18 20  2  0
 19 20  1  0
M  END
> <PUBCHEM_COMPOUND_CID>
5991

> <PUBCHEM_CONFORMER_RMSD>
0.6

> <PUBCHEM_CONFORMER_DIVERSEORDER>
1

> <PUBCHEM_MMFF94_PARTIAL_CHARGES>
19
1 -0.68
14 -0.14
15 0.14
16 -0.14
17 -0.2
18 -0.15
19 -0.15
2 -0.53
20 -0.15
21 0.08
22 -0.18
41 0.4
42 0.15
43 0.15
44 0.15
45 0.18
46 0.45
6 0.48
7 0.14

> <PUBCHEM_EFFECTIVE_ROTOR_COUNT>
1.4

> <PUBCHEM_PHARMACOPHORE_FEATURES>
8
1 1 acceptor
1 1 donor
1 2 donor
1 22 hydrophobe
5 3 4 6 9 11 rings
6 14 16 18 19 20 21 rings
6 3 4 5 7 8 10 rings
6 5 7 12 14 15 16 rings

> <PUBCHEM_HEAVY_ATOM_COUNT>
22

> <PUBCHEM_ATOM_DEF_STEREO_COUNT>
5

> <PUBCHEM_ATOM_UDEF_STEREO_COUNT>
0

> <PUBCHEM_BOND_DEF_STEREO_COUNT>
0

> <PUBCHEM_BOND_UDEF_STEREO_COUNT>
0

> <PUBCHEM_ISOTOPIC_ATOM_COUNT>
0

> <PUBCHEM_COMPONENT_COUNT>
1

> <PUBCHEM_CACTVS_TAUTO_COUNT>
9

> <PUBCHEM_CONFORMER_ID>
0000176700000001

> <PUBCHEM_MMFF94_ENERGY>
75.3654

> <PUBCHEM_FEATURE_SELFOVERLAP>
40.689

> <PUBCHEM_SHAPE_FINGERPRINT>
10498660 4 18334565854482978588
10616163 171 18412261769892000550
10906281 52 18268729332496851400
10967382 1 18409163299196382730
11132069 177 18260823830106114581
11315181 36 17846777438100329984
11552529 35 18058445585631877095
11578080 2 16952518088400902894
11796584 16 15123796154675551020
12107183 9 17697047933183828707
12236239 1 17917992754997443209
12403259 415 18260540148118003532
12403814 3 17531241756051219503
12633257 1 18411416168188185458
12644460 14 18260827060354363322
12788726 201 17059505002047033793
128620 24 17385724690407290772
13140716 1 18264499557760559337
13224815 77 18408318891198213202
13675066 3 17749393654488776519
14790565 3 18338806709892665688
15163728 17 15481289097577292713
15183329 4 18408605830407435614
15196674 1 18337388339818468438
15209289 33 18341332270467662817
15209294 21 18059584555192331817
15309172 13 18409451371427638915
15536298 74 18341610425830279326
15788980 27 17749105603943632888
16945 1 18265320738190372627
17349148 13 18114176445825312880
1813 80 17530976782159466655
18186145 218 18409161126111612646
19489759 90 15410896249631894657
19591789 44 18193273216009210722
200 152 17918273168974754922
21033648 29 17968079933063946356
21267235 1 18338240469814837151
21623110 236 18263368155990106261
23402539 116 18410566319162361766
23402655 69 18201721773563375622
23559900 14 18341325700027887232
335352 9 18410007719541319564
34934 24 18335695014618288215
350125 39 18408603674022772468
3545911 37 18408602569419241710
3680242 22 18335416829913620042
4214541 1 18412824715549947695
474 4 18408605889666299408
5104073 3 18339077194179428906
542803 24 17561084709247609168
59755656 215 18335983078396721054
633830 44 18202282537272954908
9709674 26 18410014338397756278

> <PUBCHEM_SHAPE_MULTIPOLES>
441.01
10.64
2.03
1.22
7.18
0.55
-0.05
-1.94
-1.01
0.21
-0.15
-1.94
-0.33
-0.49

> <PUBCHEM_SHAPE_SELFOVERLAP>
961.464

> <PUBCHEM_SHAPE_VOLUME>
238.8

> <PUBCHEM_COORDINATE_TYPE>
2
5
10

> <Energy>
61.5647

> <minimizedAffinity>
0.63130

> <CNNscore>
0.1161552817

> <CNNaffinity>
5.9940018654

> <CNN_VS>
0.6962350011

> <CNNaffinity_variance>
0.3799720705

$$$$
