5991


 24 27  0  0  0  0  0  0  0  0999 V2000
   -7.8347   -7.2229   23.1387 O   0  0  0  0  0  0  0  0  0  0  0  0
    1.8024   -2.4079   21.0210 O   0  0  0  0  0  0  0  0  0  0  0  0
   -5.8595   -5.7856   22.7553 C   0  0  0  0  0  0  0  0  0  0  0  0
   -5.5392   -4.3714   23.2920 C   0  0  0  0  0  0  0  0  0  0  0  0
   -4.0499   -4.0302   23.2006 C   0  0  0  0  0  0  0  0  0  0  0  0
   -7.3816   -5.8756   23.0891 C   0  0  0  0  0  0  0  0  0  0  0  0
   -3.6135   -4.0734   21.7053 C   0  0  0  0  0  0  0  0  0  0  0  0
   -5.4563   -5.8334   21.2694 C   0  0  0  0  0  0  0  0  0  0  0  0
   -6.2138   -4.3483   24.6612 C   0  0  0  0  0  0  0  0  0  0  0  0
   -3.9844   -5.4300   21.0516 C   0  0  0  0  0  0  0  0  0  0  0  0
   -7.4646   -5.2337   24.4996 C   0  0  0  0  0  0  0  0  0  0  0  0
   -3.7305   -2.6467   23.7722 C   0  0  0  0  0  0  0  0  0  0  0  0
   -5.0995   -6.9229   23.4999 C   0  0  0  0  0  0  0  0  0  0  0  0
   -2.1522   -3.6566   21.5430 C   0  0  0  0  0  0  0  0  0  0  0  0
   -2.2208   -2.4300   23.7892 C   0  0  0  0  0  0  0  0  0  0  0  0
   -1.5270   -2.8457   22.5159 C   0  0  0  0  0  0  0  0  0  0  0  0
   -1.4251   -3.9876   20.3867 C   0  0  0  0  0  0  0  0  0  0  0  0
   -0.1901   -2.4407   22.3392 C   0  0  0  0  0  0  0  0  0  0  0  0
   -0.0982   -3.5695   20.2180 C   0  0  0  0  0  0  0  0  0  0  0  0
    0.5098   -2.8026   21.1997 C   0  0  0  0  0  0  0  0  0  0  0  0
   -7.2818   -7.7275   23.7556 H   0  0  0  0  0  0  0  0  0  0  0  0
    2.2285   -1.8892   21.6747 H   0  0  0  0  0  0  0  0  0  0  0  0
   -8.2421   -5.1389   22.1442 C   0  0  0  0  0  0  0  0  0  0  0  0
   -8.9316   -4.5340   21.3654 C   0  0  0  0  0  0  0  0  0  0  0  0
  1  6  1  0
  1 21  1  0
  2 20  1  0
  2 22  1  0
  3  4  1  0
  3  6  1  0
  3  8  1  0
  3 13  1  0
  4  5  1  0
  4  9  1  0
  5  7  1  0
  5 12  1  0
  6 11  1  0
  6 23  1  0
  7 10  1  0
  7 14  1  0
  8 10  1  0
  9 11  1  0
 12 15  1  0
 14 16  2  0
 14 17  1  0
 15 16  1  0
 16 18  1  0
 23 24  3  0
 17 19  2  0
 18 20  2  0
 19 20  1  0
M  END
> <PUBCHEM_COMPOUND_CID>
5991

> <PUBCHEM_CONFORMER_RMSD>
0.6

> <PUBCHEM_CONFORMER_DIVERSEORDER>
1

> <PUBCHEM_MMFF94_PARTIAL_CHARGES>
19
1 -0.68
14 -0.14
15 0.14
16 -0.14
17 -0.2
18 -0.15
19 -0.15
2 -0.53
20 -0.15
21 0.08
22 -0.18
41 0.4
42 0.15
43 0.15
44 0.15
45 0.18
46 0.45
6 0.48
7 0.14

> <PUBCHEM_EFFECTIVE_ROTOR_COUNT>
1.4

> <PUBCHEM_PHARMACOPHORE_FEATURES>
8
1 1 acceptor
1 1 donor
1 2 donor
1 22 hydrophobe
5 3 4 6 9 11 rings
6 14 16 18 19 20 21 rings
6 3 4 5 7 8 10 rings
6 5 7 12 14 15 16 rings

> <PUBCHEM_HEAVY_ATOM_COUNT>
22

> <PUBCHEM_ATOM_DEF_STEREO_COUNT>
5

> <PUBCHEM_ATOM_UDEF_STEREO_COUNT>
0

> <PUBCHEM_BOND_DEF_STEREO_COUNT>
0

> <PUBCHEM_BOND_UDEF_STEREO_COUNT>
0

> <PUBCHEM_ISOTOPIC_ATOM_COUNT>
0

> <PUBCHEM_COMPONENT_COUNT>
1

> <PUBCHEM_CACTVS_TAUTO_COUNT>
9

> <PUBCHEM_CONFORMER_ID>
0000176700000001

> <PUBCHEM_MMFF94_ENERGY>
75.3654

> <PUBCHEM_FEATURE_SELFOVERLAP>
40.689

> <PUBCHEM_SHAPE_FINGERPRINT>
10498660 4 18334565854482978588
10616163 171 18412261769892000550
10906281 52 18268729332496851400
10967382 1 18409163299196382730
11132069 177 18260823830106114581
11315181 36 17846777438100329984
11552529 35 18058445585631877095
11578080 2 16952518088400902894
11796584 16 15123796154675551020
12107183 9 17697047933183828707
12236239 1 17917992754997443209
12403259 415 18260540148118003532
12403814 3 17531241756051219503
12633257 1 18411416168188185458
12644460 14 18260827060354363322
12788726 201 17059505002047033793
128620 24 17385724690407290772
13140716 1 18264499557760559337
13224815 77 18408318891198213202
13675066 3 17749393654488776519
14790565 3 18338806709892665688
15163728 17 15481289097577292713
15183329 4 18408605830407435614
15196674 1 18337388339818468438
15209289 33 18341332270467662817
15209294 21 18059584555192331817
15309172 13 18409451371427638915
15536298 74 18341610425830279326
15788980 27 17749105603943632888
16945 1 18265320738190372627
17349148 13 18114176445825312880
1813 80 17530976782159466655
18186145 218 18409161126111612646
19489759 90 15410896249631894657
19591789 44 18193273216009210722
200 152 17918273168974754922
21033648 29 17968079933063946356
21267235 1 18338240469814837151
21623110 236 18263368155990106261
23402539 116 18410566319162361766
23402655 69 18201721773563375622
23559900 14 18341325700027887232
335352 9 18410007719541319564
34934 24 18335695014618288215
350125 39 18408603674022772468
3545911 37 18408602569419241710
3680242 22 18335416829913620042
4214541 1 18412824715549947695
474 4 18408605889666299408
5104073 3 18339077194179428906
542803 24 17561084709247609168
59755656 215 18335983078396721054
633830 44 18202282537272954908
9709674 26 18410014338397756278

> <PUBCHEM_SHAPE_MULTIPOLES>
441.01
10.64
2.03
1.22
7.18
0.55
-0.05
-1.94
-1.01
0.21
-0.15
-1.94
-0.33
-0.49

> <PUBCHEM_SHAPE_SELFOVERLAP>
961.464

> <PUBCHEM_SHAPE_VOLUME>
238.8

> <PUBCHEM_COORDINATE_TYPE>
2
5
10

> <Energy>
61.5647

> <minimizedAffinity>
-8.47808

> <CNNscore>
0.8573079109

> <CNNaffinity>
8.2115592957

> <CNN_VS>
7.0398349762

> <CNNaffinity_variance>
0.9356835485

$$$$
5991


 24 27  0  0  0  0  0  0  0  0999 V2000
   -8.6242   -4.4443   24.1223 O   0  0  0  0  0  0  0  0  0  0  0  0
    1.4342   -1.8103   20.5963 O   0  0  0  0  0  0  0  0  0  0  0  0
   -6.3898   -4.1911   23.0940 C   0  0  0  0  0  0  0  0  0  0  0  0
   -5.8354   -4.7588   21.7670 C   0  0  0  0  0  0  0  0  0  0  0  0
   -4.5932   -4.0093   21.2791 C   0  0  0  0  0  0  0  0  0  0  0  0
   -7.6784   -5.0569   23.2544 C   0  0  0  0  0  0  0  0  0  0  0  0
   -3.4701   -4.1432   22.3510 C   0  0  0  0  0  0  0  0  0  0  0  0
   -5.2971   -4.3414   24.1693 C   0  0  0  0  0  0  0  0  0  0  0  0
   -7.0629   -4.8110   20.8610 C   0  0  0  0  0  0  0  0  0  0  0  0
   -3.9685   -3.6841   23.7461 C   0  0  0  0  0  0  0  0  0  0  0  0
   -8.2401   -5.1118   21.8088 C   0  0  0  0  0  0  0  0  0  0  0  0
   -4.0728   -4.5464   19.9437 C   0  0  0  0  0  0  0  0  0  0  0  0
   -6.7852   -2.6869   23.0127 C   0  0  0  0  0  0  0  0  0  0  0  0
   -2.1739   -3.4850   21.8797 C   0  0  0  0  0  0  0  0  0  0  0  0
   -2.9327   -3.6665   19.4412 C   0  0  0  0  0  0  0  0  0  0  0  0
   -1.9210   -3.3086   20.5013 C   0  0  0  0  0  0  0  0  0  0  0  0
   -1.1666   -3.1257   22.7917 C   0  0  0  0  0  0  0  0  0  0  0  0
   -0.7087   -2.7310   20.0778 C   0  0  0  0  0  0  0  0  0  0  0  0
    0.0400   -2.5612   22.3566 C   0  0  0  0  0  0  0  0  0  0  0  0
    0.2564   -2.3642   21.0016 C   0  0  0  0  0  0  0  0  0  0  0  0
   -8.8098   -3.5435   23.8142 H   0  0  0  0  0  0  0  0  0  0  0  0
    1.5967   -1.6701   19.6842 H   0  0  0  0  0  0  0  0  0  0  0  0
   -7.4199   -6.4216   23.7511 C   0  0  0  0  0  0  0  0  0  0  0  0
   -7.1940   -7.5332   24.1528 C   0  0  0  0  0  0  0  0  0  0  0  0
  1  6  1  0
  1 21  1  0
  2 20  1  0
  2 22  1  0
  3  4  1  0
  3  6  1  0
  3  8  1  0
  3 13  1  0
  4  5  1  0
  4  9  1  0
  5  7  1  0
  5 12  1  0
  6 11  1  0
  6 23  1  0
  7 10  1  0
  7 14  1  0
  8 10  1  0
  9 11  1  0
 12 15  1  0
 14 16  2  0
 14 17  1  0
 15 16  1  0
 16 18  1  0
 23 24  3  0
 17 19  2  0
 18 20  2  0
 19 20  1  0
M  END
> <PUBCHEM_COMPOUND_CID>
5991

> <PUBCHEM_CONFORMER_RMSD>
0.6

> <PUBCHEM_CONFORMER_DIVERSEORDER>
1

> <PUBCHEM_MMFF94_PARTIAL_CHARGES>
19
1 -0.68
14 -0.14
15 0.14
16 -0.14
17 -0.2
18 -0.15
19 -0.15
2 -0.53
20 -0.15
21 0.08
22 -0.18
41 0.4
42 0.15
43 0.15
44 0.15
45 0.18
46 0.45
6 0.48
7 0.14

> <PUBCHEM_EFFECTIVE_ROTOR_COUNT>
1.4

> <PUBCHEM_PHARMACOPHORE_FEATURES>
8
1 1 acceptor
1 1 donor
1 2 donor
1 22 hydrophobe
5 3 4 6 9 11 rings
6 14 16 18 19 20 21 rings
6 3 4 5 7 8 10 rings
6 5 7 12 14 15 16 rings

> <PUBCHEM_HEAVY_ATOM_COUNT>
22

> <PUBCHEM_ATOM_DEF_STEREO_COUNT>
5

> <PUBCHEM_ATOM_UDEF_STEREO_COUNT>
0

> <PUBCHEM_BOND_DEF_STEREO_COUNT>
0

> <PUBCHEM_BOND_UDEF_STEREO_COUNT>
0

> <PUBCHEM_ISOTOPIC_ATOM_COUNT>
0

> <PUBCHEM_COMPONENT_COUNT>
1

> <PUBCHEM_CACTVS_TAUTO_COUNT>
9

> <PUBCHEM_CONFORMER_ID>
0000176700000001

> <PUBCHEM_MMFF94_ENERGY>
75.3654

> <PUBCHEM_FEATURE_SELFOVERLAP>
40.689

> <PUBCHEM_SHAPE_FINGERPRINT>
10498660 4 18334565854482978588
10616163 171 18412261769892000550
10906281 52 18268729332496851400
10967382 1 18409163299196382730
11132069 177 18260823830106114581
11315181 36 17846777438100329984
11552529 35 18058445585631877095
11578080 2 16952518088400902894
11796584 16 15123796154675551020
12107183 9 17697047933183828707
12236239 1 17917992754997443209
12403259 415 18260540148118003532
12403814 3 17531241756051219503
12633257 1 18411416168188185458
12644460 14 18260827060354363322
12788726 201 17059505002047033793
128620 24 17385724690407290772
13140716 1 18264499557760559337
13224815 77 18408318891198213202
13675066 3 17749393654488776519
14790565 3 18338806709892665688
15163728 17 15481289097577292713
15183329 4 18408605830407435614
15196674 1 18337388339818468438
15209289 33 18341332270467662817
15209294 21 18059584555192331817
15309172 13 18409451371427638915
15536298 74 18341610425830279326
15788980 27 17749105603943632888
16945 1 18265320738190372627
17349148 13 18114176445825312880
1813 80 17530976782159466655
18186145 218 18409161126111612646
19489759 90 15410896249631894657
19591789 44 18193273216009210722
200 152 17918273168974754922
21033648 29 17968079933063946356
21267235 1 18338240469814837151
21623110 236 18263368155990106261
23402539 116 18410566319162361766
23402655 69 18201721773563375622
23559900 14 18341325700027887232
335352 9 18410007719541319564
34934 24 18335695014618288215
350125 39 18408603674022772468
3545911 37 18408602569419241710
3680242 22 18335416829913620042
4214541 1 18412824715549947695
474 4 18408605889666299408
5104073 3 18339077194179428906
542803 24 17561084709247609168
59755656 215 18335983078396721054
633830 44 18202282537272954908
9709674 26 18410014338397756278

> <PUBCHEM_SHAPE_MULTIPOLES>
441.01
10.64
2.03
1.22
7.18
0.55
-0.05
-1.94
-1.01
0.21
-0.15
-1.94
-0.33
-0.49

> <PUBCHEM_SHAPE_SELFOVERLAP>
961.464

> <PUBCHEM_SHAPE_VOLUME>
238.8

> <PUBCHEM_COORDINATE_TYPE>
2
5
10

> <Energy>
61.5647

> <minimizedAffinity>
-9.32752

> <CNNscore>
0.6905186176

> <CNNaffinity>
7.9259262085

> <CNN_VS>
5.4729995728

> <CNNaffinity_variance>
0.6113736033

$$$$
5991


 24 27  0  0  0  0  0  0  0  0999 V2000
   -8.6447   -2.1666   23.5185 O   0  0  0  0  0  0  0  0  0  0  0  0
    2.0321   -2.7726   21.0326 O   0  0  0  0  0  0  0  0  0  0  0  0
   -6.3068   -2.7103   22.9245 C   0  0  0  0  0  0  0  0  0  0  0  0
   -5.7286   -3.9382   22.1839 C   0  0  0  0  0  0  0  0  0  0  0  0
   -4.3288   -3.6807   21.6206 C   0  0  0  0  0  0  0  0  0  0  0  0
   -7.7389   -3.2324   23.2600 C   0  0  0  0  0  0  0  0  0  0  0  0
   -3.3646   -3.3475   22.7986 C   0  0  0  0  0  0  0  0  0  0  0  0
   -5.3758   -2.3862   24.1080 C   0  0  0  0  0  0  0  0  0  0  0  0
   -6.8453   -4.3323   21.2206 C   0  0  0  0  0  0  0  0  0  0  0  0
   -3.9145   -2.1818   23.6611 C   0  0  0  0  0  0  0  0  0  0  0  0
   -8.1488   -3.9761   21.9612 C   0  0  0  0  0  0  0  0  0  0  0  0
   -3.7773   -4.8837   20.8516 C   0  0  0  0  0  0  0  0  0  0  0  0
   -6.4169   -1.4382   22.0327 C   0  0  0  0  0  0  0  0  0  0  0  0
   -1.9300   -3.1643   22.3047 C   0  0  0  0  0  0  0  0  0  0  0  0
   -2.4527   -4.5131   20.1922 C   0  0  0  0  0  0  0  0  0  0  0  0
   -1.5085   -3.7581   21.0944 C   0  0  0  0  0  0  0  0  0  0  0  0
   -0.9746   -2.4848   23.0798 C   0  0  0  0  0  0  0  0  0  0  0  0
   -0.1754   -3.6099   20.6661 C   0  0  0  0  0  0  0  0  0  0  0  0
    0.3519   -2.3531   22.6472 C   0  0  0  0  0  0  0  0  0  0  0  0
    0.7388   -2.9137   21.4399 C   0  0  0  0  0  0  0  0  0  0  0  0
   -8.6337   -1.5450   22.7739 H   0  0  0  0  0  0  0  0  0  0  0  0
    2.3104   -3.1453   20.2192 H   0  0  0  0  0  0  0  0  0  0  0  0
   -7.7809   -4.1562   24.4093 C   0  0  0  0  0  0  0  0  0  0  0  0
   -7.8275   -4.9024   25.3522 C   0  0  0  0  0  0  0  0  0  0  0  0
  1  6  1  0
  1 21  1  0
  2 20  1  0
  2 22  1  0
  3  4  1  0
  3  6  1  0
  3  8  1  0
  3 13  1  0
  4  5  1  0
  4  9  1  0
  5  7  1  0
  5 12  1  0
  6 11  1  0
  6 23  1  0
  7 10  1  0
  7 14  1  0
  8 10  1  0
  9 11  1  0
 12 15  1  0
 14 16  2  0
 14 17  1  0
 15 16  1  0
 16 18  1  0
 23 24  3  0
 17 19  2  0
 18 20  2  0
 19 20  1  0
M  END
> <PUBCHEM_COMPOUND_CID>
5991

> <PUBCHEM_CONFORMER_RMSD>
0.6

> <PUBCHEM_CONFORMER_DIVERSEORDER>
1

> <PUBCHEM_MMFF94_PARTIAL_CHARGES>
19
1 -0.68
14 -0.14
15 0.14
16 -0.14
17 -0.2
18 -0.15
19 -0.15
2 -0.53
20 -0.15
21 0.08
22 -0.18
41 0.4
42 0.15
43 0.15
44 0.15
45 0.18
46 0.45
6 0.48
7 0.14

> <PUBCHEM_EFFECTIVE_ROTOR_COUNT>
1.4

> <PUBCHEM_PHARMACOPHORE_FEATURES>
8
1 1 acceptor
1 1 donor
1 2 donor
1 22 hydrophobe
5 3 4 6 9 11 rings
6 14 16 18 19 20 21 rings
6 3 4 5 7 8 10 rings
6 5 7 12 14 15 16 rings

> <PUBCHEM_HEAVY_ATOM_COUNT>
22

> <PUBCHEM_ATOM_DEF_STEREO_COUNT>
5

> <PUBCHEM_ATOM_UDEF_STEREO_COUNT>
0

> <PUBCHEM_BOND_DEF_STEREO_COUNT>
0

> <PUBCHEM_BOND_UDEF_STEREO_COUNT>
0

> <PUBCHEM_ISOTOPIC_ATOM_COUNT>
0

> <PUBCHEM_COMPONENT_COUNT>
1

> <PUBCHEM_CACTVS_TAUTO_COUNT>
9

> <PUBCHEM_CONFORMER_ID>
0000176700000001

> <PUBCHEM_MMFF94_ENERGY>
75.3654

> <PUBCHEM_FEATURE_SELFOVERLAP>
40.689

> <PUBCHEM_SHAPE_FINGERPRINT>
10498660 4 18334565854482978588
10616163 171 18412261769892000550
10906281 52 18268729332496851400
10967382 1 18409163299196382730
11132069 177 18260823830106114581
11315181 36 17846777438100329984
11552529 35 18058445585631877095
11578080 2 16952518088400902894
11796584 16 15123796154675551020
12107183 9 17697047933183828707
12236239 1 17917992754997443209
12403259 415 18260540148118003532
12403814 3 17531241756051219503
12633257 1 18411416168188185458
12644460 14 18260827060354363322
12788726 201 17059505002047033793
128620 24 17385724690407290772
13140716 1 18264499557760559337
13224815 77 18408318891198213202
13675066 3 17749393654488776519
14790565 3 18338806709892665688
15163728 17 15481289097577292713
15183329 4 18408605830407435614
15196674 1 18337388339818468438
15209289 33 18341332270467662817
15209294 21 18059584555192331817
15309172 13 18409451371427638915
15536298 74 18341610425830279326
15788980 27 17749105603943632888
16945 1 18265320738190372627
17349148 13 18114176445825312880
1813 80 17530976782159466655
18186145 218 18409161126111612646
19489759 90 15410896249631894657
19591789 44 18193273216009210722
200 152 17918273168974754922
21033648 29 17968079933063946356
21267235 1 18338240469814837151
21623110 236 18263368155990106261
23402539 116 18410566319162361766
23402655 69 18201721773563375622
23559900 14 18341325700027887232
335352 9 18410007719541319564
34934 24 18335695014618288215
350125 39 18408603674022772468
3545911 37 18408602569419241710
3680242 22 18335416829913620042
4214541 1 18412824715549947695
474 4 18408605889666299408
5104073 3 18339077194179428906
542803 24 17561084709247609168
59755656 215 18335983078396721054
633830 44 18202282537272954908
9709674 26 18410014338397756278

> <PUBCHEM_SHAPE_MULTIPOLES>
441.01
10.64
2.03
1.22
7.18
0.55
-0.05
-1.94
-1.01
0.21
-0.15
-1.94
-0.33
-0.49

> <PUBCHEM_SHAPE_SELFOVERLAP>
961.464

> <PUBCHEM_SHAPE_VOLUME>
238.8

> <PUBCHEM_COORDINATE_TYPE>
2
5
10

> <Energy>
61.5647

> <minimizedAffinity>
-1.72598

> <CNNscore>
0.6333719492

> <CNNaffinity>
7.8535790443

> <CNN_VS>
4.9742364883

> <CNNaffinity_variance>
0.9000660777

$$$$
5991


 24 27  0  0  0  0  0  0  0  0999 V2000
   -7.7781   -2.6926   24.7319 O   0  0  0  0  0  0  0  0  0  0  0  0
    1.0914   -2.0354   18.2943 O   0  0  0  0  0  0  0  0  0  0  0  0
   -5.8359   -2.9507   23.2234 C   0  0  0  0  0  0  0  0  0  0  0  0
   -5.5358   -4.0375   22.1653 C   0  0  0  0  0  0  0  0  0  0  0  0
   -4.4819   -3.5936   21.1479 C   0  0  0  0  0  0  0  0  0  0  0  0
   -6.9961   -3.6367   24.0105 C   0  0  0  0  0  0  0  0  0  0  0  0
   -3.1507   -3.2920   21.8998 C   0  0  0  0  0  0  0  0  0  0  0  0
   -4.5325   -2.6619   23.9920 C   0  0  0  0  0  0  0  0  0  0  0  0
   -6.9203   -4.4354   21.6602 C   0  0  0  0  0  0  0  0  0  0  0  0
   -3.3740   -2.2765   23.0507 C   0  0  0  0  0  0  0  0  0  0  0  0
   -7.8456   -4.2805   22.8826 C   0  0  0  0  0  0  0  0  0  0  0  0
   -4.2187   -4.6552   20.0772 C   0  0  0  0  0  0  0  0  0  0  0  0
   -6.3462   -1.6110   22.6151 C   0  0  0  0  0  0  0  0  0  0  0  0
   -2.0340   -2.9253   20.9230 C   0  0  0  0  0  0  0  0  0  0  0  0
   -3.2768   -4.0967   19.0154 C   0  0  0  0  0  0  0  0  0  0  0  0
   -2.0919   -3.3513   19.5775 C   0  0  0  0  0  0  0  0  0  0  0  0
   -0.8850   -2.2408   21.3547 C   0  0  0  0  0  0  0  0  0  0  0  0
   -1.0412   -3.0355   18.6950 C   0  0  0  0  0  0  0  0  0  0  0  0
    0.1587   -1.9417   20.4686 C   0  0  0  0  0  0  0  0  0  0  0  0
    0.0687   -2.3383   19.1434 C   0  0  0  0  0  0  0  0  0  0  0  0
   -8.0887   -2.0007   24.1273 H   0  0  0  0  0  0  0  0  0  0  0  0
    1.0467   -2.2960   17.3953 H   0  0  0  0  0  0  0  0  0  0  0  0
   -6.5413   -4.6719   24.9579 C   0  0  0  0  0  0  0  0  0  0  0  0
   -6.1767   -5.5085   25.7422 C   0  0  0  0  0  0  0  0  0  0  0  0
  1  6  1  0
  1 21  1  0
  2 20  1  0
  2 22  1  0
  3  4  1  0
  3  6  1  0
  3  8  1  0
  3 13  1  0
  4  5  1  0
  4  9  1  0
  5  7  1  0
  5 12  1  0
  6 11  1  0
  6 23  1  0
  7 10  1  0
  7 14  1  0
  8 10  1  0
  9 11  1  0
 12 15  1  0
 14 16  2  0
 14 17  1  0
 15 16  1  0
 16 18  1  0
 23 24  3  0
 17 19  2  0
 18 20  2  0
 19 20  1  0
M  END
> <PUBCHEM_COMPOUND_CID>
5991

> <PUBCHEM_CONFORMER_RMSD>
0.6

> <PUBCHEM_CONFORMER_DIVERSEORDER>
1

> <PUBCHEM_MMFF94_PARTIAL_CHARGES>
19
1 -0.68
14 -0.14
15 0.14
16 -0.14
17 -0.2
18 -0.15
19 -0.15
2 -0.53
20 -0.15
21 0.08
22 -0.18
41 0.4
42 0.15
43 0.15
44 0.15
45 0.18
46 0.45
6 0.48
7 0.14

> <PUBCHEM_EFFECTIVE_ROTOR_COUNT>
1.4

> <PUBCHEM_PHARMACOPHORE_FEATURES>
8
1 1 acceptor
1 1 donor
1 2 donor
1 22 hydrophobe
5 3 4 6 9 11 rings
6 14 16 18 19 20 21 rings
6 3 4 5 7 8 10 rings
6 5 7 12 14 15 16 rings

> <PUBCHEM_HEAVY_ATOM_COUNT>
22

> <PUBCHEM_ATOM_DEF_STEREO_COUNT>
5

> <PUBCHEM_ATOM_UDEF_STEREO_COUNT>
0

> <PUBCHEM_BOND_DEF_STEREO_COUNT>
0

> <PUBCHEM_BOND_UDEF_STEREO_COUNT>
0

> <PUBCHEM_ISOTOPIC_ATOM_COUNT>
0

> <PUBCHEM_COMPONENT_COUNT>
1

> <PUBCHEM_CACTVS_TAUTO_COUNT>
9

> <PUBCHEM_CONFORMER_ID>
0000176700000001

> <PUBCHEM_MMFF94_ENERGY>
75.3654

> <PUBCHEM_FEATURE_SELFOVERLAP>
40.689

> <PUBCHEM_SHAPE_FINGERPRINT>
10498660 4 18334565854482978588
10616163 171 18412261769892000550
10906281 52 18268729332496851400
10967382 1 18409163299196382730
11132069 177 18260823830106114581
11315181 36 17846777438100329984
11552529 35 18058445585631877095
11578080 2 16952518088400902894
11796584 16 15123796154675551020
12107183 9 17697047933183828707
12236239 1 17917992754997443209
12403259 415 18260540148118003532
12403814 3 17531241756051219503
12633257 1 18411416168188185458
12644460 14 18260827060354363322
12788726 201 17059505002047033793
128620 24 17385724690407290772
13140716 1 18264499557760559337
13224815 77 18408318891198213202
13675066 3 17749393654488776519
14790565 3 18338806709892665688
15163728 17 15481289097577292713
15183329 4 18408605830407435614
15196674 1 18337388339818468438
15209289 33 18341332270467662817
15209294 21 18059584555192331817
15309172 13 18409451371427638915
15536298 74 18341610425830279326
15788980 27 17749105603943632888
16945 1 18265320738190372627
17349148 13 18114176445825312880
1813 80 17530976782159466655
18186145 218 18409161126111612646
19489759 90 15410896249631894657
19591789 44 18193273216009210722
200 152 17918273168974754922
21033648 29 17968079933063946356
21267235 1 18338240469814837151
21623110 236 18263368155990106261
23402539 116 18410566319162361766
23402655 69 18201721773563375622
23559900 14 18341325700027887232
335352 9 18410007719541319564
34934 24 18335695014618288215
350125 39 18408603674022772468
3545911 37 18408602569419241710
3680242 22 18335416829913620042
4214541 1 18412824715549947695
474 4 18408605889666299408
5104073 3 18339077194179428906
542803 24 17561084709247609168
59755656 215 18335983078396721054
633830 44 18202282537272954908
9709674 26 18410014338397756278

> <PUBCHEM_SHAPE_MULTIPOLES>
441.01
10.64
2.03
1.22
7.18
0.55
-0.05
-1.94
-1.01
0.21
-0.15
-1.94
-0.33
-0.49

> <PUBCHEM_SHAPE_SELFOVERLAP>
961.464

> <PUBCHEM_SHAPE_VOLUME>
238.8

> <PUBCHEM_COORDINATE_TYPE>
2
5
10

> <Energy>
61.5647

> <minimizedAffinity>
-6.26433

> <CNNscore>
0.4815511107

> <CNNaffinity>
7.5001411438

> <CNN_VS>
3.6117012501

> <CNNaffinity_variance>
0.4187504947

$$$$
5991


 24 27  0  0  0  0  0  0  0  0999 V2000
   -9.3106   -4.7947   22.0210 O   0  0  0  0  0  0  0  0  0  0  0  0
    1.2988   -2.4775   20.4046 O   0  0  0  0  0  0  0  0  0  0  0  0
   -6.8511   -4.5476   21.9587 C   0  0  0  0  0  0  0  0  0  0  0  0
   -5.7419   -5.5143   22.4339 C   0  0  0  0  0  0  0  0  0  0  0  0
   -4.3797   -5.1993   21.8110 C   0  0  0  0  0  0  0  0  0  0  0  0
   -8.0964   -5.1859   22.6501 C   0  0  0  0  0  0  0  0  0  0  0  0
   -3.9556   -3.7589   22.2277 C   0  0  0  0  0  0  0  0  0  0  0  0
   -6.4560   -3.1219   22.3877 C   0  0  0  0  0  0  0  0  0  0  0  0
   -6.3506   -6.8954   22.2056 C   0  0  0  0  0  0  0  0  0  0  0  0
   -5.0570   -2.7256   21.8752 C   0  0  0  0  0  0  0  0  0  0  0  0
   -7.8601   -6.7068   22.4518 C   0  0  0  0  0  0  0  0  0  0  0  0
   -3.2937   -6.1843   22.2505 C   0  0  0  0  0  0  0  0  0  0  0  0
   -7.0606   -4.5481   20.4154 C   0  0  0  0  0  0  0  0  0  0  0  0
   -2.5605   -3.4195   21.7041 C   0  0  0  0  0  0  0  0  0  0  0  0
   -2.0044   -5.9089   21.4834 C   0  0  0  0  0  0  0  0  0  0  0  0
   -1.6407   -4.4473   21.3999 C   0  0  0  0  0  0  0  0  0  0  0  0
   -2.1263   -2.0868   21.6006 C   0  0  0  0  0  0  0  0  0  0  0  0
   -0.3470   -4.1216   20.9495 C   0  0  0  0  0  0  0  0  0  0  0  0
   -0.8324   -1.7760   21.1610 C   0  0  0  0  0  0  0  0  0  0  0  0
    0.0454   -2.7980   20.8343 C   0  0  0  0  0  0  0  0  0  0  0  0
   -9.2618   -4.9925   21.0726 H   0  0  0  0  0  0  0  0  0  0  0  0
    1.9047   -3.1559   20.1796 H   0  0  0  0  0  0  0  0  0  0  0  0
   -8.2048   -4.8716   24.0872 C   0  0  0  0  0  0  0  0  0  0  0  0
   -8.2860   -4.6020   25.2571 C   0  0  0  0  0  0  0  0  0  0  0  0
  1  6  1  0
  1 21  1  0
  2 20  1  0
  2 22  1  0
  3  4  1  0
  3  6  1  0
  3  8  1  0
  3 13  1  0
  4  5  1  0
  4  9  1  0
  5  7  1  0
  5 12  1  0
  6 11  1  0
  6 23  1  0
  7 10  1  0
  7 14  1  0
  8 10  1  0
  9 11  1  0
 12 15  1  0
 14 16  2  0
 14 17  1  0
 15 16  1  0
 16 18  1  0
 23 24  3  0
 17 19  2  0
 18 20  2  0
 19 20  1  0
M  END
> <PUBCHEM_COMPOUND_CID>
5991

> <PUBCHEM_CONFORMER_RMSD>
0.6

> <PUBCHEM_CONFORMER_DIVERSEORDER>
1

> <PUBCHEM_MMFF94_PARTIAL_CHARGES>
19
1 -0.68
14 -0.14
15 0.14
16 -0.14
17 -0.2
18 -0.15
19 -0.15
2 -0.53
20 -0.15
21 0.08
22 -0.18
41 0.4
42 0.15
43 0.15
44 0.15
45 0.18
46 0.45
6 0.48
7 0.14

> <PUBCHEM_EFFECTIVE_ROTOR_COUNT>
1.4

> <PUBCHEM_PHARMACOPHORE_FEATURES>
8
1 1 acceptor
1 1 donor
1 2 donor
1 22 hydrophobe
5 3 4 6 9 11 rings
6 14 16 18 19 20 21 rings
6 3 4 5 7 8 10 rings
6 5 7 12 14 15 16 rings

> <PUBCHEM_HEAVY_ATOM_COUNT>
22

> <PUBCHEM_ATOM_DEF_STEREO_COUNT>
5

> <PUBCHEM_ATOM_UDEF_STEREO_COUNT>
0

> <PUBCHEM_BOND_DEF_STEREO_COUNT>
0

> <PUBCHEM_BOND_UDEF_STEREO_COUNT>
0

> <PUBCHEM_ISOTOPIC_ATOM_COUNT>
0

> <PUBCHEM_COMPONENT_COUNT>
1

> <PUBCHEM_CACTVS_TAUTO_COUNT>
9

> <PUBCHEM_CONFORMER_ID>
0000176700000001

> <PUBCHEM_MMFF94_ENERGY>
75.3654

> <PUBCHEM_FEATURE_SELFOVERLAP>
40.689

> <PUBCHEM_SHAPE_FINGERPRINT>
10498660 4 18334565854482978588
10616163 171 18412261769892000550
10906281 52 18268729332496851400
10967382 1 18409163299196382730
11132069 177 18260823830106114581
11315181 36 17846777438100329984
11552529 35 18058445585631877095
11578080 2 16952518088400902894
11796584 16 15123796154675551020
12107183 9 17697047933183828707
12236239 1 17917992754997443209
12403259 415 18260540148118003532
12403814 3 17531241756051219503
12633257 1 18411416168188185458
12644460 14 18260827060354363322
12788726 201 17059505002047033793
128620 24 17385724690407290772
13140716 1 18264499557760559337
13224815 77 18408318891198213202
13675066 3 17749393654488776519
14790565 3 18338806709892665688
15163728 17 15481289097577292713
15183329 4 18408605830407435614
15196674 1 18337388339818468438
15209289 33 18341332270467662817
15209294 21 18059584555192331817
15309172 13 18409451371427638915
15536298 74 18341610425830279326
15788980 27 17749105603943632888
16945 1 18265320738190372627
17349148 13 18114176445825312880
1813 80 17530976782159466655
18186145 218 18409161126111612646
19489759 90 15410896249631894657
19591789 44 18193273216009210722
200 152 17918273168974754922
21033648 29 17968079933063946356
21267235 1 18338240469814837151
21623110 236 18263368155990106261
23402539 116 18410566319162361766
23402655 69 18201721773563375622
23559900 14 18341325700027887232
335352 9 18410007719541319564
34934 24 18335695014618288215
350125 39 18408603674022772468
3545911 37 18408602569419241710
3680242 22 18335416829913620042
4214541 1 18412824715549947695
474 4 18408605889666299408
5104073 3 18339077194179428906
542803 24 17561084709247609168
59755656 215 18335983078396721054
633830 44 18202282537272954908
9709674 26 18410014338397756278

> <PUBCHEM_SHAPE_MULTIPOLES>
441.01
10.64
2.03
1.22
7.18
0.55
-0.05
-1.94
-1.01
0.21
-0.15
-1.94
-0.33
-0.49

> <PUBCHEM_SHAPE_SELFOVERLAP>
961.464

> <PUBCHEM_SHAPE_VOLUME>
238.8

> <PUBCHEM_COORDINATE_TYPE>
2
5
10

> <Energy>
61.5647

> <minimizedAffinity>
-6.23743

> <CNNscore>
0.4006668925

> <CNNaffinity>
7.3918271065

> <CNN_VS>
2.9616603851

> <CNNaffinity_variance>
0.4524078369

$$$$
5991


 24 27  0  0  0  0  0  0  0  0999 V2000
    0.3397   -1.9515   21.0128 O   0  0  0  0  0  0  0  0  0  0  0  0
   -9.0838   -6.3335   24.5539 O   0  0  0  0  0  0  0  0  0  0  0  0
   -1.7607   -3.1735   21.4702 C   0  0  0  0  0  0  0  0  0  0  0  0
   -2.2400   -4.5528   20.9617 C   0  0  0  0  0  0  0  0  0  0  0  0
   -3.3615   -5.1403   21.8218 C   0  0  0  0  0  0  0  0  0  0  0  0
   -0.5736   -2.9095   20.4919 C   0  0  0  0  0  0  0  0  0  0  0  0
   -4.5849   -4.1759   21.7827 C   0  0  0  0  0  0  0  0  0  0  0  0
   -2.9556   -2.2032   21.4120 C   0  0  0  0  0  0  0  0  0  0  0  0
   -0.9446   -5.3451   20.8052 C   0  0  0  0  0  0  0  0  0  0  0  0
   -4.1770   -2.7354   22.1877 C   0  0  0  0  0  0  0  0  0  0  0  0
    0.1103   -4.2992   20.3953 C   0  0  0  0  0  0  0  0  0  0  0  0
   -3.8037   -6.5244   21.3408 C   0  0  0  0  0  0  0  0  0  0  0  0
   -1.2281   -3.1982   22.9335 C   0  0  0  0  0  0  0  0  0  0  0  0
   -5.7697   -4.7531   22.5566 C   0  0  0  0  0  0  0  0  0  0  0  0
   -4.8111   -7.1155   22.3218 C   0  0  0  0  0  0  0  0  0  0  0  0
   -5.8795   -6.1461   22.7625 C   0  0  0  0  0  0  0  0  0  0  0  0
   -6.8200   -3.9308   22.9993 C   0  0  0  0  0  0  0  0  0  0  0  0
   -6.9924   -6.6692   23.4484 C   0  0  0  0  0  0  0  0  0  0  0  0
   -7.9274   -4.4651   23.6716 C   0  0  0  0  0  0  0  0  0  0  0  0
   -8.0013   -5.8313   23.8947 C   0  0  0  0  0  0  0  0  0  0  0  0
    0.6315   -2.2293   21.8952 H   0  0  0  0  0  0  0  0  0  0  0  0
   -9.1496   -7.2545   24.7130 H   0  0  0  0  0  0  0  0  0  0  0  0
   -0.9959   -2.4569   19.1530 C   0  0  0  0  0  0  0  0  0  0  0  0
   -1.3457   -2.1017   18.0577 C   0  0  0  0  0  0  0  0  0  0  0  0
  1  6  1  0
  1 21  1  0
  2 20  1  0
  2 22  1  0
  3  4  1  0
  3  6  1  0
  3  8  1  0
  3 13  1  0
  4  5  1  0
  4  9  1  0
  5  7  1  0
  5 12  1  0
  6 11  1  0
  6 23  1  0
  7 10  1  0
  7 14  1  0
  8 10  1  0
  9 11  1  0
 12 15  1  0
 14 16  2  0
 14 17  1  0
 15 16  1  0
 16 18  1  0
 23 24  3  0
 17 19  2  0
 18 20  2  0
 19 20  1  0
M  END
> <PUBCHEM_COMPOUND_CID>
5991

> <PUBCHEM_CONFORMER_RMSD>
0.6

> <PUBCHEM_CONFORMER_DIVERSEORDER>
1

> <PUBCHEM_MMFF94_PARTIAL_CHARGES>
19
1 -0.68
14 -0.14
15 0.14
16 -0.14
17 -0.2
18 -0.15
19 -0.15
2 -0.53
20 -0.15
21 0.08
22 -0.18
41 0.4
42 0.15
43 0.15
44 0.15
45 0.18
46 0.45
6 0.48
7 0.14

> <PUBCHEM_EFFECTIVE_ROTOR_COUNT>
1.4

> <PUBCHEM_PHARMACOPHORE_FEATURES>
8
1 1 acceptor
1 1 donor
1 2 donor
1 22 hydrophobe
5 3 4 6 9 11 rings
6 14 16 18 19 20 21 rings
6 3 4 5 7 8 10 rings
6 5 7 12 14 15 16 rings

> <PUBCHEM_HEAVY_ATOM_COUNT>
22

> <PUBCHEM_ATOM_DEF_STEREO_COUNT>
5

> <PUBCHEM_ATOM_UDEF_STEREO_COUNT>
0

> <PUBCHEM_BOND_DEF_STEREO_COUNT>
0

> <PUBCHEM_BOND_UDEF_STEREO_COUNT>
0

> <PUBCHEM_ISOTOPIC_ATOM_COUNT>
0

> <PUBCHEM_COMPONENT_COUNT>
1

> <PUBCHEM_CACTVS_TAUTO_COUNT>
9

> <PUBCHEM_CONFORMER_ID>
0000176700000001

> <PUBCHEM_MMFF94_ENERGY>
75.3654

> <PUBCHEM_FEATURE_SELFOVERLAP>
40.689

> <PUBCHEM_SHAPE_FINGERPRINT>
10498660 4 18334565854482978588
10616163 171 18412261769892000550
10906281 52 18268729332496851400
10967382 1 18409163299196382730
11132069 177 18260823830106114581
11315181 36 17846777438100329984
11552529 35 18058445585631877095
11578080 2 16952518088400902894
11796584 16 15123796154675551020
12107183 9 17697047933183828707
12236239 1 17917992754997443209
12403259 415 18260540148118003532
12403814 3 17531241756051219503
12633257 1 18411416168188185458
12644460 14 18260827060354363322
12788726 201 17059505002047033793
128620 24 17385724690407290772
13140716 1 18264499557760559337
13224815 77 18408318891198213202
13675066 3 17749393654488776519
14790565 3 18338806709892665688
15163728 17 15481289097577292713
15183329 4 18408605830407435614
15196674 1 18337388339818468438
15209289 33 18341332270467662817
15209294 21 18059584555192331817
15309172 13 18409451371427638915
15536298 74 18341610425830279326
15788980 27 17749105603943632888
16945 1 18265320738190372627
17349148 13 18114176445825312880
1813 80 17530976782159466655
18186145 218 18409161126111612646
19489759 90 15410896249631894657
19591789 44 18193273216009210722
200 152 17918273168974754922
21033648 29 17968079933063946356
21267235 1 18338240469814837151
21623110 236 18263368155990106261
23402539 116 18410566319162361766
23402655 69 18201721773563375622
23559900 14 18341325700027887232
335352 9 18410007719541319564
34934 24 18335695014618288215
350125 39 18408603674022772468
3545911 37 18408602569419241710
3680242 22 18335416829913620042
4214541 1 18412824715549947695
474 4 18408605889666299408
5104073 3 18339077194179428906
542803 24 17561084709247609168
59755656 215 18335983078396721054
633830 44 18202282537272954908
9709674 26 18410014338397756278

> <PUBCHEM_SHAPE_MULTIPOLES>
441.01
10.64
2.03
1.22
7.18
0.55
-0.05
-1.94
-1.01
0.21
-0.15
-1.94
-0.33
-0.49

> <PUBCHEM_SHAPE_SELFOVERLAP>
961.464

> <PUBCHEM_SHAPE_VOLUME>
238.8

> <PUBCHEM_COORDINATE_TYPE>
2
5
10

> <Energy>
61.5647

> <minimizedAffinity>
-5.91784

> <CNNscore>
0.2904953659

> <CNNaffinity>
7.1689929962

> <CNN_VS>
2.0825593472

> <CNNaffinity_variance>
0.3500278890

$$$$
5991


 24 27  0  0  0  0  0  0  0  0999 V2000
   -9.0612   -0.0661   17.7141 O   0  0  0  0  0  0  0  0  0  0  0  0
   -4.2738   -5.0512   26.2447 O   0  0  0  0  0  0  0  0  0  0  0  0
   -7.9294   -0.8062   19.7842 C   0  0  0  0  0  0  0  0  0  0  0  0
   -7.7692   -0.0851   21.1425 C   0  0  0  0  0  0  0  0  0  0  0  0
   -7.4161   -1.0454   22.2809 C   0  0  0  0  0  0  0  0  0  0  0  0
   -8.3933    0.3835   18.8867 C   0  0  0  0  0  0  0  0  0  0  0  0
   -6.0581   -1.7366   21.9548 C   0  0  0  0  0  0  0  0  0  0  0  0
   -6.5846   -1.4726   19.4375 C   0  0  0  0  0  0  0  0  0  0  0  0
   -9.0425    0.7493   21.2557 C   0  0  0  0  0  0  0  0  0  0  0  0
   -6.0926   -2.4100   20.5581 C   0  0  0  0  0  0  0  0  0  0  0  0
   -9.3857    1.1437   19.8062 C   0  0  0  0  0  0  0  0  0  0  0  0
   -7.3005   -0.3344   23.6314 C   0  0  0  0  0  0  0  0  0  0  0  0
   -9.0291   -1.9090   19.7887 C   0  0  0  0  0  0  0  0  0  0  0  0
   -5.6108   -2.6456   23.0990 C   0  0  0  0  0  0  0  0  0  0  0  0
   -7.0971   -1.3611   24.7410 C   0  0  0  0  0  0  0  0  0  0  0  0
   -6.0790   -2.4248   24.4131 C   0  0  0  0  0  0  0  0  0  0  0  0
   -4.6580   -3.6583   22.8941 C   0  0  0  0  0  0  0  0  0  0  0  0
   -5.6342   -3.2485   25.4650 C   0  0  0  0  0  0  0  0  0  0  0  0
   -4.2155   -4.4645   23.9515 C   0  0  0  0  0  0  0  0  0  0  0  0
   -4.7122   -4.2551   25.2286 C   0  0  0  0  0  0  0  0  0  0  0  0
   -9.7883   -0.6580   17.9629 H   0  0  0  0  0  0  0  0  0  0  0  0
   -4.5992   -4.9232   27.1140 H   0  0  0  0  0  0  0  0  0  0  0  0
   -7.2966    1.2789   18.4727 C   0  0  0  0  0  0  0  0  0  0  0  0
   -6.3925    2.0022   18.1448 C   0  0  0  0  0  0  0  0  0  0  0  0
  1  6  1  0
  1 21  1  0
  2 20  1  0
  2 22  1  0
  3  4  1  0
  3  6  1  0
  3  8  1  0
  3 13  1  0
  4  5  1  0
  4  9  1  0
  5  7  1  0
  5 12  1  0
  6 11  1  0
  6 23  1  0
  7 10  1  0
  7 14  1  0
  8 10  1  0
  9 11  1  0
 12 15  1  0
 14 16  2  0
 14 17  1  0
 15 16  1  0
 16 18  1  0
 23 24  3  0
 17 19  2  0
 18 20  2  0
 19 20  1  0
M  END
> <PUBCHEM_COMPOUND_CID>
5991

> <PUBCHEM_CONFORMER_RMSD>
0.6

> <PUBCHEM_CONFORMER_DIVERSEORDER>
1

> <PUBCHEM_MMFF94_PARTIAL_CHARGES>
19
1 -0.68
14 -0.14
15 0.14
16 -0.14
17 -0.2
18 -0.15
19 -0.15
2 -0.53
20 -0.15
21 0.08
22 -0.18
41 0.4
42 0.15
43 0.15
44 0.15
45 0.18
46 0.45
6 0.48
7 0.14

> <PUBCHEM_EFFECTIVE_ROTOR_COUNT>
1.4

> <PUBCHEM_PHARMACOPHORE_FEATURES>
8
1 1 acceptor
1 1 donor
1 2 donor
1 22 hydrophobe
5 3 4 6 9 11 rings
6 14 16 18 19 20 21 rings
6 3 4 5 7 8 10 rings
6 5 7 12 14 15 16 rings

> <PUBCHEM_HEAVY_ATOM_COUNT>
22

> <PUBCHEM_ATOM_DEF_STEREO_COUNT>
5

> <PUBCHEM_ATOM_UDEF_STEREO_COUNT>
0

> <PUBCHEM_BOND_DEF_STEREO_COUNT>
0

> <PUBCHEM_BOND_UDEF_STEREO_COUNT>
0

> <PUBCHEM_ISOTOPIC_ATOM_COUNT>
0

> <PUBCHEM_COMPONENT_COUNT>
1

> <PUBCHEM_CACTVS_TAUTO_COUNT>
9

> <PUBCHEM_CONFORMER_ID>
0000176700000001

> <PUBCHEM_MMFF94_ENERGY>
75.3654

> <PUBCHEM_FEATURE_SELFOVERLAP>
40.689

> <PUBCHEM_SHAPE_FINGERPRINT>
10498660 4 18334565854482978588
10616163 171 18412261769892000550
10906281 52 18268729332496851400
10967382 1 18409163299196382730
11132069 177 18260823830106114581
11315181 36 17846777438100329984
11552529 35 18058445585631877095
11578080 2 16952518088400902894
11796584 16 15123796154675551020
12107183 9 17697047933183828707
12236239 1 17917992754997443209
12403259 415 18260540148118003532
12403814 3 17531241756051219503
12633257 1 18411416168188185458
12644460 14 18260827060354363322
12788726 201 17059505002047033793
128620 24 17385724690407290772
13140716 1 18264499557760559337
13224815 77 18408318891198213202
13675066 3 17749393654488776519
14790565 3 18338806709892665688
15163728 17 15481289097577292713
15183329 4 18408605830407435614
15196674 1 18337388339818468438
15209289 33 18341332270467662817
15209294 21 18059584555192331817
15309172 13 18409451371427638915
15536298 74 18341610425830279326
15788980 27 17749105603943632888
16945 1 18265320738190372627
17349148 13 18114176445825312880
1813 80 17530976782159466655
18186145 218 18409161126111612646
19489759 90 15410896249631894657
19591789 44 18193273216009210722
200 152 17918273168974754922
21033648 29 17968079933063946356
21267235 1 18338240469814837151
21623110 236 18263368155990106261
23402539 116 18410566319162361766
23402655 69 18201721773563375622
23559900 14 18341325700027887232
335352 9 18410007719541319564
34934 24 18335695014618288215
350125 39 18408603674022772468
3545911 37 18408602569419241710
3680242 22 18335416829913620042
4214541 1 18412824715549947695
474 4 18408605889666299408
5104073 3 18339077194179428906
542803 24 17561084709247609168
59755656 215 18335983078396721054
633830 44 18202282537272954908
9709674 26 18410014338397756278

> <PUBCHEM_SHAPE_MULTIPOLES>
441.01
10.64
2.03
1.22
7.18
0.55
-0.05
-1.94
-1.01
0.21
-0.15
-1.94
-0.33
-0.49

> <PUBCHEM_SHAPE_SELFOVERLAP>
961.464

> <PUBCHEM_SHAPE_VOLUME>
238.8

> <PUBCHEM_COORDINATE_TYPE>
2
5
10

> <Energy>
61.5647

> <minimizedAffinity>
55.57947

> <CNNscore>
0.2626263499

> <CNNaffinity>
5.8369555473

> <CNN_VS>
1.5329383612

> <CNNaffinity_variance>
0.8576354384

$$$$
5991


 24 27  0  0  0  0  0  0  0  0999 V2000
   -9.2539   -6.4556   22.6431 O   0  0  0  0  0  0  0  0  0  0  0  0
    0.2659   -3.4240   18.0905 O   0  0  0  0  0  0  0  0  0  0  0  0
   -6.9819   -5.7151   22.0073 C   0  0  0  0  0  0  0  0  0  0  0  0
   -5.6703   -5.7149   22.8261 C   0  0  0  0  0  0  0  0  0  0  0  0
   -4.4246   -5.6135   21.9425 C   0  0  0  0  0  0  0  0  0  0  0  0
   -8.0245   -5.9463   23.1456 C   0  0  0  0  0  0  0  0  0  0  0  0
   -4.4793   -4.2755   21.1455 C   0  0  0  0  0  0  0  0  0  0  0  0
   -7.0607   -4.3852   21.2341 C   0  0  0  0  0  0  0  0  0  0  0  0
   -5.8220   -6.9259   23.7430 C   0  0  0  0  0  0  0  0  0  0  0  0
   -5.8119   -4.1425   20.3633 C   0  0  0  0  0  0  0  0  0  0  0  0
   -7.3322   -7.0108   24.0376 C   0  0  0  0  0  0  0  0  0  0  0  0
   -3.1272   -5.6567   22.7533 C   0  0  0  0  0  0  0  0  0  0  0  0
   -7.0749   -6.8799   20.9777 C   0  0  0  0  0  0  0  0  0  0  0  0
   -3.2164   -4.0784   20.3076 C   0  0  0  0  0  0  0  0  0  0  0  0
   -1.9291   -5.7031   21.8104 C   0  0  0  0  0  0  0  0  0  0  0  0
   -2.0132   -4.7271   20.6633 C   0  0  0  0  0  0  0  0  0  0  0  0
   -3.1936   -3.1821   19.2253 C   0  0  0  0  0  0  0  0  0  0  0  0
   -0.8478   -4.5119   19.9030 C   0  0  0  0  0  0  0  0  0  0  0  0
   -2.0243   -2.9687   18.4829 C   0  0  0  0  0  0  0  0  0  0  0  0
   -0.8613   -3.6405   18.8261 C   0  0  0  0  0  0  0  0  0  0  0  0
   -9.0831   -7.2537   22.1190 H   0  0  0  0  0  0  0  0  0  0  0  0
    1.0606   -3.8699   18.3089 H   0  0  0  0  0  0  0  0  0  0  0  0
   -8.3205   -4.7362   23.9356 C   0  0  0  0  0  0  0  0  0  0  0  0
   -8.5485   -3.7507   24.5874 C   0  0  0  0  0  0  0  0  0  0  0  0
  1  6  1  0
  1 21  1  0
  2 20  1  0
  2 22  1  0
  3  4  1  0
  3  6  1  0
  3  8  1  0
  3 13  1  0
  4  5  1  0
  4  9  1  0
  5  7  1  0
  5 12  1  0
  6 11  1  0
  6 23  1  0
  7 10  1  0
  7 14  1  0
  8 10  1  0
  9 11  1  0
 12 15  1  0
 14 16  2  0
 14 17  1  0
 15 16  1  0
 16 18  1  0
 23 24  3  0
 17 19  2  0
 18 20  2  0
 19 20  1  0
M  END
> <PUBCHEM_COMPOUND_CID>
5991

> <PUBCHEM_CONFORMER_RMSD>
0.6

> <PUBCHEM_CONFORMER_DIVERSEORDER>
1

> <PUBCHEM_MMFF94_PARTIAL_CHARGES>
19
1 -0.68
14 -0.14
15 0.14
16 -0.14
17 -0.2
18 -0.15
19 -0.15
2 -0.53
20 -0.15
21 0.08
22 -0.18
41 0.4
42 0.15
43 0.15
44 0.15
45 0.18
46 0.45
6 0.48
7 0.14

> <PUBCHEM_EFFECTIVE_ROTOR_COUNT>
1.4

> <PUBCHEM_PHARMACOPHORE_FEATURES>
8
1 1 acceptor
1 1 donor
1 2 donor
1 22 hydrophobe
5 3 4 6 9 11 rings
6 14 16 18 19 20 21 rings
6 3 4 5 7 8 10 rings
6 5 7 12 14 15 16 rings

> <PUBCHEM_HEAVY_ATOM_COUNT>
22

> <PUBCHEM_ATOM_DEF_STEREO_COUNT>
5

> <PUBCHEM_ATOM_UDEF_STEREO_COUNT>
0

> <PUBCHEM_BOND_DEF_STEREO_COUNT>
0

> <PUBCHEM_BOND_UDEF_STEREO_COUNT>
0

> <PUBCHEM_ISOTOPIC_ATOM_COUNT>
0

> <PUBCHEM_COMPONENT_COUNT>
1

> <PUBCHEM_CACTVS_TAUTO_COUNT>
9

> <PUBCHEM_CONFORMER_ID>
0000176700000001

> <PUBCHEM_MMFF94_ENERGY>
75.3654

> <PUBCHEM_FEATURE_SELFOVERLAP>
40.689

> <PUBCHEM_SHAPE_FINGERPRINT>
10498660 4 18334565854482978588
10616163 171 18412261769892000550
10906281 52 18268729332496851400
10967382 1 18409163299196382730
11132069 177 18260823830106114581
11315181 36 17846777438100329984
11552529 35 18058445585631877095
11578080 2 16952518088400902894
11796584 16 15123796154675551020
12107183 9 17697047933183828707
12236239 1 17917992754997443209
12403259 415 18260540148118003532
12403814 3 17531241756051219503
12633257 1 18411416168188185458
12644460 14 18260827060354363322
12788726 201 17059505002047033793
128620 24 17385724690407290772
13140716 1 18264499557760559337
13224815 77 18408318891198213202
13675066 3 17749393654488776519
14790565 3 18338806709892665688
15163728 17 15481289097577292713
15183329 4 18408605830407435614
15196674 1 18337388339818468438
15209289 33 18341332270467662817
15209294 21 18059584555192331817
15309172 13 18409451371427638915
15536298 74 18341610425830279326
15788980 27 17749105603943632888
16945 1 18265320738190372627
17349148 13 18114176445825312880
1813 80 17530976782159466655
18186145 218 18409161126111612646
19489759 90 15410896249631894657
19591789 44 18193273216009210722
200 152 17918273168974754922
21033648 29 17968079933063946356
21267235 1 18338240469814837151
21623110 236 18263368155990106261
23402539 116 18410566319162361766
23402655 69 18201721773563375622
23559900 14 18341325700027887232
335352 9 18410007719541319564
34934 24 18335695014618288215
350125 39 18408603674022772468
3545911 37 18408602569419241710
3680242 22 18335416829913620042
4214541 1 18412824715549947695
474 4 18408605889666299408
5104073 3 18339077194179428906
542803 24 17561084709247609168
59755656 215 18335983078396721054
633830 44 18202282537272954908
9709674 26 18410014338397756278

> <PUBCHEM_SHAPE_MULTIPOLES>
441.01
10.64
2.03
1.22
7.18
0.55
-0.05
-1.94
-1.01
0.21
-0.15
-1.94
-0.33
-0.49

> <PUBCHEM_SHAPE_SELFOVERLAP>
961.464

> <PUBCHEM_SHAPE_VOLUME>
238.8

> <PUBCHEM_COORDINATE_TYPE>
2
5
10

> <Energy>
61.5647

> <minimizedAffinity>
-7.67888

> <CNNscore>
0.2174783945

> <CNNaffinity>
6.8780155182

> <CNN_VS>
1.4958198071

> <CNNaffinity_variance>
0.1017030254

$$$$
5991


 24 27  0  0  0  0  0  0  0  0999 V2000
   -0.9562   -2.5703   18.2664 O   0  0  0  0  0  0  0  0  0  0  0  0
   -9.1487   -6.4053   24.4889 O   0  0  0  0  0  0  0  0  0  0  0  0
   -2.5069   -3.5060   19.9499 C   0  0  0  0  0  0  0  0  0  0  0  0
   -2.3533   -3.6300   21.4834 C   0  0  0  0  0  0  0  0  0  0  0  0
   -3.6930   -3.8355   22.1947 C   0  0  0  0  0  0  0  0  0  0  0  0
   -1.0331   -3.1915   19.5437 C   0  0  0  0  0  0  0  0  0  0  0  0
   -4.3394   -5.1568   21.6806 C   0  0  0  0  0  0  0  0  0  0  0  0
   -3.1216   -4.8174   19.4255 C   0  0  0  0  0  0  0  0  0  0  0  0
   -1.5039   -2.4176   21.8560 C   0  0  0  0  0  0  0  0  0  0  0  0
   -4.4466   -5.1640   20.1334 C   0  0  0  0  0  0  0  0  0  0  0  0
   -0.5747   -2.2002   20.6462 C   0  0  0  0  0  0  0  0  0  0  0  0
   -3.5416   -3.9149   23.7157 C   0  0  0  0  0  0  0  0  0  0  0  0
   -3.4266   -2.3295   19.5077 C   0  0  0  0  0  0  0  0  0  0  0  0
   -5.6426   -5.4595   22.4194 C   0  0  0  0  0  0  0  0  0  0  0  0
   -4.9182   -3.9684   24.3705 C   0  0  0  0  0  0  0  0  0  0  0  0
   -5.8772   -4.9239   23.7051 C   0  0  0  0  0  0  0  0  0  0  0  0
   -6.5934   -6.3458   21.8848 C   0  0  0  0  0  0  0  0  0  0  0  0
   -7.0671   -5.2365   24.3899 C   0  0  0  0  0  0  0  0  0  0  0  0
   -7.7691   -6.6570   22.5812 C   0  0  0  0  0  0  0  0  0  0  0  0
   -7.9979   -6.0947   23.8274 C   0  0  0  0  0  0  0  0  0  0  0  0
   -1.5276   -1.7866   18.2531 H   0  0  0  0  0  0  0  0  0  0  0  0
   -9.3191   -6.0340   25.3322 H   0  0  0  0  0  0  0  0  0  0  0  0
   -0.1546   -4.3765   19.5288 C   0  0  0  0  0  0  0  0  0  0  0  0
    0.5512   -5.3508   19.5088 C   0  0  0  0  0  0  0  0  0  0  0  0
  1  6  1  0
  1 21  1  0
  2 20  1  0
  2 22  1  0
  3  4  1  0
  3  6  1  0
  3  8  1  0
  3 13  1  0
  4  5  1  0
  4  9  1  0
  5  7  1  0
  5 12  1  0
  6 11  1  0
  6 23  1  0
  7 10  1  0
  7 14  1  0
  8 10  1  0
  9 11  1  0
 12 15  1  0
 14 16  2  0
 14 17  1  0
 15 16  1  0
 16 18  1  0
 23 24  3  0
 17 19  2  0
 18 20  2  0
 19 20  1  0
M  END
> <PUBCHEM_COMPOUND_CID>
5991

> <PUBCHEM_CONFORMER_RMSD>
0.6

> <PUBCHEM_CONFORMER_DIVERSEORDER>
1

> <PUBCHEM_MMFF94_PARTIAL_CHARGES>
19
1 -0.68
14 -0.14
15 0.14
16 -0.14
17 -0.2
18 -0.15
19 -0.15
2 -0.53
20 -0.15
21 0.08
22 -0.18
41 0.4
42 0.15
43 0.15
44 0.15
45 0.18
46 0.45
6 0.48
7 0.14

> <PUBCHEM_EFFECTIVE_ROTOR_COUNT>
1.4

> <PUBCHEM_PHARMACOPHORE_FEATURES>
8
1 1 acceptor
1 1 donor
1 2 donor
1 22 hydrophobe
5 3 4 6 9 11 rings
6 14 16 18 19 20 21 rings
6 3 4 5 7 8 10 rings
6 5 7 12 14 15 16 rings

> <PUBCHEM_HEAVY_ATOM_COUNT>
22

> <PUBCHEM_ATOM_DEF_STEREO_COUNT>
5

> <PUBCHEM_ATOM_UDEF_STEREO_COUNT>
0

> <PUBCHEM_BOND_DEF_STEREO_COUNT>
0

> <PUBCHEM_BOND_UDEF_STEREO_COUNT>
0

> <PUBCHEM_ISOTOPIC_ATOM_COUNT>
0

> <PUBCHEM_COMPONENT_COUNT>
1

> <PUBCHEM_CACTVS_TAUTO_COUNT>
9

> <PUBCHEM_CONFORMER_ID>
0000176700000001

> <PUBCHEM_MMFF94_ENERGY>
75.3654

> <PUBCHEM_FEATURE_SELFOVERLAP>
40.689

> <PUBCHEM_SHAPE_FINGERPRINT>
10498660 4 18334565854482978588
10616163 171 18412261769892000550
10906281 52 18268729332496851400
10967382 1 18409163299196382730
11132069 177 18260823830106114581
11315181 36 17846777438100329984
11552529 35 18058445585631877095
11578080 2 16952518088400902894
11796584 16 15123796154675551020
12107183 9 17697047933183828707
12236239 1 17917992754997443209
12403259 415 18260540148118003532
12403814 3 17531241756051219503
12633257 1 18411416168188185458
12644460 14 18260827060354363322
12788726 201 17059505002047033793
128620 24 17385724690407290772
13140716 1 18264499557760559337
13224815 77 18408318891198213202
13675066 3 17749393654488776519
14790565 3 18338806709892665688
15163728 17 15481289097577292713
15183329 4 18408605830407435614
15196674 1 18337388339818468438
15209289 33 18341332270467662817
15209294 21 18059584555192331817
15309172 13 18409451371427638915
15536298 74 18341610425830279326
15788980 27 17749105603943632888
16945 1 18265320738190372627
17349148 13 18114176445825312880
1813 80 17530976782159466655
18186145 218 18409161126111612646
19489759 90 15410896249631894657
19591789 44 18193273216009210722
200 152 17918273168974754922
21033648 29 17968079933063946356
21267235 1 18338240469814837151
21623110 236 18263368155990106261
23402539 116 18410566319162361766
23402655 69 18201721773563375622
23559900 14 18341325700027887232
335352 9 18410007719541319564
34934 24 18335695014618288215
350125 39 18408603674022772468
3545911 37 18408602569419241710
3680242 22 18335416829913620042
4214541 1 18412824715549947695
474 4 18408605889666299408
5104073 3 18339077194179428906
542803 24 17561084709247609168
59755656 215 18335983078396721054
633830 44 18202282537272954908
9709674 26 18410014338397756278

> <PUBCHEM_SHAPE_MULTIPOLES>
441.01
10.64
2.03
1.22
7.18
0.55
-0.05
-1.94
-1.01
0.21
-0.15
-1.94
-0.33
-0.49

> <PUBCHEM_SHAPE_SELFOVERLAP>
961.464

> <PUBCHEM_SHAPE_VOLUME>
238.8

> <PUBCHEM_COORDINATE_TYPE>
2
5
10

> <Energy>
61.5647

> <minimizedAffinity>
-4.93111

> <CNNscore>
0.1214005351

> <CNNaffinity>
6.5346655846

> <CNN_VS>
0.7933118939

> <CNNaffinity_variance>
0.0821436569

$$$$
