5757


 22 25  0  0  0  0  0  0  0  0999 V2000
   26.6947    2.2697    4.0078 O   0  0  0  0  0  0  0  0  0  0  0  0
   16.5020    5.3085    6.6669 O   0  0  0  0  0  0  0  0  0  0  0  0
   24.4844    3.2775    4.4307 C   0  0  0  0  0  0  0  0  0  0  0  0
   23.9412    4.6596    4.0158 C   0  0  0  0  0  0  0  0  0  0  0  0
   22.4247    4.7568    4.1806 C   0  0  0  0  0  0  0  0  0  0  0  0
   22.0718    4.5514    5.6852 C   0  0  0  0  0  0  0  0  0  0  0  0
   25.9732    3.4831    4.0912 C   0  0  0  0  0  0  0  0  0  0  0  0
   24.1848    3.0747    5.9210 C   0  0  0  0  0  0  0  0  0  0  0  0
   24.5599    4.8859    2.6393 C   0  0  0  0  0  0  0  0  0  0  0  0
   22.6834    3.2325    6.2305 C   0  0  0  0  0  0  0  0  0  0  0  0
   25.9482    4.2280    2.7421 C   0  0  0  0  0  0  0  0  0  0  0  0
   21.8676    6.1048    3.7189 C   0  0  0  0  0  0  0  0  0  0  0  0
   23.9083    2.0842    3.6261 C   0  0  0  0  0  0  0  0  0  0  0  0
   20.5733    4.7213    5.9302 C   0  0  0  0  0  0  0  0  0  0  0  0
   20.3419    6.0837    3.7748 C   0  0  0  0  0  0  0  0  0  0  0  0
   19.7810    5.4829    5.0429 C   0  0  0  0  0  0  0  0  0  0  0  0
   19.9647    4.2032    7.0876 C   0  0  0  0  0  0  0  0  0  0  0  0
   18.4090    5.6581    5.3026 C   0  0  0  0  0  0  0  0  0  0  0  0
   18.6039    4.3920    7.3406 C   0  0  0  0  0  0  0  0  0  0  0  0
   17.8341    5.1139    6.4439 C   0  0  0  0  0  0  0  0  0  0  0  0
   26.6890    1.8301    4.8725 H   0  0  0  0  0  0  0  0  0  0  0  0
   15.9910    5.7986    6.0533 H   0  0  0  0  0  0  0  0  0  0  0  0
  1  7  1  0
  1 21  1  0
  2 20  1  0
  2 22  1  0
  3  4  1  0
  3  7  1  0
  3  8  1  0
  3 13  1  0
  4  5  1  0
  4  9  1  0
  5  6  1  0
  5 12  1  0
  6 10  1  0
  6 14  1  0
  7 11  1  0
  8 10  1  0
  9 11  1  0
 12 15  1  0
 14 16  2  0
 14 17  1  0
 15 16  1  0
 16 18  1  0
 17 19  2  0
 18 20  2  0
 19 20  1  0
M  END
> <PUBCHEM_COMPOUND_CID>
5757

> <PUBCHEM_CONFORMER_RMSD>
0.6

> <PUBCHEM_CONFORMER_DIVERSEORDER>
1

> <PUBCHEM_MMFF94_PARTIAL_CHARGES>
16
1 -0.68
14 -0.14
15 0.14
16 -0.14
17 -0.15
18 -0.15
19 -0.15
2 -0.53
20 0.08
40 0.4
41 0.15
42 0.15
43 0.15
44 0.45
6 0.14
7 0.28

> <PUBCHEM_EFFECTIVE_ROTOR_COUNT>
1.4

> <PUBCHEM_PHARMACOPHORE_FEATURES>
7
1 1 acceptor
1 1 donor
1 2 donor
5 3 4 7 9 11 rings
6 14 16 17 18 19 20 rings
6 3 4 5 6 8 10 rings
6 5 6 12 14 15 16 rings

> <PUBCHEM_HEAVY_ATOM_COUNT>
20

> <PUBCHEM_ATOM_DEF_STEREO_COUNT>
5

> <PUBCHEM_ATOM_UDEF_STEREO_COUNT>
0

> <PUBCHEM_BOND_DEF_STEREO_COUNT>
0

> <PUBCHEM_BOND_UDEF_STEREO_COUNT>
0

> <PUBCHEM_ISOTOPIC_ATOM_COUNT>
0

> <PUBCHEM_COMPONENT_COUNT>
1

> <PUBCHEM_CACTVS_TAUTO_COUNT>
9

> <PUBCHEM_CONFORMER_ID>
0000167D00000001

> <PUBCHEM_MMFF94_ENERGY>
68.4596

> <PUBCHEM_FEATURE_SELFOVERLAP>
35.62

> <PUBCHEM_SHAPE_FINGERPRINT>
10 15 18262512710780645640
10411042 1 16969703283687688743
10616163 171 18338239395883154686
10967382 1 18410012100429229070
11132069 177 18409162216832884669
11578080 2 17201347718505248258
12011746 2 18410859841042374310
12107183 9 17690845558000159065
12236239 1 13470690338792453460
12251169 10 18335139816864396069
12403259 415 18410852127603240605
12403814 3 17530960289353343621
12500047 106 18271238421624861530
12592029 89 18334859377112304987
12788726 201 17703518696578858128
128620 24 11818992989152349105
13140716 1 18192429898953651512
13533116 47 17846218813073552003
13544592 145 18272379637759764926
13675066 3 18341893012844745609
14178342 30 18123731313450613666
14341114 176 18409738343777605753
14866123 147 17046555868986690930
15042514 8 18263932206156989787
15196674 1 18410012108982090935
15256400 18 18410857620686823693
15295992 7 17845930826899781123
15536298 74 18413671296627645270
1601671 61 18409168826940819996
16945 1 18266170819592368622
17349148 13 18412820287929204701
17804303 29 18410296916890392117
1813 80 16950285091842931756
18186145 218 17417805158171412875
19141452 34 18413108389914235807
192875 21 13830133918406568194
19591789 44 18192993725128068838
200 152 18131627885965453901
20028762 73 18272929458099065015
20261772 1 18410856577167961319
20510252 161 18341895147623301209
20645477 70 18200878374956666302
21033648 29 18271512131406579929
21267235 1 18337399244825179854
21279426 13 18124035632930519374
21421861 104 17895744090149736410
22854114 59 18412546505207311417
22892500 29 17274814788166584896
23184049 59 18410576175690384255
23402539 116 18342170081765240151
23557571 272 17773880972535682807
23558518 356 17682680979747269074
23559900 14 18413389822146813342
2748010 2 18337666399911122230
3004659 81 18260835844047909814
335352 9 18410013195572088855
34934 24 18411133675799850702
350125 39 18409735045496469133
351380 180 18409730664571278687
3545911 37 18411703192367818988
4214541 1 18409167684326479901
465052 167 17967541176940287083
495365 180 17346587600050392546
5104073 3 18409449150412323065
542803 24 17346883342628774985
59755656 215 18335983048405458773
69090 78 18341891905091661271
77779 3 18409450271409361990
7832392 63 18341046427736201710
9709674 26 18410862087368844367
9999458 23 17967819357476725574

> <PUBCHEM_SHAPE_MULTIPOLES>
399.85
9.72
2.11
0.84
3.73
0.39
0.22
-1.2
1.2
-0.24
-0.15
-0.38
-0.13
0.32

> <PUBCHEM_SHAPE_SELFOVERLAP>
871.414

> <PUBCHEM_SHAPE_VOLUME>
217.1

> <PUBCHEM_COORDINATE_TYPE>
2
5
10

> <Energy>
58.4396

> <minimizedAffinity>
-11.50326

> <CNNscore>
0.9854030609

> <CNNaffinity>
8.1675176620

> <CNN_VS>
8.0482969284

> <CNNaffinity_variance>
0.7493022084

$$$$
5757


 22 25  0  0  0  0  0  0  0  0999 V2000
   26.6966    4.4306    2.9680 O   0  0  0  0  0  0  0  0  0  0  0  0
   16.6678    5.4685    7.2741 O   0  0  0  0  0  0  0  0  0  0  0  0
   24.4411    4.2869    3.9538 C   0  0  0  0  0  0  0  0  0  0  0  0
   23.6340    3.0437    4.3788 C   0  0  0  0  0  0  0  0  0  0  0  0
   22.4306    3.4065    5.2486 C   0  0  0  0  0  0  0  0  0  0  0  0
   21.4752    4.3206    4.4227 C   0  0  0  0  0  0  0  0  0  0  0  0
   25.5768    3.5927    3.1776 C   0  0  0  0  0  0  0  0  0  0  0  0
   23.5297    5.1793    3.1024 C   0  0  0  0  0  0  0  0  0  0  0  0
   24.6989    2.1007    4.9315 C   0  0  0  0  0  0  0  0  0  0  0  0
   22.2315    5.5482    3.8464 C   0  0  0  0  0  0  0  0  0  0  0  0
   25.9308    2.3713    4.0484 C   0  0  0  0  0  0  0  0  0  0  0  0
   21.6546    2.1762    5.7228 C   0  0  0  0  0  0  0  0  0  0  0  0
   25.0202    5.1184    5.1270 C   0  0  0  0  0  0  0  0  0  0  0  0
   20.2077    4.6506    5.2095 C   0  0  0  0  0  0  0  0  0  0  0  0
   20.5580    2.5971    6.6982 C   0  0  0  0  0  0  0  0  0  0  0  0
   19.7663    3.8040    6.2504 C   0  0  0  0  0  0  0  0  0  0  0  0
   19.4029    5.7498    4.8598 C   0  0  0  0  0  0  0  0  0  0  0  0
   18.5779    4.1043    6.9418 C   0  0  0  0  0  0  0  0  0  0  0  0
   18.2196    6.0326    5.5462 C   0  0  0  0  0  0  0  0  0  0  0  0
   17.8176    5.2108    6.5859 C   0  0  0  0  0  0  0  0  0  0  0  0
   26.4366    5.1861    2.4179 H   0  0  0  0  0  0  0  0  0  0  0  0
   16.4056    4.9057    7.9758 H   0  0  0  0  0  0  0  0  0  0  0  0
  1  7  1  0
  1 21  1  0
  2 20  1  0
  2 22  1  0
  3  4  1  0
  3  7  1  0
  3  8  1  0
  3 13  1  0
  4  5  1  0
  4  9  1  0
  5  6  1  0
  5 12  1  0
  6 10  1  0
  6 14  1  0
  7 11  1  0
  8 10  1  0
  9 11  1  0
 12 15  1  0
 14 16  2  0
 14 17  1  0
 15 16  1  0
 16 18  1  0
 17 19  2  0
 18 20  2  0
 19 20  1  0
M  END
> <PUBCHEM_COMPOUND_CID>
5757

> <PUBCHEM_CONFORMER_RMSD>
0.6

> <PUBCHEM_CONFORMER_DIVERSEORDER>
1

> <PUBCHEM_MMFF94_PARTIAL_CHARGES>
16
1 -0.68
14 -0.14
15 0.14
16 -0.14
17 -0.15
18 -0.15
19 -0.15
2 -0.53
20 0.08
40 0.4
41 0.15
42 0.15
43 0.15
44 0.45
6 0.14
7 0.28

> <PUBCHEM_EFFECTIVE_ROTOR_COUNT>
1.4

> <PUBCHEM_PHARMACOPHORE_FEATURES>
7
1 1 acceptor
1 1 donor
1 2 donor
5 3 4 7 9 11 rings
6 14 16 17 18 19 20 rings
6 3 4 5 6 8 10 rings
6 5 6 12 14 15 16 rings

> <PUBCHEM_HEAVY_ATOM_COUNT>
20

> <PUBCHEM_ATOM_DEF_STEREO_COUNT>
5

> <PUBCHEM_ATOM_UDEF_STEREO_COUNT>
0

> <PUBCHEM_BOND_DEF_STEREO_COUNT>
0

> <PUBCHEM_BOND_UDEF_STEREO_COUNT>
0

> <PUBCHEM_ISOTOPIC_ATOM_COUNT>
0

> <PUBCHEM_COMPONENT_COUNT>
1

> <PUBCHEM_CACTVS_TAUTO_COUNT>
9

> <PUBCHEM_CONFORMER_ID>
0000167D00000001

> <PUBCHEM_MMFF94_ENERGY>
68.4596

> <PUBCHEM_FEATURE_SELFOVERLAP>
35.62

> <PUBCHEM_SHAPE_FINGERPRINT>
10 15 18262512710780645640
10411042 1 16969703283687688743
10616163 171 18338239395883154686
10967382 1 18410012100429229070
11132069 177 18409162216832884669
11578080 2 17201347718505248258
12011746 2 18410859841042374310
12107183 9 17690845558000159065
12236239 1 13470690338792453460
12251169 10 18335139816864396069
12403259 415 18410852127603240605
12403814 3 17530960289353343621
12500047 106 18271238421624861530
12592029 89 18334859377112304987
12788726 201 17703518696578858128
128620 24 11818992989152349105
13140716 1 18192429898953651512
13533116 47 17846218813073552003
13544592 145 18272379637759764926
13675066 3 18341893012844745609
14178342 30 18123731313450613666
14341114 176 18409738343777605753
14866123 147 17046555868986690930
15042514 8 18263932206156989787
15196674 1 18410012108982090935
15256400 18 18410857620686823693
15295992 7 17845930826899781123
15536298 74 18413671296627645270
1601671 61 18409168826940819996
16945 1 18266170819592368622
17349148 13 18412820287929204701
17804303 29 18410296916890392117
1813 80 16950285091842931756
18186145 218 17417805158171412875
19141452 34 18413108389914235807
192875 21 13830133918406568194
19591789 44 18192993725128068838
200 152 18131627885965453901
20028762 73 18272929458099065015
20261772 1 18410856577167961319
20510252 161 18341895147623301209
20645477 70 18200878374956666302
21033648 29 18271512131406579929
21267235 1 18337399244825179854
21279426 13 18124035632930519374
21421861 104 17895744090149736410
22854114 59 18412546505207311417
22892500 29 17274814788166584896
23184049 59 18410576175690384255
23402539 116 18342170081765240151
23557571 272 17773880972535682807
23558518 356 17682680979747269074
23559900 14 18413389822146813342
2748010 2 18337666399911122230
3004659 81 18260835844047909814
335352 9 18410013195572088855
34934 24 18411133675799850702
350125 39 18409735045496469133
351380 180 18409730664571278687
3545911 37 18411703192367818988
4214541 1 18409167684326479901
465052 167 17967541176940287083
495365 180 17346587600050392546
5104073 3 18409449150412323065
542803 24 17346883342628774985
59755656 215 18335983048405458773
69090 78 18341891905091661271
77779 3 18409450271409361990
7832392 63 18341046427736201710
9709674 26 18410862087368844367
9999458 23 17967819357476725574

> <PUBCHEM_SHAPE_MULTIPOLES>
399.85
9.72
2.11
0.84
3.73
0.39
0.22
-1.2
1.2
-0.24
-0.15
-0.38
-0.13
0.32

> <PUBCHEM_SHAPE_SELFOVERLAP>
871.414

> <PUBCHEM_SHAPE_VOLUME>
217.1

> <PUBCHEM_COORDINATE_TYPE>
2
5
10

> <Energy>
58.4396

> <minimizedAffinity>
-10.35741

> <CNNscore>
0.9496563077

> <CNNaffinity>
7.9928488731

> <CNN_VS>
7.5904593468

> <CNNaffinity_variance>
0.7901258469

$$$$
5757


 22 25  0  0  0  0  0  0  0  0999 V2000
   25.1848    0.7493    3.4821 O   0  0  0  0  0  0  0  0  0  0  0  0
   17.0776    6.0674    8.5994 O   0  0  0  0  0  0  0  0  0  0  0  0
   23.4505    2.2364    4.4096 C   0  0  0  0  0  0  0  0  0  0  0  0
   23.0958    3.6874    4.0269 C   0  0  0  0  0  0  0  0  0  0  0  0
   21.7495    4.1239    4.6044 C   0  0  0  0  0  0  0  0  0  0  0  0
   21.8293    4.0599    6.1601 C   0  0  0  0  0  0  0  0  0  0  0  0
   24.7791    2.0945    3.6423 C   0  0  0  0  0  0  0  0  0  0  0  0
   23.5763    2.1627    5.9362 C   0  0  0  0  0  0  0  0  0  0  0  0
   23.3065    3.7179    2.5158 C   0  0  0  0  0  0  0  0  0  0  0  0
   22.2995    2.6605    6.6412 C   0  0  0  0  0  0  0  0  0  0  0  0
   24.5011    2.7738    2.2871 C   0  0  0  0  0  0  0  0  0  0  0  0
   21.3611    5.5429    4.1846 C   0  0  0  0  0  0  0  0  0  0  0  0
   22.4337    1.1700    3.9279 C   0  0  0  0  0  0  0  0  0  0  0  0
   20.5385    4.5664    6.8017 C   0  0  0  0  0  0  0  0  0  0  0  0
   19.9501    5.8619    4.6730 C   0  0  0  0  0  0  0  0  0  0  0  0
   19.6860    5.4495    6.1027 C   0  0  0  0  0  0  0  0  0  0  0  0
   20.2133    4.2408    8.1308 C   0  0  0  0  0  0  0  0  0  0  0  0
   18.5186    5.9336    6.7218 C   0  0  0  0  0  0  0  0  0  0  0  0
   19.0571    4.7354    8.7389 C   0  0  0  0  0  0  0  0  0  0  0  0
   18.2149    5.5746    8.0286 C   0  0  0  0  0  0  0  0  0  0  0  0
   25.3502    0.3556    4.3530 H   0  0  0  0  0  0  0  0  0  0  0  0
   16.5152    6.6343    8.1093 H   0  0  0  0  0  0  0  0  0  0  0  0
  1  7  1  0
  1 21  1  0
  2 20  1  0
  2 22  1  0
  3  4  1  0
  3  7  1  0
  3  8  1  0
  3 13  1  0
  4  5  1  0
  4  9  1  0
  5  6  1  0
  5 12  1  0
  6 10  1  0
  6 14  1  0
  7 11  1  0
  8 10  1  0
  9 11  1  0
 12 15  1  0
 14 16  2  0
 14 17  1  0
 15 16  1  0
 16 18  1  0
 17 19  2  0
 18 20  2  0
 19 20  1  0
M  END
> <PUBCHEM_COMPOUND_CID>
5757

> <PUBCHEM_CONFORMER_RMSD>
0.6

> <PUBCHEM_CONFORMER_DIVERSEORDER>
1

> <PUBCHEM_MMFF94_PARTIAL_CHARGES>
16
1 -0.68
14 -0.14
15 0.14
16 -0.14
17 -0.15
18 -0.15
19 -0.15
2 -0.53
20 0.08
40 0.4
41 0.15
42 0.15
43 0.15
44 0.45
6 0.14
7 0.28

> <PUBCHEM_EFFECTIVE_ROTOR_COUNT>
1.4

> <PUBCHEM_PHARMACOPHORE_FEATURES>
7
1 1 acceptor
1 1 donor
1 2 donor
5 3 4 7 9 11 rings
6 14 16 17 18 19 20 rings
6 3 4 5 6 8 10 rings
6 5 6 12 14 15 16 rings

> <PUBCHEM_HEAVY_ATOM_COUNT>
20

> <PUBCHEM_ATOM_DEF_STEREO_COUNT>
5

> <PUBCHEM_ATOM_UDEF_STEREO_COUNT>
0

> <PUBCHEM_BOND_DEF_STEREO_COUNT>
0

> <PUBCHEM_BOND_UDEF_STEREO_COUNT>
0

> <PUBCHEM_ISOTOPIC_ATOM_COUNT>
0

> <PUBCHEM_COMPONENT_COUNT>
1

> <PUBCHEM_CACTVS_TAUTO_COUNT>
9

> <PUBCHEM_CONFORMER_ID>
0000167D00000001

> <PUBCHEM_MMFF94_ENERGY>
68.4596

> <PUBCHEM_FEATURE_SELFOVERLAP>
35.62

> <PUBCHEM_SHAPE_FINGERPRINT>
10 15 18262512710780645640
10411042 1 16969703283687688743
10616163 171 18338239395883154686
10967382 1 18410012100429229070
11132069 177 18409162216832884669
11578080 2 17201347718505248258
12011746 2 18410859841042374310
12107183 9 17690845558000159065
12236239 1 13470690338792453460
12251169 10 18335139816864396069
12403259 415 18410852127603240605
12403814 3 17530960289353343621
12500047 106 18271238421624861530
12592029 89 18334859377112304987
12788726 201 17703518696578858128
128620 24 11818992989152349105
13140716 1 18192429898953651512
13533116 47 17846218813073552003
13544592 145 18272379637759764926
13675066 3 18341893012844745609
14178342 30 18123731313450613666
14341114 176 18409738343777605753
14866123 147 17046555868986690930
15042514 8 18263932206156989787
15196674 1 18410012108982090935
15256400 18 18410857620686823693
15295992 7 17845930826899781123
15536298 74 18413671296627645270
1601671 61 18409168826940819996
16945 1 18266170819592368622
17349148 13 18412820287929204701
17804303 29 18410296916890392117
1813 80 16950285091842931756
18186145 218 17417805158171412875
19141452 34 18413108389914235807
192875 21 13830133918406568194
19591789 44 18192993725128068838
200 152 18131627885965453901
20028762 73 18272929458099065015
20261772 1 18410856577167961319
20510252 161 18341895147623301209
20645477 70 18200878374956666302
21033648 29 18271512131406579929
21267235 1 18337399244825179854
21279426 13 18124035632930519374
21421861 104 17895744090149736410
22854114 59 18412546505207311417
22892500 29 17274814788166584896
23184049 59 18410576175690384255
23402539 116 18342170081765240151
23557571 272 17773880972535682807
23558518 356 17682680979747269074
23559900 14 18413389822146813342
2748010 2 18337666399911122230
3004659 81 18260835844047909814
335352 9 18410013195572088855
34934 24 18411133675799850702
350125 39 18409735045496469133
351380 180 18409730664571278687
3545911 37 18411703192367818988
4214541 1 18409167684326479901
465052 167 17967541176940287083
495365 180 17346587600050392546
5104073 3 18409449150412323065
542803 24 17346883342628774985
59755656 215 18335983048405458773
69090 78 18341891905091661271
77779 3 18409450271409361990
7832392 63 18341046427736201710
9709674 26 18410862087368844367
9999458 23 17967819357476725574

> <PUBCHEM_SHAPE_MULTIPOLES>
399.85
9.72
2.11
0.84
3.73
0.39
0.22
-1.2
1.2
-0.24
-0.15
-0.38
-0.13
0.32

> <PUBCHEM_SHAPE_SELFOVERLAP>
871.414

> <PUBCHEM_SHAPE_VOLUME>
217.1

> <PUBCHEM_COORDINATE_TYPE>
2
5
10

> <Energy>
58.4396

> <minimizedAffinity>
-6.97585

> <CNNscore>
0.8190259933

> <CNNaffinity>
7.7096476555

> <CNN_VS>
6.3144016266

> <CNNaffinity_variance>
0.9732527733

$$$$
5757


 22 25  0  0  0  0  0  0  0  0999 V2000
   18.1685    3.6035    8.6151 O   0  0  0  0  0  0  0  0  0  0  0  0
   27.1266    4.8802    2.4248 O   0  0  0  0  0  0  0  0  0  0  0  0
   19.9540    4.0645    6.9783 C   0  0  0  0  0  0  0  0  0  0  0  0
   19.8768    4.7944    5.6223 C   0  0  0  0  0  0  0  0  0  0  0  0
   21.2600    5.1592    5.0836 C   0  0  0  0  0  0  0  0  0  0  0  0
   22.0704    3.8465    4.8591 C   0  0  0  0  0  0  0  0  0  0  0  0
   18.4478    3.9076    7.2625 C   0  0  0  0  0  0  0  0  0  0  0  0
   20.7114    2.7476    6.7689 C   0  0  0  0  0  0  0  0  0  0  0  0
   18.8559    5.9009    5.8721 C   0  0  0  0  0  0  0  0  0  0  0  0
   22.1022    2.9790    6.1465 C   0  0  0  0  0  0  0  0  0  0  0  0
   17.8466    5.2639    6.8448 C   0  0  0  0  0  0  0  0  0  0  0  0
   21.1931    5.9336    3.7658 C   0  0  0  0  0  0  0  0  0  0  0  0
   20.6352    4.8716    8.1132 C   0  0  0  0  0  0  0  0  0  0  0  0
   23.4363    4.1385    4.2400 C   0  0  0  0  0  0  0  0  0  0  0  0
   22.5923    6.3895    3.3589 C   0  0  0  0  0  0  0  0  0  0  0  0
   23.6524    5.3217    3.4994 C   0  0  0  0  0  0  0  0  0  0  0  0
   24.4812    3.1998    4.3135 C   0  0  0  0  0  0  0  0  0  0  0  0
   24.9067    5.5583    2.9066 C   0  0  0  0  0  0  0  0  0  0  0  0
   25.7190    3.4405    3.7124 C   0  0  0  0  0  0  0  0  0  0  0  0
   25.9251    4.6204    3.0172 C   0  0  0  0  0  0  0  0  0  0  0  0
   18.5612    2.7459    8.8414 H   0  0  0  0  0  0  0  0  0  0  0  0
   27.2547    5.6819    1.9570 H   0  0  0  0  0  0  0  0  0  0  0  0
  1  7  1  0
  1 21  1  0
  2 20  1  0
  2 22  1  0
  3  4  1  0
  3  7  1  0
  3  8  1  0
  3 13  1  0
  4  5  1  0
  4  9  1  0
  5  6  1  0
  5 12  1  0
  6 10  1  0
  6 14  1  0
  7 11  1  0
  8 10  1  0
  9 11  1  0
 12 15  1  0
 14 16  2  0
 14 17  1  0
 15 16  1  0
 16 18  1  0
 17 19  2  0
 18 20  2  0
 19 20  1  0
M  END
> <PUBCHEM_COMPOUND_CID>
5757

> <PUBCHEM_CONFORMER_RMSD>
0.6

> <PUBCHEM_CONFORMER_DIVERSEORDER>
1

> <PUBCHEM_MMFF94_PARTIAL_CHARGES>
16
1 -0.68
14 -0.14
15 0.14
16 -0.14
17 -0.15
18 -0.15
19 -0.15
2 -0.53
20 0.08
40 0.4
41 0.15
42 0.15
43 0.15
44 0.45
6 0.14
7 0.28

> <PUBCHEM_EFFECTIVE_ROTOR_COUNT>
1.4

> <PUBCHEM_PHARMACOPHORE_FEATURES>
7
1 1 acceptor
1 1 donor
1 2 donor
5 3 4 7 9 11 rings
6 14 16 17 18 19 20 rings
6 3 4 5 6 8 10 rings
6 5 6 12 14 15 16 rings

> <PUBCHEM_HEAVY_ATOM_COUNT>
20

> <PUBCHEM_ATOM_DEF_STEREO_COUNT>
5

> <PUBCHEM_ATOM_UDEF_STEREO_COUNT>
0

> <PUBCHEM_BOND_DEF_STEREO_COUNT>
0

> <PUBCHEM_BOND_UDEF_STEREO_COUNT>
0

> <PUBCHEM_ISOTOPIC_ATOM_COUNT>
0

> <PUBCHEM_COMPONENT_COUNT>
1

> <PUBCHEM_CACTVS_TAUTO_COUNT>
9

> <PUBCHEM_CONFORMER_ID>
0000167D00000001

> <PUBCHEM_MMFF94_ENERGY>
68.4596

> <PUBCHEM_FEATURE_SELFOVERLAP>
35.62

> <PUBCHEM_SHAPE_FINGERPRINT>
10 15 18262512710780645640
10411042 1 16969703283687688743
10616163 171 18338239395883154686
10967382 1 18410012100429229070
11132069 177 18409162216832884669
11578080 2 17201347718505248258
12011746 2 18410859841042374310
12107183 9 17690845558000159065
12236239 1 13470690338792453460
12251169 10 18335139816864396069
12403259 415 18410852127603240605
12403814 3 17530960289353343621
12500047 106 18271238421624861530
12592029 89 18334859377112304987
12788726 201 17703518696578858128
128620 24 11818992989152349105
13140716 1 18192429898953651512
13533116 47 17846218813073552003
13544592 145 18272379637759764926
13675066 3 18341893012844745609
14178342 30 18123731313450613666
14341114 176 18409738343777605753
14866123 147 17046555868986690930
15042514 8 18263932206156989787
15196674 1 18410012108982090935
15256400 18 18410857620686823693
15295992 7 17845930826899781123
15536298 74 18413671296627645270
1601671 61 18409168826940819996
16945 1 18266170819592368622
17349148 13 18412820287929204701
17804303 29 18410296916890392117
1813 80 16950285091842931756
18186145 218 17417805158171412875
19141452 34 18413108389914235807
192875 21 13830133918406568194
19591789 44 18192993725128068838
200 152 18131627885965453901
20028762 73 18272929458099065015
20261772 1 18410856577167961319
20510252 161 18341895147623301209
20645477 70 18200878374956666302
21033648 29 18271512131406579929
21267235 1 18337399244825179854
21279426 13 18124035632930519374
21421861 104 17895744090149736410
22854114 59 18412546505207311417
22892500 29 17274814788166584896
23184049 59 18410576175690384255
23402539 116 18342170081765240151
23557571 272 17773880972535682807
23558518 356 17682680979747269074
23559900 14 18413389822146813342
2748010 2 18337666399911122230
3004659 81 18260835844047909814
335352 9 18410013195572088855
34934 24 18411133675799850702
350125 39 18409735045496469133
351380 180 18409730664571278687
3545911 37 18411703192367818988
4214541 1 18409167684326479901
465052 167 17967541176940287083
495365 180 17346587600050392546
5104073 3 18409449150412323065
542803 24 17346883342628774985
59755656 215 18335983048405458773
69090 78 18341891905091661271
77779 3 18409450271409361990
7832392 63 18341046427736201710
9709674 26 18410862087368844367
9999458 23 17967819357476725574

> <PUBCHEM_SHAPE_MULTIPOLES>
399.85
9.72
2.11
0.84
3.73
0.39
0.22
-1.2
1.2
-0.24
-0.15
-0.38
-0.13
0.32

> <PUBCHEM_SHAPE_SELFOVERLAP>
871.414

> <PUBCHEM_SHAPE_VOLUME>
217.1

> <PUBCHEM_COORDINATE_TYPE>
2
5
10

> <Energy>
58.4396

> <minimizedAffinity>
-8.73954

> <CNNscore>
0.5873479247

> <CNNaffinity>
7.5831780434

> <CNN_VS>
4.4539637566

> <CNNaffinity_variance>
0.7427945733

$$$$
5757


 22 25  0  0  0  0  0  0  0  0999 V2000
   17.4702    4.9403    8.1944 O   0  0  0  0  0  0  0  0  0  0  0  0
   26.8308    2.2161    3.1791 O   0  0  0  0  0  0  0  0  0  0  0  0
   19.4389    4.5191    6.7710 C   0  0  0  0  0  0  0  0  0  0  0  0
   19.7247    4.9857    5.3294 C   0  0  0  0  0  0  0  0  0  0  0  0
   21.1907    4.7948    4.9409 C   0  0  0  0  0  0  0  0  0  0  0  0
   21.5326    3.2754    5.0139 C   0  0  0  0  0  0  0  0  0  0  0  0
   17.9483    4.8980    6.8642 C   0  0  0  0  0  0  0  0  0  0  0  0
   19.7284    3.0153    6.8519 C   0  0  0  0  0  0  0  0  0  0  0  0
   19.1143    6.3835    5.2809 C   0  0  0  0  0  0  0  0  0  0  0  0
   21.1640    2.6828    6.4009 C   0  0  0  0  0  0  0  0  0  0  0  0
   17.8718    6.2790    6.1842 C   0  0  0  0  0  0  0  0  0  0  0  0
   21.4979    5.3063    3.5322 C   0  0  0  0  0  0  0  0  0  0  0  0
   20.2516    5.2562    7.8661 C   0  0  0  0  0  0  0  0  0  0  0  0
   22.9649    3.0079    4.5542 C   0  0  0  0  0  0  0  0  0  0  0  0
   22.9981    5.2184    3.2625 C   0  0  0  0  0  0  0  0  0  0  0  0
   23.6252    3.9129    3.6939 C   0  0  0  0  0  0  0  0  0  0  0  0
   23.6265    1.8158    4.8999 C   0  0  0  0  0  0  0  0  0  0  0  0
   24.9320    3.6335    3.2524 C   0  0  0  0  0  0  0  0  0  0  0  0
   24.9199    1.5440    4.4474 C   0  0  0  0  0  0  0  0  0  0  0  0
   25.5658    2.4571    3.6307 C   0  0  0  0  0  0  0  0  0  0  0  0
   17.5335    4.0564    8.5890 H   0  0  0  0  0  0  0  0  0  0  0  0
   27.2581    2.8410    2.6270 H   0  0  0  0  0  0  0  0  0  0  0  0
  1  7  1  0
  1 21  1  0
  2 20  1  0
  2 22  1  0
  3  4  1  0
  3  7  1  0
  3  8  1  0
  3 13  1  0
  4  5  1  0
  4  9  1  0
  5  6  1  0
  5 12  1  0
  6 10  1  0
  6 14  1  0
  7 11  1  0
  8 10  1  0
  9 11  1  0
 12 15  1  0
 14 16  2  0
 14 17  1  0
 15 16  1  0
 16 18  1  0
 17 19  2  0
 18 20  2  0
 19 20  1  0
M  END
> <PUBCHEM_COMPOUND_CID>
5757

> <PUBCHEM_CONFORMER_RMSD>
0.6

> <PUBCHEM_CONFORMER_DIVERSEORDER>
1

> <PUBCHEM_MMFF94_PARTIAL_CHARGES>
16
1 -0.68
14 -0.14
15 0.14
16 -0.14
17 -0.15
18 -0.15
19 -0.15
2 -0.53
20 0.08
40 0.4
41 0.15
42 0.15
43 0.15
44 0.45
6 0.14
7 0.28

> <PUBCHEM_EFFECTIVE_ROTOR_COUNT>
1.4

> <PUBCHEM_PHARMACOPHORE_FEATURES>
7
1 1 acceptor
1 1 donor
1 2 donor
5 3 4 7 9 11 rings
6 14 16 17 18 19 20 rings
6 3 4 5 6 8 10 rings
6 5 6 12 14 15 16 rings

> <PUBCHEM_HEAVY_ATOM_COUNT>
20

> <PUBCHEM_ATOM_DEF_STEREO_COUNT>
5

> <PUBCHEM_ATOM_UDEF_STEREO_COUNT>
0

> <PUBCHEM_BOND_DEF_STEREO_COUNT>
0

> <PUBCHEM_BOND_UDEF_STEREO_COUNT>
0

> <PUBCHEM_ISOTOPIC_ATOM_COUNT>
0

> <PUBCHEM_COMPONENT_COUNT>
1

> <PUBCHEM_CACTVS_TAUTO_COUNT>
9

> <PUBCHEM_CONFORMER_ID>
0000167D00000001

> <PUBCHEM_MMFF94_ENERGY>
68.4596

> <PUBCHEM_FEATURE_SELFOVERLAP>
35.62

> <PUBCHEM_SHAPE_FINGERPRINT>
10 15 18262512710780645640
10411042 1 16969703283687688743
10616163 171 18338239395883154686
10967382 1 18410012100429229070
11132069 177 18409162216832884669
11578080 2 17201347718505248258
12011746 2 18410859841042374310
12107183 9 17690845558000159065
12236239 1 13470690338792453460
12251169 10 18335139816864396069
12403259 415 18410852127603240605
12403814 3 17530960289353343621
12500047 106 18271238421624861530
12592029 89 18334859377112304987
12788726 201 17703518696578858128
128620 24 11818992989152349105
13140716 1 18192429898953651512
13533116 47 17846218813073552003
13544592 145 18272379637759764926
13675066 3 18341893012844745609
14178342 30 18123731313450613666
14341114 176 18409738343777605753
14866123 147 17046555868986690930
15042514 8 18263932206156989787
15196674 1 18410012108982090935
15256400 18 18410857620686823693
15295992 7 17845930826899781123
15536298 74 18413671296627645270
1601671 61 18409168826940819996
16945 1 18266170819592368622
17349148 13 18412820287929204701
17804303 29 18410296916890392117
1813 80 16950285091842931756
18186145 218 17417805158171412875
19141452 34 18413108389914235807
192875 21 13830133918406568194
19591789 44 18192993725128068838
200 152 18131627885965453901
20028762 73 18272929458099065015
20261772 1 18410856577167961319
20510252 161 18341895147623301209
20645477 70 18200878374956666302
21033648 29 18271512131406579929
21267235 1 18337399244825179854
21279426 13 18124035632930519374
21421861 104 17895744090149736410
22854114 59 18412546505207311417
22892500 29 17274814788166584896
23184049 59 18410576175690384255
23402539 116 18342170081765240151
23557571 272 17773880972535682807
23558518 356 17682680979747269074
23559900 14 18413389822146813342
2748010 2 18337666399911122230
3004659 81 18260835844047909814
335352 9 18410013195572088855
34934 24 18411133675799850702
350125 39 18409735045496469133
351380 180 18409730664571278687
3545911 37 18411703192367818988
4214541 1 18409167684326479901
465052 167 17967541176940287083
495365 180 17346587600050392546
5104073 3 18409449150412323065
542803 24 17346883342628774985
59755656 215 18335983048405458773
69090 78 18341891905091661271
77779 3 18409450271409361990
7832392 63 18341046427736201710
9709674 26 18410862087368844367
9999458 23 17967819357476725574

> <PUBCHEM_SHAPE_MULTIPOLES>
399.85
9.72
2.11
0.84
3.73
0.39
0.22
-1.2
1.2
-0.24
-0.15
-0.38
-0.13
0.32

> <PUBCHEM_SHAPE_SELFOVERLAP>
871.414

> <PUBCHEM_SHAPE_VOLUME>
217.1

> <PUBCHEM_COORDINATE_TYPE>
2
5
10

> <Energy>
58.4396

> <minimizedAffinity>
-8.14467

> <CNNscore>
0.5811513662

> <CNNaffinity>
7.5444145203

> <CNN_VS>
4.3844466209

> <CNNaffinity_variance>
1.0096729994

$$$$
5757


 22 25  0  0  0  0  0  0  0  0999 V2000
   17.0299    6.2624    6.0829 O   0  0  0  0  0  0  0  0  0  0  0  0
   26.7938    2.2287    3.1520 O   0  0  0  0  0  0  0  0  0  0  0  0
   19.3022    5.3501    5.7935 C   0  0  0  0  0  0  0  0  0  0  0  0
   20.3572    4.9895    6.8586 C   0  0  0  0  0  0  0  0  0  0  0  0
   21.4937    4.1451    6.2826 C   0  0  0  0  0  0  0  0  0  0  0  0
   22.2157    4.9697    5.1738 C   0  0  0  0  0  0  0  0  0  0  0  0
   18.3019    6.1135    6.6827 C   0  0  0  0  0  0  0  0  0  0  0  0
   19.9846    6.1993    4.7143 C   0  0  0  0  0  0  0  0  0  0  0  0
   19.5239    4.4356    8.0108 C   0  0  0  0  0  0  0  0  0  0  0  0
   21.2081    5.4833    4.1099 C   0  0  0  0  0  0  0  0  0  0  0  0
   18.2319    5.2722    7.9720 C   0  0  0  0  0  0  0  0  0  0  0  0
   22.5175    3.7342    7.3425 C   0  0  0  0  0  0  0  0  0  0  0  0
   18.6104    4.1339    5.1260 C   0  0  0  0  0  0  0  0  0  0  0  0
   23.4185    4.2111    4.6149 C   0  0  0  0  0  0  0  0  0  0  0  0
   23.5415    2.7792    6.7339 C   0  0  0  0  0  0  0  0  0  0  0  0
   24.0580    3.2116    5.3812 C   0  0  0  0  0  0  0  0  0  0  0  0
   23.9731    4.5494    3.3674 C   0  0  0  0  0  0  0  0  0  0  0  0
   25.1860    2.5470    4.8648 C   0  0  0  0  0  0  0  0  0  0  0  0
   25.0993    3.8902    2.8691 C   0  0  0  0  0  0  0  0  0  0  0  0
   25.6953    2.8900    3.6190 C   0  0  0  0  0  0  0  0  0  0  0  0
   17.1128    6.7957    5.2769 H   0  0  0  0  0  0  0  0  0  0  0  0
   27.1887    1.5536    3.6680 H   0  0  0  0  0  0  0  0  0  0  0  0
  1  7  1  0
  1 21  1  0
  2 20  1  0
  2 22  1  0
  3  4  1  0
  3  7  1  0
  3  8  1  0
  3 13  1  0
  4  5  1  0
  4  9  1  0
  5  6  1  0
  5 12  1  0
  6 10  1  0
  6 14  1  0
  7 11  1  0
  8 10  1  0
  9 11  1  0
 12 15  1  0
 14 16  2  0
 14 17  1  0
 15 16  1  0
 16 18  1  0
 17 19  2  0
 18 20  2  0
 19 20  1  0
M  END
> <PUBCHEM_COMPOUND_CID>
5757

> <PUBCHEM_CONFORMER_RMSD>
0.6

> <PUBCHEM_CONFORMER_DIVERSEORDER>
1

> <PUBCHEM_MMFF94_PARTIAL_CHARGES>
16
1 -0.68
14 -0.14
15 0.14
16 -0.14
17 -0.15
18 -0.15
19 -0.15
2 -0.53
20 0.08
40 0.4
41 0.15
42 0.15
43 0.15
44 0.45
6 0.14
7 0.28

> <PUBCHEM_EFFECTIVE_ROTOR_COUNT>
1.4

> <PUBCHEM_PHARMACOPHORE_FEATURES>
7
1 1 acceptor
1 1 donor
1 2 donor
5 3 4 7 9 11 rings
6 14 16 17 18 19 20 rings
6 3 4 5 6 8 10 rings
6 5 6 12 14 15 16 rings

> <PUBCHEM_HEAVY_ATOM_COUNT>
20

> <PUBCHEM_ATOM_DEF_STEREO_COUNT>
5

> <PUBCHEM_ATOM_UDEF_STEREO_COUNT>
0

> <PUBCHEM_BOND_DEF_STEREO_COUNT>
0

> <PUBCHEM_BOND_UDEF_STEREO_COUNT>
0

> <PUBCHEM_ISOTOPIC_ATOM_COUNT>
0

> <PUBCHEM_COMPONENT_COUNT>
1

> <PUBCHEM_CACTVS_TAUTO_COUNT>
9

> <PUBCHEM_CONFORMER_ID>
0000167D00000001

> <PUBCHEM_MMFF94_ENERGY>
68.4596

> <PUBCHEM_FEATURE_SELFOVERLAP>
35.62

> <PUBCHEM_SHAPE_FINGERPRINT>
10 15 18262512710780645640
10411042 1 16969703283687688743
10616163 171 18338239395883154686
10967382 1 18410012100429229070
11132069 177 18409162216832884669
11578080 2 17201347718505248258
12011746 2 18410859841042374310
12107183 9 17690845558000159065
12236239 1 13470690338792453460
12251169 10 18335139816864396069
12403259 415 18410852127603240605
12403814 3 17530960289353343621
12500047 106 18271238421624861530
12592029 89 18334859377112304987
12788726 201 17703518696578858128
128620 24 11818992989152349105
13140716 1 18192429898953651512
13533116 47 17846218813073552003
13544592 145 18272379637759764926
13675066 3 18341893012844745609
14178342 30 18123731313450613666
14341114 176 18409738343777605753
14866123 147 17046555868986690930
15042514 8 18263932206156989787
15196674 1 18410012108982090935
15256400 18 18410857620686823693
15295992 7 17845930826899781123
15536298 74 18413671296627645270
1601671 61 18409168826940819996
16945 1 18266170819592368622
17349148 13 18412820287929204701
17804303 29 18410296916890392117
1813 80 16950285091842931756
18186145 218 17417805158171412875
19141452 34 18413108389914235807
192875 21 13830133918406568194
19591789 44 18192993725128068838
200 152 18131627885965453901
20028762 73 18272929458099065015
20261772 1 18410856577167961319
20510252 161 18341895147623301209
20645477 70 18200878374956666302
21033648 29 18271512131406579929
21267235 1 18337399244825179854
21279426 13 18124035632930519374
21421861 104 17895744090149736410
22854114 59 18412546505207311417
22892500 29 17274814788166584896
23184049 59 18410576175690384255
23402539 116 18342170081765240151
23557571 272 17773880972535682807
23558518 356 17682680979747269074
23559900 14 18413389822146813342
2748010 2 18337666399911122230
3004659 81 18260835844047909814
335352 9 18410013195572088855
34934 24 18411133675799850702
350125 39 18409735045496469133
351380 180 18409730664571278687
3545911 37 18411703192367818988
4214541 1 18409167684326479901
465052 167 17967541176940287083
495365 180 17346587600050392546
5104073 3 18409449150412323065
542803 24 17346883342628774985
59755656 215 18335983048405458773
69090 78 18341891905091661271
77779 3 18409450271409361990
7832392 63 18341046427736201710
9709674 26 18410862087368844367
9999458 23 17967819357476725574

> <PUBCHEM_SHAPE_MULTIPOLES>
399.85
9.72
2.11
0.84
3.73
0.39
0.22
-1.2
1.2
-0.24
-0.15
-0.38
-0.13
0.32

> <PUBCHEM_SHAPE_SELFOVERLAP>
871.414

> <PUBCHEM_SHAPE_VOLUME>
217.1

> <PUBCHEM_COORDINATE_TYPE>
2
5
10

> <Energy>
58.4396

> <minimizedAffinity>
-9.24005

> <CNNscore>
0.5316543579

> <CNNaffinity>
7.3288474083

> <CNN_VS>
3.8964135647

> <CNNaffinity_variance>
0.3716423512

$$$$
5757


 22 25  0  0  0  0  0  0  0  0999 V2000
   17.6947    6.8794    4.9093 O   0  0  0  0  0  0  0  0  0  0  0  0
   27.3354    1.6600    4.8103 O   0  0  0  0  0  0  0  0  0  0  0  0
   19.7773    5.6016    5.2398 C   0  0  0  0  0  0  0  0  0  0  0  0
   20.2508    4.7987    6.4681 C   0  0  0  0  0  0  0  0  0  0  0  0
   21.4334    3.8871    6.1409 C   0  0  0  0  0  0  0  0  0  0  0  0
   22.6301    4.7704    5.6736 C   0  0  0  0  0  0  0  0  0  0  0  0
   18.5793    6.3372    5.8703 C   0  0  0  0  0  0  0  0  0  0  0  0
   20.9284    6.5100    4.7909 C   0  0  0  0  0  0  0  0  0  0  0  0
   18.9625    4.1864    7.0105 C   0  0  0  0  0  0  0  0  0  0  0  0
   22.2142    5.7088    4.5086 C   0  0  0  0  0  0  0  0  0  0  0  0
   17.8948    5.2612    6.7357 C   0  0  0  0  0  0  0  0  0  0  0  0
   21.8758    3.0439    7.3383 C   0  0  0  0  0  0  0  0  0  0  0  0
   19.3089    4.7386    4.0402 C   0  0  0  0  0  0  0  0  0  0  0  0
   23.8740    3.9229    5.4113 C   0  0  0  0  0  0  0  0  0  0  0  0
   22.9593    2.0580    6.9083 C   0  0  0  0  0  0  0  0  0  0  0  0
   24.0328    2.6658    6.0354 C   0  0  0  0  0  0  0  0  0  0  0  0
   24.9287    4.4095    4.6180 C   0  0  0  0  0  0  0  0  0  0  0  0
   25.2008    1.9138    5.8098 C   0  0  0  0  0  0  0  0  0  0  0  0
   26.0881    3.6588    4.4092 C   0  0  0  0  0  0  0  0  0  0  0  0
   26.2143    2.4138    5.0024 C   0  0  0  0  0  0  0  0  0  0  0  0
   18.1587    7.5508    4.3851 H   0  0  0  0  0  0  0  0  0  0  0  0
   27.4098    0.8190    5.2167 H   0  0  0  0  0  0  0  0  0  0  0  0
  1  7  1  0
  1 21  1  0
  2 20  1  0
  2 22  1  0
  3  4  1  0
  3  7  1  0
  3  8  1  0
  3 13  1  0
  4  5  1  0
  4  9  1  0
  5  6  1  0
  5 12  1  0
  6 10  1  0
  6 14  1  0
  7 11  1  0
  8 10  1  0
  9 11  1  0
 12 15  1  0
 14 16  2  0
 14 17  1  0
 15 16  1  0
 16 18  1  0
 17 19  2  0
 18 20  2  0
 19 20  1  0
M  END
> <PUBCHEM_COMPOUND_CID>
5757

> <PUBCHEM_CONFORMER_RMSD>
0.6

> <PUBCHEM_CONFORMER_DIVERSEORDER>
1

> <PUBCHEM_MMFF94_PARTIAL_CHARGES>
16
1 -0.68
14 -0.14
15 0.14
16 -0.14
17 -0.15
18 -0.15
19 -0.15
2 -0.53
20 0.08
40 0.4
41 0.15
42 0.15
43 0.15
44 0.45
6 0.14
7 0.28

> <PUBCHEM_EFFECTIVE_ROTOR_COUNT>
1.4

> <PUBCHEM_PHARMACOPHORE_FEATURES>
7
1 1 acceptor
1 1 donor
1 2 donor
5 3 4 7 9 11 rings
6 14 16 17 18 19 20 rings
6 3 4 5 6 8 10 rings
6 5 6 12 14 15 16 rings

> <PUBCHEM_HEAVY_ATOM_COUNT>
20

> <PUBCHEM_ATOM_DEF_STEREO_COUNT>
5

> <PUBCHEM_ATOM_UDEF_STEREO_COUNT>
0

> <PUBCHEM_BOND_DEF_STEREO_COUNT>
0

> <PUBCHEM_BOND_UDEF_STEREO_COUNT>
0

> <PUBCHEM_ISOTOPIC_ATOM_COUNT>
0

> <PUBCHEM_COMPONENT_COUNT>
1

> <PUBCHEM_CACTVS_TAUTO_COUNT>
9

> <PUBCHEM_CONFORMER_ID>
0000167D00000001

> <PUBCHEM_MMFF94_ENERGY>
68.4596

> <PUBCHEM_FEATURE_SELFOVERLAP>
35.62

> <PUBCHEM_SHAPE_FINGERPRINT>
10 15 18262512710780645640
10411042 1 16969703283687688743
10616163 171 18338239395883154686
10967382 1 18410012100429229070
11132069 177 18409162216832884669
11578080 2 17201347718505248258
12011746 2 18410859841042374310
12107183 9 17690845558000159065
12236239 1 13470690338792453460
12251169 10 18335139816864396069
12403259 415 18410852127603240605
12403814 3 17530960289353343621
12500047 106 18271238421624861530
12592029 89 18334859377112304987
12788726 201 17703518696578858128
128620 24 11818992989152349105
13140716 1 18192429898953651512
13533116 47 17846218813073552003
13544592 145 18272379637759764926
13675066 3 18341893012844745609
14178342 30 18123731313450613666
14341114 176 18409738343777605753
14866123 147 17046555868986690930
15042514 8 18263932206156989787
15196674 1 18410012108982090935
15256400 18 18410857620686823693
15295992 7 17845930826899781123
15536298 74 18413671296627645270
1601671 61 18409168826940819996
16945 1 18266170819592368622
17349148 13 18412820287929204701
17804303 29 18410296916890392117
1813 80 16950285091842931756
18186145 218 17417805158171412875
19141452 34 18413108389914235807
192875 21 13830133918406568194
19591789 44 18192993725128068838
200 152 18131627885965453901
20028762 73 18272929458099065015
20261772 1 18410856577167961319
20510252 161 18341895147623301209
20645477 70 18200878374956666302
21033648 29 18271512131406579929
21267235 1 18337399244825179854
21279426 13 18124035632930519374
21421861 104 17895744090149736410
22854114 59 18412546505207311417
22892500 29 17274814788166584896
23184049 59 18410576175690384255
23402539 116 18342170081765240151
23557571 272 17773880972535682807
23558518 356 17682680979747269074
23559900 14 18413389822146813342
2748010 2 18337666399911122230
3004659 81 18260835844047909814
335352 9 18410013195572088855
34934 24 18411133675799850702
350125 39 18409735045496469133
351380 180 18409730664571278687
3545911 37 18411703192367818988
4214541 1 18409167684326479901
465052 167 17967541176940287083
495365 180 17346587600050392546
5104073 3 18409449150412323065
542803 24 17346883342628774985
59755656 215 18335983048405458773
69090 78 18341891905091661271
77779 3 18409450271409361990
7832392 63 18341046427736201710
9709674 26 18410862087368844367
9999458 23 17967819357476725574

> <PUBCHEM_SHAPE_MULTIPOLES>
399.85
9.72
2.11
0.84
3.73
0.39
0.22
-1.2
1.2
-0.24
-0.15
-0.38
-0.13
0.32

> <PUBCHEM_SHAPE_SELFOVERLAP>
871.414

> <PUBCHEM_SHAPE_VOLUME>
217.1

> <PUBCHEM_COORDINATE_TYPE>
2
5
10

> <Energy>
58.4396

> <minimizedAffinity>
-7.21649

> <CNNscore>
0.4619120061

> <CNNaffinity>
7.3598446846

> <CNN_VS>
3.3996005058

> <CNNaffinity_variance>
0.5942223668

$$$$
5757


 22 25  0  0  0  0  0  0  0  0999 V2000
   25.5706    0.9582    2.9670 O   0  0  0  0  0  0  0  0  0  0  0  0
   17.1169    5.7928    8.0026 O   0  0  0  0  0  0  0  0  0  0  0  0
   23.9264    2.1746    4.3441 C   0  0  0  0  0  0  0  0  0  0  0  0
   24.1478    3.0349    5.6045 C   0  0  0  0  0  0  0  0  0  0  0  0
   22.9210    3.8786    5.9502 C   0  0  0  0  0  0  0  0  0  0  0  0
   21.7247    2.9231    6.2441 C   0  0  0  0  0  0  0  0  0  0  0  0
   25.3200    1.5259    4.2377 C   0  0  0  0  0  0  0  0  0  0  0  0
   22.7799    1.1969    4.6291 C   0  0  0  0  0  0  0  0  0  0  0  0
   25.4796    3.7283    5.3319 C   0  0  0  0  0  0  0  0  0  0  0  0
   21.4986    1.9296    5.0725 C   0  0  0  0  0  0  0  0  0  0  0  0
   26.2928    2.6795    4.5513 C   0  0  0  0  0  0  0  0  0  0  0  0
   23.1490    4.7783    7.1664 C   0  0  0  0  0  0  0  0  0  0  0  0
   23.6063    2.9774    3.0572 C   0  0  0  0  0  0  0  0  0  0  0  0
   20.4863    3.7048    6.6796 C   0  0  0  0  0  0  0  0  0  0  0  0
   21.9439    5.6935    7.3695 C   0  0  0  0  0  0  0  0  0  0  0  0
   20.6110    4.9918    7.2481 C   0  0  0  0  0  0  0  0  0  0  0  0
   19.2046    3.1296    6.6105 C   0  0  0  0  0  0  0  0  0  0  0  0
   19.4624    5.6834    7.6757 C   0  0  0  0  0  0  0  0  0  0  0  0
   18.0723    3.8213    7.0476 C   0  0  0  0  0  0  0  0  0  0  0  0
   18.2083    5.0955    7.5727 C   0  0  0  0  0  0  0  0  0  0  0  0
   24.9413    0.2380    2.8048 H   0  0  0  0  0  0  0  0  0  0  0  0
   17.2209    6.6543    8.3561 H   0  0  0  0  0  0  0  0  0  0  0  0
  1  7  1  0
  1 21  1  0
  2 20  1  0
  2 22  1  0
  3  4  1  0
  3  7  1  0
  3  8  1  0
  3 13  1  0
  4  5  1  0
  4  9  1  0
  5  6  1  0
  5 12  1  0
  6 10  1  0
  6 14  1  0
  7 11  1  0
  8 10  1  0
  9 11  1  0
 12 15  1  0
 14 16  2  0
 14 17  1  0
 15 16  1  0
 16 18  1  0
 17 19  2  0
 18 20  2  0
 19 20  1  0
M  END
> <PUBCHEM_COMPOUND_CID>
5757

> <PUBCHEM_CONFORMER_RMSD>
0.6

> <PUBCHEM_CONFORMER_DIVERSEORDER>
1

> <PUBCHEM_MMFF94_PARTIAL_CHARGES>
16
1 -0.68
14 -0.14
15 0.14
16 -0.14
17 -0.15
18 -0.15
19 -0.15
2 -0.53
20 0.08
40 0.4
41 0.15
42 0.15
43 0.15
44 0.45
6 0.14
7 0.28

> <PUBCHEM_EFFECTIVE_ROTOR_COUNT>
1.4

> <PUBCHEM_PHARMACOPHORE_FEATURES>
7
1 1 acceptor
1 1 donor
1 2 donor
5 3 4 7 9 11 rings
6 14 16 17 18 19 20 rings
6 3 4 5 6 8 10 rings
6 5 6 12 14 15 16 rings

> <PUBCHEM_HEAVY_ATOM_COUNT>
20

> <PUBCHEM_ATOM_DEF_STEREO_COUNT>
5

> <PUBCHEM_ATOM_UDEF_STEREO_COUNT>
0

> <PUBCHEM_BOND_DEF_STEREO_COUNT>
0

> <PUBCHEM_BOND_UDEF_STEREO_COUNT>
0

> <PUBCHEM_ISOTOPIC_ATOM_COUNT>
0

> <PUBCHEM_COMPONENT_COUNT>
1

> <PUBCHEM_CACTVS_TAUTO_COUNT>
9

> <PUBCHEM_CONFORMER_ID>
0000167D00000001

> <PUBCHEM_MMFF94_ENERGY>
68.4596

> <PUBCHEM_FEATURE_SELFOVERLAP>
35.62

> <PUBCHEM_SHAPE_FINGERPRINT>
10 15 18262512710780645640
10411042 1 16969703283687688743
10616163 171 18338239395883154686
10967382 1 18410012100429229070
11132069 177 18409162216832884669
11578080 2 17201347718505248258
12011746 2 18410859841042374310
12107183 9 17690845558000159065
12236239 1 13470690338792453460
12251169 10 18335139816864396069
12403259 415 18410852127603240605
12403814 3 17530960289353343621
12500047 106 18271238421624861530
12592029 89 18334859377112304987
12788726 201 17703518696578858128
128620 24 11818992989152349105
13140716 1 18192429898953651512
13533116 47 17846218813073552003
13544592 145 18272379637759764926
13675066 3 18341893012844745609
14178342 30 18123731313450613666
14341114 176 18409738343777605753
14866123 147 17046555868986690930
15042514 8 18263932206156989787
15196674 1 18410012108982090935
15256400 18 18410857620686823693
15295992 7 17845930826899781123
15536298 74 18413671296627645270
1601671 61 18409168826940819996
16945 1 18266170819592368622
17349148 13 18412820287929204701
17804303 29 18410296916890392117
1813 80 16950285091842931756
18186145 218 17417805158171412875
19141452 34 18413108389914235807
192875 21 13830133918406568194
19591789 44 18192993725128068838
200 152 18131627885965453901
20028762 73 18272929458099065015
20261772 1 18410856577167961319
20510252 161 18341895147623301209
20645477 70 18200878374956666302
21033648 29 18271512131406579929
21267235 1 18337399244825179854
21279426 13 18124035632930519374
21421861 104 17895744090149736410
22854114 59 18412546505207311417
22892500 29 17274814788166584896
23184049 59 18410576175690384255
23402539 116 18342170081765240151
23557571 272 17773880972535682807
23558518 356 17682680979747269074
23559900 14 18413389822146813342
2748010 2 18337666399911122230
3004659 81 18260835844047909814
335352 9 18410013195572088855
34934 24 18411133675799850702
350125 39 18409735045496469133
351380 180 18409730664571278687
3545911 37 18411703192367818988
4214541 1 18409167684326479901
465052 167 17967541176940287083
495365 180 17346587600050392546
5104073 3 18409449150412323065
542803 24 17346883342628774985
59755656 215 18335983048405458773
69090 78 18341891905091661271
77779 3 18409450271409361990
7832392 63 18341046427736201710
9709674 26 18410862087368844367
9999458 23 17967819357476725574

> <PUBCHEM_SHAPE_MULTIPOLES>
399.85
9.72
2.11
0.84
3.73
0.39
0.22
-1.2
1.2
-0.24
-0.15
-0.38
-0.13
0.32

> <PUBCHEM_SHAPE_SELFOVERLAP>
871.414

> <PUBCHEM_SHAPE_VOLUME>
217.1

> <PUBCHEM_COORDINATE_TYPE>
2
5
10

> <Energy>
58.4396

> <minimizedAffinity>
-4.30421

> <CNNscore>
0.2793104053

> <CNNaffinity>
6.7011771202

> <CNN_VS>
1.8717085123

> <CNNaffinity_variance>
0.3621747494

$$$$
5757


 22 25  0  0  0  0  0  0  0  0999 V2000
   17.8294    6.8495   11.2905 O   0  0  0  0  0  0  0  0  0  0  0  0
   23.0504    2.6653    2.6055 O   0  0  0  0  0  0  0  0  0  0  0  0
   19.3182    6.0398    9.4996 C   0  0  0  0  0  0  0  0  0  0  0  0
   20.8512    6.1484    9.3747 C   0  0  0  0  0  0  0  0  0  0  0  0
   21.4085    5.2283    8.2887 C   0  0  0  0  0  0  0  0  0  0  0  0
   20.7995    5.6496    6.9168 C   0  0  0  0  0  0  0  0  0  0  0  0
   19.0959    7.0042   10.6805 C   0  0  0  0  0  0  0  0  0  0  0  0
   18.6981    6.4920    8.1720 C   0  0  0  0  0  0  0  0  0  0  0  0
   21.3371    5.9880   10.8124 C   0  0  0  0  0  0  0  0  0  0  0  0
   19.2485    5.6871    6.9786 C   0  0  0  0  0  0  0  0  0  0  0  0
   20.2442    6.6727   11.6536 C   0  0  0  0  0  0  0  0  0  0  0  0
   22.9343    5.2862    8.1940 C   0  0  0  0  0  0  0  0  0  0  0  0
   18.7935    4.6247    9.8536 C   0  0  0  0  0  0  0  0  0  0  0  0
   21.3831    4.8198    5.7742 C   0  0  0  0  0  0  0  0  0  0  0  0
   23.4334    4.2443    7.1958 C   0  0  0  0  0  0  0  0  0  0  0  0
   22.6454    4.2001    5.9070 C   0  0  0  0  0  0  0  0  0  0  0  0
   20.7240    4.7276    4.5351 C   0  0  0  0  0  0  0  0  0  0  0  0
   23.1835    3.4684    4.8320 C   0  0  0  0  0  0  0  0  0  0  0  0
   21.2723    4.0072    3.4713 C   0  0  0  0  0  0  0  0  0  0  0  0
   22.4961    3.3782    3.6285 C   0  0  0  0  0  0  0  0  0  0  0  0
   17.1336    7.0660   10.6503 H   0  0  0  0  0  0  0  0  0  0  0  0
   23.8789    2.2438    2.7233 H   0  0  0  0  0  0  0  0  0  0  0  0
  1  7  1  0
  1 21  1  0
  2 20  1  0
  2 22  1  0
  3  4  1  0
  3  7  1  0
  3  8  1  0
  3 13  1  0
  4  5  1  0
  4  9  1  0
  5  6  1  0
  5 12  1  0
  6 10  1  0
  6 14  1  0
  7 11  1  0
  8 10  1  0
  9 11  1  0
 12 15  1  0
 14 16  2  0
 14 17  1  0
 15 16  1  0
 16 18  1  0
 17 19  2  0
 18 20  2  0
 19 20  1  0
M  END
> <PUBCHEM_COMPOUND_CID>
5757

> <PUBCHEM_CONFORMER_RMSD>
0.6

> <PUBCHEM_CONFORMER_DIVERSEORDER>
1

> <PUBCHEM_MMFF94_PARTIAL_CHARGES>
16
1 -0.68
14 -0.14
15 0.14
16 -0.14
17 -0.15
18 -0.15
19 -0.15
2 -0.53
20 0.08
40 0.4
41 0.15
42 0.15
43 0.15
44 0.45
6 0.14
7 0.28

> <PUBCHEM_EFFECTIVE_ROTOR_COUNT>
1.4

> <PUBCHEM_PHARMACOPHORE_FEATURES>
7
1 1 acceptor
1 1 donor
1 2 donor
5 3 4 7 9 11 rings
6 14 16 17 18 19 20 rings
6 3 4 5 6 8 10 rings
6 5 6 12 14 15 16 rings

> <PUBCHEM_HEAVY_ATOM_COUNT>
20

> <PUBCHEM_ATOM_DEF_STEREO_COUNT>
5

> <PUBCHEM_ATOM_UDEF_STEREO_COUNT>
0

> <PUBCHEM_BOND_DEF_STEREO_COUNT>
0

> <PUBCHEM_BOND_UDEF_STEREO_COUNT>
0

> <PUBCHEM_ISOTOPIC_ATOM_COUNT>
0

> <PUBCHEM_COMPONENT_COUNT>
1

> <PUBCHEM_CACTVS_TAUTO_COUNT>
9

> <PUBCHEM_CONFORMER_ID>
0000167D00000001

> <PUBCHEM_MMFF94_ENERGY>
68.4596

> <PUBCHEM_FEATURE_SELFOVERLAP>
35.62

> <PUBCHEM_SHAPE_FINGERPRINT>
10 15 18262512710780645640
10411042 1 16969703283687688743
10616163 171 18338239395883154686
10967382 1 18410012100429229070
11132069 177 18409162216832884669
11578080 2 17201347718505248258
12011746 2 18410859841042374310
12107183 9 17690845558000159065
12236239 1 13470690338792453460
12251169 10 18335139816864396069
12403259 415 18410852127603240605
12403814 3 17530960289353343621
12500047 106 18271238421624861530
12592029 89 18334859377112304987
12788726 201 17703518696578858128
128620 24 11818992989152349105
13140716 1 18192429898953651512
13533116 47 17846218813073552003
13544592 145 18272379637759764926
13675066 3 18341893012844745609
14178342 30 18123731313450613666
14341114 176 18409738343777605753
14866123 147 17046555868986690930
15042514 8 18263932206156989787
15196674 1 18410012108982090935
15256400 18 18410857620686823693
15295992 7 17845930826899781123
15536298 74 18413671296627645270
1601671 61 18409168826940819996
16945 1 18266170819592368622
17349148 13 18412820287929204701
17804303 29 18410296916890392117
1813 80 16950285091842931756
18186145 218 17417805158171412875
19141452 34 18413108389914235807
192875 21 13830133918406568194
19591789 44 18192993725128068838
200 152 18131627885965453901
20028762 73 18272929458099065015
20261772 1 18410856577167961319
20510252 161 18341895147623301209
20645477 70 18200878374956666302
21033648 29 18271512131406579929
21267235 1 18337399244825179854
21279426 13 18124035632930519374
21421861 104 17895744090149736410
22854114 59 18412546505207311417
22892500 29 17274814788166584896
23184049 59 18410576175690384255
23402539 116 18342170081765240151
23557571 272 17773880972535682807
23558518 356 17682680979747269074
23559900 14 18413389822146813342
2748010 2 18337666399911122230
3004659 81 18260835844047909814
335352 9 18410013195572088855
34934 24 18411133675799850702
350125 39 18409735045496469133
351380 180 18409730664571278687
3545911 37 18411703192367818988
4214541 1 18409167684326479901
465052 167 17967541176940287083
495365 180 17346587600050392546
5104073 3 18409449150412323065
542803 24 17346883342628774985
59755656 215 18335983048405458773
69090 78 18341891905091661271
77779 3 18409450271409361990
7832392 63 18341046427736201710
9709674 26 18410862087368844367
9999458 23 17967819357476725574

> <PUBCHEM_SHAPE_MULTIPOLES>
399.85
9.72
2.11
0.84
3.73
0.39
0.22
-1.2
1.2
-0.24
-0.15
-0.38
-0.13
0.32

> <PUBCHEM_SHAPE_SELFOVERLAP>
871.414

> <PUBCHEM_SHAPE_VOLUME>
217.1

> <PUBCHEM_COORDINATE_TYPE>
2
5
10

> <Energy>
58.4396

> <minimizedAffinity>
31.20808

> <CNNscore>
0.1386249363

> <CNNaffinity>
5.1767830849

> <CNN_VS>
0.7176312208

> <CNNaffinity_variance>
0.3653862178

$$$$
