5757


 22 25  0  0  0  0  0  0  0  0999 V2000
   -5.2287   -4.0053   18.4788 O   0  0  0  0  0  0  0  0  0  0  0  0
    1.4315   -1.2934   26.7542 O   0  0  0  0  0  0  0  0  0  0  0  0
   -3.4834   -3.6315   20.1799 C   0  0  0  0  0  0  0  0  0  0  0  0
   -2.0661   -4.2307   20.2789 C   0  0  0  0  0  0  0  0  0  0  0  0
   -1.1940   -3.4859   21.2894 C   0  0  0  0  0  0  0  0  0  0  0  0
   -1.8490   -3.6069   22.6990 C   0  0  0  0  0  0  0  0  0  0  0  0
   -4.0578   -4.5333   19.0704 C   0  0  0  0  0  0  0  0  0  0  0  0
   -4.1610   -3.7805   21.5475 C   0  0  0  0  0  0  0  0  0  0  0  0
   -1.6152   -4.3188   18.8236 C   0  0  0  0  0  0  0  0  0  0  0  0
   -3.3285   -3.1362   22.6730 C   0  0  0  0  0  0  0  0  0  0  0  0
   -2.9060   -4.6519   18.0532 C   0  0  0  0  0  0  0  0  0  0  0  0
    0.2319   -4.0365   21.3551 C   0  0  0  0  0  0  0  0  0  0  0  0
   -3.5317   -2.1445   19.7443 C   0  0  0  0  0  0  0  0  0  0  0  0
   -0.9792   -2.9529   23.7714 C   0  0  0  0  0  0  0  0  0  0  0  0
    1.0852   -3.1627   22.2713 C   0  0  0  0  0  0  0  0  0  0  0  0
    0.4096   -2.7906   23.5709 C   0  0  0  0  0  0  0  0  0  0  0  0
   -1.5195   -2.5807   25.0155 C   0  0  0  0  0  0  0  0  0  0  0  0
    1.2016   -2.2178   24.5834 C   0  0  0  0  0  0  0  0  0  0  0  0
   -0.7219   -2.0225   26.0173 C   0  0  0  0  0  0  0  0  0  0  0  0
    0.6324   -1.8402   25.7927 C   0  0  0  0  0  0  0  0  0  0  0  0
   -5.9296   -3.9453   19.1466 H   0  0  0  0  0  0  0  0  0  0  0  0
    2.3465   -1.1747   26.5911 H   0  0  0  0  0  0  0  0  0  0  0  0
  1  7  1  0
  1 21  1  0
  2 20  1  0
  2 22  1  0
  3  4  1  0
  3  7  1  0
  3  8  1  0
  3 13  1  0
  4  5  1  0
  4  9  1  0
  5  6  1  0
  5 12  1  0
  6 10  1  0
  6 14  1  0
  7 11  1  0
  8 10  1  0
  9 11  1  0
 12 15  1  0
 14 16  2  0
 14 17  1  0
 15 16  1  0
 16 18  1  0
 17 19  2  0
 18 20  2  0
 19 20  1  0
M  END
> <PUBCHEM_COMPOUND_CID>
5757

> <PUBCHEM_CONFORMER_RMSD>
0.6

> <PUBCHEM_CONFORMER_DIVERSEORDER>
1

> <PUBCHEM_MMFF94_PARTIAL_CHARGES>
16
1 -0.68
14 -0.14
15 0.14
16 -0.14
17 -0.15
18 -0.15
19 -0.15
2 -0.53
20 0.08
40 0.4
41 0.15
42 0.15
43 0.15
44 0.45
6 0.14
7 0.28

> <PUBCHEM_EFFECTIVE_ROTOR_COUNT>
1.4

> <PUBCHEM_PHARMACOPHORE_FEATURES>
7
1 1 acceptor
1 1 donor
1 2 donor
5 3 4 7 9 11 rings
6 14 16 17 18 19 20 rings
6 3 4 5 6 8 10 rings
6 5 6 12 14 15 16 rings

> <PUBCHEM_HEAVY_ATOM_COUNT>
20

> <PUBCHEM_ATOM_DEF_STEREO_COUNT>
5

> <PUBCHEM_ATOM_UDEF_STEREO_COUNT>
0

> <PUBCHEM_BOND_DEF_STEREO_COUNT>
0

> <PUBCHEM_BOND_UDEF_STEREO_COUNT>
0

> <PUBCHEM_ISOTOPIC_ATOM_COUNT>
0

> <PUBCHEM_COMPONENT_COUNT>
1

> <PUBCHEM_CACTVS_TAUTO_COUNT>
9

> <PUBCHEM_CONFORMER_ID>
0000167D00000001

> <PUBCHEM_MMFF94_ENERGY>
68.4596

> <PUBCHEM_FEATURE_SELFOVERLAP>
35.62

> <PUBCHEM_SHAPE_FINGERPRINT>
10 15 18262512710780645640
10411042 1 16969703283687688743
10616163 171 18338239395883154686
10967382 1 18410012100429229070
11132069 177 18409162216832884669
11578080 2 17201347718505248258
12011746 2 18410859841042374310
12107183 9 17690845558000159065
12236239 1 13470690338792453460
12251169 10 18335139816864396069
12403259 415 18410852127603240605
12403814 3 17530960289353343621
12500047 106 18271238421624861530
12592029 89 18334859377112304987
12788726 201 17703518696578858128
128620 24 11818992989152349105
13140716 1 18192429898953651512
13533116 47 17846218813073552003
13544592 145 18272379637759764926
13675066 3 18341893012844745609
14178342 30 18123731313450613666
14341114 176 18409738343777605753
14866123 147 17046555868986690930
15042514 8 18263932206156989787
15196674 1 18410012108982090935
15256400 18 18410857620686823693
15295992 7 17845930826899781123
15536298 74 18413671296627645270
1601671 61 18409168826940819996
16945 1 18266170819592368622
17349148 13 18412820287929204701
17804303 29 18410296916890392117
1813 80 16950285091842931756
18186145 218 17417805158171412875
19141452 34 18413108389914235807
192875 21 13830133918406568194
19591789 44 18192993725128068838
200 152 18131627885965453901
20028762 73 18272929458099065015
20261772 1 18410856577167961319
20510252 161 18341895147623301209
20645477 70 18200878374956666302
21033648 29 18271512131406579929
21267235 1 18337399244825179854
21279426 13 18124035632930519374
21421861 104 17895744090149736410
22854114 59 18412546505207311417
22892500 29 17274814788166584896
23184049 59 18410576175690384255
23402539 116 18342170081765240151
23557571 272 17773880972535682807
23558518 356 17682680979747269074
23559900 14 18413389822146813342
2748010 2 18337666399911122230
3004659 81 18260835844047909814
335352 9 18410013195572088855
34934 24 18411133675799850702
350125 39 18409735045496469133
351380 180 18409730664571278687
3545911 37 18411703192367818988
4214541 1 18409167684326479901
465052 167 17967541176940287083
495365 180 17346587600050392546
5104073 3 18409449150412323065
542803 24 17346883342628774985
59755656 215 18335983048405458773
69090 78 18341891905091661271
77779 3 18409450271409361990
7832392 63 18341046427736201710
9709674 26 18410862087368844367
9999458 23 17967819357476725574

> <PUBCHEM_SHAPE_MULTIPOLES>
399.85
9.72
2.11
0.84
3.73
0.39
0.22
-1.2
1.2
-0.24
-0.15
-0.38
-0.13
0.32

> <PUBCHEM_SHAPE_SELFOVERLAP>
871.414

> <PUBCHEM_SHAPE_VOLUME>
217.1

> <PUBCHEM_COORDINATE_TYPE>
2
5
10

> <Energy>
58.4396

> <minimizedAffinity>
-11.07120

> <CNNscore>
0.9758794904

> <CNNaffinity>
8.5080604553

> <CNN_VS>
8.3028421402

> <CNNaffinity_variance>
1.4331451654

$$$$
5757


 22 25  0  0  0  0  0  0  0  0999 V2000
   -3.9075   -4.3777   17.2857 O   0  0  0  0  0  0  0  0  0  0  0  0
    1.2787   -2.1432   26.6829 O   0  0  0  0  0  0  0  0  0  0  0  0
   -3.0825   -3.7835   19.5320 C   0  0  0  0  0  0  0  0  0  0  0  0
   -3.8659   -3.2951   20.7670 C   0  0  0  0  0  0  0  0  0  0  0  0
   -3.0300   -3.3634   22.0449 C   0  0  0  0  0  0  0  0  0  0  0  0
   -1.7913   -2.4308   21.8817 C   0  0  0  0  0  0  0  0  0  0  0  0
   -4.1898   -3.6555   18.4683 C   0  0  0  0  0  0  0  0  0  0  0  0
   -1.8821   -2.8510   19.3289 C   0  0  0  0  0  0  0  0  0  0  0  0
   -5.1758   -4.0740   20.6878 C   0  0  0  0  0  0  0  0  0  0  0  0
   -0.9996   -2.7698   20.5897 C   0  0  0  0  0  0  0  0  0  0  0  0
   -5.4506   -4.1880   19.1770 C   0  0  0  0  0  0  0  0  0  0  0  0
   -3.8152   -2.9342   23.2858 C   0  0  0  0  0  0  0  0  0  0  0  0
   -2.5835   -5.2488   19.6165 C   0  0  0  0  0  0  0  0  0  0  0  0
   -0.9575   -2.3894   23.1612 C   0  0  0  0  0  0  0  0  0  0  0  0
   -2.9729   -3.1615   24.5387 C   0  0  0  0  0  0  0  0  0  0  0  0
   -1.5413   -2.6948   24.4106 C   0  0  0  0  0  0  0  0  0  0  0  0
    0.3818   -1.9602   23.1401 C   0  0  0  0  0  0  0  0  0  0  0  0
   -0.7673   -2.6179   25.5835 C   0  0  0  0  0  0  0  0  0  0  0  0
    1.1379   -1.8777   24.3119 C   0  0  0  0  0  0  0  0  0  0  0  0
    0.5597   -2.2119   25.5251 C   0  0  0  0  0  0  0  0  0  0  0  0
   -3.1102   -4.0157   16.8683 H   0  0  0  0  0  0  0  0  0  0  0  0
    0.8771   -2.3717   27.4980 H   0  0  0  0  0  0  0  0  0  0  0  0
  1  7  1  0
  1 21  1  0
  2 20  1  0
  2 22  1  0
  3  4  1  0
  3  7  1  0
  3  8  1  0
  3 13  1  0
  4  5  1  0
  4  9  1  0
  5  6  1  0
  5 12  1  0
  6 10  1  0
  6 14  1  0
  7 11  1  0
  8 10  1  0
  9 11  1  0
 12 15  1  0
 14 16  2  0
 14 17  1  0
 15 16  1  0
 16 18  1  0
 17 19  2  0
 18 20  2  0
 19 20  1  0
M  END
> <PUBCHEM_COMPOUND_CID>
5757

> <PUBCHEM_CONFORMER_RMSD>
0.6

> <PUBCHEM_CONFORMER_DIVERSEORDER>
1

> <PUBCHEM_MMFF94_PARTIAL_CHARGES>
16
1 -0.68
14 -0.14
15 0.14
16 -0.14
17 -0.15
18 -0.15
19 -0.15
2 -0.53
20 0.08
40 0.4
41 0.15
42 0.15
43 0.15
44 0.45
6 0.14
7 0.28

> <PUBCHEM_EFFECTIVE_ROTOR_COUNT>
1.4

> <PUBCHEM_PHARMACOPHORE_FEATURES>
7
1 1 acceptor
1 1 donor
1 2 donor
5 3 4 7 9 11 rings
6 14 16 17 18 19 20 rings
6 3 4 5 6 8 10 rings
6 5 6 12 14 15 16 rings

> <PUBCHEM_HEAVY_ATOM_COUNT>
20

> <PUBCHEM_ATOM_DEF_STEREO_COUNT>
5

> <PUBCHEM_ATOM_UDEF_STEREO_COUNT>
0

> <PUBCHEM_BOND_DEF_STEREO_COUNT>
0

> <PUBCHEM_BOND_UDEF_STEREO_COUNT>
0

> <PUBCHEM_ISOTOPIC_ATOM_COUNT>
0

> <PUBCHEM_COMPONENT_COUNT>
1

> <PUBCHEM_CACTVS_TAUTO_COUNT>
9

> <PUBCHEM_CONFORMER_ID>
0000167D00000001

> <PUBCHEM_MMFF94_ENERGY>
68.4596

> <PUBCHEM_FEATURE_SELFOVERLAP>
35.62

> <PUBCHEM_SHAPE_FINGERPRINT>
10 15 18262512710780645640
10411042 1 16969703283687688743
10616163 171 18338239395883154686
10967382 1 18410012100429229070
11132069 177 18409162216832884669
11578080 2 17201347718505248258
12011746 2 18410859841042374310
12107183 9 17690845558000159065
12236239 1 13470690338792453460
12251169 10 18335139816864396069
12403259 415 18410852127603240605
12403814 3 17530960289353343621
12500047 106 18271238421624861530
12592029 89 18334859377112304987
12788726 201 17703518696578858128
128620 24 11818992989152349105
13140716 1 18192429898953651512
13533116 47 17846218813073552003
13544592 145 18272379637759764926
13675066 3 18341893012844745609
14178342 30 18123731313450613666
14341114 176 18409738343777605753
14866123 147 17046555868986690930
15042514 8 18263932206156989787
15196674 1 18410012108982090935
15256400 18 18410857620686823693
15295992 7 17845930826899781123
15536298 74 18413671296627645270
1601671 61 18409168826940819996
16945 1 18266170819592368622
17349148 13 18412820287929204701
17804303 29 18410296916890392117
1813 80 16950285091842931756
18186145 218 17417805158171412875
19141452 34 18413108389914235807
192875 21 13830133918406568194
19591789 44 18192993725128068838
200 152 18131627885965453901
20028762 73 18272929458099065015
20261772 1 18410856577167961319
20510252 161 18341895147623301209
20645477 70 18200878374956666302
21033648 29 18271512131406579929
21267235 1 18337399244825179854
21279426 13 18124035632930519374
21421861 104 17895744090149736410
22854114 59 18412546505207311417
22892500 29 17274814788166584896
23184049 59 18410576175690384255
23402539 116 18342170081765240151
23557571 272 17773880972535682807
23558518 356 17682680979747269074
23559900 14 18413389822146813342
2748010 2 18337666399911122230
3004659 81 18260835844047909814
335352 9 18410013195572088855
34934 24 18411133675799850702
350125 39 18409735045496469133
351380 180 18409730664571278687
3545911 37 18411703192367818988
4214541 1 18409167684326479901
465052 167 17967541176940287083
495365 180 17346587600050392546
5104073 3 18409449150412323065
542803 24 17346883342628774985
59755656 215 18335983048405458773
69090 78 18341891905091661271
77779 3 18409450271409361990
7832392 63 18341046427736201710
9709674 26 18410862087368844367
9999458 23 17967819357476725574

> <PUBCHEM_SHAPE_MULTIPOLES>
399.85
9.72
2.11
0.84
3.73
0.39
0.22
-1.2
1.2
-0.24
-0.15
-0.38
-0.13
0.32

> <PUBCHEM_SHAPE_SELFOVERLAP>
871.414

> <PUBCHEM_SHAPE_VOLUME>
217.1

> <PUBCHEM_COORDINATE_TYPE>
2
5
10

> <Energy>
58.4396

> <minimizedAffinity>
-10.30158

> <CNNscore>
0.8190630674

> <CNNaffinity>
7.8563771248

> <CNN_VS>
6.4348683357

> <CNNaffinity_variance>
0.9111908078

$$$$
5757


 22 25  0  0  0  0  0  0  0  0999 V2000
   -0.0826   -1.7984   26.0452 O   0  0  0  0  0  0  0  0  0  0  0  0
   -6.4361   -5.1514   17.7635 O   0  0  0  0  0  0  0  0  0  0  0  0
   -1.2189   -2.4646   23.9608 C   0  0  0  0  0  0  0  0  0  0  0  0
   -0.6981   -2.4421   22.5097 C   0  0  0  0  0  0  0  0  0  0  0  0
   -1.5890   -3.2477   21.5643 C   0  0  0  0  0  0  0  0  0  0  0  0
   -3.0125   -2.6120   21.5569 C   0  0  0  0  0  0  0  0  0  0  0  0
   -0.1008   -1.6497   24.6390 C   0  0  0  0  0  0  0  0  0  0  0  0
   -2.6023   -1.8032   23.9816 C   0  0  0  0  0  0  0  0  0  0  0  0
    0.7732   -2.8203   22.6544 C   0  0  0  0  0  0  0  0  0  0  0  0
   -3.5762   -2.4804   22.9977 C   0  0  0  0  0  0  0  0  0  0  0  0
    1.1927   -2.1803   23.9905 C   0  0  0  0  0  0  0  0  0  0  0  0
   -1.0512   -3.2790   20.1324 C   0  0  0  0  0  0  0  0  0  0  0  0
   -1.3170   -3.8759   24.5946 C   0  0  0  0  0  0  0  0  0  0  0  0
   -3.9307   -3.3226   20.5637 C   0  0  0  0  0  0  0  0  0  0  0  0
   -1.9040   -4.2127   19.2768 C   0  0  0  0  0  0  0  0  0  0  0  0
   -3.3924   -4.0364   19.4702 C   0  0  0  0  0  0  0  0  0  0  0  0
   -5.3293   -3.2088   20.6601 C   0  0  0  0  0  0  0  0  0  0  0  0
   -4.2537   -4.6558   18.5454 C   0  0  0  0  0  0  0  0  0  0  0  0
   -6.1746   -3.8191   19.7304 C   0  0  0  0  0  0  0  0  0  0  0  0
   -5.6312   -4.5427   18.6821 C   0  0  0  0  0  0  0  0  0  0  0  0
   -0.9099   -1.4548   26.4174 H   0  0  0  0  0  0  0  0  0  0  0  0
   -6.0573   -5.6385   17.0584 H   0  0  0  0  0  0  0  0  0  0  0  0
  1  7  1  0
  1 21  1  0
  2 20  1  0
  2 22  1  0
  3  4  1  0
  3  7  1  0
  3  8  1  0
  3 13  1  0
  4  5  1  0
  4  9  1  0
  5  6  1  0
  5 12  1  0
  6 10  1  0
  6 14  1  0
  7 11  1  0
  8 10  1  0
  9 11  1  0
 12 15  1  0
 14 16  2  0
 14 17  1  0
 15 16  1  0
 16 18  1  0
 17 19  2  0
 18 20  2  0
 19 20  1  0
M  END
> <PUBCHEM_COMPOUND_CID>
5757

> <PUBCHEM_CONFORMER_RMSD>
0.6

> <PUBCHEM_CONFORMER_DIVERSEORDER>
1

> <PUBCHEM_MMFF94_PARTIAL_CHARGES>
16
1 -0.68
14 -0.14
15 0.14
16 -0.14
17 -0.15
18 -0.15
19 -0.15
2 -0.53
20 0.08
40 0.4
41 0.15
42 0.15
43 0.15
44 0.45
6 0.14
7 0.28

> <PUBCHEM_EFFECTIVE_ROTOR_COUNT>
1.4

> <PUBCHEM_PHARMACOPHORE_FEATURES>
7
1 1 acceptor
1 1 donor
1 2 donor
5 3 4 7 9 11 rings
6 14 16 17 18 19 20 rings
6 3 4 5 6 8 10 rings
6 5 6 12 14 15 16 rings

> <PUBCHEM_HEAVY_ATOM_COUNT>
20

> <PUBCHEM_ATOM_DEF_STEREO_COUNT>
5

> <PUBCHEM_ATOM_UDEF_STEREO_COUNT>
0

> <PUBCHEM_BOND_DEF_STEREO_COUNT>
0

> <PUBCHEM_BOND_UDEF_STEREO_COUNT>
0

> <PUBCHEM_ISOTOPIC_ATOM_COUNT>
0

> <PUBCHEM_COMPONENT_COUNT>
1

> <PUBCHEM_CACTVS_TAUTO_COUNT>
9

> <PUBCHEM_CONFORMER_ID>
0000167D00000001

> <PUBCHEM_MMFF94_ENERGY>
68.4596

> <PUBCHEM_FEATURE_SELFOVERLAP>
35.62

> <PUBCHEM_SHAPE_FINGERPRINT>
10 15 18262512710780645640
10411042 1 16969703283687688743
10616163 171 18338239395883154686
10967382 1 18410012100429229070
11132069 177 18409162216832884669
11578080 2 17201347718505248258
12011746 2 18410859841042374310
12107183 9 17690845558000159065
12236239 1 13470690338792453460
12251169 10 18335139816864396069
12403259 415 18410852127603240605
12403814 3 17530960289353343621
12500047 106 18271238421624861530
12592029 89 18334859377112304987
12788726 201 17703518696578858128
128620 24 11818992989152349105
13140716 1 18192429898953651512
13533116 47 17846218813073552003
13544592 145 18272379637759764926
13675066 3 18341893012844745609
14178342 30 18123731313450613666
14341114 176 18409738343777605753
14866123 147 17046555868986690930
15042514 8 18263932206156989787
15196674 1 18410012108982090935
15256400 18 18410857620686823693
15295992 7 17845930826899781123
15536298 74 18413671296627645270
1601671 61 18409168826940819996
16945 1 18266170819592368622
17349148 13 18412820287929204701
17804303 29 18410296916890392117
1813 80 16950285091842931756
18186145 218 17417805158171412875
19141452 34 18413108389914235807
192875 21 13830133918406568194
19591789 44 18192993725128068838
200 152 18131627885965453901
20028762 73 18272929458099065015
20261772 1 18410856577167961319
20510252 161 18341895147623301209
20645477 70 18200878374956666302
21033648 29 18271512131406579929
21267235 1 18337399244825179854
21279426 13 18124035632930519374
21421861 104 17895744090149736410
22854114 59 18412546505207311417
22892500 29 17274814788166584896
23184049 59 18410576175690384255
23402539 116 18342170081765240151
23557571 272 17773880972535682807
23558518 356 17682680979747269074
23559900 14 18413389822146813342
2748010 2 18337666399911122230
3004659 81 18260835844047909814
335352 9 18410013195572088855
34934 24 18411133675799850702
350125 39 18409735045496469133
351380 180 18409730664571278687
3545911 37 18411703192367818988
4214541 1 18409167684326479901
465052 167 17967541176940287083
495365 180 17346587600050392546
5104073 3 18409449150412323065
542803 24 17346883342628774985
59755656 215 18335983048405458773
69090 78 18341891905091661271
77779 3 18409450271409361990
7832392 63 18341046427736201710
9709674 26 18410862087368844367
9999458 23 17967819357476725574

> <PUBCHEM_SHAPE_MULTIPOLES>
399.85
9.72
2.11
0.84
3.73
0.39
0.22
-1.2
1.2
-0.24
-0.15
-0.38
-0.13
0.32

> <PUBCHEM_SHAPE_SELFOVERLAP>
871.414

> <PUBCHEM_SHAPE_VOLUME>
217.1

> <PUBCHEM_COORDINATE_TYPE>
2
5
10

> <Energy>
58.4396

> <minimizedAffinity>
-8.47845

> <CNNscore>
0.6882777214

> <CNNaffinity>
7.6988940239

> <CNN_VS>
5.2989773750

> <CNNaffinity_variance>
0.9799591899

$$$$
5757


 22 25  0  0  0  0  0  0  0  0999 V2000
   -5.1494   -6.9569   18.3609 O   0  0  0  0  0  0  0  0  0  0  0  0
   -0.5311   -0.6151   26.0192 O   0  0  0  0  0  0  0  0  0  0  0  0
   -3.7817   -5.6365   19.9312 C   0  0  0  0  0  0  0  0  0  0  0  0
   -2.2494   -5.4823   20.0069 C   0  0  0  0  0  0  0  0  0  0  0  0
   -1.8301   -4.3179   20.9039 C   0  0  0  0  0  0  0  0  0  0  0  0
   -2.3414   -4.5931   22.3508 C   0  0  0  0  0  0  0  0  0  0  0  0
   -3.8649   -6.8077   18.9335 C   0  0  0  0  0  0  0  0  0  0  0  0
   -4.2997   -5.9511   21.3399 C   0  0  0  0  0  0  0  0  0  0  0  0
   -1.8187   -5.4911   18.5429 C   0  0  0  0  0  0  0  0  0  0  0  0
   -3.8669   -4.8819   22.3619 C   0  0  0  0  0  0  0  0  0  0  0  0
   -2.8006   -6.4689   17.8716 C   0  0  0  0  0  0  0  0  0  0  0  0
   -0.3135   -4.1204   20.9419 C   0  0  0  0  0  0  0  0  0  0  0  0
   -4.5328   -4.4001   19.3742 C   0  0  0  0  0  0  0  0  0  0  0  0
   -1.8806   -3.5031   23.3172 C   0  0  0  0  0  0  0  0  0  0  0  0
    0.0274   -2.8611   21.7351 C   0  0  0  0  0  0  0  0  0  0  0  0
   -0.7367   -2.7252   23.0318 C   0  0  0  0  0  0  0  0  0  0  0  0
   -2.5261   -3.3086   24.5517 C   0  0  0  0  0  0  0  0  0  0  0  0
   -0.3062   -1.7489   23.9495 C   0  0  0  0  0  0  0  0  0  0  0  0
   -2.0838   -2.3436   25.4597 C   0  0  0  0  0  0  0  0  0  0  0  0
   -0.9798   -1.5668   25.1504 C   0  0  0  0  0  0  0  0  0  0  0  0
   -5.7910   -7.1689   19.0568 H   0  0  0  0  0  0  0  0  0  0  0  0
    0.2169   -0.0953   25.7993 H   0  0  0  0  0  0  0  0  0  0  0  0
  1  7  1  0
  1 21  1  0
  2 20  1  0
  2 22  1  0
  3  4  1  0
  3  7  1  0
  3  8  1  0
  3 13  1  0
  4  5  1  0
  4  9  1  0
  5  6  1  0
  5 12  1  0
  6 10  1  0
  6 14  1  0
  7 11  1  0
  8 10  1  0
  9 11  1  0
 12 15  1  0
 14 16  2  0
 14 17  1  0
 15 16  1  0
 16 18  1  0
 17 19  2  0
 18 20  2  0
 19 20  1  0
M  END
> <PUBCHEM_COMPOUND_CID>
5757

> <PUBCHEM_CONFORMER_RMSD>
0.6

> <PUBCHEM_CONFORMER_DIVERSEORDER>
1

> <PUBCHEM_MMFF94_PARTIAL_CHARGES>
16
1 -0.68
14 -0.14
15 0.14
16 -0.14
17 -0.15
18 -0.15
19 -0.15
2 -0.53
20 0.08
40 0.4
41 0.15
42 0.15
43 0.15
44 0.45
6 0.14
7 0.28

> <PUBCHEM_EFFECTIVE_ROTOR_COUNT>
1.4

> <PUBCHEM_PHARMACOPHORE_FEATURES>
7
1 1 acceptor
1 1 donor
1 2 donor
5 3 4 7 9 11 rings
6 14 16 17 18 19 20 rings
6 3 4 5 6 8 10 rings
6 5 6 12 14 15 16 rings

> <PUBCHEM_HEAVY_ATOM_COUNT>
20

> <PUBCHEM_ATOM_DEF_STEREO_COUNT>
5

> <PUBCHEM_ATOM_UDEF_STEREO_COUNT>
0

> <PUBCHEM_BOND_DEF_STEREO_COUNT>
0

> <PUBCHEM_BOND_UDEF_STEREO_COUNT>
0

> <PUBCHEM_ISOTOPIC_ATOM_COUNT>
0

> <PUBCHEM_COMPONENT_COUNT>
1

> <PUBCHEM_CACTVS_TAUTO_COUNT>
9

> <PUBCHEM_CONFORMER_ID>
0000167D00000001

> <PUBCHEM_MMFF94_ENERGY>
68.4596

> <PUBCHEM_FEATURE_SELFOVERLAP>
35.62

> <PUBCHEM_SHAPE_FINGERPRINT>
10 15 18262512710780645640
10411042 1 16969703283687688743
10616163 171 18338239395883154686
10967382 1 18410012100429229070
11132069 177 18409162216832884669
11578080 2 17201347718505248258
12011746 2 18410859841042374310
12107183 9 17690845558000159065
12236239 1 13470690338792453460
12251169 10 18335139816864396069
12403259 415 18410852127603240605
12403814 3 17530960289353343621
12500047 106 18271238421624861530
12592029 89 18334859377112304987
12788726 201 17703518696578858128
128620 24 11818992989152349105
13140716 1 18192429898953651512
13533116 47 17846218813073552003
13544592 145 18272379637759764926
13675066 3 18341893012844745609
14178342 30 18123731313450613666
14341114 176 18409738343777605753
14866123 147 17046555868986690930
15042514 8 18263932206156989787
15196674 1 18410012108982090935
15256400 18 18410857620686823693
15295992 7 17845930826899781123
15536298 74 18413671296627645270
1601671 61 18409168826940819996
16945 1 18266170819592368622
17349148 13 18412820287929204701
17804303 29 18410296916890392117
1813 80 16950285091842931756
18186145 218 17417805158171412875
19141452 34 18413108389914235807
192875 21 13830133918406568194
19591789 44 18192993725128068838
200 152 18131627885965453901
20028762 73 18272929458099065015
20261772 1 18410856577167961319
20510252 161 18341895147623301209
20645477 70 18200878374956666302
21033648 29 18271512131406579929
21267235 1 18337399244825179854
21279426 13 18124035632930519374
21421861 104 17895744090149736410
22854114 59 18412546505207311417
22892500 29 17274814788166584896
23184049 59 18410576175690384255
23402539 116 18342170081765240151
23557571 272 17773880972535682807
23558518 356 17682680979747269074
23559900 14 18413389822146813342
2748010 2 18337666399911122230
3004659 81 18260835844047909814
335352 9 18410013195572088855
34934 24 18411133675799850702
350125 39 18409735045496469133
351380 180 18409730664571278687
3545911 37 18411703192367818988
4214541 1 18409167684326479901
465052 167 17967541176940287083
495365 180 17346587600050392546
5104073 3 18409449150412323065
542803 24 17346883342628774985
59755656 215 18335983048405458773
69090 78 18341891905091661271
77779 3 18409450271409361990
7832392 63 18341046427736201710
9709674 26 18410862087368844367
9999458 23 17967819357476725574

> <PUBCHEM_SHAPE_MULTIPOLES>
399.85
9.72
2.11
0.84
3.73
0.39
0.22
-1.2
1.2
-0.24
-0.15
-0.38
-0.13
0.32

> <PUBCHEM_SHAPE_SELFOVERLAP>
871.414

> <PUBCHEM_SHAPE_VOLUME>
217.1

> <PUBCHEM_COORDINATE_TYPE>
2
5
10

> <Energy>
58.4396

> <minimizedAffinity>
10.41267

> <CNNscore>
0.6540029645

> <CNNaffinity>
7.4425435066

> <CNN_VS>
4.8674454689

> <CNNaffinity_variance>
1.2344835997

$$$$
5757


 22 25  0  0  0  0  0  0  0  0999 V2000
    1.9170   -1.9947   25.1480 O   0  0  0  0  0  0  0  0  0  0  0  0
   -5.4540   -4.5598   17.4484 O   0  0  0  0  0  0  0  0  0  0  0  0
    0.0317   -2.6595   23.7046 C   0  0  0  0  0  0  0  0  0  0  0  0
   -1.3728   -3.1617   24.0952 C   0  0  0  0  0  0  0  0  0  0  0  0
   -2.3423   -3.1411   22.9137 C   0  0  0  0  0  0  0  0  0  0  0  0
   -1.7995   -4.0943   21.8058 C   0  0  0  0  0  0  0  0  0  0  0  0
    0.7166   -2.7394   25.0826 C   0  0  0  0  0  0  0  0  0  0  0  0
    0.6011   -3.6108   22.6452 C   0  0  0  0  0  0  0  0  0  0  0  0
   -1.7031   -2.3548   25.3477 C   0  0  0  0  0  0  0  0  0  0  0  0
   -0.3356   -3.7403   21.4283 C   0  0  0  0  0  0  0  0  0  0  0  0
   -0.3464   -2.1988   26.0589 C   0  0  0  0  0  0  0  0  0  0  0  0
   -3.7540   -3.5843   23.3027 C   0  0  0  0  0  0  0  0  0  0  0  0
    0.0758   -1.2070   23.1646 C   0  0  0  0  0  0  0  0  0  0  0  0
   -2.7693   -4.1835   20.6286 C   0  0  0  0  0  0  0  0  0  0  0  0
   -4.7006   -3.4044   22.1183 C   0  0  0  0  0  0  0  0  0  0  0  0
   -4.1413   -3.8966   20.8035 C   0  0  0  0  0  0  0  0  0  0  0  0
   -2.3404   -4.6390   19.3689 C   0  0  0  0  0  0  0  0  0  0  0  0
   -5.0267   -4.0175   19.7163 C   0  0  0  0  0  0  0  0  0  0  0  0
   -3.2301   -4.7650   18.2993 C   0  0  0  0  0  0  0  0  0  0  0  0
   -4.5664   -4.4487   18.4789 C   0  0  0  0  0  0  0  0  0  0  0  0
    2.5603   -2.3625   24.5221 H   0  0  0  0  0  0  0  0  0  0  0  0
   -6.3558   -4.3430   17.5815 H   0  0  0  0  0  0  0  0  0  0  0  0
  1  7  1  0
  1 21  1  0
  2 20  1  0
  2 22  1  0
  3  4  1  0
  3  7  1  0
  3  8  1  0
  3 13  1  0
  4  5  1  0
  4  9  1  0
  5  6  1  0
  5 12  1  0
  6 10  1  0
  6 14  1  0
  7 11  1  0
  8 10  1  0
  9 11  1  0
 12 15  1  0
 14 16  2  0
 14 17  1  0
 15 16  1  0
 16 18  1  0
 17 19  2  0
 18 20  2  0
 19 20  1  0
M  END
> <PUBCHEM_COMPOUND_CID>
5757

> <PUBCHEM_CONFORMER_RMSD>
0.6

> <PUBCHEM_CONFORMER_DIVERSEORDER>
1

> <PUBCHEM_MMFF94_PARTIAL_CHARGES>
16
1 -0.68
14 -0.14
15 0.14
16 -0.14
17 -0.15
18 -0.15
19 -0.15
2 -0.53
20 0.08
40 0.4
41 0.15
42 0.15
43 0.15
44 0.45
6 0.14
7 0.28

> <PUBCHEM_EFFECTIVE_ROTOR_COUNT>
1.4

> <PUBCHEM_PHARMACOPHORE_FEATURES>
7
1 1 acceptor
1 1 donor
1 2 donor
5 3 4 7 9 11 rings
6 14 16 17 18 19 20 rings
6 3 4 5 6 8 10 rings
6 5 6 12 14 15 16 rings

> <PUBCHEM_HEAVY_ATOM_COUNT>
20

> <PUBCHEM_ATOM_DEF_STEREO_COUNT>
5

> <PUBCHEM_ATOM_UDEF_STEREO_COUNT>
0

> <PUBCHEM_BOND_DEF_STEREO_COUNT>
0

> <PUBCHEM_BOND_UDEF_STEREO_COUNT>
0

> <PUBCHEM_ISOTOPIC_ATOM_COUNT>
0

> <PUBCHEM_COMPONENT_COUNT>
1

> <PUBCHEM_CACTVS_TAUTO_COUNT>
9

> <PUBCHEM_CONFORMER_ID>
0000167D00000001

> <PUBCHEM_MMFF94_ENERGY>
68.4596

> <PUBCHEM_FEATURE_SELFOVERLAP>
35.62

> <PUBCHEM_SHAPE_FINGERPRINT>
10 15 18262512710780645640
10411042 1 16969703283687688743
10616163 171 18338239395883154686
10967382 1 18410012100429229070
11132069 177 18409162216832884669
11578080 2 17201347718505248258
12011746 2 18410859841042374310
12107183 9 17690845558000159065
12236239 1 13470690338792453460
12251169 10 18335139816864396069
12403259 415 18410852127603240605
12403814 3 17530960289353343621
12500047 106 18271238421624861530
12592029 89 18334859377112304987
12788726 201 17703518696578858128
128620 24 11818992989152349105
13140716 1 18192429898953651512
13533116 47 17846218813073552003
13544592 145 18272379637759764926
13675066 3 18341893012844745609
14178342 30 18123731313450613666
14341114 176 18409738343777605753
14866123 147 17046555868986690930
15042514 8 18263932206156989787
15196674 1 18410012108982090935
15256400 18 18410857620686823693
15295992 7 17845930826899781123
15536298 74 18413671296627645270
1601671 61 18409168826940819996
16945 1 18266170819592368622
17349148 13 18412820287929204701
17804303 29 18410296916890392117
1813 80 16950285091842931756
18186145 218 17417805158171412875
19141452 34 18413108389914235807
192875 21 13830133918406568194
19591789 44 18192993725128068838
200 152 18131627885965453901
20028762 73 18272929458099065015
20261772 1 18410856577167961319
20510252 161 18341895147623301209
20645477 70 18200878374956666302
21033648 29 18271512131406579929
21267235 1 18337399244825179854
21279426 13 18124035632930519374
21421861 104 17895744090149736410
22854114 59 18412546505207311417
22892500 29 17274814788166584896
23184049 59 18410576175690384255
23402539 116 18342170081765240151
23557571 272 17773880972535682807
23558518 356 17682680979747269074
23559900 14 18413389822146813342
2748010 2 18337666399911122230
3004659 81 18260835844047909814
335352 9 18410013195572088855
34934 24 18411133675799850702
350125 39 18409735045496469133
351380 180 18409730664571278687
3545911 37 18411703192367818988
4214541 1 18409167684326479901
465052 167 17967541176940287083
495365 180 17346587600050392546
5104073 3 18409449150412323065
542803 24 17346883342628774985
59755656 215 18335983048405458773
69090 78 18341891905091661271
77779 3 18409450271409361990
7832392 63 18341046427736201710
9709674 26 18410862087368844367
9999458 23 17967819357476725574

> <PUBCHEM_SHAPE_MULTIPOLES>
399.85
9.72
2.11
0.84
3.73
0.39
0.22
-1.2
1.2
-0.24
-0.15
-0.38
-0.13
0.32

> <PUBCHEM_SHAPE_SELFOVERLAP>
871.414

> <PUBCHEM_SHAPE_VOLUME>
217.1

> <PUBCHEM_COORDINATE_TYPE>
2
5
10

> <Energy>
58.4396

> <minimizedAffinity>
-8.87568

> <CNNscore>
0.4923954904

> <CNNaffinity>
7.3351855278

> <CNN_VS>
3.6118123531

> <CNNaffinity_variance>
0.4914247990

$$$$
5757


 22 25  0  0  0  0  0  0  0  0999 V2000
   -2.4014   -6.0052   17.0561 O   0  0  0  0  0  0  0  0  0  0  0  0
   -1.8693   -1.6203   27.0904 O   0  0  0  0  0  0  0  0  0  0  0  0
   -1.9145   -5.1061   19.2998 C   0  0  0  0  0  0  0  0  0  0  0  0
   -0.5753   -5.0424   20.0615 C   0  0  0  0  0  0  0  0  0  0  0  0
   -0.6434   -4.1113   21.2718 C   0  0  0  0  0  0  0  0  0  0  0  0
   -1.7159   -4.6580   22.2625 C   0  0  0  0  0  0  0  0  0  0  0  0
   -1.5001   -6.0385   18.1454 C   0  0  0  0  0  0  0  0  0  0  0  0
   -2.9746   -5.6829   20.2460 C   0  0  0  0  0  0  0  0  0  0  0  0
    0.4460   -4.7660   18.9618 C   0  0  0  0  0  0  0  0  0  0  0  0
   -3.0798   -4.8715   21.5519 C   0  0  0  0  0  0  0  0  0  0  0  0
   -0.0993   -5.5357   17.7449 C   0  0  0  0  0  0  0  0  0  0  0  0
    0.6958   -3.9967   22.0025 C   0  0  0  0  0  0  0  0  0  0  0  0
   -2.4109   -3.7472   18.7430 C   0  0  0  0  0  0  0  0  0  0  0  0
   -1.7729   -3.8159   23.5361 C   0  0  0  0  0  0  0  0  0  0  0  0
    0.5974   -2.9477   23.1074 C   0  0  0  0  0  0  0  0  0  0  0  0
   -0.6581   -3.0496   23.9424 C   0  0  0  0  0  0  0  0  0  0  0  0
   -2.8975   -3.8532   24.3800 C   0  0  0  0  0  0  0  0  0  0  0  0
   -0.7157   -2.3071   25.1366 C   0  0  0  0  0  0  0  0  0  0  0  0
   -2.9398   -3.1202   25.5685 C   0  0  0  0  0  0  0  0  0  0  0  0
   -1.8505   -2.3482   25.9363 C   0  0  0  0  0  0  0  0  0  0  0  0
   -3.2695   -6.3275   17.3448 H   0  0  0  0  0  0  0  0  0  0  0  0
   -1.1266   -1.1014   27.3292 H   0  0  0  0  0  0  0  0  0  0  0  0
  1  7  1  0
  1 21  1  0
  2 20  1  0
  2 22  1  0
  3  4  1  0
  3  7  1  0
  3  8  1  0
  3 13  1  0
  4  5  1  0
  4  9  1  0
  5  6  1  0
  5 12  1  0
  6 10  1  0
  6 14  1  0
  7 11  1  0
  8 10  1  0
  9 11  1  0
 12 15  1  0
 14 16  2  0
 14 17  1  0
 15 16  1  0
 16 18  1  0
 17 19  2  0
 18 20  2  0
 19 20  1  0
M  END
> <PUBCHEM_COMPOUND_CID>
5757

> <PUBCHEM_CONFORMER_RMSD>
0.6

> <PUBCHEM_CONFORMER_DIVERSEORDER>
1

> <PUBCHEM_MMFF94_PARTIAL_CHARGES>
16
1 -0.68
14 -0.14
15 0.14
16 -0.14
17 -0.15
18 -0.15
19 -0.15
2 -0.53
20 0.08
40 0.4
41 0.15
42 0.15
43 0.15
44 0.45
6 0.14
7 0.28

> <PUBCHEM_EFFECTIVE_ROTOR_COUNT>
1.4

> <PUBCHEM_PHARMACOPHORE_FEATURES>
7
1 1 acceptor
1 1 donor
1 2 donor
5 3 4 7 9 11 rings
6 14 16 17 18 19 20 rings
6 3 4 5 6 8 10 rings
6 5 6 12 14 15 16 rings

> <PUBCHEM_HEAVY_ATOM_COUNT>
20

> <PUBCHEM_ATOM_DEF_STEREO_COUNT>
5

> <PUBCHEM_ATOM_UDEF_STEREO_COUNT>
0

> <PUBCHEM_BOND_DEF_STEREO_COUNT>
0

> <PUBCHEM_BOND_UDEF_STEREO_COUNT>
0

> <PUBCHEM_ISOTOPIC_ATOM_COUNT>
0

> <PUBCHEM_COMPONENT_COUNT>
1

> <PUBCHEM_CACTVS_TAUTO_COUNT>
9

> <PUBCHEM_CONFORMER_ID>
0000167D00000001

> <PUBCHEM_MMFF94_ENERGY>
68.4596

> <PUBCHEM_FEATURE_SELFOVERLAP>
35.62

> <PUBCHEM_SHAPE_FINGERPRINT>
10 15 18262512710780645640
10411042 1 16969703283687688743
10616163 171 18338239395883154686
10967382 1 18410012100429229070
11132069 177 18409162216832884669
11578080 2 17201347718505248258
12011746 2 18410859841042374310
12107183 9 17690845558000159065
12236239 1 13470690338792453460
12251169 10 18335139816864396069
12403259 415 18410852127603240605
12403814 3 17530960289353343621
12500047 106 18271238421624861530
12592029 89 18334859377112304987
12788726 201 17703518696578858128
128620 24 11818992989152349105
13140716 1 18192429898953651512
13533116 47 17846218813073552003
13544592 145 18272379637759764926
13675066 3 18341893012844745609
14178342 30 18123731313450613666
14341114 176 18409738343777605753
14866123 147 17046555868986690930
15042514 8 18263932206156989787
15196674 1 18410012108982090935
15256400 18 18410857620686823693
15295992 7 17845930826899781123
15536298 74 18413671296627645270
1601671 61 18409168826940819996
16945 1 18266170819592368622
17349148 13 18412820287929204701
17804303 29 18410296916890392117
1813 80 16950285091842931756
18186145 218 17417805158171412875
19141452 34 18413108389914235807
192875 21 13830133918406568194
19591789 44 18192993725128068838
200 152 18131627885965453901
20028762 73 18272929458099065015
20261772 1 18410856577167961319
20510252 161 18341895147623301209
20645477 70 18200878374956666302
21033648 29 18271512131406579929
21267235 1 18337399244825179854
21279426 13 18124035632930519374
21421861 104 17895744090149736410
22854114 59 18412546505207311417
22892500 29 17274814788166584896
23184049 59 18410576175690384255
23402539 116 18342170081765240151
23557571 272 17773880972535682807
23558518 356 17682680979747269074
23559900 14 18413389822146813342
2748010 2 18337666399911122230
3004659 81 18260835844047909814
335352 9 18410013195572088855
34934 24 18411133675799850702
350125 39 18409735045496469133
351380 180 18409730664571278687
3545911 37 18411703192367818988
4214541 1 18409167684326479901
465052 167 17967541176940287083
495365 180 17346587600050392546
5104073 3 18409449150412323065
542803 24 17346883342628774985
59755656 215 18335983048405458773
69090 78 18341891905091661271
77779 3 18409450271409361990
7832392 63 18341046427736201710
9709674 26 18410862087368844367
9999458 23 17967819357476725574

> <PUBCHEM_SHAPE_MULTIPOLES>
399.85
9.72
2.11
0.84
3.73
0.39
0.22
-1.2
1.2
-0.24
-0.15
-0.38
-0.13
0.32

> <PUBCHEM_SHAPE_SELFOVERLAP>
871.414

> <PUBCHEM_SHAPE_VOLUME>
217.1

> <PUBCHEM_COORDINATE_TYPE>
2
5
10

> <Energy>
58.4396

> <minimizedAffinity>
6.94333

> <CNNscore>
0.4274037778

> <CNNaffinity>
7.2052650452

> <CNN_VS>
3.0795574188

> <CNNaffinity_variance>
1.1241046190

$$$$
5757


 22 25  0  0  0  0  0  0  0  0999 V2000
   -4.4708   -9.2330   29.3237 O   0  0  0  0  0  0  0  0  0  0  0  0
   -1.9033   -0.5174   23.1884 O   0  0  0  0  0  0  0  0  0  0  0  0
   -3.6712   -7.5100   27.7516 C   0  0  0  0  0  0  0  0  0  0  0  0
   -2.6931   -7.6415   26.5668 C   0  0  0  0  0  0  0  0  0  0  0  0
   -2.7280   -6.4181   25.6510 C   0  0  0  0  0  0  0  0  0  0  0  0
   -2.2959   -5.1663   26.4736 C   0  0  0  0  0  0  0  0  0  0  0  0
   -3.4470   -8.8835   28.4129 C   0  0  0  0  0  0  0  0  0  0  0  0
   -3.2361   -6.3077   28.5983 C   0  0  0  0  0  0  0  0  0  0  0  0
   -3.0165   -9.0168   25.9901 C   0  0  0  0  0  0  0  0  0  0  0  0
   -3.1518   -5.0170   27.7605 C   0  0  0  0  0  0  0  0  0  0  0  0
   -3.3792   -9.8625   27.2245 C   0  0  0  0  0  0  0  0  0  0  0  0
   -1.8026   -6.5617   24.4413 C   0  0  0  0  0  0  0  0  0  0  0  0
   -5.1591   -7.3417   27.3505 C   0  0  0  0  0  0  0  0  0  0  0  0
   -2.2287   -3.9207   25.5913 C   0  0  0  0  0  0  0  0  0  0  0  0
   -1.9917   -5.3760   23.4981 C   0  0  0  0  0  0  0  0  0  0  0  0
   -2.0416   -4.0366   24.1961 C   0  0  0  0  0  0  0  0  0  0  0  0
   -2.2597   -2.6317   26.1534 C   0  0  0  0  0  0  0  0  0  0  0  0
   -1.9471   -2.8779   23.4030 C   0  0  0  0  0  0  0  0  0  0  0  0
   -2.1546   -1.4884   25.3577 C   0  0  0  0  0  0  0  0  0  0  0  0
   -2.0040   -1.6191   23.9872 C   0  0  0  0  0  0  0  0  0  0  0  0
   -4.4833   -8.5967   30.0558 H   0  0  0  0  0  0  0  0  0  0  0  0
   -1.8017   -0.6178   22.2623 H   0  0  0  0  0  0  0  0  0  0  0  0
  1  7  1  0
  1 21  1  0
  2 20  1  0
  2 22  1  0
  3  4  1  0
  3  7  1  0
  3  8  1  0
  3 13  1  0
  4  5  1  0
  4  9  1  0
  5  6  1  0
  5 12  1  0
  6 10  1  0
  6 14  1  0
  7 11  1  0
  8 10  1  0
  9 11  1  0
 12 15  1  0
 14 16  2  0
 14 17  1  0
 15 16  1  0
 16 18  1  0
 17 19  2  0
 18 20  2  0
 19 20  1  0
M  END
> <PUBCHEM_COMPOUND_CID>
5757

> <PUBCHEM_CONFORMER_RMSD>
0.6

> <PUBCHEM_CONFORMER_DIVERSEORDER>
1

> <PUBCHEM_MMFF94_PARTIAL_CHARGES>
16
1 -0.68
14 -0.14
15 0.14
16 -0.14
17 -0.15
18 -0.15
19 -0.15
2 -0.53
20 0.08
40 0.4
41 0.15
42 0.15
43 0.15
44 0.45
6 0.14
7 0.28

> <PUBCHEM_EFFECTIVE_ROTOR_COUNT>
1.4

> <PUBCHEM_PHARMACOPHORE_FEATURES>
7
1 1 acceptor
1 1 donor
1 2 donor
5 3 4 7 9 11 rings
6 14 16 17 18 19 20 rings
6 3 4 5 6 8 10 rings
6 5 6 12 14 15 16 rings

> <PUBCHEM_HEAVY_ATOM_COUNT>
20

> <PUBCHEM_ATOM_DEF_STEREO_COUNT>
5

> <PUBCHEM_ATOM_UDEF_STEREO_COUNT>
0

> <PUBCHEM_BOND_DEF_STEREO_COUNT>
0

> <PUBCHEM_BOND_UDEF_STEREO_COUNT>
0

> <PUBCHEM_ISOTOPIC_ATOM_COUNT>
0

> <PUBCHEM_COMPONENT_COUNT>
1

> <PUBCHEM_CACTVS_TAUTO_COUNT>
9

> <PUBCHEM_CONFORMER_ID>
0000167D00000001

> <PUBCHEM_MMFF94_ENERGY>
68.4596

> <PUBCHEM_FEATURE_SELFOVERLAP>
35.62

> <PUBCHEM_SHAPE_FINGERPRINT>
10 15 18262512710780645640
10411042 1 16969703283687688743
10616163 171 18338239395883154686
10967382 1 18410012100429229070
11132069 177 18409162216832884669
11578080 2 17201347718505248258
12011746 2 18410859841042374310
12107183 9 17690845558000159065
12236239 1 13470690338792453460
12251169 10 18335139816864396069
12403259 415 18410852127603240605
12403814 3 17530960289353343621
12500047 106 18271238421624861530
12592029 89 18334859377112304987
12788726 201 17703518696578858128
128620 24 11818992989152349105
13140716 1 18192429898953651512
13533116 47 17846218813073552003
13544592 145 18272379637759764926
13675066 3 18341893012844745609
14178342 30 18123731313450613666
14341114 176 18409738343777605753
14866123 147 17046555868986690930
15042514 8 18263932206156989787
15196674 1 18410012108982090935
15256400 18 18410857620686823693
15295992 7 17845930826899781123
15536298 74 18413671296627645270
1601671 61 18409168826940819996
16945 1 18266170819592368622
17349148 13 18412820287929204701
17804303 29 18410296916890392117
1813 80 16950285091842931756
18186145 218 17417805158171412875
19141452 34 18413108389914235807
192875 21 13830133918406568194
19591789 44 18192993725128068838
200 152 18131627885965453901
20028762 73 18272929458099065015
20261772 1 18410856577167961319
20510252 161 18341895147623301209
20645477 70 18200878374956666302
21033648 29 18271512131406579929
21267235 1 18337399244825179854
21279426 13 18124035632930519374
21421861 104 17895744090149736410
22854114 59 18412546505207311417
22892500 29 17274814788166584896
23184049 59 18410576175690384255
23402539 116 18342170081765240151
23557571 272 17773880972535682807
23558518 356 17682680979747269074
23559900 14 18413389822146813342
2748010 2 18337666399911122230
3004659 81 18260835844047909814
335352 9 18410013195572088855
34934 24 18411133675799850702
350125 39 18409735045496469133
351380 180 18409730664571278687
3545911 37 18411703192367818988
4214541 1 18409167684326479901
465052 167 17967541176940287083
495365 180 17346587600050392546
5104073 3 18409449150412323065
542803 24 17346883342628774985
59755656 215 18335983048405458773
69090 78 18341891905091661271
77779 3 18409450271409361990
7832392 63 18341046427736201710
9709674 26 18410862087368844367
9999458 23 17967819357476725574

> <PUBCHEM_SHAPE_MULTIPOLES>
399.85
9.72
2.11
0.84
3.73
0.39
0.22
-1.2
1.2
-0.24
-0.15
-0.38
-0.13
0.32

> <PUBCHEM_SHAPE_SELFOVERLAP>
871.414

> <PUBCHEM_SHAPE_VOLUME>
217.1

> <PUBCHEM_COORDINATE_TYPE>
2
5
10

> <Energy>
58.4396

> <minimizedAffinity>
68.67541

> <CNNscore>
0.1943286508

> <CNNaffinity>
4.1903042793

> <CNN_VS>
0.8142961860

> <CNNaffinity_variance>
0.3841121495

$$$$
5757


 22 25  0  0  0  0  0  0  0  0999 V2000
    1.5892   -3.8304   23.9722 O   0  0  0  0  0  0  0  0  0  0  0  0
   -7.5442   -4.8964   18.0023 O   0  0  0  0  0  0  0  0  0  0  0  0
   -0.2555   -3.9474   22.3403 C   0  0  0  0  0  0  0  0  0  0  0  0
   -0.2549   -3.6171   20.8342 C   0  0  0  0  0  0  0  0  0  0  0  0
   -1.5045   -4.1422   20.1277 C   0  0  0  0  0  0  0  0  0  0  0  0
   -2.7570   -3.4563   20.7533 C   0  0  0  0  0  0  0  0  0  0  0  0
    1.1175   -3.3625   22.7238 C   0  0  0  0  0  0  0  0  0  0  0  0
   -1.4579   -3.2449   22.9824 C   0  0  0  0  0  0  0  0  0  0  0  0
    1.1204   -4.0862   20.3681 C   0  0  0  0  0  0  0  0  0  0  0  0
   -2.7821   -3.6325   22.2958 C   0  0  0  0  0  0  0  0  0  0  0  0
    2.0409   -3.7898   21.5663 C   0  0  0  0  0  0  0  0  0  0  0  0
   -1.4883   -3.8693   18.6224 C   0  0  0  0  0  0  0  0  0  0  0  0
   -0.3087   -5.4603   22.6740 C   0  0  0  0  0  0  0  0  0  0  0  0
   -4.0364   -3.8767   20.0317 C   0  0  0  0  0  0  0  0  0  0  0  0
   -2.6880   -4.5412   17.9590 C   0  0  0  0  0  0  0  0  0  0  0  0
   -3.9905   -4.3450   18.6999 C   0  0  0  0  0  0  0  0  0  0  0  0
   -5.2955   -3.7232   20.6396 C   0  0  0  0  0  0  0  0  0  0  0  0
   -5.1824   -4.6952   18.0386 C   0  0  0  0  0  0  0  0  0  0  0  0
   -6.4731   -4.0642   19.9700 C   0  0  0  0  0  0  0  0  0  0  0  0
   -6.4083   -4.5527   18.6757 C   0  0  0  0  0  0  0  0  0  0  0  0
    0.9848   -3.5433   24.6745 H   0  0  0  0  0  0  0  0  0  0  0  0
   -7.4883   -5.2259   17.1269 H   0  0  0  0  0  0  0  0  0  0  0  0
  1  7  1  0
  1 21  1  0
  2 20  1  0
  2 22  1  0
  3  4  1  0
  3  7  1  0
  3  8  1  0
  3 13  1  0
  4  5  1  0
  4  9  1  0
  5  6  1  0
  5 12  1  0
  6 10  1  0
  6 14  1  0
  7 11  1  0
  8 10  1  0
  9 11  1  0
 12 15  1  0
 14 16  2  0
 14 17  1  0
 15 16  1  0
 16 18  1  0
 17 19  2  0
 18 20  2  0
 19 20  1  0
M  END
> <PUBCHEM_COMPOUND_CID>
5757

> <PUBCHEM_CONFORMER_RMSD>
0.6

> <PUBCHEM_CONFORMER_DIVERSEORDER>
1

> <PUBCHEM_MMFF94_PARTIAL_CHARGES>
16
1 -0.68
14 -0.14
15 0.14
16 -0.14
17 -0.15
18 -0.15
19 -0.15
2 -0.53
20 0.08
40 0.4
41 0.15
42 0.15
43 0.15
44 0.45
6 0.14
7 0.28

> <PUBCHEM_EFFECTIVE_ROTOR_COUNT>
1.4

> <PUBCHEM_PHARMACOPHORE_FEATURES>
7
1 1 acceptor
1 1 donor
1 2 donor
5 3 4 7 9 11 rings
6 14 16 17 18 19 20 rings
6 3 4 5 6 8 10 rings
6 5 6 12 14 15 16 rings

> <PUBCHEM_HEAVY_ATOM_COUNT>
20

> <PUBCHEM_ATOM_DEF_STEREO_COUNT>
5

> <PUBCHEM_ATOM_UDEF_STEREO_COUNT>
0

> <PUBCHEM_BOND_DEF_STEREO_COUNT>
0

> <PUBCHEM_BOND_UDEF_STEREO_COUNT>
0

> <PUBCHEM_ISOTOPIC_ATOM_COUNT>
0

> <PUBCHEM_COMPONENT_COUNT>
1

> <PUBCHEM_CACTVS_TAUTO_COUNT>
9

> <PUBCHEM_CONFORMER_ID>
0000167D00000001

> <PUBCHEM_MMFF94_ENERGY>
68.4596

> <PUBCHEM_FEATURE_SELFOVERLAP>
35.62

> <PUBCHEM_SHAPE_FINGERPRINT>
10 15 18262512710780645640
10411042 1 16969703283687688743
10616163 171 18338239395883154686
10967382 1 18410012100429229070
11132069 177 18409162216832884669
11578080 2 17201347718505248258
12011746 2 18410859841042374310
12107183 9 17690845558000159065
12236239 1 13470690338792453460
12251169 10 18335139816864396069
12403259 415 18410852127603240605
12403814 3 17530960289353343621
12500047 106 18271238421624861530
12592029 89 18334859377112304987
12788726 201 17703518696578858128
128620 24 11818992989152349105
13140716 1 18192429898953651512
13533116 47 17846218813073552003
13544592 145 18272379637759764926
13675066 3 18341893012844745609
14178342 30 18123731313450613666
14341114 176 18409738343777605753
14866123 147 17046555868986690930
15042514 8 18263932206156989787
15196674 1 18410012108982090935
15256400 18 18410857620686823693
15295992 7 17845930826899781123
15536298 74 18413671296627645270
1601671 61 18409168826940819996
16945 1 18266170819592368622
17349148 13 18412820287929204701
17804303 29 18410296916890392117
1813 80 16950285091842931756
18186145 218 17417805158171412875
19141452 34 18413108389914235807
192875 21 13830133918406568194
19591789 44 18192993725128068838
200 152 18131627885965453901
20028762 73 18272929458099065015
20261772 1 18410856577167961319
20510252 161 18341895147623301209
20645477 70 18200878374956666302
21033648 29 18271512131406579929
21267235 1 18337399244825179854
21279426 13 18124035632930519374
21421861 104 17895744090149736410
22854114 59 18412546505207311417
22892500 29 17274814788166584896
23184049 59 18410576175690384255
23402539 116 18342170081765240151
23557571 272 17773880972535682807
23558518 356 17682680979747269074
23559900 14 18413389822146813342
2748010 2 18337666399911122230
3004659 81 18260835844047909814
335352 9 18410013195572088855
34934 24 18411133675799850702
350125 39 18409735045496469133
351380 180 18409730664571278687
3545911 37 18411703192367818988
4214541 1 18409167684326479901
465052 167 17967541176940287083
495365 180 17346587600050392546
5104073 3 18409449150412323065
542803 24 17346883342628774985
59755656 215 18335983048405458773
69090 78 18341891905091661271
77779 3 18409450271409361990
7832392 63 18341046427736201710
9709674 26 18410862087368844367
9999458 23 17967819357476725574

> <PUBCHEM_SHAPE_MULTIPOLES>
399.85
9.72
2.11
0.84
3.73
0.39
0.22
-1.2
1.2
-0.24
-0.15
-0.38
-0.13
0.32

> <PUBCHEM_SHAPE_SELFOVERLAP>
871.414

> <PUBCHEM_SHAPE_VOLUME>
217.1

> <PUBCHEM_COORDINATE_TYPE>
2
5
10

> <Energy>
58.4396

> <minimizedAffinity>
-1.19205

> <CNNscore>
0.1817069501

> <CNNaffinity>
6.0286679268

> <CNN_VS>
1.0954508781

> <CNNaffinity_variance>
0.0925171152

$$$$
5757


 22 25  0  0  0  0  0  0  0  0999 V2000
   -0.6550   -1.8402   17.8443 O   0  0  0  0  0  0  0  0  0  0  0  0
   -6.5344   -9.8650   22.4522 O   0  0  0  0  0  0  0  0  0  0  0  0
   -2.1897   -3.3676   19.0239 C   0  0  0  0  0  0  0  0  0  0  0  0
   -3.4240   -3.0425   19.8890 C   0  0  0  0  0  0  0  0  0  0  0  0
   -4.2850   -4.2775   20.1533 C   0  0  0  0  0  0  0  0  0  0  0  0
   -3.4321   -5.3226   20.9349 C   0  0  0  0  0  0  0  0  0  0  0  0
   -1.5980   -1.9511   18.8924 C   0  0  0  0  0  0  0  0  0  0  0  0
   -1.3149   -4.3629   19.7958 C   0  0  0  0  0  0  0  0  0  0  0  0
   -4.0419   -1.8365   19.1872 C   0  0  0  0  0  0  0  0  0  0  0  0
   -2.1009   -5.6267   20.1958 C   0  0  0  0  0  0  0  0  0  0  0  0
   -2.8282   -1.0542   18.6528 C   0  0  0  0  0  0  0  0  0  0  0  0
   -5.5423   -3.9562   20.9636 C   0  0  0  0  0  0  0  0  0  0  0  0
   -2.5122   -3.9489   17.6234 C   0  0  0  0  0  0  0  0  0  0  0  0
   -4.2635   -6.5499   21.3048 C   0  0  0  0  0  0  0  0  0  0  0  0
   -6.4248   -5.1977   21.0685 C   0  0  0  0  0  0  0  0  0  0  0  0
   -5.6697   -6.4626   21.4055 C   0  0  0  0  0  0  0  0  0  0  0  0
   -3.6471   -7.7685   21.6417 C   0  0  0  0  0  0  0  0  0  0  0  0
   -6.4171   -7.5943   21.7813 C   0  0  0  0  0  0  0  0  0  0  0  0
   -4.3982   -8.8827   22.0234 C   0  0  0  0  0  0  0  0  0  0  0  0
   -5.7786   -8.7895   22.0859 C   0  0  0  0  0  0  0  0  0  0  0  0
    0.1029   -2.4168   18.0290 H   0  0  0  0  0  0  0  0  0  0  0  0
   -7.4676   -9.7904   22.4909 H   0  0  0  0  0  0  0  0  0  0  0  0
  1  7  1  0
  1 21  1  0
  2 20  1  0
  2 22  1  0
  3  4  1  0
  3  7  1  0
  3  8  1  0
  3 13  1  0
  4  5  1  0
  4  9  1  0
  5  6  1  0
  5 12  1  0
  6 10  1  0
  6 14  1  0
  7 11  1  0
  8 10  1  0
  9 11  1  0
 12 15  1  0
 14 16  2  0
 14 17  1  0
 15 16  1  0
 16 18  1  0
 17 19  2  0
 18 20  2  0
 19 20  1  0
M  END
> <PUBCHEM_COMPOUND_CID>
5757

> <PUBCHEM_CONFORMER_RMSD>
0.6

> <PUBCHEM_CONFORMER_DIVERSEORDER>
1

> <PUBCHEM_MMFF94_PARTIAL_CHARGES>
16
1 -0.68
14 -0.14
15 0.14
16 -0.14
17 -0.15
18 -0.15
19 -0.15
2 -0.53
20 0.08
40 0.4
41 0.15
42 0.15
43 0.15
44 0.45
6 0.14
7 0.28

> <PUBCHEM_EFFECTIVE_ROTOR_COUNT>
1.4

> <PUBCHEM_PHARMACOPHORE_FEATURES>
7
1 1 acceptor
1 1 donor
1 2 donor
5 3 4 7 9 11 rings
6 14 16 17 18 19 20 rings
6 3 4 5 6 8 10 rings
6 5 6 12 14 15 16 rings

> <PUBCHEM_HEAVY_ATOM_COUNT>
20

> <PUBCHEM_ATOM_DEF_STEREO_COUNT>
5

> <PUBCHEM_ATOM_UDEF_STEREO_COUNT>
0

> <PUBCHEM_BOND_DEF_STEREO_COUNT>
0

> <PUBCHEM_BOND_UDEF_STEREO_COUNT>
0

> <PUBCHEM_ISOTOPIC_ATOM_COUNT>
0

> <PUBCHEM_COMPONENT_COUNT>
1

> <PUBCHEM_CACTVS_TAUTO_COUNT>
9

> <PUBCHEM_CONFORMER_ID>
0000167D00000001

> <PUBCHEM_MMFF94_ENERGY>
68.4596

> <PUBCHEM_FEATURE_SELFOVERLAP>
35.62

> <PUBCHEM_SHAPE_FINGERPRINT>
10 15 18262512710780645640
10411042 1 16969703283687688743
10616163 171 18338239395883154686
10967382 1 18410012100429229070
11132069 177 18409162216832884669
11578080 2 17201347718505248258
12011746 2 18410859841042374310
12107183 9 17690845558000159065
12236239 1 13470690338792453460
12251169 10 18335139816864396069
12403259 415 18410852127603240605
12403814 3 17530960289353343621
12500047 106 18271238421624861530
12592029 89 18334859377112304987
12788726 201 17703518696578858128
128620 24 11818992989152349105
13140716 1 18192429898953651512
13533116 47 17846218813073552003
13544592 145 18272379637759764926
13675066 3 18341893012844745609
14178342 30 18123731313450613666
14341114 176 18409738343777605753
14866123 147 17046555868986690930
15042514 8 18263932206156989787
15196674 1 18410012108982090935
15256400 18 18410857620686823693
15295992 7 17845930826899781123
15536298 74 18413671296627645270
1601671 61 18409168826940819996
16945 1 18266170819592368622
17349148 13 18412820287929204701
17804303 29 18410296916890392117
1813 80 16950285091842931756
18186145 218 17417805158171412875
19141452 34 18413108389914235807
192875 21 13830133918406568194
19591789 44 18192993725128068838
200 152 18131627885965453901
20028762 73 18272929458099065015
20261772 1 18410856577167961319
20510252 161 18341895147623301209
20645477 70 18200878374956666302
21033648 29 18271512131406579929
21267235 1 18337399244825179854
21279426 13 18124035632930519374
21421861 104 17895744090149736410
22854114 59 18412546505207311417
22892500 29 17274814788166584896
23184049 59 18410576175690384255
23402539 116 18342170081765240151
23557571 272 17773880972535682807
23558518 356 17682680979747269074
23559900 14 18413389822146813342
2748010 2 18337666399911122230
3004659 81 18260835844047909814
335352 9 18410013195572088855
34934 24 18411133675799850702
350125 39 18409735045496469133
351380 180 18409730664571278687
3545911 37 18411703192367818988
4214541 1 18409167684326479901
465052 167 17967541176940287083
495365 180 17346587600050392546
5104073 3 18409449150412323065
542803 24 17346883342628774985
59755656 215 18335983048405458773
69090 78 18341891905091661271
77779 3 18409450271409361990
7832392 63 18341046427736201710
9709674 26 18410862087368844367
9999458 23 17967819357476725574

> <PUBCHEM_SHAPE_MULTIPOLES>
399.85
9.72
2.11
0.84
3.73
0.39
0.22
-1.2
1.2
-0.24
-0.15
-0.38
-0.13
0.32

> <PUBCHEM_SHAPE_SELFOVERLAP>
871.414

> <PUBCHEM_SHAPE_VOLUME>
217.1

> <PUBCHEM_COORDINATE_TYPE>
2
5
10

> <Energy>
58.4396

> <minimizedAffinity>
17.83518

> <CNNscore>
0.1698038876

> <CNNaffinity>
4.8516287804

> <CNN_VS>
0.8238254189

> <CNNaffinity_variance>
1.4632624388

$$$$
