5757


 22 25  0  0  0  0  0  0  0  0999 V2000
   11.4260   41.9407  132.2682 O   0  0  0  0  0  0  0  0  0  0  0  0
    6.7946   51.2975  128.9222 O   0  0  0  0  0  0  0  0  0  0  0  0
   10.4655   44.1748  131.8610 C   0  0  0  0  0  0  0  0  0  0  0  0
   10.3897   45.3957  132.7997 C   0  0  0  0  0  0  0  0  0  0  0  0
   10.0235   46.6772  132.0513 C   0  0  0  0  0  0  0  0  0  0  0  0
    8.6140   46.4957  131.4104 C   0  0  0  0  0  0  0  0  0  0  0  0
   10.9056   43.1052  132.8790 C   0  0  0  0  0  0  0  0  0  0  0  0
    9.0751   43.9532  131.2531 C   0  0  0  0  0  0  0  0  0  0  0  0
   11.7034   45.3310  133.5734 C   0  0  0  0  0  0  0  0  0  0  0  0
    8.5557   45.2143  130.5354 C   0  0  0  0  0  0  0  0  0  0  0  0
   11.9645   43.8226  133.7389 C   0  0  0  0  0  0  0  0  0  0  0  0
   10.0004   47.9054  132.9633 C   0  0  0  0  0  0  0  0  0  0  0  0
   11.5090   44.2951  130.7209 C   0  0  0  0  0  0  0  0  0  0  0  0
    8.1525   47.7763  130.7166 C   0  0  0  0  0  0  0  0  0  0  0  0
    9.7711   49.1658  132.1327 C   0  0  0  0  0  0  0  0  0  0  0  0
    8.6767   49.0308  131.0993 C   0  0  0  0  0  0  0  0  0  0  0  0
    7.1332   47.7489  129.7477 C   0  0  0  0  0  0  0  0  0  0  0  0
    8.2148   50.2037  130.4735 C   0  0  0  0  0  0  0  0  0  0  0  0
    6.6751   48.9206  129.1404 C   0  0  0  0  0  0  0  0  0  0  0  0
    7.2225   50.1397  129.5039 C   0  0  0  0  0  0  0  0  0  0  0  0
   10.7336   41.5172  131.7370 H   0  0  0  0  0  0  0  0  0  0  0  0
    7.1723   52.1167  129.1759 H   0  0  0  0  0  0  0  0  0  0  0  0
  1  7  1  0
  1 21  1  0
  2 20  1  0
  2 22  1  0
  3  4  1  0
  3  7  1  0
  3  8  1  0
  3 13  1  0
  4  5  1  0
  4  9  1  0
  5  6  1  0
  5 12  1  0
  6 10  1  0
  6 14  1  0
  7 11  1  0
  8 10  1  0
  9 11  1  0
 12 15  1  0
 14 16  2  0
 14 17  1  0
 15 16  1  0
 16 18  1  0
 17 19  2  0
 18 20  2  0
 19 20  1  0
M  END
> <PUBCHEM_COMPOUND_CID>
5757

> <PUBCHEM_CONFORMER_RMSD>
0.6

> <PUBCHEM_CONFORMER_DIVERSEORDER>
1

> <PUBCHEM_MMFF94_PARTIAL_CHARGES>
16
1 -0.68
14 -0.14
15 0.14
16 -0.14
17 -0.15
18 -0.15
19 -0.15
2 -0.53
20 0.08
40 0.4
41 0.15
42 0.15
43 0.15
44 0.45
6 0.14
7 0.28

> <PUBCHEM_EFFECTIVE_ROTOR_COUNT>
1.4

> <PUBCHEM_PHARMACOPHORE_FEATURES>
7
1 1 acceptor
1 1 donor
1 2 donor
5 3 4 7 9 11 rings
6 14 16 17 18 19 20 rings
6 3 4 5 6 8 10 rings
6 5 6 12 14 15 16 rings

> <PUBCHEM_HEAVY_ATOM_COUNT>
20

> <PUBCHEM_ATOM_DEF_STEREO_COUNT>
5

> <PUBCHEM_ATOM_UDEF_STEREO_COUNT>
0

> <PUBCHEM_BOND_DEF_STEREO_COUNT>
0

> <PUBCHEM_BOND_UDEF_STEREO_COUNT>
0

> <PUBCHEM_ISOTOPIC_ATOM_COUNT>
0

> <PUBCHEM_COMPONENT_COUNT>
1

> <PUBCHEM_CACTVS_TAUTO_COUNT>
9

> <PUBCHEM_CONFORMER_ID>
0000167D00000001

> <PUBCHEM_MMFF94_ENERGY>
68.4596

> <PUBCHEM_FEATURE_SELFOVERLAP>
35.62

> <PUBCHEM_SHAPE_FINGERPRINT>
10 15 18262512710780645640
10411042 1 16969703283687688743
10616163 171 18338239395883154686
10967382 1 18410012100429229070
11132069 177 18409162216832884669
11578080 2 17201347718505248258
12011746 2 18410859841042374310
12107183 9 17690845558000159065
12236239 1 13470690338792453460
12251169 10 18335139816864396069
12403259 415 18410852127603240605
12403814 3 17530960289353343621
12500047 106 18271238421624861530
12592029 89 18334859377112304987
12788726 201 17703518696578858128
128620 24 11818992989152349105
13140716 1 18192429898953651512
13533116 47 17846218813073552003
13544592 145 18272379637759764926
13675066 3 18341893012844745609
14178342 30 18123731313450613666
14341114 176 18409738343777605753
14866123 147 17046555868986690930
15042514 8 18263932206156989787
15196674 1 18410012108982090935
15256400 18 18410857620686823693
15295992 7 17845930826899781123
15536298 74 18413671296627645270
1601671 61 18409168826940819996
16945 1 18266170819592368622
17349148 13 18412820287929204701
17804303 29 18410296916890392117
1813 80 16950285091842931756
18186145 218 17417805158171412875
19141452 34 18413108389914235807
192875 21 13830133918406568194
19591789 44 18192993725128068838
200 152 18131627885965453901
20028762 73 18272929458099065015
20261772 1 18410856577167961319
20510252 161 18341895147623301209
20645477 70 18200878374956666302
21033648 29 18271512131406579929
21267235 1 18337399244825179854
21279426 13 18124035632930519374
21421861 104 17895744090149736410
22854114 59 18412546505207311417
22892500 29 17274814788166584896
23184049 59 18410576175690384255
23402539 116 18342170081765240151
23557571 272 17773880972535682807
23558518 356 17682680979747269074
23559900 14 18413389822146813342
2748010 2 18337666399911122230
3004659 81 18260835844047909814
335352 9 18410013195572088855
34934 24 18411133675799850702
350125 39 18409735045496469133
351380 180 18409730664571278687
3545911 37 18411703192367818988
4214541 1 18409167684326479901
465052 167 17967541176940287083
495365 180 17346587600050392546
5104073 3 18409449150412323065
542803 24 17346883342628774985
59755656 215 18335983048405458773
69090 78 18341891905091661271
77779 3 18409450271409361990
7832392 63 18341046427736201710
9709674 26 18410862087368844367
9999458 23 17967819357476725574

> <PUBCHEM_SHAPE_MULTIPOLES>
399.85
9.72
2.11
0.84
3.73
0.39
0.22
-1.2
1.2
-0.24
-0.15
-0.38
-0.13
0.32

> <PUBCHEM_SHAPE_SELFOVERLAP>
871.414

> <PUBCHEM_SHAPE_VOLUME>
217.1

> <PUBCHEM_COORDINATE_TYPE>
2
5
10

> <Energy>
58.4396

> <minimizedAffinity>
-11.30668

> <CNNscore>
0.9822212458

> <CNNaffinity>
8.3500843048

> <CNN_VS>
8.2016305923

> <CNNaffinity_variance>
1.2792962790

$$$$
5757


 22 25  0  0  0  0  0  0  0  0999 V2000
   12.0239   43.4100  134.5902 O   0  0  0  0  0  0  0  0  0  0  0  0
    6.4555   50.9300  128.8772 O   0  0  0  0  0  0  0  0  0  0  0  0
   10.9139   44.9320  132.9993 C   0  0  0  0  0  0  0  0  0  0  0  0
   10.9506   44.9363  131.4578 C   0  0  0  0  0  0  0  0  0  0  0  0
    9.8651   45.8292  130.8571 C   0  0  0  0  0  0  0  0  0  0  0  0
   10.1051   47.2947  131.3316 C   0  0  0  0  0  0  0  0  0  0  0  0
   12.0454   43.9224  133.2723 C   0  0  0  0  0  0  0  0  0  0  0  0
   11.1914   46.3592  133.4871 C   0  0  0  0  0  0  0  0  0  0  0  0
   10.9822   43.4533  131.0991 C   0  0  0  0  0  0  0  0  0  0  0  0
   10.2045   47.3748  132.8791 C   0  0  0  0  0  0  0  0  0  0  0  0
   11.8181   42.8157  132.2241 C   0  0  0  0  0  0  0  0  0  0  0  0
    9.8561   45.7971  129.3276 C   0  0  0  0  0  0  0  0  0  0  0  0
    9.5834   44.4300  133.6165 C   0  0  0  0  0  0  0  0  0  0  0  0
    9.0999   48.2538  130.6958 C   0  0  0  0  0  0  0  0  0  0  0  0
    8.6648   46.5915  128.7977 C   0  0  0  0  0  0  0  0  0  0  0  0
    8.4627   47.9252  129.4789 C   0  0  0  0  0  0  0  0  0  0  0  0
    8.8530   49.5206  131.2550 C   0  0  0  0  0  0  0  0  0  0  0  0
    7.5657   48.8355  128.8894 C   0  0  0  0  0  0  0  0  0  0  0  0
    7.9685   50.4204  130.6557 C   0  0  0  0  0  0  0  0  0  0  0  0
    7.3269   50.0699  129.4795 C   0  0  0  0  0  0  0  0  0  0  0  0
   12.1697   44.1328  135.2206 H   0  0  0  0  0  0  0  0  0  0  0  0
    6.0271   50.6821  128.0816 H   0  0  0  0  0  0  0  0  0  0  0  0
  1  7  1  0
  1 21  1  0
  2 20  1  0
  2 22  1  0
  3  4  1  0
  3  7  1  0
  3  8  1  0
  3 13  1  0
  4  5  1  0
  4  9  1  0
  5  6  1  0
  5 12  1  0
  6 10  1  0
  6 14  1  0
  7 11  1  0
  8 10  1  0
  9 11  1  0
 12 15  1  0
 14 16  2  0
 14 17  1  0
 15 16  1  0
 16 18  1  0
 17 19  2  0
 18 20  2  0
 19 20  1  0
M  END
> <PUBCHEM_COMPOUND_CID>
5757

> <PUBCHEM_CONFORMER_RMSD>
0.6

> <PUBCHEM_CONFORMER_DIVERSEORDER>
1

> <PUBCHEM_MMFF94_PARTIAL_CHARGES>
16
1 -0.68
14 -0.14
15 0.14
16 -0.14
17 -0.15
18 -0.15
19 -0.15
2 -0.53
20 0.08
40 0.4
41 0.15
42 0.15
43 0.15
44 0.45
6 0.14
7 0.28

> <PUBCHEM_EFFECTIVE_ROTOR_COUNT>
1.4

> <PUBCHEM_PHARMACOPHORE_FEATURES>
7
1 1 acceptor
1 1 donor
1 2 donor
5 3 4 7 9 11 rings
6 14 16 17 18 19 20 rings
6 3 4 5 6 8 10 rings
6 5 6 12 14 15 16 rings

> <PUBCHEM_HEAVY_ATOM_COUNT>
20

> <PUBCHEM_ATOM_DEF_STEREO_COUNT>
5

> <PUBCHEM_ATOM_UDEF_STEREO_COUNT>
0

> <PUBCHEM_BOND_DEF_STEREO_COUNT>
0

> <PUBCHEM_BOND_UDEF_STEREO_COUNT>
0

> <PUBCHEM_ISOTOPIC_ATOM_COUNT>
0

> <PUBCHEM_COMPONENT_COUNT>
1

> <PUBCHEM_CACTVS_TAUTO_COUNT>
9

> <PUBCHEM_CONFORMER_ID>
0000167D00000001

> <PUBCHEM_MMFF94_ENERGY>
68.4596

> <PUBCHEM_FEATURE_SELFOVERLAP>
35.62

> <PUBCHEM_SHAPE_FINGERPRINT>
10 15 18262512710780645640
10411042 1 16969703283687688743
10616163 171 18338239395883154686
10967382 1 18410012100429229070
11132069 177 18409162216832884669
11578080 2 17201347718505248258
12011746 2 18410859841042374310
12107183 9 17690845558000159065
12236239 1 13470690338792453460
12251169 10 18335139816864396069
12403259 415 18410852127603240605
12403814 3 17530960289353343621
12500047 106 18271238421624861530
12592029 89 18334859377112304987
12788726 201 17703518696578858128
128620 24 11818992989152349105
13140716 1 18192429898953651512
13533116 47 17846218813073552003
13544592 145 18272379637759764926
13675066 3 18341893012844745609
14178342 30 18123731313450613666
14341114 176 18409738343777605753
14866123 147 17046555868986690930
15042514 8 18263932206156989787
15196674 1 18410012108982090935
15256400 18 18410857620686823693
15295992 7 17845930826899781123
15536298 74 18413671296627645270
1601671 61 18409168826940819996
16945 1 18266170819592368622
17349148 13 18412820287929204701
17804303 29 18410296916890392117
1813 80 16950285091842931756
18186145 218 17417805158171412875
19141452 34 18413108389914235807
192875 21 13830133918406568194
19591789 44 18192993725128068838
200 152 18131627885965453901
20028762 73 18272929458099065015
20261772 1 18410856577167961319
20510252 161 18341895147623301209
20645477 70 18200878374956666302
21033648 29 18271512131406579929
21267235 1 18337399244825179854
21279426 13 18124035632930519374
21421861 104 17895744090149736410
22854114 59 18412546505207311417
22892500 29 17274814788166584896
23184049 59 18410576175690384255
23402539 116 18342170081765240151
23557571 272 17773880972535682807
23558518 356 17682680979747269074
23559900 14 18413389822146813342
2748010 2 18337666399911122230
3004659 81 18260835844047909814
335352 9 18410013195572088855
34934 24 18411133675799850702
350125 39 18409735045496469133
351380 180 18409730664571278687
3545911 37 18411703192367818988
4214541 1 18409167684326479901
465052 167 17967541176940287083
495365 180 17346587600050392546
5104073 3 18409449150412323065
542803 24 17346883342628774985
59755656 215 18335983048405458773
69090 78 18341891905091661271
77779 3 18409450271409361990
7832392 63 18341046427736201710
9709674 26 18410862087368844367
9999458 23 17967819357476725574

> <PUBCHEM_SHAPE_MULTIPOLES>
399.85
9.72
2.11
0.84
3.73
0.39
0.22
-1.2
1.2
-0.24
-0.15
-0.38
-0.13
0.32

> <PUBCHEM_SHAPE_SELFOVERLAP>
871.414

> <PUBCHEM_SHAPE_VOLUME>
217.1

> <PUBCHEM_COORDINATE_TYPE>
2
5
10

> <Energy>
58.4396

> <minimizedAffinity>
-10.18096

> <CNNscore>
0.9426078796

> <CNNaffinity>
8.1782035828

> <CNN_VS>
7.7088389397

> <CNNaffinity_variance>
1.1872998476

$$$$
5757


 22 25  0  0  0  0  0  0  0  0999 V2000
    6.8581   51.2505  129.7015 O   0  0  0  0  0  0  0  0  0  0  0  0
   12.9397   42.6870  132.8443 O   0  0  0  0  0  0  0  0  0  0  0  0
    7.9143   49.1191  130.3506 C   0  0  0  0  0  0  0  0  0  0  0  0
    7.3153   47.6988  130.3868 C   0  0  0  0  0  0  0  0  0  0  0  0
    8.3916   46.6218  130.5212 C   0  0  0  0  0  0  0  0  0  0  0  0
    9.1512   46.8401  131.8650 C   0  0  0  0  0  0  0  0  0  0  0  0
    6.6199   49.9300  130.1479 C   0  0  0  0  0  0  0  0  0  0  0  0
    8.6301   49.3693  131.6835 C   0  0  0  0  0  0  0  0  0  0  0  0
    6.3814   47.6762  129.1801 C   0  0  0  0  0  0  0  0  0  0  0  0
    9.6923   48.2913  131.9749 C   0  0  0  0  0  0  0  0  0  0  0  0
    5.8250   49.1103  129.1127 C   0  0  0  0  0  0  0  0  0  0  0  0
    7.8130   45.2056  130.5017 C   0  0  0  0  0  0  0  0  0  0  0  0
    8.9010   49.3790  129.1834 C   0  0  0  0  0  0  0  0  0  0  0  0
   10.1875   45.7421  132.0995 C   0  0  0  0  0  0  0  0  0  0  0  0
    8.9452   44.1813  130.4945 C   0  0  0  0  0  0  0  0  0  0  0  0
   10.0516   44.4803  131.4795 C   0  0  0  0  0  0  0  0  0  0  0  0
   11.2478   45.9275  133.0049 C   0  0  0  0  0  0  0  0  0  0  0  0
   10.9966   43.4690  131.7340 C   0  0  0  0  0  0  0  0  0  0  0  0
   12.1743   44.9130  133.2578 C   0  0  0  0  0  0  0  0  0  0  0  0
   12.0453   43.6922  132.6169 C   0  0  0  0  0  0  0  0  0  0  0  0
    7.3590   51.7346  130.3765 H   0  0  0  0  0  0  0  0  0  0  0  0
   12.8426   41.8652  132.4050 H   0  0  0  0  0  0  0  0  0  0  0  0
  1  7  1  0
  1 21  1  0
  2 20  1  0
  2 22  1  0
  3  4  1  0
  3  7  1  0
  3  8  1  0
  3 13  1  0
  4  5  1  0
  4  9  1  0
  5  6  1  0
  5 12  1  0
  6 10  1  0
  6 14  1  0
  7 11  1  0
  8 10  1  0
  9 11  1  0
 12 15  1  0
 14 16  2  0
 14 17  1  0
 15 16  1  0
 16 18  1  0
 17 19  2  0
 18 20  2  0
 19 20  1  0
M  END
> <PUBCHEM_COMPOUND_CID>
5757

> <PUBCHEM_CONFORMER_RMSD>
0.6

> <PUBCHEM_CONFORMER_DIVERSEORDER>
1

> <PUBCHEM_MMFF94_PARTIAL_CHARGES>
16
1 -0.68
14 -0.14
15 0.14
16 -0.14
17 -0.15
18 -0.15
19 -0.15
2 -0.53
20 0.08
40 0.4
41 0.15
42 0.15
43 0.15
44 0.45
6 0.14
7 0.28

> <PUBCHEM_EFFECTIVE_ROTOR_COUNT>
1.4

> <PUBCHEM_PHARMACOPHORE_FEATURES>
7
1 1 acceptor
1 1 donor
1 2 donor
5 3 4 7 9 11 rings
6 14 16 17 18 19 20 rings
6 3 4 5 6 8 10 rings
6 5 6 12 14 15 16 rings

> <PUBCHEM_HEAVY_ATOM_COUNT>
20

> <PUBCHEM_ATOM_DEF_STEREO_COUNT>
5

> <PUBCHEM_ATOM_UDEF_STEREO_COUNT>
0

> <PUBCHEM_BOND_DEF_STEREO_COUNT>
0

> <PUBCHEM_BOND_UDEF_STEREO_COUNT>
0

> <PUBCHEM_ISOTOPIC_ATOM_COUNT>
0

> <PUBCHEM_COMPONENT_COUNT>
1

> <PUBCHEM_CACTVS_TAUTO_COUNT>
9

> <PUBCHEM_CONFORMER_ID>
0000167D00000001

> <PUBCHEM_MMFF94_ENERGY>
68.4596

> <PUBCHEM_FEATURE_SELFOVERLAP>
35.62

> <PUBCHEM_SHAPE_FINGERPRINT>
10 15 18262512710780645640
10411042 1 16969703283687688743
10616163 171 18338239395883154686
10967382 1 18410012100429229070
11132069 177 18409162216832884669
11578080 2 17201347718505248258
12011746 2 18410859841042374310
12107183 9 17690845558000159065
12236239 1 13470690338792453460
12251169 10 18335139816864396069
12403259 415 18410852127603240605
12403814 3 17530960289353343621
12500047 106 18271238421624861530
12592029 89 18334859377112304987
12788726 201 17703518696578858128
128620 24 11818992989152349105
13140716 1 18192429898953651512
13533116 47 17846218813073552003
13544592 145 18272379637759764926
13675066 3 18341893012844745609
14178342 30 18123731313450613666
14341114 176 18409738343777605753
14866123 147 17046555868986690930
15042514 8 18263932206156989787
15196674 1 18410012108982090935
15256400 18 18410857620686823693
15295992 7 17845930826899781123
15536298 74 18413671296627645270
1601671 61 18409168826940819996
16945 1 18266170819592368622
17349148 13 18412820287929204701
17804303 29 18410296916890392117
1813 80 16950285091842931756
18186145 218 17417805158171412875
19141452 34 18413108389914235807
192875 21 13830133918406568194
19591789 44 18192993725128068838
200 152 18131627885965453901
20028762 73 18272929458099065015
20261772 1 18410856577167961319
20510252 161 18341895147623301209
20645477 70 18200878374956666302
21033648 29 18271512131406579929
21267235 1 18337399244825179854
21279426 13 18124035632930519374
21421861 104 17895744090149736410
22854114 59 18412546505207311417
22892500 29 17274814788166584896
23184049 59 18410576175690384255
23402539 116 18342170081765240151
23557571 272 17773880972535682807
23558518 356 17682680979747269074
23559900 14 18413389822146813342
2748010 2 18337666399911122230
3004659 81 18260835844047909814
335352 9 18410013195572088855
34934 24 18411133675799850702
350125 39 18409735045496469133
351380 180 18409730664571278687
3545911 37 18411703192367818988
4214541 1 18409167684326479901
465052 167 17967541176940287083
495365 180 17346587600050392546
5104073 3 18409449150412323065
542803 24 17346883342628774985
59755656 215 18335983048405458773
69090 78 18341891905091661271
77779 3 18409450271409361990
7832392 63 18341046427736201710
9709674 26 18410862087368844367
9999458 23 17967819357476725574

> <PUBCHEM_SHAPE_MULTIPOLES>
399.85
9.72
2.11
0.84
3.73
0.39
0.22
-1.2
1.2
-0.24
-0.15
-0.38
-0.13
0.32

> <PUBCHEM_SHAPE_SELFOVERLAP>
871.414

> <PUBCHEM_SHAPE_VOLUME>
217.1

> <PUBCHEM_COORDINATE_TYPE>
2
5
10

> <Energy>
58.4396

> <minimizedAffinity>
-9.36358

> <CNNscore>
0.6186286807

> <CNNaffinity>
7.5076498985

> <CNN_VS>
4.6444473267

> <CNNaffinity_variance>
0.8527602553

$$$$
5757


 22 25  0  0  0  0  0  0  0  0999 V2000
    6.6192   50.4615  128.5966 O   0  0  0  0  0  0  0  0  0  0  0  0
   11.3347   41.2462  132.2074 O   0  0  0  0  0  0  0  0  0  0  0  0
    7.8784   48.6146  129.6373 C   0  0  0  0  0  0  0  0  0  0  0  0
    8.9486   48.6599  130.7463 C   0  0  0  0  0  0  0  0  0  0  0  0
    9.2299   47.2770  131.3337 C   0  0  0  0  0  0  0  0  0  0  0  0
    9.7738   46.3546  130.2006 C   0  0  0  0  0  0  0  0  0  0  0  0
    7.7855   50.1194  129.3195 C   0  0  0  0  0  0  0  0  0  0  0  0
    8.4137   47.7455  128.4928 C   0  0  0  0  0  0  0  0  0  0  0  0
    8.4617   49.7774  131.6644 C   0  0  0  0  0  0  0  0  0  0  0  0
    8.8144   46.3394  128.9798 C   0  0  0  0  0  0  0  0  0  0  0  0
    7.8197   50.7954  130.7041 C   0  0  0  0  0  0  0  0  0  0  0  0
   10.2495   47.3179  132.4736 C   0  0  0  0  0  0  0  0  0  0  0  0
    6.4975   48.0730  130.0880 C   0  0  0  0  0  0  0  0  0  0  0  0
   10.1551   44.9780  130.7430 C   0  0  0  0  0  0  0  0  0  0  0  0
   10.3767   45.9348  133.1075 C   0  0  0  0  0  0  0  0  0  0  0  0
   10.4782   44.8066  132.1072 C   0  0  0  0  0  0  0  0  0  0  0  0
   10.2821   43.8706  129.8851 C   0  0  0  0  0  0  0  0  0  0  0  0
   10.8610   43.5385  132.5828 C   0  0  0  0  0  0  0  0  0  0  0  0
   10.6729   42.6188  130.3662 C   0  0  0  0  0  0  0  0  0  0  0  0
   10.9549   42.4599  131.7128 C   0  0  0  0  0  0  0  0  0  0  0  0
    6.6325   50.0192  127.7334 H   0  0  0  0  0  0  0  0  0  0  0  0
   11.5230   41.1505  133.1203 H   0  0  0  0  0  0  0  0  0  0  0  0
  1  7  1  0
  1 21  1  0
  2 20  1  0
  2 22  1  0
  3  4  1  0
  3  7  1  0
  3  8  1  0
  3 13  1  0
  4  5  1  0
  4  9  1  0
  5  6  1  0
  5 12  1  0
  6 10  1  0
  6 14  1  0
  7 11  1  0
  8 10  1  0
  9 11  1  0
 12 15  1  0
 14 16  2  0
 14 17  1  0
 15 16  1  0
 16 18  1  0
 17 19  2  0
 18 20  2  0
 19 20  1  0
M  END
> <PUBCHEM_COMPOUND_CID>
5757

> <PUBCHEM_CONFORMER_RMSD>
0.6

> <PUBCHEM_CONFORMER_DIVERSEORDER>
1

> <PUBCHEM_MMFF94_PARTIAL_CHARGES>
16
1 -0.68
14 -0.14
15 0.14
16 -0.14
17 -0.15
18 -0.15
19 -0.15
2 -0.53
20 0.08
40 0.4
41 0.15
42 0.15
43 0.15
44 0.45
6 0.14
7 0.28

> <PUBCHEM_EFFECTIVE_ROTOR_COUNT>
1.4

> <PUBCHEM_PHARMACOPHORE_FEATURES>
7
1 1 acceptor
1 1 donor
1 2 donor
5 3 4 7 9 11 rings
6 14 16 17 18 19 20 rings
6 3 4 5 6 8 10 rings
6 5 6 12 14 15 16 rings

> <PUBCHEM_HEAVY_ATOM_COUNT>
20

> <PUBCHEM_ATOM_DEF_STEREO_COUNT>
5

> <PUBCHEM_ATOM_UDEF_STEREO_COUNT>
0

> <PUBCHEM_BOND_DEF_STEREO_COUNT>
0

> <PUBCHEM_BOND_UDEF_STEREO_COUNT>
0

> <PUBCHEM_ISOTOPIC_ATOM_COUNT>
0

> <PUBCHEM_COMPONENT_COUNT>
1

> <PUBCHEM_CACTVS_TAUTO_COUNT>
9

> <PUBCHEM_CONFORMER_ID>
0000167D00000001

> <PUBCHEM_MMFF94_ENERGY>
68.4596

> <PUBCHEM_FEATURE_SELFOVERLAP>
35.62

> <PUBCHEM_SHAPE_FINGERPRINT>
10 15 18262512710780645640
10411042 1 16969703283687688743
10616163 171 18338239395883154686
10967382 1 18410012100429229070
11132069 177 18409162216832884669
11578080 2 17201347718505248258
12011746 2 18410859841042374310
12107183 9 17690845558000159065
12236239 1 13470690338792453460
12251169 10 18335139816864396069
12403259 415 18410852127603240605
12403814 3 17530960289353343621
12500047 106 18271238421624861530
12592029 89 18334859377112304987
12788726 201 17703518696578858128
128620 24 11818992989152349105
13140716 1 18192429898953651512
13533116 47 17846218813073552003
13544592 145 18272379637759764926
13675066 3 18341893012844745609
14178342 30 18123731313450613666
14341114 176 18409738343777605753
14866123 147 17046555868986690930
15042514 8 18263932206156989787
15196674 1 18410012108982090935
15256400 18 18410857620686823693
15295992 7 17845930826899781123
15536298 74 18413671296627645270
1601671 61 18409168826940819996
16945 1 18266170819592368622
17349148 13 18412820287929204701
17804303 29 18410296916890392117
1813 80 16950285091842931756
18186145 218 17417805158171412875
19141452 34 18413108389914235807
192875 21 13830133918406568194
19591789 44 18192993725128068838
200 152 18131627885965453901
20028762 73 18272929458099065015
20261772 1 18410856577167961319
20510252 161 18341895147623301209
20645477 70 18200878374956666302
21033648 29 18271512131406579929
21267235 1 18337399244825179854
21279426 13 18124035632930519374
21421861 104 17895744090149736410
22854114 59 18412546505207311417
22892500 29 17274814788166584896
23184049 59 18410576175690384255
23402539 116 18342170081765240151
23557571 272 17773880972535682807
23558518 356 17682680979747269074
23559900 14 18413389822146813342
2748010 2 18337666399911122230
3004659 81 18260835844047909814
335352 9 18410013195572088855
34934 24 18411133675799850702
350125 39 18409735045496469133
351380 180 18409730664571278687
3545911 37 18411703192367818988
4214541 1 18409167684326479901
465052 167 17967541176940287083
495365 180 17346587600050392546
5104073 3 18409449150412323065
542803 24 17346883342628774985
59755656 215 18335983048405458773
69090 78 18341891905091661271
77779 3 18409450271409361990
7832392 63 18341046427736201710
9709674 26 18410862087368844367
9999458 23 17967819357476725574

> <PUBCHEM_SHAPE_MULTIPOLES>
399.85
9.72
2.11
0.84
3.73
0.39
0.22
-1.2
1.2
-0.24
-0.15
-0.38
-0.13
0.32

> <PUBCHEM_SHAPE_SELFOVERLAP>
871.414

> <PUBCHEM_SHAPE_VOLUME>
217.1

> <PUBCHEM_COORDINATE_TYPE>
2
5
10

> <Energy>
58.4396

> <minimizedAffinity>
-6.63713

> <CNNscore>
0.5211078525

> <CNNaffinity>
7.6106925011

> <CNN_VS>
3.9659917355

> <CNNaffinity_variance>
1.5026659966

$$$$
5757


 22 25  0  0  0  0  0  0  0  0999 V2000
    5.8358   48.2762  127.8450 O   0  0  0  0  0  0  0  0  0  0  0  0
   13.1383   43.3095  134.3412 O   0  0  0  0  0  0  0  0  0  0  0  0
    7.5695   47.5072  129.4205 C   0  0  0  0  0  0  0  0  0  0  0  0
    8.4726   48.3286  130.3625 C   0  0  0  0  0  0  0  0  0  0  0  0
    9.1659   47.4531  131.4061 C   0  0  0  0  0  0  0  0  0  0  0  0
   10.0767   46.4244  130.6693 C   0  0  0  0  0  0  0  0  0  0  0  0
    6.9907   48.6533  128.5688 C   0  0  0  0  0  0  0  0  0  0  0  0
    8.4550   46.5174  128.6537 C   0  0  0  0  0  0  0  0  0  0  0  0
    7.5645   49.4649  130.8238 C   0  0  0  0  0  0  0  0  0  0  0  0
    9.2755   45.6257  129.6058 C   0  0  0  0  0  0  0  0  0  0  0  0
    6.6866   49.7628  129.5944 C   0  0  0  0  0  0  0  0  0  0  0  0
   10.0207   48.2647  132.3814 C   0  0  0  0  0  0  0  0  0  0  0  0
    6.4283   46.7316  130.1270 C   0  0  0  0  0  0  0  0  0  0  0  0
   10.8648   45.5721  131.6627 C   0  0  0  0  0  0  0  0  0  0  0  0
   10.5662   47.3529  133.4779 C   0  0  0  0  0  0  0  0  0  0  0  0
   11.1234   46.0437  132.9687 C   0  0  0  0  0  0  0  0  0  0  0  0
   11.4279   44.3426  131.2759 C   0  0  0  0  0  0  0  0  0  0  0  0
   11.8807   45.2605  133.8596 C   0  0  0  0  0  0  0  0  0  0  0  0
   12.1868   43.5781  132.1654 C   0  0  0  0  0  0  0  0  0  0  0  0
   12.4039   44.0399  133.4529 C   0  0  0  0  0  0  0  0  0  0  0  0
    6.0648   47.5784  127.2113 H   0  0  0  0  0  0  0  0  0  0  0  0
   13.2787   43.6318  135.2098 H   0  0  0  0  0  0  0  0  0  0  0  0
  1  7  1  0
  1 21  1  0
  2 20  1  0
  2 22  1  0
  3  4  1  0
  3  7  1  0
  3  8  1  0
  3 13  1  0
  4  5  1  0
  4  9  1  0
  5  6  1  0
  5 12  1  0
  6 10  1  0
  6 14  1  0
  7 11  1  0
  8 10  1  0
  9 11  1  0
 12 15  1  0
 14 16  2  0
 14 17  1  0
 15 16  1  0
 16 18  1  0
 17 19  2  0
 18 20  2  0
 19 20  1  0
M  END
> <PUBCHEM_COMPOUND_CID>
5757

> <PUBCHEM_CONFORMER_RMSD>
0.6

> <PUBCHEM_CONFORMER_DIVERSEORDER>
1

> <PUBCHEM_MMFF94_PARTIAL_CHARGES>
16
1 -0.68
14 -0.14
15 0.14
16 -0.14
17 -0.15
18 -0.15
19 -0.15
2 -0.53
20 0.08
40 0.4
41 0.15
42 0.15
43 0.15
44 0.45
6 0.14
7 0.28

> <PUBCHEM_EFFECTIVE_ROTOR_COUNT>
1.4

> <PUBCHEM_PHARMACOPHORE_FEATURES>
7
1 1 acceptor
1 1 donor
1 2 donor
5 3 4 7 9 11 rings
6 14 16 17 18 19 20 rings
6 3 4 5 6 8 10 rings
6 5 6 12 14 15 16 rings

> <PUBCHEM_HEAVY_ATOM_COUNT>
20

> <PUBCHEM_ATOM_DEF_STEREO_COUNT>
5

> <PUBCHEM_ATOM_UDEF_STEREO_COUNT>
0

> <PUBCHEM_BOND_DEF_STEREO_COUNT>
0

> <PUBCHEM_BOND_UDEF_STEREO_COUNT>
0

> <PUBCHEM_ISOTOPIC_ATOM_COUNT>
0

> <PUBCHEM_COMPONENT_COUNT>
1

> <PUBCHEM_CACTVS_TAUTO_COUNT>
9

> <PUBCHEM_CONFORMER_ID>
0000167D00000001

> <PUBCHEM_MMFF94_ENERGY>
68.4596

> <PUBCHEM_FEATURE_SELFOVERLAP>
35.62

> <PUBCHEM_SHAPE_FINGERPRINT>
10 15 18262512710780645640
10411042 1 16969703283687688743
10616163 171 18338239395883154686
10967382 1 18410012100429229070
11132069 177 18409162216832884669
11578080 2 17201347718505248258
12011746 2 18410859841042374310
12107183 9 17690845558000159065
12236239 1 13470690338792453460
12251169 10 18335139816864396069
12403259 415 18410852127603240605
12403814 3 17530960289353343621
12500047 106 18271238421624861530
12592029 89 18334859377112304987
12788726 201 17703518696578858128
128620 24 11818992989152349105
13140716 1 18192429898953651512
13533116 47 17846218813073552003
13544592 145 18272379637759764926
13675066 3 18341893012844745609
14178342 30 18123731313450613666
14341114 176 18409738343777605753
14866123 147 17046555868986690930
15042514 8 18263932206156989787
15196674 1 18410012108982090935
15256400 18 18410857620686823693
15295992 7 17845930826899781123
15536298 74 18413671296627645270
1601671 61 18409168826940819996
16945 1 18266170819592368622
17349148 13 18412820287929204701
17804303 29 18410296916890392117
1813 80 16950285091842931756
18186145 218 17417805158171412875
19141452 34 18413108389914235807
192875 21 13830133918406568194
19591789 44 18192993725128068838
200 152 18131627885965453901
20028762 73 18272929458099065015
20261772 1 18410856577167961319
20510252 161 18341895147623301209
20645477 70 18200878374956666302
21033648 29 18271512131406579929
21267235 1 18337399244825179854
21279426 13 18124035632930519374
21421861 104 17895744090149736410
22854114 59 18412546505207311417
22892500 29 17274814788166584896
23184049 59 18410576175690384255
23402539 116 18342170081765240151
23557571 272 17773880972535682807
23558518 356 17682680979747269074
23559900 14 18413389822146813342
2748010 2 18337666399911122230
3004659 81 18260835844047909814
335352 9 18410013195572088855
34934 24 18411133675799850702
350125 39 18409735045496469133
351380 180 18409730664571278687
3545911 37 18411703192367818988
4214541 1 18409167684326479901
465052 167 17967541176940287083
495365 180 17346587600050392546
5104073 3 18409449150412323065
542803 24 17346883342628774985
59755656 215 18335983048405458773
69090 78 18341891905091661271
77779 3 18409450271409361990
7832392 63 18341046427736201710
9709674 26 18410862087368844367
9999458 23 17967819357476725574

> <PUBCHEM_SHAPE_MULTIPOLES>
399.85
9.72
2.11
0.84
3.73
0.39
0.22
-1.2
1.2
-0.24
-0.15
-0.38
-0.13
0.32

> <PUBCHEM_SHAPE_SELFOVERLAP>
871.414

> <PUBCHEM_SHAPE_VOLUME>
217.1

> <PUBCHEM_COORDINATE_TYPE>
2
5
10

> <Energy>
58.4396

> <minimizedAffinity>
-8.80523

> <CNNscore>
0.4436907768

> <CNNaffinity>
7.3624215126

> <CNN_VS>
3.2666385174

> <CNNaffinity_variance>
0.6986148953

$$$$
5757


 22 25  0  0  0  0  0  0  0  0999 V2000
   12.9802   43.6753  132.2281 O   0  0  0  0  0  0  0  0  0  0  0  0
    4.9555   50.8588  130.1795 O   0  0  0  0  0  0  0  0  0  0  0  0
   11.2297   45.2037  131.4040 C   0  0  0  0  0  0  0  0  0  0  0  0
   10.7588   45.4676  129.9596 C   0  0  0  0  0  0  0  0  0  0  0  0
    9.4339   46.2287  129.9146 C   0  0  0  0  0  0  0  0  0  0  0  0
    9.6312   47.6152  130.5996 C   0  0  0  0  0  0  0  0  0  0  0  0
   12.5048   44.3919  131.1054 C   0  0  0  0  0  0  0  0  0  0  0  0
   11.4712   46.5578  132.0821 C   0  0  0  0  0  0  0  0  0  0  0  0
   10.8560   44.0959  129.2980 C   0  0  0  0  0  0  0  0  0  0  0  0
   10.2211   47.4573  132.0272 C   0  0  0  0  0  0  0  0  0  0  0  0
   12.0868   43.4495  129.9598 C   0  0  0  0  0  0  0  0  0  0  0  0
    8.9286   46.4470  128.4871 C   0  0  0  0  0  0  0  0  0  0  0  0
   10.2484   44.3680  132.2653 C   0  0  0  0  0  0  0  0  0  0  0  0
    8.3618   48.4611  130.5123 C   0  0  0  0  0  0  0  0  0  0  0  0
    7.5402   47.0812  128.5181 C   0  0  0  0  0  0  0  0  0  0  0  0
    7.4075   48.2237  129.4984 C   0  0  0  0  0  0  0  0  0  0  0  0
    8.1556   49.5504  131.3779 C   0  0  0  0  0  0  0  0  0  0  0  0
    6.2607   49.0349  129.4115 C   0  0  0  0  0  0  0  0  0  0  0  0
    7.0186   50.3554  131.2760 C   0  0  0  0  0  0  0  0  0  0  0  0
    6.0763   50.0892  130.2966 C   0  0  0  0  0  0  0  0  0  0  0  0
   13.2331   44.2991  132.9265 H   0  0  0  0  0  0  0  0  0  0  0  0
    4.3247   50.6693  129.5131 H   0  0  0  0  0  0  0  0  0  0  0  0
  1  7  1  0
  1 21  1  0
  2 20  1  0
  2 22  1  0
  3  4  1  0
  3  7  1  0
  3  8  1  0
  3 13  1  0
  4  5  1  0
  4  9  1  0
  5  6  1  0
  5 12  1  0
  6 10  1  0
  6 14  1  0
  7 11  1  0
  8 10  1  0
  9 11  1  0
 12 15  1  0
 14 16  2  0
 14 17  1  0
 15 16  1  0
 16 18  1  0
 17 19  2  0
 18 20  2  0
 19 20  1  0
M  END
> <PUBCHEM_COMPOUND_CID>
5757

> <PUBCHEM_CONFORMER_RMSD>
0.6

> <PUBCHEM_CONFORMER_DIVERSEORDER>
1

> <PUBCHEM_MMFF94_PARTIAL_CHARGES>
16
1 -0.68
14 -0.14
15 0.14
16 -0.14
17 -0.15
18 -0.15
19 -0.15
2 -0.53
20 0.08
40 0.4
41 0.15
42 0.15
43 0.15
44 0.45
6 0.14
7 0.28

> <PUBCHEM_EFFECTIVE_ROTOR_COUNT>
1.4

> <PUBCHEM_PHARMACOPHORE_FEATURES>
7
1 1 acceptor
1 1 donor
1 2 donor
5 3 4 7 9 11 rings
6 14 16 17 18 19 20 rings
6 3 4 5 6 8 10 rings
6 5 6 12 14 15 16 rings

> <PUBCHEM_HEAVY_ATOM_COUNT>
20

> <PUBCHEM_ATOM_DEF_STEREO_COUNT>
5

> <PUBCHEM_ATOM_UDEF_STEREO_COUNT>
0

> <PUBCHEM_BOND_DEF_STEREO_COUNT>
0

> <PUBCHEM_BOND_UDEF_STEREO_COUNT>
0

> <PUBCHEM_ISOTOPIC_ATOM_COUNT>
0

> <PUBCHEM_COMPONENT_COUNT>
1

> <PUBCHEM_CACTVS_TAUTO_COUNT>
9

> <PUBCHEM_CONFORMER_ID>
0000167D00000001

> <PUBCHEM_MMFF94_ENERGY>
68.4596

> <PUBCHEM_FEATURE_SELFOVERLAP>
35.62

> <PUBCHEM_SHAPE_FINGERPRINT>
10 15 18262512710780645640
10411042 1 16969703283687688743
10616163 171 18338239395883154686
10967382 1 18410012100429229070
11132069 177 18409162216832884669
11578080 2 17201347718505248258
12011746 2 18410859841042374310
12107183 9 17690845558000159065
12236239 1 13470690338792453460
12251169 10 18335139816864396069
12403259 415 18410852127603240605
12403814 3 17530960289353343621
12500047 106 18271238421624861530
12592029 89 18334859377112304987
12788726 201 17703518696578858128
128620 24 11818992989152349105
13140716 1 18192429898953651512
13533116 47 17846218813073552003
13544592 145 18272379637759764926
13675066 3 18341893012844745609
14178342 30 18123731313450613666
14341114 176 18409738343777605753
14866123 147 17046555868986690930
15042514 8 18263932206156989787
15196674 1 18410012108982090935
15256400 18 18410857620686823693
15295992 7 17845930826899781123
15536298 74 18413671296627645270
1601671 61 18409168826940819996
16945 1 18266170819592368622
17349148 13 18412820287929204701
17804303 29 18410296916890392117
1813 80 16950285091842931756
18186145 218 17417805158171412875
19141452 34 18413108389914235807
192875 21 13830133918406568194
19591789 44 18192993725128068838
200 152 18131627885965453901
20028762 73 18272929458099065015
20261772 1 18410856577167961319
20510252 161 18341895147623301209
20645477 70 18200878374956666302
21033648 29 18271512131406579929
21267235 1 18337399244825179854
21279426 13 18124035632930519374
21421861 104 17895744090149736410
22854114 59 18412546505207311417
22892500 29 17274814788166584896
23184049 59 18410576175690384255
23402539 116 18342170081765240151
23557571 272 17773880972535682807
23558518 356 17682680979747269074
23559900 14 18413389822146813342
2748010 2 18337666399911122230
3004659 81 18260835844047909814
335352 9 18410013195572088855
34934 24 18411133675799850702
350125 39 18409735045496469133
351380 180 18409730664571278687
3545911 37 18411703192367818988
4214541 1 18409167684326479901
465052 167 17967541176940287083
495365 180 17346587600050392546
5104073 3 18409449150412323065
542803 24 17346883342628774985
59755656 215 18335983048405458773
69090 78 18341891905091661271
77779 3 18409450271409361990
7832392 63 18341046427736201710
9709674 26 18410862087368844367
9999458 23 17967819357476725574

> <PUBCHEM_SHAPE_MULTIPOLES>
399.85
9.72
2.11
0.84
3.73
0.39
0.22
-1.2
1.2
-0.24
-0.15
-0.38
-0.13
0.32

> <PUBCHEM_SHAPE_SELFOVERLAP>
871.414

> <PUBCHEM_SHAPE_VOLUME>
217.1

> <PUBCHEM_COORDINATE_TYPE>
2
5
10

> <Energy>
58.4396

> <minimizedAffinity>
-4.01173

> <CNNscore>
0.3580679595

> <CNNaffinity>
6.9165077209

> <CNN_VS>
2.4765799046

> <CNNaffinity_variance>
0.8851561546

$$$$
5757


 22 25  0  0  0  0  0  0  0  0999 V2000
    6.2337   49.3988  129.3489 O   0  0  0  0  0  0  0  0  0  0  0  0
   13.5562   43.1341  134.5766 O   0  0  0  0  0  0  0  0  0  0  0  0
    7.9340   47.8236  130.1898 C   0  0  0  0  0  0  0  0  0  0  0  0
    8.7278   46.7407  129.4318 C   0  0  0  0  0  0  0  0  0  0  0  0
    9.9133   46.2195  130.2438 C   0  0  0  0  0  0  0  0  0  0  0  0
    9.3736   45.5686  131.5536 C   0  0  0  0  0  0  0  0  0  0  0  0
    6.8917   48.1702  129.1093 C   0  0  0  0  0  0  0  0  0  0  0  0
    7.3578   47.1901  131.4620 C   0  0  0  0  0  0  0  0  0  0  0  0
    8.9775   47.3740  128.0660 C   0  0  0  0  0  0  0  0  0  0  0  0
    8.4571   46.5505  132.3324 C   0  0  0  0  0  0  0  0  0  0  0  0
    7.7073   48.2032  127.8019 C   0  0  0  0  0  0  0  0  0  0  0  0
   10.7413   45.1849  129.4791 C   0  0  0  0  0  0  0  0  0  0  0  0
    8.7535   49.0829  130.5714 C   0  0  0  0  0  0  0  0  0  0  0  0
   10.5065   44.9513  132.3721 C   0  0  0  0  0  0  0  0  0  0  0  0
   11.9838   44.8143  130.2854 C   0  0  0  0  0  0  0  0  0  0  0  0
   11.7136   44.5618  131.7506 C   0  0  0  0  0  0  0  0  0  0  0  0
   10.3432   44.6726  133.7411 C   0  0  0  0  0  0  0  0  0  0  0  0
   12.7332   43.9628  132.5137 C   0  0  0  0  0  0  0  0  0  0  0  0
   11.3582   44.0682  134.4866 C   0  0  0  0  0  0  0  0  0  0  0  0
   12.5483   43.7219  133.8689 C   0  0  0  0  0  0  0  0  0  0  0  0
    5.7322   49.3409  130.1772 H   0  0  0  0  0  0  0  0  0  0  0  0
   14.3572   42.9041  134.1483 H   0  0  0  0  0  0  0  0  0  0  0  0
  1  7  1  0
  1 21  1  0
  2 20  1  0
  2 22  1  0
  3  4  1  0
  3  7  1  0
  3  8  1  0
  3 13  1  0
  4  5  1  0
  4  9  1  0
  5  6  1  0
  5 12  1  0
  6 10  1  0
  6 14  1  0
  7 11  1  0
  8 10  1  0
  9 11  1  0
 12 15  1  0
 14 16  2  0
 14 17  1  0
 15 16  1  0
 16 18  1  0
 17 19  2  0
 18 20  2  0
 19 20  1  0
M  END
> <PUBCHEM_COMPOUND_CID>
5757

> <PUBCHEM_CONFORMER_RMSD>
0.6

> <PUBCHEM_CONFORMER_DIVERSEORDER>
1

> <PUBCHEM_MMFF94_PARTIAL_CHARGES>
16
1 -0.68
14 -0.14
15 0.14
16 -0.14
17 -0.15
18 -0.15
19 -0.15
2 -0.53
20 0.08
40 0.4
41 0.15
42 0.15
43 0.15
44 0.45
6 0.14
7 0.28

> <PUBCHEM_EFFECTIVE_ROTOR_COUNT>
1.4

> <PUBCHEM_PHARMACOPHORE_FEATURES>
7
1 1 acceptor
1 1 donor
1 2 donor
5 3 4 7 9 11 rings
6 14 16 17 18 19 20 rings
6 3 4 5 6 8 10 rings
6 5 6 12 14 15 16 rings

> <PUBCHEM_HEAVY_ATOM_COUNT>
20

> <PUBCHEM_ATOM_DEF_STEREO_COUNT>
5

> <PUBCHEM_ATOM_UDEF_STEREO_COUNT>
0

> <PUBCHEM_BOND_DEF_STEREO_COUNT>
0

> <PUBCHEM_BOND_UDEF_STEREO_COUNT>
0

> <PUBCHEM_ISOTOPIC_ATOM_COUNT>
0

> <PUBCHEM_COMPONENT_COUNT>
1

> <PUBCHEM_CACTVS_TAUTO_COUNT>
9

> <PUBCHEM_CONFORMER_ID>
0000167D00000001

> <PUBCHEM_MMFF94_ENERGY>
68.4596

> <PUBCHEM_FEATURE_SELFOVERLAP>
35.62

> <PUBCHEM_SHAPE_FINGERPRINT>
10 15 18262512710780645640
10411042 1 16969703283687688743
10616163 171 18338239395883154686
10967382 1 18410012100429229070
11132069 177 18409162216832884669
11578080 2 17201347718505248258
12011746 2 18410859841042374310
12107183 9 17690845558000159065
12236239 1 13470690338792453460
12251169 10 18335139816864396069
12403259 415 18410852127603240605
12403814 3 17530960289353343621
12500047 106 18271238421624861530
12592029 89 18334859377112304987
12788726 201 17703518696578858128
128620 24 11818992989152349105
13140716 1 18192429898953651512
13533116 47 17846218813073552003
13544592 145 18272379637759764926
13675066 3 18341893012844745609
14178342 30 18123731313450613666
14341114 176 18409738343777605753
14866123 147 17046555868986690930
15042514 8 18263932206156989787
15196674 1 18410012108982090935
15256400 18 18410857620686823693
15295992 7 17845930826899781123
15536298 74 18413671296627645270
1601671 61 18409168826940819996
16945 1 18266170819592368622
17349148 13 18412820287929204701
17804303 29 18410296916890392117
1813 80 16950285091842931756
18186145 218 17417805158171412875
19141452 34 18413108389914235807
192875 21 13830133918406568194
19591789 44 18192993725128068838
200 152 18131627885965453901
20028762 73 18272929458099065015
20261772 1 18410856577167961319
20510252 161 18341895147623301209
20645477 70 18200878374956666302
21033648 29 18271512131406579929
21267235 1 18337399244825179854
21279426 13 18124035632930519374
21421861 104 17895744090149736410
22854114 59 18412546505207311417
22892500 29 17274814788166584896
23184049 59 18410576175690384255
23402539 116 18342170081765240151
23557571 272 17773880972535682807
23558518 356 17682680979747269074
23559900 14 18413389822146813342
2748010 2 18337666399911122230
3004659 81 18260835844047909814
335352 9 18410013195572088855
34934 24 18411133675799850702
350125 39 18409735045496469133
351380 180 18409730664571278687
3545911 37 18411703192367818988
4214541 1 18409167684326479901
465052 167 17967541176940287083
495365 180 17346587600050392546
5104073 3 18409449150412323065
542803 24 17346883342628774985
59755656 215 18335983048405458773
69090 78 18341891905091661271
77779 3 18409450271409361990
7832392 63 18341046427736201710
9709674 26 18410862087368844367
9999458 23 17967819357476725574

> <PUBCHEM_SHAPE_MULTIPOLES>
399.85
9.72
2.11
0.84
3.73
0.39
0.22
-1.2
1.2
-0.24
-0.15
-0.38
-0.13
0.32

> <PUBCHEM_SHAPE_SELFOVERLAP>
871.414

> <PUBCHEM_SHAPE_VOLUME>
217.1

> <PUBCHEM_COORDINATE_TYPE>
2
5
10

> <Energy>
58.4396

> <minimizedAffinity>
-3.37962

> <CNNscore>
0.3456331491

> <CNNaffinity>
6.9437279701

> <CNN_VS>
2.3999824524

> <CNNaffinity_variance>
0.7611762881

$$$$
5757


 22 25  0  0  0  0  0  0  0  0999 V2000
    6.3759   51.3507  129.3870 O   0  0  0  0  0  0  0  0  0  0  0  0
    9.7197   41.9278  133.8839 O   0  0  0  0  0  0  0  0  0  0  0  0
    7.4601   49.4051  130.4446 C   0  0  0  0  0  0  0  0  0  0  0  0
    8.8959   49.2570  130.9867 C   0  0  0  0  0  0  0  0  0  0  0  0
    9.0578   48.0129  131.8599 C   0  0  0  0  0  0  0  0  0  0  0  0
    8.7560   46.7524  130.9937 C   0  0  0  0  0  0  0  0  0  0  0  0
    7.6147   50.7407  129.6922 C   0  0  0  0  0  0  0  0  0  0  0  0
    7.1593   48.1938  129.5535 C   0  0  0  0  0  0  0  0  0  0  0  0
    9.1952   50.6309  131.5798 C   0  0  0  0  0  0  0  0  0  0  0  0
    7.3696   46.8641  130.3035 C   0  0  0  0  0  0  0  0  0  0  0  0
    8.4611   51.6086  130.6438 C   0  0  0  0  0  0  0  0  0  0  0  0
   10.4640   47.8861  132.4491 C   0  0  0  0  0  0  0  0  0  0  0  0
    6.3631   49.5241  131.5335 C   0  0  0  0  0  0  0  0  0  0  0  0
    8.9831   45.4675  131.7885 C   0  0  0  0  0  0  0  0  0  0  0  0
   10.5168   46.7090  133.4201 C   0  0  0  0  0  0  0  0  0  0  0  0
    9.8500   45.4550  132.9036 C   0  0  0  0  0  0  0  0  0  0  0  0
    8.4096   44.2504  131.3784 C   0  0  0  0  0  0  0  0  0  0  0  0
   10.0747   44.2548  133.6033 C   0  0  0  0  0  0  0  0  0  0  0  0
    8.6478   43.0629  132.0744 C   0  0  0  0  0  0  0  0  0  0  0  0
    9.4749   43.0740  133.1852 C   0  0  0  0  0  0  0  0  0  0  0  0
    5.8721   50.7777  128.7880 H   0  0  0  0  0  0  0  0  0  0  0  0
   10.2810   41.9472  134.6340 H   0  0  0  0  0  0  0  0  0  0  0  0
  1  7  1  0
  1 21  1  0
  2 20  1  0
  2 22  1  0
  3  4  1  0
  3  7  1  0
  3  8  1  0
  3 13  1  0
  4  5  1  0
  4  9  1  0
  5  6  1  0
  5 12  1  0
  6 10  1  0
  6 14  1  0
  7 11  1  0
  8 10  1  0
  9 11  1  0
 12 15  1  0
 14 16  2  0
 14 17  1  0
 15 16  1  0
 16 18  1  0
 17 19  2  0
 18 20  2  0
 19 20  1  0
M  END
> <PUBCHEM_COMPOUND_CID>
5757

> <PUBCHEM_CONFORMER_RMSD>
0.6

> <PUBCHEM_CONFORMER_DIVERSEORDER>
1

> <PUBCHEM_MMFF94_PARTIAL_CHARGES>
16
1 -0.68
14 -0.14
15 0.14
16 -0.14
17 -0.15
18 -0.15
19 -0.15
2 -0.53
20 0.08
40 0.4
41 0.15
42 0.15
43 0.15
44 0.45
6 0.14
7 0.28

> <PUBCHEM_EFFECTIVE_ROTOR_COUNT>
1.4

> <PUBCHEM_PHARMACOPHORE_FEATURES>
7
1 1 acceptor
1 1 donor
1 2 donor
5 3 4 7 9 11 rings
6 14 16 17 18 19 20 rings
6 3 4 5 6 8 10 rings
6 5 6 12 14 15 16 rings

> <PUBCHEM_HEAVY_ATOM_COUNT>
20

> <PUBCHEM_ATOM_DEF_STEREO_COUNT>
5

> <PUBCHEM_ATOM_UDEF_STEREO_COUNT>
0

> <PUBCHEM_BOND_DEF_STEREO_COUNT>
0

> <PUBCHEM_BOND_UDEF_STEREO_COUNT>
0

> <PUBCHEM_ISOTOPIC_ATOM_COUNT>
0

> <PUBCHEM_COMPONENT_COUNT>
1

> <PUBCHEM_CACTVS_TAUTO_COUNT>
9

> <PUBCHEM_CONFORMER_ID>
0000167D00000001

> <PUBCHEM_MMFF94_ENERGY>
68.4596

> <PUBCHEM_FEATURE_SELFOVERLAP>
35.62

> <PUBCHEM_SHAPE_FINGERPRINT>
10 15 18262512710780645640
10411042 1 16969703283687688743
10616163 171 18338239395883154686
10967382 1 18410012100429229070
11132069 177 18409162216832884669
11578080 2 17201347718505248258
12011746 2 18410859841042374310
12107183 9 17690845558000159065
12236239 1 13470690338792453460
12251169 10 18335139816864396069
12403259 415 18410852127603240605
12403814 3 17530960289353343621
12500047 106 18271238421624861530
12592029 89 18334859377112304987
12788726 201 17703518696578858128
128620 24 11818992989152349105
13140716 1 18192429898953651512
13533116 47 17846218813073552003
13544592 145 18272379637759764926
13675066 3 18341893012844745609
14178342 30 18123731313450613666
14341114 176 18409738343777605753
14866123 147 17046555868986690930
15042514 8 18263932206156989787
15196674 1 18410012108982090935
15256400 18 18410857620686823693
15295992 7 17845930826899781123
15536298 74 18413671296627645270
1601671 61 18409168826940819996
16945 1 18266170819592368622
17349148 13 18412820287929204701
17804303 29 18410296916890392117
1813 80 16950285091842931756
18186145 218 17417805158171412875
19141452 34 18413108389914235807
192875 21 13830133918406568194
19591789 44 18192993725128068838
200 152 18131627885965453901
20028762 73 18272929458099065015
20261772 1 18410856577167961319
20510252 161 18341895147623301209
20645477 70 18200878374956666302
21033648 29 18271512131406579929
21267235 1 18337399244825179854
21279426 13 18124035632930519374
21421861 104 17895744090149736410
22854114 59 18412546505207311417
22892500 29 17274814788166584896
23184049 59 18410576175690384255
23402539 116 18342170081765240151
23557571 272 17773880972535682807
23558518 356 17682680979747269074
23559900 14 18413389822146813342
2748010 2 18337666399911122230
3004659 81 18260835844047909814
335352 9 18410013195572088855
34934 24 18411133675799850702
350125 39 18409735045496469133
351380 180 18409730664571278687
3545911 37 18411703192367818988
4214541 1 18409167684326479901
465052 167 17967541176940287083
495365 180 17346587600050392546
5104073 3 18409449150412323065
542803 24 17346883342628774985
59755656 215 18335983048405458773
69090 78 18341891905091661271
77779 3 18409450271409361990
7832392 63 18341046427736201710
9709674 26 18410862087368844367
9999458 23 17967819357476725574

> <PUBCHEM_SHAPE_MULTIPOLES>
399.85
9.72
2.11
0.84
3.73
0.39
0.22
-1.2
1.2
-0.24
-0.15
-0.38
-0.13
0.32

> <PUBCHEM_SHAPE_SELFOVERLAP>
871.414

> <PUBCHEM_SHAPE_VOLUME>
217.1

> <PUBCHEM_COORDINATE_TYPE>
2
5
10

> <Energy>
58.4396

> <minimizedAffinity>
-0.87818

> <CNNscore>
0.2222685218

> <CNNaffinity>
6.9024486542

> <CNN_VS>
1.5341970921

> <CNNaffinity_variance>
1.1148014069

$$$$
5757


 22 25  0  0  0  0  0  0  0  0999 V2000
   11.7568   43.2417  134.3542 O   0  0  0  0  0  0  0  0  0  0  0  0
    4.9214   48.2201  127.3765 O   0  0  0  0  0  0  0  0  0  0  0  0
   10.4541   44.6561  132.8108 C   0  0  0  0  0  0  0  0  0  0  0  0
   10.7343   46.0919  132.3234 C   0  0  0  0  0  0  0  0  0  0  0  0
    9.8692   46.4726  131.1220 C   0  0  0  0  0  0  0  0  0  0  0  0
    8.3704   46.4102  131.5464 C   0  0  0  0  0  0  0  0  0  0  0  0
   11.4974   44.5692  133.9414 C   0  0  0  0  0  0  0  0  0  0  0  0
    8.9939   44.5858  133.2739 C   0  0  0  0  0  0  0  0  0  0  0  0
   12.2542   46.1326  132.1933 C   0  0  0  0  0  0  0  0  0  0  0  0
    8.0192   45.0305  132.1661 C   0  0  0  0  0  0  0  0  0  0  0  0
   12.7507   45.2381  133.3439 C   0  0  0  0  0  0  0  0  0  0  0  0
   10.1785   47.8751  130.5948 C   0  0  0  0  0  0  0  0  0  0  0  0
   10.7100   43.5497  131.7555 C   0  0  0  0  0  0  0  0  0  0  0  0
    7.4544   46.8630  130.4104 C   0  0  0  0  0  0  0  0  0  0  0  0
    9.3873   48.1359  129.3153 C   0  0  0  0  0  0  0  0  0  0  0  0
    7.9388   47.7115  129.3904 C   0  0  0  0  0  0  0  0  0  0  0  0
    6.0896   46.5230  130.4004 C   0  0  0  0  0  0  0  0  0  0  0  0
    7.0722   48.1471  128.3707 C   0  0  0  0  0  0  0  0  0  0  0  0
    5.2361   46.9695  129.3887 C   0  0  0  0  0  0  0  0  0  0  0  0
    5.7343   47.7745  128.3779 C   0  0  0  0  0  0  0  0  0  0  0  0
   10.9480   42.8541  134.7236 H   0  0  0  0  0  0  0  0  0  0  0  0
    5.2694   48.7642  126.6977 H   0  0  0  0  0  0  0  0  0  0  0  0
  1  7  1  0
  1 21  1  0
  2 20  1  0
  2 22  1  0
  3  4  1  0
  3  7  1  0
  3  8  1  0
  3 13  1  0
  4  5  1  0
  4  9  1  0
  5  6  1  0
  5 12  1  0
  6 10  1  0
  6 14  1  0
  7 11  1  0
  8 10  1  0
  9 11  1  0
 12 15  1  0
 14 16  2  0
 14 17  1  0
 15 16  1  0
 16 18  1  0
 17 19  2  0
 18 20  2  0
 19 20  1  0
M  END
> <PUBCHEM_COMPOUND_CID>
5757

> <PUBCHEM_CONFORMER_RMSD>
0.6

> <PUBCHEM_CONFORMER_DIVERSEORDER>
1

> <PUBCHEM_MMFF94_PARTIAL_CHARGES>
16
1 -0.68
14 -0.14
15 0.14
16 -0.14
17 -0.15
18 -0.15
19 -0.15
2 -0.53
20 0.08
40 0.4
41 0.15
42 0.15
43 0.15
44 0.45
6 0.14
7 0.28

> <PUBCHEM_EFFECTIVE_ROTOR_COUNT>
1.4

> <PUBCHEM_PHARMACOPHORE_FEATURES>
7
1 1 acceptor
1 1 donor
1 2 donor
5 3 4 7 9 11 rings
6 14 16 17 18 19 20 rings
6 3 4 5 6 8 10 rings
6 5 6 12 14 15 16 rings

> <PUBCHEM_HEAVY_ATOM_COUNT>
20

> <PUBCHEM_ATOM_DEF_STEREO_COUNT>
5

> <PUBCHEM_ATOM_UDEF_STEREO_COUNT>
0

> <PUBCHEM_BOND_DEF_STEREO_COUNT>
0

> <PUBCHEM_BOND_UDEF_STEREO_COUNT>
0

> <PUBCHEM_ISOTOPIC_ATOM_COUNT>
0

> <PUBCHEM_COMPONENT_COUNT>
1

> <PUBCHEM_CACTVS_TAUTO_COUNT>
9

> <PUBCHEM_CONFORMER_ID>
0000167D00000001

> <PUBCHEM_MMFF94_ENERGY>
68.4596

> <PUBCHEM_FEATURE_SELFOVERLAP>
35.62

> <PUBCHEM_SHAPE_FINGERPRINT>
10 15 18262512710780645640
10411042 1 16969703283687688743
10616163 171 18338239395883154686
10967382 1 18410012100429229070
11132069 177 18409162216832884669
11578080 2 17201347718505248258
12011746 2 18410859841042374310
12107183 9 17690845558000159065
12236239 1 13470690338792453460
12251169 10 18335139816864396069
12403259 415 18410852127603240605
12403814 3 17530960289353343621
12500047 106 18271238421624861530
12592029 89 18334859377112304987
12788726 201 17703518696578858128
128620 24 11818992989152349105
13140716 1 18192429898953651512
13533116 47 17846218813073552003
13544592 145 18272379637759764926
13675066 3 18341893012844745609
14178342 30 18123731313450613666
14341114 176 18409738343777605753
14866123 147 17046555868986690930
15042514 8 18263932206156989787
15196674 1 18410012108982090935
15256400 18 18410857620686823693
15295992 7 17845930826899781123
15536298 74 18413671296627645270
1601671 61 18409168826940819996
16945 1 18266170819592368622
17349148 13 18412820287929204701
17804303 29 18410296916890392117
1813 80 16950285091842931756
18186145 218 17417805158171412875
19141452 34 18413108389914235807
192875 21 13830133918406568194
19591789 44 18192993725128068838
200 152 18131627885965453901
20028762 73 18272929458099065015
20261772 1 18410856577167961319
20510252 161 18341895147623301209
20645477 70 18200878374956666302
21033648 29 18271512131406579929
21267235 1 18337399244825179854
21279426 13 18124035632930519374
21421861 104 17895744090149736410
22854114 59 18412546505207311417
22892500 29 17274814788166584896
23184049 59 18410576175690384255
23402539 116 18342170081765240151
23557571 272 17773880972535682807
23558518 356 17682680979747269074
23559900 14 18413389822146813342
2748010 2 18337666399911122230
3004659 81 18260835844047909814
335352 9 18410013195572088855
34934 24 18411133675799850702
350125 39 18409735045496469133
351380 180 18409730664571278687
3545911 37 18411703192367818988
4214541 1 18409167684326479901
465052 167 17967541176940287083
495365 180 17346587600050392546
5104073 3 18409449150412323065
542803 24 17346883342628774985
59755656 215 18335983048405458773
69090 78 18341891905091661271
77779 3 18409450271409361990
7832392 63 18341046427736201710
9709674 26 18410862087368844367
9999458 23 17967819357476725574

> <PUBCHEM_SHAPE_MULTIPOLES>
399.85
9.72
2.11
0.84
3.73
0.39
0.22
-1.2
1.2
-0.24
-0.15
-0.38
-0.13
0.32

> <PUBCHEM_SHAPE_SELFOVERLAP>
871.414

> <PUBCHEM_SHAPE_VOLUME>
217.1

> <PUBCHEM_COORDINATE_TYPE>
2
5
10

> <Energy>
58.4396

> <minimizedAffinity>
-5.52997

> <CNNscore>
0.1650127321

> <CNNaffinity>
6.7812209129

> <CNN_VS>
1.1189877987

> <CNNaffinity_variance>
1.0996350050

$$$$
