
     RDKit          3D

 20 21  0  0  0  0  0  0  0  0999 V2000
    5.3970   -3.0840   -6.1700 C   0  0  0  0  0  0  0  0  0  0  0  0
    5.8180   -2.0660   -5.1530 C   0  0  0  0  0  0  0  0  0  0  0  0
    5.0590   -0.7450   -5.2310 C   0  0  0  0  0  0  0  0  0  0  0  0
    3.5590   -0.8980   -5.0640 C   0  0  0  0  0  0  0  0  0  0  0  0
    2.9720   -0.9970   -3.7920 C   0  0  0  0  0  0  0  0  0  0  0  0
    1.5760   -1.1710   -3.6570 C   0  0  0  0  0  0  0  0  0  0  0  0
    0.7810   -1.2440   -4.8000 C   0  0  0  0  0  0  0  0  0  0  0  0
   -0.5870   -1.4440   -4.7290 O   0  0  0  0  0  0  0  0  0  0  0  0
    1.3510   -1.1440   -6.0710 C   0  0  0  0  0  0  0  0  0  0  0  0
    2.7290   -0.9730   -6.1850 C   0  0  0  0  0  0  0  0  0  0  0  0
    5.6330    0.4260   -5.4430 C   0  0  0  0  0  0  0  0  0  0  0  0
    7.1080    0.5490   -5.8150 C   0  0  0  0  0  0  0  0  0  0  0  0
    7.5360    0.3040   -7.1250 C   0  0  0  0  0  0  0  0  0  0  0  0
    8.8860    0.4380   -7.4820 C   0  0  0  0  0  0  0  0  0  0  0  0
    9.8190    0.8170   -6.5220 C   0  0  0  0  0  0  0  0  0  0  0  0
   11.1610    0.9440   -6.8290 O   0  0  0  0  0  0  0  0  0  0  0  0
    9.4220    1.0690   -5.2040 C   0  0  0  0  0  0  0  0  0  0  0  0
    8.0630    0.9280   -4.8680 C   0  0  0  0  0  0  0  0  0  0  0  0
    4.8990    1.7680   -5.4010 C   0  0  0  0  0  0  0  0  0  0  0  0
    4.9700    2.4780   -4.0720 C   0  0  0  0  0  0  0  0  0  0  0  0
  2  1  1  0
  3  2  1  0
  4  3  1  0
  5  4  1  0
  6  5  1  0
  7  6  1  0
  8  7  1  0
  9  7  1  0
 10  9  1  0
 10  4  1  0
 11  3  1  0
 12 11  1  0
 13 12  1  0
 14 13  1  0
 15 14  1  0
 16 15  1  0
 17 15  1  0
 18 12  1  0
 18 17  1  0
 19 11  1  0
 20 19  1  0
M  END
$$$$
