
     RDKit          3D

 20 23  0  0  0  0  0  0  0  0999 V2000
  104.0100   17.3780   24.9290 C   0  0  0  0  0  0  0  0  0  0  0  0
  102.8460   17.9870   25.5110 C   0  0  0  0  0  0  0  0  0  0  0  0
  101.5290   17.4880   25.1790 C   0  0  0  0  0  0  0  0  0  0  0  0
  100.3780   18.0690   25.7290 O   0  0  0  0  0  0  0  0  0  0  0  0
  101.3860   16.3980   24.2750 C   0  0  0  0  0  0  0  0  0  0  0  0
  102.5170   15.7810   23.6850 C   0  0  0  0  0  0  0  0  0  0  0  0
  102.2810   14.6270   22.7180 C   0  0  0  0  0  0  0  0  0  0  0  0
  103.5620   13.9870   22.0720 C   0  0  0  0  0  0  0  0  0  0  0  0
  104.8120   14.0540   22.9540 C   0  0  2  0  0  0  0  0  0  0  0  0
  105.1190   15.5650   23.3380 C   0  0  1  0  0  0  0  0  0  0  0  0
  103.8780   16.2620   24.0080 C   0  0  0  0  0  0  0  0  0  0  0  0
  106.4090   15.5880   24.2050 C   0  0  0  0  0  0  0  0  0  0  0  0
  107.6470   14.9140   23.5370 C   0  0  0  0  0  0  0  0  0  0  0  0
  107.3650   13.4590   23.1300 C   0  0  1  0  0  0  0  0  0  0  0  0
  106.0610   13.4280   22.2360 C   0  0  1  0  0  0  0  0  0  0  0  0
  106.0620   11.9820   21.7250 C   0  0  0  0  0  0  0  0  0  0  0  0
  107.5710   11.7490   21.3410 C   0  0  0  0  0  0  0  0  0  0  0  0
  108.3520   12.8450   22.1120 C   0  0  2  0  0  0  0  0  0  0  0  0
  109.5470   12.2750   22.6740 O   0  0  0  0  0  0  0  0  0  0  0  0
  107.3140   12.5550   24.4260 C   0  0  0  0  0  0  0  0  0  0  0  0
  2  1  1  0
  3  2  1  0
  4  3  1  0
  5  3  1  0
  6  5  1  0
  7  6  1  0
  8  7  1  0
  9  8  1  6
 10  9  1  0
 11  6  1  0
 11 10  1  0
 11  1  1  0
 10 12  1  1
 13 12  1  0
 14 13  1  0
 15 14  1  0
 15  9  1  0
 15 16  1  1
 17 16  1  0
 18 17  1  0
 18 14  1  0
 18 19  1  1
 14 20  1  1
M  END
$$$$
