5757
 OpenBabel03172616503D

 44 47  0  0  1  0  0  0  0  0999 V2000
    5.0611    1.1503    0.2670 O   0  0  0  0  0  0  0  0  0  0  0  0
   -5.8538    0.1351    0.4403 O   0  0  0  0  0  0  0  0  0  0  0  0
    2.6643    0.5839    0.1481 C   0  0  1  0  0  0  0  0  0  0  0  0
    1.9839   -0.6955   -0.3789 C   0  0  2  0  0  0  0  0  0  0  0  0
    0.5150   -0.7805    0.0353 C   0  0  1  0  0  0  0  0  0  0  0  0
   -0.2467    0.4356   -0.5742 C   0  0  2  0  0  0  0  0  0  0  0  0
    4.0950    0.3350   -0.3669 C   0  0  2  0  0  0  0  0  0  0  0  0
    1.9556    1.7926   -0.4752 C   0  0  0  0  0  0  0  0  0  0  0  0
    2.9439   -1.8060    0.0382 C   0  0  0  0  0  0  0  0  0  0  0  0
    0.4402    1.7756   -0.1954 C   0  0  0  0  0  0  0  0  0  0  0  0
    4.3365   -1.1613   -0.0875 C   0  0  0  0  0  0  0  0  0  0  0  0
   -0.1553   -2.0730   -0.4345 C   0  0  0  0  0  0  0  0  0  0  0  0
    2.6653    0.7312    1.6913 C   0  0  0  0  0  0  0  0  0  0  0  0
   -1.7414    0.3632   -0.2660 C   0  0  0  0  0  0  0  0  0  0  0  0
   -1.5706   -2.1604    0.1315 C   0  0  0  0  0  0  0  0  0  0  0  0
   -2.3574   -0.8748    0.0221 C   0  0  0  0  0  0  0  0  0  0  0  0
   -2.5552    1.5073   -0.3503 C   0  0  0  0  0  0  0  0  0  0  0  0
   -3.7418   -0.9280    0.2695 C   0  0  0  0  0  0  0  0  0  0  0  0
   -3.9302    1.4411   -0.1129 C   0  0  0  0  0  0  0  0  0  0  0  0
   -4.5135    0.2247    0.2003 C   0  0  0  0  0  0  0  0  0  0  0  0
    4.8777    2.0821    0.0694 H   0  0  0  0  0  0  0  0  0  0  0  0
   -6.2376   -0.6932    0.6514 H   0  0  0  0  0  0  0  0  0  0  0  0
    1.8531   -0.7510   -1.4394 H   0  0  0  0  0  0  0  0  0  0  0  0
    0.4773   -0.7705    1.1046 H   0  0  0  0  0  0  0  0  0  0  0  0
   -0.1864    0.3902   -1.6415 H   0  0  0  0  0  0  0  0  0  0  0  0
    4.1903    0.5853   -1.4028 H   0  0  0  0  0  0  0  0  0  0  0  0
    2.1124    1.7781   -1.5335 H   0  0  0  0  0  0  0  0  0  0  0  0
    2.3643    2.6794   -0.0375 H   0  0  0  0  0  0  0  0  0  0  0  0
    2.8553   -2.6500   -0.6135 H   0  0  0  0  0  0  0  0  0  0  0  0
    2.7470   -2.1718    1.0243 H   0  0  0  0  0  0  0  0  0  0  0  0
    0.2871    1.9509    0.8490 H   0  0  0  0  0  0  0  0  0  0  0  0
    0.0000    2.5371   -0.8047 H   0  0  0  0  0  0  0  0  0  0  0  0
    4.8857   -1.2846    0.8225 H   0  0  0  0  0  0  0  0  0  0  0  0
    4.9073   -1.6164   -0.8698 H   0  0  0  0  0  0  0  0  0  0  0  0
    0.4150   -2.9122   -0.0947 H   0  0  0  0  0  0  0  0  0  0  0  0
   -0.2028   -2.0766   -1.5034 H   0  0  0  0  0  0  0  0  0  0  0  0
    3.1592   -0.1108    2.1296 H   0  0  0  0  0  0  0  0  0  0  0  0
    1.6568    0.7774    2.0459 H   0  0  0  0  0  0  0  0  0  0  0  0
    3.1806    1.6285    1.9637 H   0  0  0  0  0  0  0  0  0  0  0  0
   -1.5035   -2.4266    1.1657 H   0  0  0  0  0  0  0  0  0  0  0  0
   -2.0916   -2.8923   -0.4497 H   0  0  0  0  0  0  0  0  0  0  0  0
   -2.1275    2.4147   -0.5925 H   0  0  0  0  0  0  0  0  0  0  0  0
   -4.1864   -1.8293    0.5039 H   0  0  0  0  0  0  0  0  0  0  0  0
   -4.5083    2.2940   -0.1707 H   0  0  0  0  0  0  0  0  0  0  0  0
  1  7  1  0  0  0  0
  1 21  1  0  0  0  0
  2 20  1  0  0  0  0
  2 22  1  0  0  0  0
  3  4  1  0  0  0  0
  3  7  1  0  0  0  0
  3  8  1  0  0  0  0
  3 13  1  1  0  0  0
  4  5  1  0  0  0  0
  4  9  1  0  0  0  0
  4 23  1  6  0  0  0
  5  6  1  0  0  0  0
  5 12  1  0  0  0  0
  5 24  1  1  0  0  0
  6 10  1  0  0  0  0
  6 14  1  0  0  0  0
  6 25  1  6  0  0  0
  7 11  1  0  0  0  0
  7 26  1  6  0  0  0
  8 10  1  0  0  0  0
  8 27  1  0  0  0  0
  8 28  1  0  0  0  0
  9 11  1  0  0  0  0
  9 29  1  0  0  0  0
  9 30  1  0  0  0  0
 10 31  1  0  0  0  0
 10 32  1  0  0  0  0
 11 33  1  0  0  0  0
 11 34  1  0  0  0  0
 12 15  1  0  0  0  0
 12 35  1  0  0  0  0
 12 36  1  0  0  0  0
 13 37  1  0  0  0  0
 13 38  1  0  0  0  0
 13 39  1  0  0  0  0
 14 16  2  0  0  0  0
 14 17  1  0  0  0  0
 15 16  1  0  0  0  0
 15 40  1  0  0  0  0
 15 41  1  0  0  0  0
 16 18  1  0  0  0  0
 17 19  2  0  0  0  0
 17 42  1  0  0  0  0
 18 20  2  0  0  0  0
 18 43  1  0  0  0  0
 19 20  1  0  0  0  0
 19 44  1  0  0  0  0
M  END
>  <PUBCHEM_COMPOUND_CID>
5757

>  <PUBCHEM_CONFORMER_RMSD>
0.6

>  <PUBCHEM_CONFORMER_DIVERSEORDER>
1

>  <PUBCHEM_MMFF94_PARTIAL_CHARGES>
16
1 -0.68
14 -0.14
15 0.14
16 -0.14
17 -0.15
18 -0.15
19 -0.15
2 -0.53
20 0.08
40 0.4
41 0.15
42 0.15
43 0.15
44 0.45
6 0.14
7 0.28

>  <PUBCHEM_EFFECTIVE_ROTOR_COUNT>
1.4

>  <PUBCHEM_PHARMACOPHORE_FEATURES>
7
1 1 acceptor
1 1 donor
1 2 donor
5 3 4 7 9 11 rings
6 14 16 17 18 19 20 rings
6 3 4 5 6 8 10 rings
6 5 6 12 14 15 16 rings

>  <PUBCHEM_HEAVY_ATOM_COUNT>
20

>  <PUBCHEM_ATOM_DEF_STEREO_COUNT>
5

>  <PUBCHEM_ATOM_UDEF_STEREO_COUNT>
0

>  <PUBCHEM_BOND_DEF_STEREO_COUNT>
0

>  <PUBCHEM_BOND_UDEF_STEREO_COUNT>
0

>  <PUBCHEM_ISOTOPIC_ATOM_COUNT>
0

>  <PUBCHEM_COMPONENT_COUNT>
1

>  <PUBCHEM_CACTVS_TAUTO_COUNT>
9

>  <PUBCHEM_CONFORMER_ID>
0000167D00000001

>  <PUBCHEM_MMFF94_ENERGY>
68.4596

>  <PUBCHEM_FEATURE_SELFOVERLAP>
35.62

>  <PUBCHEM_SHAPE_FINGERPRINT>
10 15 18262512710780645640
10411042 1 16969703283687688743
10616163 171 18338239395883154686
10967382 1 18410012100429229070
11132069 177 18409162216832884669
11578080 2 17201347718505248258
12011746 2 18410859841042374310
12107183 9 17690845558000159065
12236239 1 13470690338792453460
12251169 10 18335139816864396069
12403259 415 18410852127603240605
12403814 3 17530960289353343621
12500047 106 18271238421624861530
12592029 89 18334859377112304987
12788726 201 17703518696578858128
128620 24 11818992989152349105
13140716 1 18192429898953651512
13533116 47 17846218813073552003
13544592 145 18272379637759764926
13675066 3 18341893012844745609
14178342 30 18123731313450613666
14341114 176 18409738343777605753
14866123 147 17046555868986690930
15042514 8 18263932206156989787
15196674 1 18410012108982090935
15256400 18 18410857620686823693
15295992 7 17845930826899781123
15536298 74 18413671296627645270
1601671 61 18409168826940819996
16945 1 18266170819592368622
17349148 13 18412820287929204701
17804303 29 18410296916890392117
1813 80 16950285091842931756
18186145 218 17417805158171412875
19141452 34 18413108389914235807
192875 21 13830133918406568194
19591789 44 18192993725128068838
200 152 18131627885965453901
20028762 73 18272929458099065015
20261772 1 18410856577167961319
20510252 161 18341895147623301209
20645477 70 18200878374956666302
21033648 29 18271512131406579929
21267235 1 18337399244825179854
21279426 13 18124035632930519374
21421861 104 17895744090149736410
22854114 59 18412546505207311417
22892500 29 17274814788166584896
23184049 59 18410576175690384255
23402539 116 18342170081765240151
23557571 272 17773880972535682807
23558518 356 17682680979747269074
23559900 14 18413389822146813342
2748010 2 18337666399911122230
3004659 81 18260835844047909814
335352 9 18410013195572088855
34934 24 18411133675799850702
350125 39 18409735045496469133
351380 180 18409730664571278687
3545911 37 18411703192367818988
4214541 1 18409167684326479901
465052 167 17967541176940287083
495365 180 17346587600050392546
5104073 3 18409449150412323065
542803 24 17346883342628774985
59755656 215 18335983048405458773
69090 78 18341891905091661271
77779 3 18409450271409361990
7832392 63 18341046427736201710
9709674 26 18410862087368844367
9999458 23 17967819357476725574

>  <PUBCHEM_SHAPE_MULTIPOLES>
399.85
9.72
2.11
0.84
3.73
0.39
0.22
-1.2
1.2
-0.24
-0.15
-0.38
-0.13
0.32

>  <PUBCHEM_SHAPE_SELFOVERLAP>
871.414

>  <PUBCHEM_SHAPE_VOLUME>
217.1

>  <PUBCHEM_COORDINATE_TYPE>
2
5
10

>  <Energy>
58.4396

$$$$
