73437615
  -OEChem-01262620403D

 58 61  0     0  0  0  0  0  0999 V2000
    5.7087   -0.4219   -0.4769 O   0  0  0  0  0  0  0  0  0  0  0  0
   -4.9472    0.6814   -0.1132 O   0  0  0  0  0  0  0  0  0  0  0  0
    1.1839   -1.0423   -0.4554 N   0  0  0  0  0  0  0  0  0  0  0  0
   -5.0914   -1.4294    0.7885 N   0  0  0  0  0  0  0  0  0  0  0  0
    3.2004    1.6838    1.2256 C   0  0  0  0  0  0  0  0  0  0  0  0
    1.9108    1.1820    0.5121 C   0  0  0  0  0  0  0  0  0  0  0  0
    4.4556    1.4717    0.3305 C   0  0  0  0  0  0  0  0  0  0  0  0
    2.1562   -0.1432   -0.1154 C   0  0  0  0  0  0  0  0  0  0  0  0
    3.3790   -0.6790   -0.4570 C   0  0  0  0  0  0  0  0  0  0  0  0
    4.6063    0.0491   -0.2110 C   0  0  0  0  0  0  0  0  0  0  0  0
    3.0488    3.1883    1.5181 C   0  0  0  0  0  0  0  0  0  0  0  0
    3.3869    0.9536    2.5727 C   0  0  0  0  0  0  0  0  0  0  0  0
    3.1383   -1.9562   -1.0165 C   0  0  0  0  0  0  0  0  0  0  0  0
    1.7728   -2.1542   -1.0049 C   0  0  0  0  0  0  0  0  0  0  0  0
   -0.1926   -0.8805   -0.2893 C   0  0  0  0  0  0  0  0  0  0  0  0
   -2.2246    0.3430   -0.7563 C   0  0  0  0  0  0  0  0  0  0  0  0
   -2.2928   -1.6357    0.6570 C   0  0  0  0  0  0  0  0  0  0  0  0
   -0.8488    0.1777   -0.9162 C   0  0  0  0  0  0  0  0  0  0  0  0
   -0.9096   -1.7808    0.4994 C   0  0  0  0  0  0  0  0  0  0  0  0
   -2.9463   -0.5622    0.0289 C   0  0  0  0  0  0  0  0  0  0  0  0
   -2.8400    1.5225   -1.4388 C   0  0  0  0  0  0  0  0  0  0  0  0
    4.1430   -2.9111   -1.5241 C   0  0  0  0  0  0  0  0  0  0  0  0
   -3.0629   -2.5770    1.5422 C   0  0  0  0  0  0  0  0  0  0  0  0
   -2.8526    2.8154   -0.5894 C   0  0  0  0  0  0  0  0  0  0  0  0
   -4.4841   -2.7234    1.0247 C   0  0  0  0  0  0  0  0  0  0  0  0
   -4.4077   -0.3703    0.2170 C   0  0  0  0  0  0  0  0  0  0  0  0
   -1.4389    3.2548   -0.2003 C   0  0  0  0  0  0  0  0  0  0  0  0
   -3.5511    3.9438   -1.3520 C   0  0  0  0  0  0  0  0  0  0  0  0
    1.6294    1.8906   -0.2773 H   0  0  0  0  0  0  0  0  0  0  0  0
    1.0836    1.1406    1.2302 H   0  0  0  0  0  0  0  0  0  0  0  0
    5.3648    1.7201    0.8914 H   0  0  0  0  0  0  0  0  0  0  0  0
    4.4126    2.1365   -0.5419 H   0  0  0  0  0  0  0  0  0  0  0  0
    3.9310    3.5821    2.0352 H   0  0  0  0  0  0  0  0  0  0  0  0
    2.1750    3.3816    2.1507 H   0  0  0  0  0  0  0  0  0  0  0  0
    2.9227    3.7616    0.5928 H   0  0  0  0  0  0  0  0  0  0  0  0
    4.2764    1.3199    3.0978 H   0  0  0  0  0  0  0  0  0  0  0  0
    3.5031   -0.1275    2.4458 H   0  0  0  0  0  0  0  0  0  0  0  0
    2.5252    1.1167    3.2300 H   0  0  0  0  0  0  0  0  0  0  0  0
    1.1804   -2.9935   -1.3474 H   0  0  0  0  0  0  0  0  0  0  0  0
   -0.2861    0.8661   -1.5434 H   0  0  0  0  0  0  0  0  0  0  0  0
   -0.3980   -2.5992    1.0021 H   0  0  0  0  0  0  0  0  0  0  0  0
   -3.8205    1.2935   -1.8680 H   0  0  0  0  0  0  0  0  0  0  0  0
   -2.2520    1.7315   -2.3467 H   0  0  0  0  0  0  0  0  0  0  0  0
    4.7246   -2.4634   -2.3365 H   0  0  0  0  0  0  0  0  0  0  0  0
    3.6731   -3.8210   -1.9118 H   0  0  0  0  0  0  0  0  0  0  0  0
    4.8326   -3.2051   -0.7262 H   0  0  0  0  0  0  0  0  0  0  0  0
   -2.5859   -3.5629    1.5758 H   0  0  0  0  0  0  0  0  0  0  0  0
   -3.0678   -2.1676    2.5597 H   0  0  0  0  0  0  0  0  0  0  0  0
   -3.4111    2.6425    0.3384 H   0  0  0  0  0  0  0  0  0  0  0  0
   -4.4995   -3.2644    0.0713 H   0  0  0  0  0  0  0  0  0  0  0  0
   -5.1081   -3.2683    1.7397 H   0  0  0  0  0  0  0  0  0  0  0  0
   -6.0931   -1.3348    0.9250 H   0  0  0  0  0  0  0  0  0  0  0  0
   -0.7891    3.3467   -1.0769 H   0  0  0  0  0  0  0  0  0  0  0  0
   -0.9812    2.5575    0.5070 H   0  0  0  0  0  0  0  0  0  0  0  0
   -1.4635    4.2310    0.2970 H   0  0  0  0  0  0  0  0  0  0  0  0
   -3.0224    4.1824   -2.2811 H   0  0  0  0  0  0  0  0  0  0  0  0
   -4.5775    3.6604   -1.6081 H   0  0  0  0  0  0  0  0  0  0  0  0
   -3.5986    4.8542   -0.7451 H   0  0  0  0  0  0  0  0  0  0  0  0
  1 10  2  0  0  0  0
  2 26  2  0  0  0  0
  3  8  1  0  0  0  0
  3 14  1  0  0  0  0
  3 15  1  0  0  0  0
  4 25  1  0  0  0  0
  4 26  1  0  0  0  0
  4 52  1  0  0  0  0
  5  6  1  0  0  0  0
  5  7  1  0  0  0  0
  5 11  1  0  0  0  0
  5 12  1  0  0  0  0
  6  8  1  0  0  0  0
  6 29  1  0  0  0  0
  6 30  1  0  0  0  0
  7 10  1  0  0  0  0
  7 31  1  0  0  0  0
  7 32  1  0  0  0  0
  8  9  2  0  0  0  0
  9 10  1  0  0  0  0
  9 13  1  0  0  0  0
 11 33  1  0  0  0  0
 11 34  1  0  0  0  0
 11 35  1  0  0  0  0
 12 36  1  0  0  0  0
 12 37  1  0  0  0  0
 12 38  1  0  0  0  0
 13 14  2  0  0  0  0
 13 22  1  0  0  0  0
 14 39  1  0  0  0  0
 15 18  1  0  0  0  0
 15 19  2  0  0  0  0
 16 18  2  0  0  0  0
 16 20  1  0  0  0  0
 16 21  1  0  0  0  0
 17 19  1  0  0  0  0
 17 20  2  0  0  0  0
 17 23  1  0  0  0  0
 18 40  1  0  0  0  0
 19 41  1  0  0  0  0
 20 26  1  0  0  0  0
 21 24  1  0  0  0  0
 21 42  1  0  0  0  0
 21 43  1  0  0  0  0
 22 44  1  0  0  0  0
 22 45  1  0  0  0  0
 22 46  1  0  0  0  0
 23 25  1  0  0  0  0
 23 47  1  0  0  0  0
 23 48  1  0  0  0  0
 24 27  1  0  0  0  0
 24 28  1  0  0  0  0
 24 49  1  0  0  0  0
 25 50  1  0  0  0  0
 25 51  1  0  0  0  0
 27 53  1  0  0  0  0
 27 54  1  0  0  0  0
 27 55  1  0  0  0  0
 28 56  1  0  0  0  0
 28 57  1  0  0  0  0
 28 58  1  0  0  0  0
M  END
> <PUBCHEM_COMPOUND_CID>
73437615

> <PUBCHEM_CONFORMER_RMSD>
0.8

> <PUBCHEM_CONFORMER_DIVERSEORDER>
1
13
18
11
7
15
10
8
12
17
4
9
14
2
16
3
5
19
6
21
20
22

> <PUBCHEM_MMFF94_PARTIAL_CHARGES>
26
1 -0.57
10 0.6
13 -0.18
14 -0.3
15 -0.02
16 -0.14
17 -0.14
18 -0.15
19 -0.15
2 -0.57
20 0.09
21 0.14
22 0.18
23 0.14
25 0.3
26 0.54
3 0.33
39 0.15
4 -0.73
40 0.15
41 0.15
52 0.37
6 0.18
7 0.06
8 -0.33
9 -0.09

> <PUBCHEM_EFFECTIVE_ROTOR_COUNT>
4.2

> <PUBCHEM_PHARMACOPHORE_FEATURES>
10
1 1 acceptor
1 2 acceptor
1 3 cation
1 4 donor
3 24 27 28 hydrophobe
3 5 11 12 hydrophobe
5 3 8 9 13 14 rings
6 15 16 17 18 19 20 rings
6 4 17 20 23 25 26 rings
6 5 6 7 8 9 10 rings

> <PUBCHEM_HEAVY_ATOM_COUNT>
28

> <PUBCHEM_ATOM_DEF_STEREO_COUNT>
0

> <PUBCHEM_ATOM_UDEF_STEREO_COUNT>
0

> <PUBCHEM_BOND_DEF_STEREO_COUNT>
0

> <PUBCHEM_BOND_UDEF_STEREO_COUNT>
0

> <PUBCHEM_ISOTOPIC_ATOM_COUNT>
0

> <PUBCHEM_COMPONENT_COUNT>
1

> <PUBCHEM_CACTVS_TAUTO_COUNT>
4

> <PUBCHEM_CONFORMER_ID>
046091AF00000001

> <PUBCHEM_MMFF94_ENERGY>
84.6028

> <PUBCHEM_FEATURE_SELFOVERLAP>
50.854

> <PUBCHEM_SHAPE_FINGERPRINT>
10165383 225 17769946997604869776
10319926 262 18261940878649999674
10366900 7 18411133649465622622
1100329 8 13365994231789829899
11370993 144 18200326441710215243
11595378 159 17530955891243418129
12107183 9 17463960272973452274
12107698 1 18041553775909983632
12236239 1 15574711417480985006
12293681 4 17766844927204444342
12403259 226 18412268298257932806
12403259 415 18343018938996210672
12596602 18 16443350926535014224
12788726 201 17894917381532120281
13140716 1 17969520371206656483
13383665 225 18188795905723809141
13402501 40 18411981390110565521
13583140 156 18272089383321424582
13726171 33 18335708256225021528
13782708 43 18409453579052047702
13944108 23 16682592192592245813
14081887 123 18260260863431851163
14251757 17 18341329989956073376
14363568 33 17833001811292647785
15131766 46 16987705982405180641
15420108 30 17187570984059635289
15806764 133 18201167550598384764
15961568 22 18043532930767384180
17349148 13 16008742537244517747
18608769 82 18410296951450577478
1979834 28 18124603234460265561
20600515 1 17460030910499884587
21033648 144 17845360202293345926
21033648 29 18272076210798931488
21049683 118 17753308912933984921
21065201 7 18040719151435902739
21133665 82 13230931525078703879
21279426 13 18196656186224213102
21315764 371 15937249053107077896
21792961 116 18270974453879251494
22122407 14 16988021469544348291
221357 26 18272368616340777436
22182313 1 18342172259013095548
23536364 44 17915202143326654236
23557571 272 18259989305276267887
23559900 14 18334018284807652319
23845131 108 17757559552131076377
3380486 145 18122340444310956279
350125 39 18340494451703854972
3886686 26 17465347886417337915
469060 322 17168438086425849693
508706 21 18335696096823725861
5104073 3 18338518530255488370
6004065 56 18050279569261067839
6049 1 18412268315474510894
621550 34 18269838781777058722
7399639 24 18269549618914227482
7808743 9 18041845000119604036
9709674 26 18412260605928970063

> <PUBCHEM_SHAPE_MULTIPOLES>
554.53
11.13
4.14
1.57
0.99
2.45
0.55
-1.13
0.8
-2.28
-0.32
0.73
0.16
4.77

> <PUBCHEM_SHAPE_SELFOVERLAP>
1206.524

> <PUBCHEM_SHAPE_VOLUME>
303.3

> <PUBCHEM_COORDINATE_TYPE>
2
5
10

$$$$
