1150567
  -OEChem-01262620353D

 57 60  0     1  0  0  0  0  0999 V2000
    2.2815   -2.1290    1.9541 O   0  0  0  0  0  0  0  0  0  0  0  0
    6.3454    1.8191   -1.0691 O   0  0  0  0  0  0  0  0  0  0  0  0
    7.0637   -0.1212    0.7814 O   0  0  0  0  0  0  0  0  0  0  0  0
   -3.9852   -0.7887   -0.9486 N   0  0  0  0  0  0  0  0  0  0  0  0
   -1.0653   -0.9859   -0.7740 C   0  0  0  0  0  0  0  0  0  0  0  0
    0.1794   -1.6134   -0.1527 C   0  0  0  0  0  0  0  0  0  0  0  0
    1.0453   -0.5699    0.5272 C   0  0  2  0  0  0  0  0  0  0  0  0
   -1.9202   -2.0424   -1.4818 C   0  0  0  0  0  0  0  0  0  0  0  0
   -1.9057   -0.2646    0.2852 C   0  0  0  0  0  0  0  0  0  0  0  0
   -3.2186   -1.4380   -2.0204 C   0  0  0  0  0  0  0  0  0  0  0  0
   -3.2049    0.2806   -0.3115 C   0  0  0  0  0  0  0  0  0  0  0  0
    1.6076    0.4744   -0.4647 C   0  0  0  0  0  0  0  0  0  0  0  0
    2.2701   -1.2025    1.1639 C   0  0  0  0  0  0  0  0  0  0  0  0
    3.0844    0.4442   -0.2291 C   0  0  0  0  0  0  0  0  0  0  0  0
    3.4659   -0.5208    0.6944 C   0  0  0  0  0  0  0  0  0  0  0  0
   -5.2467   -0.2615   -1.4685 C   0  0  0  0  0  0  0  0  0  0  0  0
    4.0475    1.2382   -0.8304 C   0  0  0  0  0  0  0  0  0  0  0  0
    4.7824   -0.7391    1.0560 C   0  0  0  0  0  0  0  0  0  0  0  0
   -6.0954    0.3385   -0.3792 C   0  0  0  0  0  0  0  0  0  0  0  0
    5.3886    1.0430   -0.4833 C   0  0  0  0  0  0  0  0  0  0  0  0
    5.7530    0.0608    0.4531 C   0  0  0  0  0  0  0  0  0  0  0  0
   -7.0048   -0.4623    0.2979 C   0  0  0  0  0  0  0  0  0  0  0  0
   -5.9569    1.6836   -0.0675 C   0  0  0  0  0  0  0  0  0  0  0  0
   -7.7915    0.0936    1.3068 C   0  0  0  0  0  0  0  0  0  0  0  0
   -6.7435    2.2396    0.9415 C   0  0  0  0  0  0  0  0  0  0  0  0
   -7.6608    1.4445    1.6286 C   0  0  0  0  0  0  0  0  0  0  0  0
    6.6825    3.0370   -0.4098 C   0  0  0  0  0  0  0  0  0  0  0  0
    7.8022   -1.0578    0.0003 C   0  0  0  0  0  0  0  0  0  0  0  0
   -0.7692   -0.2503   -1.5325 H   0  0  0  0  0  0  0  0  0  0  0  0
   -0.1127   -2.3808    0.5762 H   0  0  0  0  0  0  0  0  0  0  0  0
    0.7573   -2.1381   -0.9250 H   0  0  0  0  0  0  0  0  0  0  0  0
    0.5239   -0.0631    1.3468 H   0  0  0  0  0  0  0  0  0  0  0  0
   -1.3558   -2.4865   -2.3104 H   0  0  0  0  0  0  0  0  0  0  0  0
   -2.1604   -2.8584   -0.7874 H   0  0  0  0  0  0  0  0  0  0  0  0
   -2.1389   -0.9472    1.1130 H   0  0  0  0  0  0  0  0  0  0  0  0
   -1.3639    0.5869    0.7091 H   0  0  0  0  0  0  0  0  0  0  0  0
   -2.9877   -0.7258   -2.8236 H   0  0  0  0  0  0  0  0  0  0  0  0
   -3.8117   -2.2472   -2.4635 H   0  0  0  0  0  0  0  0  0  0  0  0
   -2.9766    1.0859   -1.0221 H   0  0  0  0  0  0  0  0  0  0  0  0
   -3.7302    0.7159    0.5422 H   0  0  0  0  0  0  0  0  0  0  0  0
    1.4081    0.2189   -1.5103 H   0  0  0  0  0  0  0  0  0  0  0  0
    1.1970    1.4672   -0.2532 H   0  0  0  0  0  0  0  0  0  0  0  0
   -5.0744    0.4868   -2.2549 H   0  0  0  0  0  0  0  0  0  0  0  0
   -5.8186   -1.0673   -1.9483 H   0  0  0  0  0  0  0  0  0  0  0  0
    3.7670    1.9940   -1.5574 H   0  0  0  0  0  0  0  0  0  0  0  0
    5.0523   -1.4998    1.7802 H   0  0  0  0  0  0  0  0  0  0  0  0
   -7.1134   -1.5160    0.0569 H   0  0  0  0  0  0  0  0  0  0  0  0
   -5.2589    2.3200   -0.6042 H   0  0  0  0  0  0  0  0  0  0  0  0
   -8.5054   -0.5255    1.8422 H   0  0  0  0  0  0  0  0  0  0  0  0
   -6.6443    3.2922    1.1898 H   0  0  0  0  0  0  0  0  0  0  0  0
   -8.2738    1.8775    2.4137 H   0  0  0  0  0  0  0  0  0  0  0  0
    7.4613    3.5376   -0.9916 H   0  0  0  0  0  0  0  0  0  0  0  0
    5.8106    3.6962   -0.3523 H   0  0  0  0  0  0  0  0  0  0  0  0
    7.0700    2.8379    0.5944 H   0  0  0  0  0  0  0  0  0  0  0  0
    8.8284   -1.0843    0.3769 H   0  0  0  0  0  0  0  0  0  0  0  0
    7.3697   -2.0592    0.0920 H   0  0  0  0  0  0  0  0  0  0  0  0
    7.8232   -0.7523   -1.0506 H   0  0  0  0  0  0  0  0  0  0  0  0
  1 13  2  0  0  0  0
  2 20  1  0  0  0  0
  2 27  1  0  0  0  0
  3 21  1  0  0  0  0
  3 28  1  0  0  0  0
  4 10  1  0  0  0  0
  4 11  1  0  0  0  0
  4 16  1  0  0  0  0
  5  6  1  0  0  0  0
  5  8  1  0  0  0  0
  5  9  1  0  0  0  0
  5 29  1  0  0  0  0
  6  7  1  0  0  0  0
  6 30  1  0  0  0  0
  6 31  1  0  0  0  0
  7 12  1  0  0  0  0
  7 13  1  0  0  0  0
  7 32  1  0  0  0  0
  8 10  1  0  0  0  0
  8 33  1  0  0  0  0
  8 34  1  0  0  0  0
  9 11  1  0  0  0  0
  9 35  1  0  0  0  0
  9 36  1  0  0  0  0
 10 37  1  0  0  0  0
 10 38  1  0  0  0  0
 11 39  1  0  0  0  0
 11 40  1  0  0  0  0
 12 14  1  0  0  0  0
 12 41  1  0  0  0  0
 12 42  1  0  0  0  0
 13 15  1  0  0  0  0
 14 15  1  0  0  0  0
 14 17  2  0  0  0  0
 15 18  2  0  0  0  0
 16 19  1  0  0  0  0
 16 43  1  0  0  0  0
 16 44  1  0  0  0  0
 17 20  1  0  0  0  0
 17 45  1  0  0  0  0
 18 21  1  0  0  0  0
 18 46  1  0  0  0  0
 19 22  2  0  0  0  0
 19 23  1  0  0  0  0
 20 21  2  0  0  0  0
 22 24  1  0  0  0  0
 22 47  1  0  0  0  0
 23 25  2  0  0  0  0
 23 48  1  0  0  0  0
 24 26  2  0  0  0  0
 24 49  1  0  0  0  0
 25 26  1  0  0  0  0
 25 50  1  0  0  0  0
 26 51  1  0  0  0  0
 27 52  1  0  0  0  0
 27 53  1  0  0  0  0
 27 54  1  0  0  0  0
 28 55  1  0  0  0  0
 28 56  1  0  0  0  0
 28 57  1  0  0  0  0
M  END
> <PUBCHEM_COMPOUND_CID>
1150567

> <PUBCHEM_CONFORMER_RMSD>
0.8

> <PUBCHEM_CONFORMER_DIVERSEORDER>
1
37
35
32
25
36
27
23
33
7
14
15
5
34
31
28
29
30
21
13
24
19
20
17
18
10
22
9
11
4
12
8
26
16
6
2
3

> <PUBCHEM_MMFF94_PARTIAL_CHARGES>
31
1 -0.57
10 0.27
11 0.27
12 0.14
13 0.42
14 -0.14
15 0.09
16 0.41
17 -0.15
18 -0.15
19 -0.14
2 -0.36
20 0.08
21 0.08
22 -0.15
23 -0.15
24 -0.15
25 -0.15
26 -0.15
27 0.28
28 0.28
3 -0.36
4 -0.81
45 0.15
46 0.15
47 0.15
48 0.15
49 0.15
50 0.15
51 0.15
7 0.06

> <PUBCHEM_EFFECTIVE_ROTOR_COUNT>
7.6

> <PUBCHEM_PHARMACOPHORE_FEATURES>
8
1 1 acceptor
1 2 acceptor
1 3 acceptor
1 4 cation
5 7 12 13 14 15 rings
6 14 15 17 18 20 21 rings
6 19 22 23 24 25 26 rings
6 4 5 8 9 10 11 rings

> <PUBCHEM_HEAVY_ATOM_COUNT>
28

> <PUBCHEM_ATOM_DEF_STEREO_COUNT>
1

> <PUBCHEM_ATOM_UDEF_STEREO_COUNT>
0

> <PUBCHEM_BOND_DEF_STEREO_COUNT>
0

> <PUBCHEM_BOND_UDEF_STEREO_COUNT>
0

> <PUBCHEM_ISOTOPIC_ATOM_COUNT>
0

> <PUBCHEM_COMPONENT_COUNT>
1

> <PUBCHEM_CACTVS_TAUTO_COUNT>
2

> <PUBCHEM_CONFORMER_ID>
00118E6700000001

> <PUBCHEM_MMFF94_ENERGY>
92.8523

> <PUBCHEM_FEATURE_SELFOVERLAP>
40.681

> <PUBCHEM_SHAPE_FINGERPRINT>
10 15 15357697530757850356
10369192 42 17418376888109100149
10670039 82 16415201131715835571
10674148 151 18202560675434889330
10906281 52 18413393145992876503
11115154 58 18272373062776744992
11408170 253 17846509131652514897
11456790 92 17749374963604241704
11475781 23 16558747914691668222
11646440 116 16805323296840855980
11796584 16 16415191326110839566
11963148 33 12251900412708025985
12236239 1 18410287047361618078
12596602 18 17895194360295341609
12730499 353 17022615356507247538
12741549 16 15123504775879224914
13177829 20 17894635864127930515
13782708 43 15358247174659976523
14251764 18 18335421287878617773
14849402 71 18261397809942565725
14856354 85 18273213136804721055
15183329 4 18272643559115349085
15685185 35 17971202662452231340
15728490 51 11602831202634852082
1577012 14 18341048605416366508
15840311 113 18259989288460551956
20105231 36 17749391425971333106
21033648 29 16128074724698299258
21223535 225 14261085251036564195
21623969 137 16950281785018845699
21756936 100 18060414725748695463
22122407 14 18336277820316737433
22224240 67 16660362597213202546
22864921 47 12107778653242269641
23081809 10 18200861925316357479
23389318 12 8718819895222847610
23522609 53 18411989082613484965
23559900 14 15123498246758741923
2747138 104 16081087073609716509
29717793 49 18343581859417728142
3009799 131 14836403644432514326
3014063 24 9799421013917700612
3178227 256 17458061556678706794
3383291 50 13768222592839470449
3633792 109 18130793374363185950
3663271 9 18186522073613559755
397830 11 16081095913063919797
4073 2 17749393714666331338
4093350 32 18271524200433772210
4340502 62 17095523980618024555
445580 37 17346607357137441601
5104073 3 17604419829879216058
5385378 56 18131072580611403231
57035037 87 17417801890788121224
5758199 1 18114183063784334072
5911458 16 18413394232872920249
59682541 35 14923948968123198612
5969126 39 11024114235413514275
59755656 520 18186515531656460387
7226269 152 17060618885426529425
9689198 14 18412272743849517669

> <PUBCHEM_SHAPE_MULTIPOLES>
553.64
25.15
2.18
1.5
7.72
0.91
-0.07
12.86
-4.47
-0.65
0.3
0.86
-0.42
-3.49

> <PUBCHEM_SHAPE_SELFOVERLAP>
1190.007

> <PUBCHEM_SHAPE_VOLUME>
307.5

> <PUBCHEM_COORDINATE_TYPE>
2
5
10

$$$$
