71299336
  -OEChem-01262620443D

 32 33  0     0  0  0  0  0  0999 V2000
    4.1244   -0.2681   -0.6827 S   0  0  0  0  0  0  0  0  0  0  0  0
   -1.5318    1.0683    1.8004 S   0  0  0  0  0  0  0  0  0  0  0  0
    2.4503    2.1218   -1.2398 F   0  0  0  0  0  0  0  0  0  0  0  0
    2.6039   -1.9039    1.2767 F   0  0  0  0  0  0  0  0  0  0  0  0
    0.0291    2.6986   -0.1797 F   0  0  0  0  0  0  0  0  0  0  0  0
    0.1826   -1.3368    2.3421 F   0  0  0  0  0  0  0  0  0  0  0  0
    4.7483    0.9787   -1.1026 O   0  0  0  0  0  0  0  0  0  0  0  0
    4.8297   -1.1593    0.2274 O   0  0  0  0  0  0  0  0  0  0  0  0
    3.6671   -1.1515   -2.0717 N   0  0  0  0  0  0  0  0  0  0  0  0
   -2.1442   -0.8003   -0.0127 N   0  0  0  0  0  0  0  0  0  0  0  0
   -3.8354    0.8505    0.4588 N   0  0  0  0  0  0  0  0  0  0  0  0
    2.5622    0.1022    0.0052 C   0  0  0  0  0  0  0  0  0  0  0  0
    0.0648    0.6909    1.1000 C   0  0  0  0  0  0  0  0  0  0  0  0
    1.8987    1.2732   -0.3611 C   0  0  0  0  0  0  0  0  0  0  0  0
    1.9771   -0.7745    0.9189 C   0  0  0  0  0  0  0  0  0  0  0  0
    0.6500    1.5674    0.1863 C   0  0  0  0  0  0  0  0  0  0  0  0
    0.7284   -0.4801    1.4662 C   0  0  0  0  0  0  0  0  0  0  0  0
   -2.6223    0.2882    0.6198 C   0  0  0  0  0  0  0  0  0  0  0  0
   -2.9941   -1.3648   -0.8957 C   0  0  0  0  0  0  0  0  0  0  0  0
   -4.6334    0.2353   -0.4385 C   0  0  0  0  0  0  0  0  0  0  0  0
   -4.2627   -0.8861   -1.1521 C   0  0  0  0  0  0  0  0  0  0  0  0
   -2.5046   -2.5746   -1.6180 C   0  0  0  0  0  0  0  0  0  0  0  0
   -5.9881    0.8250   -0.6472 C   0  0  0  0  0  0  0  0  0  0  0  0
    3.7959   -0.7021   -2.9865 H   0  0  0  0  0  0  0  0  0  0  0  0
    3.8508   -2.1623   -2.0758 H   0  0  0  0  0  0  0  0  0  0  0  0
   -4.9246   -1.3601   -1.8667 H   0  0  0  0  0  0  0  0  0  0  0  0
   -2.4991   -2.3972   -2.6982 H   0  0  0  0  0  0  0  0  0  0  0  0
   -1.4839   -2.8284   -1.3128 H   0  0  0  0  0  0  0  0  0  0  0  0
   -3.1459   -3.4343   -1.3995 H   0  0  0  0  0  0  0  0  0  0  0  0
   -6.7640    0.0955   -0.3944 H   0  0  0  0  0  0  0  0  0  0  0  0
   -6.1349    1.7068   -0.0149 H   0  0  0  0  0  0  0  0  0  0  0  0
   -6.1126    1.1333   -1.6902 H   0  0  0  0  0  0  0  0  0  0  0  0
  1  7  2  0  0  0  0
  1  8  2  0  0  0  0
  1  9  1  0  0  0  0
  1 12  1  0  0  0  0
  2 13  1  0  0  0  0
  2 18  1  0  0  0  0
  3 14  1  0  0  0  0
  4 15  1  0  0  0  0
  5 16  1  0  0  0  0
  6 17  1  0  0  0  0
  9 24  1  0  0  0  0
  9 25  1  0  0  0  0
 10 18  1  0  0  0  0
 10 19  2  0  0  0  0
 11 18  2  0  0  0  0
 11 20  1  0  0  0  0
 12 14  2  0  0  0  0
 12 15  1  0  0  0  0
 13 16  2  0  0  0  0
 13 17  1  0  0  0  0
 14 16  1  0  0  0  0
 15 17  2  0  0  0  0
 19 21  1  0  0  0  0
 19 22  1  0  0  0  0
 20 21  2  0  0  0  0
 20 23  1  0  0  0  0
 21 26  1  0  0  0  0
 22 27  1  0  0  0  0
 22 28  1  0  0  0  0
 22 29  1  0  0  0  0
 23 30  1  0  0  0  0
 23 31  1  0  0  0  0
 23 32  1  0  0  0  0
M  END
> <PUBCHEM_COMPOUND_CID>
71299336

> <PUBCHEM_CONFORMER_RMSD>
0.6

> <PUBCHEM_CONFORMER_DIVERSEORDER>
2
19
6
18
11
9
17
5
10
8
20
13
7
3
15
14
1
16
12
4

> <PUBCHEM_MMFF94_PARTIAL_CHARGES>
26
1 1.45
10 -0.62
11 -0.62
12 -0.01
13 0.1
14 0.19
15 0.19
16 0.19
17 0.19
18 0.72
19 0.17
2 -0.2
20 0.17
21 -0.15
22 0.14
23 0.14
24 0.42
25 0.42
26 0.15
3 -0.19
4 -0.19
5 -0.19
6 -0.19
7 -0.65
8 -0.65
9 -0.98

> <PUBCHEM_EFFECTIVE_ROTOR_COUNT>
3

> <PUBCHEM_PHARMACOPHORE_FEATURES>
7
1 10 acceptor
1 7 acceptor
1 8 acceptor
1 9 donor
3 10 11 18 cation
6 10 11 18 19 20 21 rings
6 12 13 14 15 16 17 rings

> <PUBCHEM_HEAVY_ATOM_COUNT>
23

> <PUBCHEM_ATOM_DEF_STEREO_COUNT>
0

> <PUBCHEM_ATOM_UDEF_STEREO_COUNT>
0

> <PUBCHEM_BOND_DEF_STEREO_COUNT>
0

> <PUBCHEM_BOND_UDEF_STEREO_COUNT>
0

> <PUBCHEM_ISOTOPIC_ATOM_COUNT>
0

> <PUBCHEM_COMPONENT_COUNT>
1

> <PUBCHEM_CACTVS_TAUTO_COUNT>
1

> <PUBCHEM_CONFORMER_ID>
043FF10800000002

> <PUBCHEM_MMFF94_ENERGY>
29.1574

> <PUBCHEM_FEATURE_SELFOVERLAP>
35.539

> <PUBCHEM_SHAPE_FINGERPRINT>
10165383 225 16153431614919052979
11578080 2 18125691587721711953
11796584 16 17275387603280213519
12035759 4 18409731733617241402
12236239 1 18411983546669412425
12363563 72 15410901794497776075
12596599 1 18341906202736966406
12670545 2 18410855430295661951
12730499 353 16950287286929961609
12788726 201 18270685259654228840
12892183 10 8934730984726007037
13544653 18 15482675679864853986
14115302 16 18131347527379507825
14294032 229 17701261318758553817
14341114 328 7997965804176605055
14386348 63 16056881342609999599
16752209 62 17988355976089978889
16945 1 17896345578849836208
17093844 170 17917994940925255558
18186145 218 17531244006150046985
19862831 5 18411138060766190257
20645476 183 18409724089187793327
21634736 98 18410292561714633968
21781051 124 18130503154791499839
221357 26 17895185576823769453
22182313 1 17753916087985850256
23227448 37 13479715186036327671
23402539 116 18260551100363229274
23557571 272 17703781488320983816
23559900 14 17916301825951645240
25 1 17530962496992816537
2838139 119 14779837126080529262
3004659 81 18272650155710141045
3009799 131 17822007602069911072
339767 52 18131627885337823478
602551 16 17346601850377113346
633830 44 17822570620115087781
6442390 28 14779268584174491153
7808743 9 13695875843562670167
9709674 26 17344890035886088019
9981440 41 17331391485586788328

> <PUBCHEM_SHAPE_MULTIPOLES>
425.25
10.31
2.18
1.71
3.86
0.7
0.58
2.4
-4.34
0.77
-0.59
-1.2
-0.04
-0.87

> <PUBCHEM_SHAPE_SELFOVERLAP>
890.947

> <PUBCHEM_SHAPE_VOLUME>
243.7

> <PUBCHEM_COORDINATE_TYPE>
2
5
10

$$$$
