3004636
  -OEChem-09142615083D

 34 35  0     0  0  0  0  0  0999 V2000
    6.0064    0.0009   -0.2309 O   0  0  0  0  0  0  0  0  0  0  0  0
   -5.9806    0.0009    0.3324 O   0  0  0  0  0  0  0  0  0  0  0  0
    0.4463    0.0032    0.4782 C   0  0  0  0  0  0  0  0  0  0  0  0
   -0.4471    0.0035   -0.5603 C   0  0  0  0  0  0  0  0  0  0  0  0
    1.8891    0.0032    0.2939 C   0  0  0  0  0  0  0  0  0  0  0  0
   -1.9094    0.0034   -0.3241 C   0  0  0  0  0  0  0  0  0  0  0  0
    0.0064   -0.0186    1.9313 C   0  0  0  0  0  0  0  0  0  0  0  0
   -0.0813   -0.0167   -2.0225 C   0  0  0  0  0  0  0  0  0  0  0  0
    2.5816    1.2107    0.2057 C   0  0  0  0  0  0  0  0  0  0  0  0
   -2.5722    1.2108   -0.2168 C   0  0  0  0  0  0  0  0  0  0  0  0
    2.5800   -1.2053    0.2057 C   0  0  0  0  0  0  0  0  0  0  0  0
   -2.5707   -1.2051   -0.2178 C   0  0  0  0  0  0  0  0  0  0  0  0
    3.9653    1.2097    0.0291 C   0  0  0  0  0  0  0  0  0  0  0  0
   -3.9492    1.2097    0.0055 C   0  0  0  0  0  0  0  0  0  0  0  0
    3.9638   -1.2064    0.0292 C   0  0  0  0  0  0  0  0  0  0  0  0
   -3.9477   -1.2063    0.0043 C   0  0  0  0  0  0  0  0  0  0  0  0
    4.6564    0.0012   -0.0590 C   0  0  0  0  0  0  0  0  0  0  0  0
   -4.6372    0.0012    0.1159 C   0  0  0  0  0  0  0  0  0  0  0  0
    0.3990    0.8600    2.4560 H   0  0  0  0  0  0  0  0  0  0  0  0
   -1.0760   -0.0170    2.0771 H   0  0  0  0  0  0  0  0  0  0  0  0
    0.3943   -0.9146    2.4293 H   0  0  0  0  0  0  0  0  0  0  0  0
   -0.4896   -0.9096   -2.5089 H   0  0  0  0  0  0  0  0  0  0  0  0
   -0.4838    0.8668   -2.5304 H   0  0  0  0  0  0  0  0  0  0  0  0
    0.9983   -0.0222   -2.1958 H   0  0  0  0  0  0  0  0  0  0  0  0
    2.0574    2.1610    0.2727 H   0  0  0  0  0  0  0  0  0  0  0  0
   -2.0464    2.1579   -0.3013 H   0  0  0  0  0  0  0  0  0  0  0  0
    2.0546   -2.1550    0.2725 H   0  0  0  0  0  0  0  0  0  0  0  0
   -2.0437   -2.1516   -0.3029 H   0  0  0  0  0  0  0  0  0  0  0  0
    4.4932    2.1572   -0.0383 H   0  0  0  0  0  0  0  0  0  0  0  0
   -4.4745    2.1572    0.0906 H   0  0  0  0  0  0  0  0  0  0  0  0
    4.4965   -2.1509   -0.0388 H   0  0  0  0  0  0  0  0  0  0  0  0
   -4.4780   -2.1508    0.0896 H   0  0  0  0  0  0  0  0  0  0  0  0
    6.3192    0.9210   -0.2708 H   0  0  0  0  0  0  0  0  0  0  0  0
   -6.2920    0.9209    0.3830 H   0  0  0  0  0  0  0  0  0  0  0  0
  1 17  1  0  0  0  0
  1 33  1  0  0  0  0
  2 18  1  0  0  0  0
  2 34  1  0  0  0  0
  3  4  2  0  0  0  0
  3  5  1  0  0  0  0
  3  7  1  0  0  0  0
  4  6  1  0  0  0  0
  4  8  1  0  0  0  0
  5  9  2  0  0  0  0
  5 11  1  0  0  0  0
  6 10  2  0  0  0  0
  6 12  1  0  0  0  0
  7 19  1  0  0  0  0
  7 20  1  0  0  0  0
  7 21  1  0  0  0  0
  8 22  1  0  0  0  0
  8 23  1  0  0  0  0
  8 24  1  0  0  0  0
  9 13  1  0  0  0  0
  9 25  1  0  0  0  0
 10 14  1  0  0  0  0
 10 26  1  0  0  0  0
 11 15  2  0  0  0  0
 11 27  1  0  0  0  0
 12 16  2  0  0  0  0
 12 28  1  0  0  0  0
 13 17  2  0  0  0  0
 13 29  1  0  0  0  0
 14 18  2  0  0  0  0
 14 30  1  0  0  0  0
 15 17  1  0  0  0  0
 15 31  1  0  0  0  0
 16 18  1  0  0  0  0
 16 32  1  0  0  0  0
M  END
> <PUBCHEM_COMPOUND_CID>
3004636

> <PUBCHEM_CONFORMER_RMSD>
0.6

> <PUBCHEM_CONFORMER_DIVERSEORDER>
1

> <PUBCHEM_MMFF94_PARTIAL_CHARGES>
28
1 -0.53
10 -0.15
11 -0.15
12 -0.15
13 -0.15
14 -0.15
15 -0.15
16 -0.15
17 0.08
18 0.08
2 -0.53
25 0.15
26 0.15
27 0.15
28 0.15
29 0.15
3 -0.17
30 0.15
31 0.15
32 0.15
33 0.45
34 0.45
4 -0.17
5 0.03
6 0.03
7 0.14
8 0.14
9 -0.15

> <PUBCHEM_EFFECTIVE_ROTOR_COUNT>
2

> <PUBCHEM_PHARMACOPHORE_FEATURES>
6
1 1 donor
1 2 donor
1 7 hydrophobe
1 8 hydrophobe
6 5 9 11 13 15 17 rings
6 6 10 12 14 16 18 rings

> <PUBCHEM_HEAVY_ATOM_COUNT>
18

> <PUBCHEM_ATOM_DEF_STEREO_COUNT>
0

> <PUBCHEM_ATOM_UDEF_STEREO_COUNT>
0

> <PUBCHEM_BOND_DEF_STEREO_COUNT>
1

> <PUBCHEM_BOND_UDEF_STEREO_COUNT>
0

> <PUBCHEM_ISOTOPIC_ATOM_COUNT>
0

> <PUBCHEM_COMPONENT_COUNT>
1

> <PUBCHEM_CACTVS_TAUTO_COUNT>
3

> <PUBCHEM_CONFORMER_ID>
002DD8DC00000001

> <PUBCHEM_MMFF94_ENERGY>
62.2756

> <PUBCHEM_FEATURE_SELFOVERLAP>
30.447

> <PUBCHEM_SHAPE_FINGERPRINT>
11287383 113 18335422391368513330
12107183 9 17690279309422112193
12236239 1 17847062186184647712
124424 183 17489585675706545507
12592029 89 18130792222304849878
128620 24 15574710283435376598
13167823 11 18410571786144390138
13675066 3 17632287986924416014
13760787 19 18272367589748784399
14341114 176 18410860966387245417
15048467 5 18410856563940181041
15788980 27 17489867145960910604
15848702 151 18187082832337198150
16752209 62 16271648884402053218
17834072 33 18410009957177075918
1813 80 16805327660543232262
18186145 218 17894340086308782688
19489759 90 8646773291663241327
200 152 18273215296445036466
20645477 70 18340769230932358062
21267235 1 18410581681743427562
2297311 6 18341902878490399053
23175994 123 16988847189559316697
23402539 116 16660357078554740718
23402655 69 18408321056146625320
23536379 177 18411419492655987048
23557571 272 18411704253124910893
23559900 14 18411132575713184224
26918003 58 17989207053433919570
34797466 226 18342470265292717596
3545911 37 18410856559655737248
4072396 5 16415197828094894855
42 15 18409449184851233959
4214541 1 18411136918183693481
465052 167 17703793669027576367
474 4 17531813587791774268
4990 188 18187365402778566882
5104073 3 18410571777554086202
542803 24 18410292514475021508
59755656 520 16732983132641179675
7495541 125 17846213423210965971
77779 3 18410855464428410344
8272917 22 18130511833807139702

> <PUBCHEM_SHAPE_MULTIPOLES>
358.69
11.58
1.28
1.11
0.3
0
-0.06
0.02
0.28
0
0
-0.04
-0.01
0

> <PUBCHEM_SHAPE_SELFOVERLAP>
771.575

> <PUBCHEM_SHAPE_VOLUME>
199.3

> <PUBCHEM_COORDINATE_TYPE>
2
5
10

$$$$
