254232
  -OEChem-09142614573D

 40 41  0     1  0  0  0  0  0999 V2000
   -4.2872   -1.0551    1.2317 O   0  0  0  0  0  0  0  0  0  0  0  0
   -5.0496   -0.3702   -0.7899 O   0  0  0  0  0  0  0  0  0  0  0  0
    5.9396   -0.1875   -0.3882 O   0  0  0  0  0  0  0  0  0  0  0  0
   -1.8565    0.3312    0.4539 C   0  0  2  0  0  0  0  0  0  0  0  0
   -2.6317   -0.6843   -0.4689 C   0  0  0  0  0  0  0  0  0  0  0  0
   -2.5159    1.7352    0.5174 C   0  0  0  0  0  0  0  0  0  0  0  0
   -0.3561    0.4157    0.1393 C   0  0  0  0  0  0  0  0  0  0  0  0
   -2.1133   -2.1303   -0.3000 C   0  0  0  0  0  0  0  0  0  0  0  0
   -2.5543   -0.3367   -1.9692 C   0  0  0  0  0  0  0  0  0  0  0  0
   -4.1157   -0.6835   -0.0635 C   0  0  0  0  0  0  0  0  0  0  0  0
    0.4888   -0.4857    0.7398 C   0  0  0  0  0  0  0  0  0  0  0  0
   -1.9101    2.6321    1.5934 C   0  0  0  0  0  0  0  0  0  0  0  0
    0.0745    1.3875   -0.7255 C   0  0  0  0  0  0  0  0  0  0  0  0
    1.8644   -0.4207    0.4637 C   0  0  0  0  0  0  0  0  0  0  0  0
    2.3459    0.5699   -0.4252 C   0  0  0  0  0  0  0  0  0  0  0  0
    1.4377    1.4663   -1.0116 C   0  0  0  0  0  0  0  0  0  0  0  0
    2.7728   -1.3170    1.0502 C   0  0  0  0  0  0  0  0  0  0  0  0
    3.7213    0.6348   -0.7015 C   0  0  0  0  0  0  0  0  0  0  0  0
    4.1361   -1.2378    0.7643 C   0  0  0  0  0  0  0  0  0  0  0  0
    4.6094   -0.2639   -0.1101 C   0  0  0  0  0  0  0  0  0  0  0  0
   -1.9292   -0.0556    1.4826 H   0  0  0  0  0  0  0  0  0  0  0  0
   -3.5758    1.6280    0.7757 H   0  0  0  0  0  0  0  0  0  0  0  0
   -2.5077    2.2512   -0.4475 H   0  0  0  0  0  0  0  0  0  0  0  0
   -1.1241   -2.2657   -0.7489 H   0  0  0  0  0  0  0  0  0  0  0  0
   -2.0521   -2.4157    0.7561 H   0  0  0  0  0  0  0  0  0  0  0  0
   -2.7888   -2.8460   -0.7846 H   0  0  0  0  0  0  0  0  0  0  0  0
   -3.1674   -1.0226   -2.5665 H   0  0  0  0  0  0  0  0  0  0  0  0
   -2.9216    0.6757   -2.1680 H   0  0  0  0  0  0  0  0  0  0  0  0
   -1.5307   -0.4073   -2.3509 H   0  0  0  0  0  0  0  0  0  0  0  0
    0.1091   -1.2365    1.4280 H   0  0  0  0  0  0  0  0  0  0  0  0
   -0.8751    2.9083    1.3768 H   0  0  0  0  0  0  0  0  0  0  0  0
   -1.9387    2.1430    2.5725 H   0  0  0  0  0  0  0  0  0  0  0  0
   -2.4859    3.5607    1.6685 H   0  0  0  0  0  0  0  0  0  0  0  0
   -0.5848    2.0849   -1.2272 H   0  0  0  0  0  0  0  0  0  0  0  0
    1.7850    2.2317   -1.7027 H   0  0  0  0  0  0  0  0  0  0  0  0
    2.4251   -2.0865    1.7364 H   0  0  0  0  0  0  0  0  0  0  0  0
   -5.2325   -1.0427    1.4933 H   0  0  0  0  0  0  0  0  0  0  0  0
    4.1005    1.3935   -1.3841 H   0  0  0  0  0  0  0  0  0  0  0  0
    4.8234   -1.9403    1.2279 H   0  0  0  0  0  0  0  0  0  0  0  0
    6.0907    0.5438   -1.0115 H   0  0  0  0  0  0  0  0  0  0  0  0
  1 10  1  0  0  0  0
  1 37  1  0  0  0  0
  2 10  2  0  0  0  0
  3 20  1  0  0  0  0
  3 40  1  0  0  0  0
  4  5  1  0  0  0  0
  4  6  1  0  0  0  0
  4  7  1  0  0  0  0
  4 21  1  0  0  0  0
  5  8  1  0  0  0  0
  5  9  1  0  0  0  0
  5 10  1  0  0  0  0
  6 12  1  0  0  0  0
  6 22  1  0  0  0  0
  6 23  1  0  0  0  0
  7 11  2  0  0  0  0
  7 13  1  0  0  0  0
  8 24  1  0  0  0  0
  8 25  1  0  0  0  0
  8 26  1  0  0  0  0
  9 27  1  0  0  0  0
  9 28  1  0  0  0  0
  9 29  1  0  0  0  0
 11 14  1  0  0  0  0
 11 30  1  0  0  0  0
 12 31  1  0  0  0  0
 12 32  1  0  0  0  0
 12 33  1  0  0  0  0
 13 16  2  0  0  0  0
 13 34  1  0  0  0  0
 14 15  2  0  0  0  0
 14 17  1  0  0  0  0
 15 16  1  0  0  0  0
 15 18  1  0  0  0  0
 16 35  1  0  0  0  0
 17 19  2  0  0  0  0
 17 36  1  0  0  0  0
 18 20  2  0  0  0  0
 18 38  1  0  0  0  0
 19 20  1  0  0  0  0
 19 39  1  0  0  0  0
M  END
> <PUBCHEM_COMPOUND_CID>
254232

> <PUBCHEM_CONFORMER_RMSD>
0.6

> <PUBCHEM_CONFORMER_DIVERSEORDER>
1
5
9
8
4
6
2
7
3

> <PUBCHEM_MMFF94_PARTIAL_CHARGES>
22
1 -0.65
10 0.66
11 -0.15
13 -0.15
16 -0.15
17 -0.15
18 -0.15
19 -0.15
2 -0.57
20 0.08
3 -0.53
30 0.15
34 0.15
35 0.15
36 0.15
37 0.5
38 0.15
39 0.15
4 0.14
40 0.45
5 0.06
7 -0.14

> <PUBCHEM_EFFECTIVE_ROTOR_COUNT>
4

> <PUBCHEM_PHARMACOPHORE_FEATURES>
8
1 1 acceptor
1 12 hydrophobe
1 2 acceptor
1 3 donor
3 1 2 10 anion
3 5 8 9 hydrophobe
6 14 15 17 18 19 20 rings
6 7 11 13 14 15 16 rings

> <PUBCHEM_HEAVY_ATOM_COUNT>
20

> <PUBCHEM_ATOM_DEF_STEREO_COUNT>
0

> <PUBCHEM_ATOM_UDEF_STEREO_COUNT>
1

> <PUBCHEM_BOND_DEF_STEREO_COUNT>
0

> <PUBCHEM_BOND_UDEF_STEREO_COUNT>
0

> <PUBCHEM_ISOTOPIC_ATOM_COUNT>
0

> <PUBCHEM_COMPONENT_COUNT>
1

> <PUBCHEM_CACTVS_TAUTO_COUNT>
3

> <PUBCHEM_CONFORMER_ID>
0003E11800000001

> <PUBCHEM_MMFF94_ENERGY>
62.1542

> <PUBCHEM_FEATURE_SELFOVERLAP>
40.681

> <PUBCHEM_SHAPE_FINGERPRINT>
10366900 7 17632571664934714362
11045515 52 17603302670094125477
11315181 36 18335141999124624184
11578080 2 18265307608413013157
12107183 9 17619916058908468480
12236239 1 18409731750712759868
12553582 1 18272642480783197251
12633257 1 16343705473449568163
12670546 56 18272931630803182032
12714826 92 17704069577547160921
12788726 201 18200887231057891673
128620 24 17894627067533943054
13288520 33 18272653437360534710
13581323 91 17989205932220459013
13583140 156 16629382663632383602
14289901 80 17418087715980996384
14576447 43 18260263079561350042
15238133 3 14476697337305417379
15375358 24 13902196988548760751
15653759 3 16630806599582737120
16752209 62 18270387318373817361
16945 1 18130780170462703495
17349148 13 17749384884592975736
19433438 38 16877933941080144150
19862831 5 18041272235843676719
200 152 18335136505560590313
20281475 54 18263077726449435418
20600515 1 16916799538508004297
20645477 70 16878214261238329226
21033648 29 15553873383132884802
21267235 1 18261402147827307786
221490 88 17605848129279173026
22646028 28 18334292063260866954
2297311 6 17846787303560944552
23402539 116 18131630080430205949
23402655 69 17894906313443576918
23557571 272 17561370556374686624
23559900 14 18270391814951752176
23598288 3 18202284731917133277
2871803 45 17821725010148508826
312423 11 18338251413449542604
34797466 226 17489035954732807676
5104073 3 18336261233337046432
602551 16 17275097366776018814

> <PUBCHEM_SHAPE_MULTIPOLES>
393.98
9.8
1.92
1.31
5.11
0.68
-0.12
-3.04
-0.43
-1.24
0.55
-0.63
0.2
-1.23

> <PUBCHEM_SHAPE_SELFOVERLAP>
841.413

> <PUBCHEM_SHAPE_VOLUME>
220

> <PUBCHEM_COORDINATE_TYPE>
2
5
10

$$$$
