93118
  -OEChem-09142615033D

 41 43  0     0  0  0  0  0  0999 V2000
    5.3958   -0.8920    0.8464 O   0  0  0  0  0  0  0  0  0  0  0  0
   -3.5171   -4.0585    0.8401 O   0  0  0  0  0  0  0  0  0  0  0  0
   -2.0120    4.9892    0.7800 O   0  0  0  0  0  0  0  0  0  0  0  0
    0.0669   -0.0163   -0.7876 C   0  0  0  0  0  0  0  0  0  0  0  0
    1.4751   -0.2478   -0.3553 C   0  0  0  0  0  0  0  0  0  0  0  0
   -0.9420   -1.1541   -0.3289 C   0  0  0  0  0  0  0  0  0  0  0  0
   -0.5181    1.3928   -0.3460 C   0  0  0  0  0  0  0  0  0  0  0  0
   -0.0141   -0.0141   -2.3776 C   0  0  0  0  0  0  0  0  0  0  0  0
    1.7378   -0.9457    0.8235 C   0  0  0  0  0  0  0  0  0  0  0  0
   -1.5388   -0.9813    0.8684 C   0  0  0  0  0  0  0  0  0  0  0  0
    0.3109    2.1954    0.3527 C   0  0  0  0  0  0  0  0  0  0  0  0
    2.5301    0.2334   -1.1307 C   0  0  0  0  0  0  0  0  0  0  0  0
   -1.1082   -2.1871   -1.1804 C   0  0  0  0  0  0  0  0  0  0  0  0
   -1.7897    1.6555   -0.7116 C   0  0  0  0  0  0  0  0  0  0  0  0
    3.0554   -1.1623    1.2271 C   0  0  0  0  0  0  0  0  0  0  0  0
   -2.4250   -1.9807    1.2705 C   0  0  0  0  0  0  0  0  0  0  0  0
   -0.2032    3.4329    0.7399 C   0  0  0  0  0  0  0  0  0  0  0  0
    3.8477    0.0167   -0.7272 C   0  0  0  0  0  0  0  0  0  0  0  0
   -1.9946   -3.1865   -0.7785 C   0  0  0  0  0  0  0  0  0  0  0  0
   -2.3037    2.8931   -0.3247 C   0  0  0  0  0  0  0  0  0  0  0  0
    4.1103   -0.6810    0.4518 C   0  0  0  0  0  0  0  0  0  0  0  0
   -2.6529   -3.0834    0.4470 C   0  0  0  0  0  0  0  0  0  0  0  0
   -1.5106    3.7818    0.4013 C   0  0  0  0  0  0  0  0  0  0  0  0
   -1.0395   -0.0900   -2.7619 H   0  0  0  0  0  0  0  0  0  0  0  0
    0.5846   -0.8109   -2.8366 H   0  0  0  0  0  0  0  0  0  0  0  0
    0.3708    0.9302   -2.7870 H   0  0  0  0  0  0  0  0  0  0  0  0
    0.9601   -1.3285    1.4730 H   0  0  0  0  0  0  0  0  0  0  0  0
   -1.3556   -0.1537    1.5426 H   0  0  0  0  0  0  0  0  0  0  0  0
    1.3257    1.9736    0.6500 H   0  0  0  0  0  0  0  0  0  0  0  0
    2.3781    0.8038   -2.0406 H   0  0  0  0  0  0  0  0  0  0  0  0
   -0.5915   -2.3420   -2.1164 H   0  0  0  0  0  0  0  0  0  0  0  0
   -2.4214    0.9820   -1.2779 H   0  0  0  0  0  0  0  0  0  0  0  0
    3.2473   -1.7043    2.1493 H   0  0  0  0  0  0  0  0  0  0  0  0
   -2.9259   -1.8925    2.2309 H   0  0  0  0  0  0  0  0  0  0  0  0
    0.4182    4.1207    1.3073 H   0  0  0  0  0  0  0  0  0  0  0  0
    4.6656    0.3989   -1.3319 H   0  0  0  0  0  0  0  0  0  0  0  0
   -2.1608   -4.0485   -1.4190 H   0  0  0  0  0  0  0  0  0  0  0  0
   -3.3236    3.1534   -0.5952 H   0  0  0  0  0  0  0  0  0  0  0  0
    5.3912   -1.3900    1.6820 H   0  0  0  0  0  0  0  0  0  0  0  0
   -3.8812   -3.8245    1.7112 H   0  0  0  0  0  0  0  0  0  0  0  0
   -2.9284    5.0633    0.4623 H   0  0  0  0  0  0  0  0  0  0  0  0
  1 21  1  0  0  0  0
  1 39  1  0  0  0  0
  2 22  1  0  0  0  0
  2 40  1  0  0  0  0
  3 23  1  0  0  0  0
  3 41  1  0  0  0  0
  4  5  1  0  0  0  0
  4  6  1  0  0  0  0
  4  7  1  0  0  0  0
  4  8  1  0  0  0  0
  5  9  2  0  0  0  0
  5 12  1  0  0  0  0
  6 10  2  0  0  0  0
  6 13  1  0  0  0  0
  7 11  2  0  0  0  0
  7 14  1  0  0  0  0
  8 24  1  0  0  0  0
  8 25  1  0  0  0  0
  8 26  1  0  0  0  0
  9 15  1  0  0  0  0
  9 27  1  0  0  0  0
 10 16  1  0  0  0  0
 10 28  1  0  0  0  0
 11 17  1  0  0  0  0
 11 29  1  0  0  0  0
 12 18  2  0  0  0  0
 12 30  1  0  0  0  0
 13 19  2  0  0  0  0
 13 31  1  0  0  0  0
 14 20  2  0  0  0  0
 14 32  1  0  0  0  0
 15 21  2  0  0  0  0
 15 33  1  0  0  0  0
 16 22  2  0  0  0  0
 16 34  1  0  0  0  0
 17 23  2  0  0  0  0
 17 35  1  0  0  0  0
 18 21  1  0  0  0  0
 18 36  1  0  0  0  0
 19 22  1  0  0  0  0
 19 37  1  0  0  0  0
 20 23  1  0  0  0  0
 20 38  1  0  0  0  0
M  END
> <PUBCHEM_COMPOUND_CID>
93118

> <PUBCHEM_CONFORMER_RMSD>
0.6

> <PUBCHEM_CONFORMER_DIVERSEORDER>
1
2

> <PUBCHEM_MMFF94_PARTIAL_CHARGES>
37
1 -0.53
10 -0.15
11 -0.15
12 -0.15
13 -0.15
14 -0.15
15 -0.15
16 -0.15
17 -0.15
18 -0.15
19 -0.15
2 -0.53
20 -0.15
21 0.08
22 0.08
23 0.08
27 0.15
28 0.15
29 0.15
3 -0.53
30 0.15
31 0.15
32 0.15
33 0.15
34 0.15
35 0.15
36 0.15
37 0.15
38 0.15
39 0.45
4 0.43
40 0.45
41 0.45
5 -0.14
6 -0.14
7 -0.14
9 -0.15

> <PUBCHEM_EFFECTIVE_ROTOR_COUNT>
3

> <PUBCHEM_PHARMACOPHORE_FEATURES>
7
1 1 donor
1 2 donor
1 3 donor
1 8 hydrophobe
6 5 9 12 15 18 21 rings
6 6 10 13 16 19 22 rings
6 7 11 14 17 20 23 rings

> <PUBCHEM_HEAVY_ATOM_COUNT>
23

> <PUBCHEM_ATOM_DEF_STEREO_COUNT>
0

> <PUBCHEM_ATOM_UDEF_STEREO_COUNT>
0

> <PUBCHEM_BOND_DEF_STEREO_COUNT>
0

> <PUBCHEM_BOND_UDEF_STEREO_COUNT>
0

> <PUBCHEM_ISOTOPIC_ATOM_COUNT>
0

> <PUBCHEM_COMPONENT_COUNT>
1

> <PUBCHEM_CACTVS_TAUTO_COUNT>
4

> <PUBCHEM_CONFORMER_ID>
00016BBE00000001

> <PUBCHEM_MMFF94_ENERGY>
103.9763

> <PUBCHEM_FEATURE_SELFOVERLAP>
35.522

> <PUBCHEM_SHAPE_FINGERPRINT>
10090160 65 17833538008290336957
1100329 8 18409727365857547477
11069576 57 12043978408967486400
11578080 2 17825368937421879109
12293681 4 18412257342444830711
12549972 3 17535740034626236083
12553582 1 18195810893294436446
12643181 29 17834684799752070494
12788726 201 18262533557908100874
13004483 165 18338513152798281795
13134695 92 18049160269937990735
13140716 1 18338799025789530145
13149001 5 17976220760316338573
13275264 69 18409167752792697006
13583140 156 17774418527107177434
13955234 65 16971403141200843233
14178342 30 18262786368969605394
14787075 74 18268132185502545605
14790565 3 17184195479236993373
14844126 61 18338218419706129506
15042514 8 18409735049443042883
15420108 30 17268921581418419405
15906896 17 18269264677745980407
16945 1 18337117777989634268
17980427 23 17488193780122659875
17980427 26 17116351226450629717
1813 80 18127141994008762198
20567600 347 17834957469190404561
20587220 46 14095107235449569913
20600515 1 18058191551263991643
20832881 197 18043247049470823387
21033648 29 16987745487419728587
21344244 78 17769094888894025139
21524375 3 17552906335417489564
21731228 192 17905607705403244656
22112679 90 18123495987501573583
22149856 69 17401239698005825241
2255824 54 17404032903139683991
23419403 2 17756673666899714062
23557571 272 18342733006049252962
23558518 356 18123746461309591479
23598288 3 18189072931435809434
283562 15 18260828233070494882
298252 57 16769545042644505844
3091708 16 9132157097712287729
352729 6 18339365171145963500
4340502 62 17614295364264096313
4409770 3 18335419037294441279
474 4 17546724850717728080
58260988 114 17168721721428278362
58807428 26 17618496589138767184
59755656 520 18049717421943654940
6138700 20 16685134263918587006
633830 44 17480287981859513628
6442390 28 17909570371169282713
6786 2 17836373648540513555
7364860 26 17476370864226787871
77188 2 18194401323338956177
81228 2 18410285891645981236
90316 7 18341342187621216531
9981440 41 17905607696681682281

> <PUBCHEM_SHAPE_MULTIPOLES>
455.72
5.92
5.46
1.43
8.21
4.55
-0.47
-4.27
1.73
-7.8
1.66
0.09
-0.38
-0.11

> <PUBCHEM_SHAPE_SELFOVERLAP>
1013.038

> <PUBCHEM_SHAPE_VOLUME>
243.5

> <PUBCHEM_COORDINATE_TYPE>
2
5
10

$$$$
