21629892
  -OEChem-09142615053D

 45 46  0     1  0  0  0  0  0999 V2000
   -5.6759    0.3322    0.1865 O   0  0  0  0  0  0  0  0  0  0  0  0
    6.3143   -0.3626    0.0278 O   0  0  0  0  0  0  0  0  0  0  0  0
   -0.0885   -0.6854    0.2408 C   0  0  2  0  0  0  0  0  0  0  0  0
    0.7199    0.5917   -0.1989 C   0  0  1  0  0  0  0  0  0  0  0  0
    0.2504   -1.9373   -0.6081 C   0  0  0  0  0  0  0  0  0  0  0  0
    0.3416    1.8504    0.6225 C   0  0  0  0  0  0  0  0  0  0  0  0
   -1.5926   -0.4119    0.2266 C   0  0  0  0  0  0  0  0  0  0  0  0
    2.2259    0.3346   -0.1384 C   0  0  0  0  0  0  0  0  0  0  0  0
   -0.4288   -3.2139   -0.1195 C   0  0  0  0  0  0  0  0  0  0  0  0
    1.0200    3.1284    0.1361 C   0  0  0  0  0  0  0  0  0  0  0  0
   -2.3284   -0.4949    1.4087 C   0  0  0  0  0  0  0  0  0  0  0  0
   -2.2290   -0.0789   -0.9691 C   0  0  0  0  0  0  0  0  0  0  0  0
    2.9935    0.4063   -1.3008 C   0  0  0  0  0  0  0  0  0  0  0  0
    2.8322    0.0285    1.0800 C   0  0  0  0  0  0  0  0  0  0  0  0
   -3.7006   -0.2450    1.3952 C   0  0  0  0  0  0  0  0  0  0  0  0
   -3.6012    0.1710   -0.9827 C   0  0  0  0  0  0  0  0  0  0  0  0
    4.3674    0.1719   -1.2450 C   0  0  0  0  0  0  0  0  0  0  0  0
    4.2060   -0.2060    1.1359 C   0  0  0  0  0  0  0  0  0  0  0  0
   -4.3370    0.0879    0.1994 C   0  0  0  0  0  0  0  0  0  0  0  0
    4.9736   -0.1344   -0.0266 C   0  0  0  0  0  0  0  0  0  0  0  0
   -6.2627    0.6672   -1.0702 C   0  0  0  0  0  0  0  0  0  0  0  0
    0.1935   -0.9201    1.2767 H   0  0  0  0  0  0  0  0  0  0  0  0
    0.4608    0.8063   -1.2452 H   0  0  0  0  0  0  0  0  0  0  0  0
   -0.0104   -1.7747   -1.6608 H   0  0  0  0  0  0  0  0  0  0  0  0
    1.3300   -2.1221   -0.5834 H   0  0  0  0  0  0  0  0  0  0  0  0
    0.5739    1.7053    1.6844 H   0  0  0  0  0  0  0  0  0  0  0  0
   -0.7375    2.0284    0.5647 H   0  0  0  0  0  0  0  0  0  0  0  0
   -0.1982   -3.4013    0.9340 H   0  0  0  0  0  0  0  0  0  0  0  0
   -1.5155   -3.1645   -0.2344 H   0  0  0  0  0  0  0  0  0  0  0  0
   -0.0744   -4.0715   -0.7006 H   0  0  0  0  0  0  0  0  0  0  0  0
    0.6401    3.9894    0.6957 H   0  0  0  0  0  0  0  0  0  0  0  0
    2.1036    3.0929    0.2817 H   0  0  0  0  0  0  0  0  0  0  0  0
    0.8169    3.2994   -0.9259 H   0  0  0  0  0  0  0  0  0  0  0  0
   -1.8469   -0.7529    2.3480 H   0  0  0  0  0  0  0  0  0  0  0  0
   -1.6745   -0.0105   -1.9009 H   0  0  0  0  0  0  0  0  0  0  0  0
    2.5357    0.6436   -2.2572 H   0  0  0  0  0  0  0  0  0  0  0  0
    2.2543   -0.0297    1.9979 H   0  0  0  0  0  0  0  0  0  0  0  0
   -4.2685   -0.3110    2.3192 H   0  0  0  0  0  0  0  0  0  0  0  0
   -4.0319    0.4241   -1.9455 H   0  0  0  0  0  0  0  0  0  0  0  0
    4.9601    0.2292   -2.1539 H   0  0  0  0  0  0  0  0  0  0  0  0
    4.6665   -0.4428    2.0913 H   0  0  0  0  0  0  0  0  0  0  0  0
    6.5632   -0.5595    0.9472 H   0  0  0  0  0  0  0  0  0  0  0  0
   -5.8587    1.6053   -1.4656 H   0  0  0  0  0  0  0  0  0  0  0  0
   -6.1767   -0.1566   -1.7868 H   0  0  0  0  0  0  0  0  0  0  0  0
   -7.3315    0.8282   -0.8951 H   0  0  0  0  0  0  0  0  0  0  0  0
  1 19  1  0  0  0  0
  1 21  1  0  0  0  0
  2 20  1  0  0  0  0
  2 42  1  0  0  0  0
  3  4  1  0  0  0  0
  3  5  1  0  0  0  0
  3  7  1  0  0  0  0
  3 22  1  0  0  0  0
  4  6  1  0  0  0  0
  4  8  1  0  0  0  0
  4 23  1  0  0  0  0
  5  9  1  0  0  0  0
  5 24  1  0  0  0  0
  5 25  1  0  0  0  0
  6 10  1  0  0  0  0
  6 26  1  0  0  0  0
  6 27  1  0  0  0  0
  7 11  2  0  0  0  0
  7 12  1  0  0  0  0
  8 13  2  0  0  0  0
  8 14  1  0  0  0  0
  9 28  1  0  0  0  0
  9 29  1  0  0  0  0
  9 30  1  0  0  0  0
 10 31  1  0  0  0  0
 10 32  1  0  0  0  0
 10 33  1  0  0  0  0
 11 15  1  0  0  0  0
 11 34  1  0  0  0  0
 12 16  2  0  0  0  0
 12 35  1  0  0  0  0
 13 17  1  0  0  0  0
 13 36  1  0  0  0  0
 14 18  2  0  0  0  0
 14 37  1  0  0  0  0
 15 19  2  0  0  0  0
 15 38  1  0  0  0  0
 16 19  1  0  0  0  0
 16 39  1  0  0  0  0
 17 20  2  0  0  0  0
 17 40  1  0  0  0  0
 18 20  1  0  0  0  0
 18 41  1  0  0  0  0
 21 43  1  0  0  0  0
 21 44  1  0  0  0  0
 21 45  1  0  0  0  0
M  END
> <PUBCHEM_COMPOUND_CID>
21629892

> <PUBCHEM_CONFORMER_RMSD>
0.8

> <PUBCHEM_CONFORMER_DIVERSEORDER>
1
4
2
8
3
5
7
6

> <PUBCHEM_MMFF94_PARTIAL_CHARGES>
26
1 -0.36
11 -0.15
12 -0.15
13 -0.15
14 -0.15
15 -0.15
16 -0.15
17 -0.15
18 -0.15
19 0.08
2 -0.53
20 0.08
21 0.28
3 0.14
34 0.15
35 0.15
36 0.15
37 0.15
38 0.15
39 0.15
4 0.14
40 0.15
41 0.15
42 0.45
7 -0.14
8 -0.14

> <PUBCHEM_EFFECTIVE_ROTOR_COUNT>
6

> <PUBCHEM_PHARMACOPHORE_FEATURES>
7
1 1 acceptor
1 10 hydrophobe
1 2 donor
1 9 hydrophobe
4 3 4 5 6 hydrophobe
6 7 11 12 15 16 19 rings
6 8 13 14 17 18 20 rings

> <PUBCHEM_HEAVY_ATOM_COUNT>
21

> <PUBCHEM_ATOM_DEF_STEREO_COUNT>
2

> <PUBCHEM_ATOM_UDEF_STEREO_COUNT>
0

> <PUBCHEM_BOND_DEF_STEREO_COUNT>
0

> <PUBCHEM_BOND_UDEF_STEREO_COUNT>
0

> <PUBCHEM_ISOTOPIC_ATOM_COUNT>
0

> <PUBCHEM_COMPONENT_COUNT>
1

> <PUBCHEM_CACTVS_TAUTO_COUNT>
2

> <PUBCHEM_CONFORMER_ID>
014A0BC400000001

> <PUBCHEM_MMFF94_ENERGY>
62.9102

> <PUBCHEM_FEATURE_SELFOVERLAP>
35.522

> <PUBCHEM_SHAPE_FINGERPRINT>
10366900 7 18259420828237922341
10906281 52 18189351095198683977
11370993 70 15195287521125004212
11646440 116 17988933283834078433
11796584 16 17458349641088139210
12011746 2 18411136922225245338
12107183 9 15795356832318174137
12166972 35 17775000224086352705
12236239 1 17822013120981378666
12467345 10 15647053754801835701
12592029 89 18409728443952354747
12788726 201 18115020797530465904
128620 24 8935006962170855338
13140716 1 18197782308720060762
13533116 47 17917712341094595174
13760787 19 17095243639559964298
14341114 176 16225770705002365677
14466204 15 18339642231181662953
15048467 5 16298387959117318204
15099037 51 18410857680652660215
15848700 24 18131072627876817128
1601671 61 18335984185912740101
16752209 62 18410291368204297104
17349148 13 17845940722377739099
1813 80 18130799949141023284
18186145 218 18271801367341246853
18222031 100 18131073731767769256
192875 21 17846503664137319905
19784866 9 17821726113548863898
200 152 17676207966375055968
20028762 73 17987241225692357983
20600515 1 18201170935470807944
21033648 29 18340468028864973624
21054139 6 18058716014459033711
21285901 2 18059306357302126540
21709351 56 18341321280490280501
23175994 123 18335144188951536996
23402539 116 18130784564393485142
23536379 177 16370724820534792280
23559900 14 15338828790017177610
23569914 2 15868814414048934221
23569943 247 17415299242381865430
266924 87 18124595288844744244
3004659 81 17458623381324394306
3009799 131 18412259532208706032
3060560 45 18343861117473941199
347723 3 18410855447375206872
34934 24 18266179616445318876
3545911 37 16298386859510712476
4072396 5 18336255760894784322
4214541 1 16515405174745880813
5385378 56 18267030466414547251
59755656 215 18340208479812256102
59755656 520 18201711860536705743
7495541 125 17968104182649278801
74978 22 18196373834514751002
77779 3 16298107600832085002
8272917 22 17313099709720389778
9971528 1 17847063293933308440

> <PUBCHEM_SHAPE_MULTIPOLES>
420.43
12.09
2.06
1.28
2.64
0.17
0.06
-1.23
-1.49
-0.25
-0.01
0.19
-0.01
0.25

> <PUBCHEM_SHAPE_SELFOVERLAP>
876.006

> <PUBCHEM_SHAPE_VOLUME>
240

> <PUBCHEM_COORDINATE_TYPE>
2
5
10

$$$$
