5284654
  -OEChem-09142614593D

 38 40  0     0  0  0  0  0  0999 V2000
   -1.7913   -1.8781    0.2439 O   0  0  0  0  0  0  0  0  0  0  0  0
    0.3158   -2.7312    0.3168 O   0  0  0  0  0  0  0  0  0  0  0  0
   -6.2504   -0.2071    0.1162 O   0  0  0  0  0  0  0  0  0  0  0  0
    5.7109    0.1321   -0.3377 O   0  0  0  0  0  0  0  0  0  0  0  0
   -0.6661    0.6848   -0.2115 C   0  0  0  0  0  0  0  0  0  0  0  0
   -2.1308    0.5035   -0.1339 C   0  0  0  0  0  0  0  0  0  0  0  0
    0.1374   -0.3915   -0.0615 C   0  0  0  0  0  0  0  0  0  0  0  0
   -0.1560    2.0850   -0.4607 C   0  0  0  0  0  0  0  0  0  0  0  0
   -2.6419   -0.7721    0.0910 C   0  0  0  0  0  0  0  0  0  0  0  0
    1.5902   -0.2542   -0.1337 C   0  0  0  0  0  0  0  0  0  0  0  0
   -0.4143   -1.7542    0.1796 C   0  0  0  0  0  0  0  0  0  0  0  0
   -3.0574    1.5485   -0.2741 C   0  0  0  0  0  0  0  0  0  0  0  0
    0.0743    2.8245    0.8379 C   0  0  0  0  0  0  0  0  0  0  0  0
   -4.0129   -1.0283    0.1777 C   0  0  0  0  0  0  0  0  0  0  0  0
    2.3175    0.0070    1.0235 C   0  0  0  0  0  0  0  0  0  0  0  0
    2.2364   -0.3866   -1.3587 C   0  0  0  0  0  0  0  0  0  0  0  0
   -4.4347    1.3100   -0.1903 C   0  0  0  0  0  0  0  0  0  0  0  0
   -4.9121    0.0219    0.0354 C   0  0  0  0  0  0  0  0  0  0  0  0
    3.7046    0.1374    0.9549 C   0  0  0  0  0  0  0  0  0  0  0  0
    3.6235   -0.2566   -1.4273 C   0  0  0  0  0  0  0  0  0  0  0  0
    4.3576    0.0056   -0.2706 C   0  0  0  0  0  0  0  0  0  0  0  0
    6.3996    0.3993    0.8832 C   0  0  0  0  0  0  0  0  0  0  0  0
    0.7929    2.0602   -1.0096 H   0  0  0  0  0  0  0  0  0  0  0  0
   -0.8076    2.6569   -1.1286 H   0  0  0  0  0  0  0  0  0  0  0  0
   -2.7516    2.5773   -0.4360 H   0  0  0  0  0  0  0  0  0  0  0  0
    0.4649    3.8268    0.6319 H   0  0  0  0  0  0  0  0  0  0  0  0
    0.7947    2.3211    1.4872 H   0  0  0  0  0  0  0  0  0  0  0  0
   -0.8564    2.9454    1.4024 H   0  0  0  0  0  0  0  0  0  0  0  0
   -4.3727   -2.0382    0.3543 H   0  0  0  0  0  0  0  0  0  0  0  0
    1.8229    0.1044    1.9869 H   0  0  0  0  0  0  0  0  0  0  0  0
    1.6777   -0.5914   -2.2687 H   0  0  0  0  0  0  0  0  0  0  0  0
   -5.1230    2.1442   -0.3005 H   0  0  0  0  0  0  0  0  0  0  0  0
    4.2129    0.3392    1.8916 H   0  0  0  0  0  0  0  0  0  0  0  0
    4.1267   -0.3605   -2.3848 H   0  0  0  0  0  0  0  0  0  0  0  0
   -6.7221    0.6347   -0.0063 H   0  0  0  0  0  0  0  0  0  0  0  0
    7.4658    0.4693    0.6442 H   0  0  0  0  0  0  0  0  0  0  0  0
    6.2853   -0.4229    1.5978 H   0  0  0  0  0  0  0  0  0  0  0  0
    6.1036    1.3639    1.3094 H   0  0  0  0  0  0  0  0  0  0  0  0
  1  9  1  0  0  0  0
  1 11  1  0  0  0  0
  2 11  2  0  0  0  0
  3 18  1  0  0  0  0
  3 35  1  0  0  0  0
  4 21  1  0  0  0  0
  4 22  1  0  0  0  0
  5  6  1  0  0  0  0
  5  7  2  0  0  0  0
  5  8  1  0  0  0  0
  6  9  2  0  0  0  0
  6 12  1  0  0  0  0
  7 10  1  0  0  0  0
  7 11  1  0  0  0  0
  8 13  1  0  0  0  0
  8 23  1  0  0  0  0
  8 24  1  0  0  0  0
  9 14  1  0  0  0  0
 10 15  2  0  0  0  0
 10 16  1  0  0  0  0
 12 17  2  0  0  0  0
 12 25  1  0  0  0  0
 13 26  1  0  0  0  0
 13 27  1  0  0  0  0
 13 28  1  0  0  0  0
 14 18  2  0  0  0  0
 14 29  1  0  0  0  0
 15 19  1  0  0  0  0
 15 30  1  0  0  0  0
 16 20  2  0  0  0  0
 16 31  1  0  0  0  0
 17 18  1  0  0  0  0
 17 32  1  0  0  0  0
 19 21  2  0  0  0  0
 19 33  1  0  0  0  0
 20 21  1  0  0  0  0
 20 34  1  0  0  0  0
 22 36  1  0  0  0  0
 22 37  1  0  0  0  0
 22 38  1  0  0  0  0
M  END
> <PUBCHEM_COMPOUND_CID>
5284654

> <PUBCHEM_CONFORMER_RMSD>
0.6

> <PUBCHEM_CONFORMER_DIVERSEORDER>
1
2

> <PUBCHEM_MMFF94_PARTIAL_CHARGES>
29
1 -0.23
10 0.03
11 0.71
12 -0.15
14 -0.15
15 -0.15
16 -0.15
17 -0.15
18 0.08
19 -0.15
2 -0.57
20 -0.15
21 0.08
22 0.28
25 0.15
29 0.15
3 -0.53
30 0.15
31 0.15
32 0.15
33 0.15
34 0.15
35 0.45
4 -0.36
5 -0.17
6 0.03
7 -0.01
8 0.14
9 0.08

> <PUBCHEM_EFFECTIVE_ROTOR_COUNT>
3

> <PUBCHEM_PHARMACOPHORE_FEATURES>
7
1 13 hydrophobe
1 2 acceptor
1 3 donor
1 4 acceptor
6 1 5 6 7 9 11 rings
6 10 15 16 19 20 21 rings
6 6 9 12 14 17 18 rings

> <PUBCHEM_HEAVY_ATOM_COUNT>
22

> <PUBCHEM_ATOM_DEF_STEREO_COUNT>
0

> <PUBCHEM_ATOM_UDEF_STEREO_COUNT>
0

> <PUBCHEM_BOND_DEF_STEREO_COUNT>
0

> <PUBCHEM_BOND_UDEF_STEREO_COUNT>
0

> <PUBCHEM_ISOTOPIC_ATOM_COUNT>
0

> <PUBCHEM_COMPONENT_COUNT>
1

> <PUBCHEM_CACTVS_TAUTO_COUNT>
3

> <PUBCHEM_CONFORMER_ID>
0050A32E00000001

> <PUBCHEM_MMFF94_ENERGY>
82.4177

> <PUBCHEM_FEATURE_SELFOVERLAP>
35.546

> <PUBCHEM_SHAPE_FINGERPRINT>
10 15 18272640287004378032
10411042 1 17904202877805245235
10498660 4 18338237050762341837
10906281 52 18198925732494676756
1100329 8 18337391663833109257
11578080 2 13828759438983750105
11646440 116 18272099309444175577
11963148 33 18187925131919240259
12011746 2 18410569587563921469
12035758 1 18342460386582905299
12236239 1 17458344148046214174
12403814 3 17167860846799490101
12788726 201 18272087133006624408
12838862 33 18337092511493922101
13140716 1 18192998338661208875
13402501 40 18272646866134853752
13533116 47 18339922607300808306
13583140 156 16226341386155609713
13862211 1 18408601479014727455
14386348 63 18131636681615292974
14787075 74 18341610447031095181
14790565 3 18409455790564436181
15196674 1 18336545993700123399
1601671 61 18335984181965809029
16945 1 18409167719097512431
17804303 29 18337111263099336929
19141452 34 17775284997555521255
200 152 15502371231758648540
20028762 73 18128819832100861311
20510252 161 18341051809356720832
20600515 1 18409739477601973788
20645477 70 16988291867779173206
20715895 44 17246936451822734821
21033648 29 17203315685874422313
21267235 1 18408892858317618675
21279426 13 18196937664699117493
21285901 2 17988373572138532612
23402539 116 18341888610877898318
23557571 272 18343308041898376492
23559900 14 18341621378508737006
26918003 58 14706931734866633468
2748010 2 17975417129375804391
2916195 48 18272927228641032224
3178227 256 18335154115538518675
335352 9 18409728491660627711
34934 24 18340482262728808047
350125 39 18335423465870577157
3680242 22 18335424513050949648
474229 33 18407759231205649247
5104073 3 18190748535817347731
5486654 2 18409452496645507078
59755656 215 18337959991676981222
7226269 152 18409446986044516032
7495541 125 17096101293548562737

> <PUBCHEM_SHAPE_MULTIPOLES>
429.27
11.85
2.05
0.99
3.79
0.34
-0.13
0.63
0.84
-1.16
0.32
1.05
0.06
0.5

> <PUBCHEM_SHAPE_SELFOVERLAP>
941.997

> <PUBCHEM_SHAPE_VOLUME>
232.3

> <PUBCHEM_COORDINATE_TYPE>
2
5
10

$$$$
