3534982
  -OEChem-09142615023D

 30 32  0     1  0  0  0  0  0999 V2000
    0.3989   -0.8714   -0.0140 O   0  0  0  0  0  0  0  0  0  0  0  0
    2.2003    2.8109   -0.1721 O   0  0  0  0  0  0  0  0  0  0  0  0
   -4.3648   -0.3983   -2.0582 O   0  0  0  0  0  0  0  0  0  0  0  0
   -0.2527    0.2881    0.5280 C   0  0  1  0  0  0  0  0  0  0  0  0
    0.1595    1.5510   -0.2257 C   0  0  0  0  0  0  0  0  0  0  0  0
   -1.7499    0.0736    0.4557 C   0  0  0  0  0  0  0  0  0  0  0  0
    1.6542    1.7150   -0.1305 C   0  0  0  0  0  0  0  0  0  0  0  0
    2.4383    0.4651   -0.0562 C   0  0  0  0  0  0  0  0  0  0  0  0
    1.7653   -0.7598   -0.0247 C   0  0  0  0  0  0  0  0  0  0  0  0
   -2.3748   -0.0646   -0.7832 C   0  0  0  0  0  0  0  0  0  0  0  0
   -2.5024    0.0139    1.6283 C   0  0  0  0  0  0  0  0  0  0  0  0
    3.8349    0.5032   -0.0613 C   0  0  0  0  0  0  0  0  0  0  0  0
    2.4923   -1.9510   -0.0328 C   0  0  0  0  0  0  0  0  0  0  0  0
   -3.7540   -0.2627   -0.8497 C   0  0  0  0  0  0  0  0  0  0  0  0
    4.5565   -0.6911   -0.0488 C   0  0  0  0  0  0  0  0  0  0  0  0
   -3.8814   -0.1842    1.5619 C   0  0  0  0  0  0  0  0  0  0  0  0
    3.8870   -1.9153   -0.0396 C   0  0  0  0  0  0  0  0  0  0  0  0
   -4.5072   -0.3227    0.3230 C   0  0  0  0  0  0  0  0  0  0  0  0
    0.0444    0.3742    1.5838 H   0  0  0  0  0  0  0  0  0  0  0  0
   -0.3225    2.4316    0.2136 H   0  0  0  0  0  0  0  0  0  0  0  0
   -0.0865    1.5072   -1.2926 H   0  0  0  0  0  0  0  0  0  0  0  0
   -1.7924   -0.0311   -1.7004 H   0  0  0  0  0  0  0  0  0  0  0  0
   -2.0294    0.1198    2.6008 H   0  0  0  0  0  0  0  0  0  0  0  0
    4.3749    1.4455   -0.0855 H   0  0  0  0  0  0  0  0  0  0  0  0
    1.9806   -2.9097   -0.0234 H   0  0  0  0  0  0  0  0  0  0  0  0
    5.6425   -0.6680   -0.0550 H   0  0  0  0  0  0  0  0  0  0  0  0
   -4.4681   -0.2309    2.4747 H   0  0  0  0  0  0  0  0  0  0  0  0
    4.4529   -2.8424   -0.0375 H   0  0  0  0  0  0  0  0  0  0  0  0
   -5.5818   -0.4770    0.2778 H   0  0  0  0  0  0  0  0  0  0  0  0
   -3.6949   -0.3305   -2.7601 H   0  0  0  0  0  0  0  0  0  0  0  0
  1  4  1  0  0  0  0
  1  9  1  0  0  0  0
  2  7  2  0  0  0  0
  3 14  1  0  0  0  0
  3 30  1  0  0  0  0
  4  5  1  0  0  0  0
  4  6  1  0  0  0  0
  4 19  1  0  0  0  0
  5  7  1  0  0  0  0
  5 20  1  0  0  0  0
  5 21  1  0  0  0  0
  6 10  2  0  0  0  0
  6 11  1  0  0  0  0
  7  8  1  0  0  0  0
  8  9  1  0  0  0  0
  8 12  2  0  0  0  0
  9 13  2  0  0  0  0
 10 14  1  0  0  0  0
 10 22  1  0  0  0  0
 11 16  2  0  0  0  0
 11 23  1  0  0  0  0
 12 15  1  0  0  0  0
 12 24  1  0  0  0  0
 13 17  1  0  0  0  0
 13 25  1  0  0  0  0
 14 18  2  0  0  0  0
 15 17  2  0  0  0  0
 15 26  1  0  0  0  0
 16 18  1  0  0  0  0
 16 27  1  0  0  0  0
 17 28  1  0  0  0  0
 18 29  1  0  0  0  0
M  END
> <PUBCHEM_COMPOUND_CID>
3534982

> <PUBCHEM_CONFORMER_RMSD>
0.6

> <PUBCHEM_CONFORMER_DIVERSEORDER>
1
5
14
3
12
7
10
15
2
8
4
11
13
9
6
16

> <PUBCHEM_MMFF94_PARTIAL_CHARGES>
27
1 -0.36
10 -0.15
11 -0.15
12 -0.15
13 -0.15
14 0.08
15 -0.15
16 -0.15
17 -0.15
18 -0.15
2 -0.57
22 0.15
23 0.15
24 0.15
25 0.15
26 0.15
27 0.15
28 0.15
29 0.15
3 -0.53
30 0.45
4 0.42
5 0.06
6 -0.14
7 0.42
8 0.09
9 0.08

> <PUBCHEM_EFFECTIVE_ROTOR_COUNT>
1.6

> <PUBCHEM_PHARMACOPHORE_FEATURES>
6
1 1 acceptor
1 2 acceptor
1 3 donor
6 1 4 5 7 8 9 rings
6 6 10 11 14 16 18 rings
6 8 9 12 13 15 17 rings

> <PUBCHEM_HEAVY_ATOM_COUNT>
18

> <PUBCHEM_ATOM_DEF_STEREO_COUNT>
0

> <PUBCHEM_ATOM_UDEF_STEREO_COUNT>
1

> <PUBCHEM_BOND_DEF_STEREO_COUNT>
0

> <PUBCHEM_BOND_UDEF_STEREO_COUNT>
0

> <PUBCHEM_ISOTOPIC_ATOM_COUNT>
0

> <PUBCHEM_COMPONENT_COUNT>
1

> <PUBCHEM_CACTVS_TAUTO_COUNT>
6

> <PUBCHEM_CONFORMER_ID>
0035F08600000001

> <PUBCHEM_MMFF94_ENERGY>
51.0071

> <PUBCHEM_FEATURE_SELFOVERLAP>
30.476

> <PUBCHEM_SHAPE_FINGERPRINT>
10062212 137 17846500331442722579
10498660 4 15647042751486007223
11471102 20 18408604781744123932
11796584 16 16443339833035611042
12236239 1 17846782914489269171
12403259 415 17531247288016725013
12553582 1 18339369578204492782
12670546 56 17632573851051884857
13134695 92 18408603660663032724
13140716 1 18194123147530255408
13296908 3 17822015315266620427
13544653 18 18335988558394935494
13760787 5 18410580582606300812
13862211 1 18410291372895163042
14251717 144 18411418419051442798
14252887 29 18272377417309164698
14289901 80 15626509392927160202
14386348 63 17749114391536398011
15099037 37 14045446874243515773
15375462 189 18059860553726803458
15848700 24 18410853231715310028
16945 1 18410017658528353648
17349148 13 18131069337641711635
17357779 13 18186514380383289661
1813 80 18128272111710061606
18186145 218 17530963579609528305
18222031 100 18271238336057948478
200 152 18343862208448186753
20279233 1 17749113287524230595
20645477 70 18334574676298247118
21065201 7 16298384686457773073
21267235 1 18339654347621715914
21639500 275 18339079418503320225
21641784 216 17897186666701552444
21728266 224 16630234862469223871
22112679 90 17417820555956548145
221357 26 18261659399520934965
221490 88 18191031290130290290
2255824 54 18342183318701738092
22646028 1 17917709097808217359
22646028 28 17989486325076518159
22943178 12 17822295751003715913
23175994 123 18041006124339653765
23402539 116 18340768126856360882
23557571 272 16950284039866107149
23559900 14 16950277369776732066
2748010 2 18194115214752078676
2838139 119 15287074842708081174
2871803 45 18188210897298162194
474 4 17842828086986514272
5161694 15 17603863399422340431
5281201 14 17530689822340824309
573450 72 17060340712773286291
602551 16 15338829910702819167
6049 1 17603594053560062461
7471813 234 18060412521412523184
7615 1 17846503646946758137
77492 1 17775011210527922561
9981440 41 17264952374581292576

> <PUBCHEM_SHAPE_MULTIPOLES>
352.82
9.37
1.82
1.19
2.86
0.73
0.08
-2.91
0.71
-2.49
0.12
2.02
-0.13
-0.17

> <PUBCHEM_SHAPE_SELFOVERLAP>
780.135

> <PUBCHEM_SHAPE_VOLUME>
188.2

> <PUBCHEM_COORDINATE_TYPE>
2
5
10

$$$$
