62550
  -OEChem-09142615043D

 27 28  0     0  0  0  0  0  0999 V2000
    0.0028   -0.2652    0.3362 P   0  0  0  0  0  0  0  0  0  0  0  0
   -1.2502    0.7706    0.2728 O   0  0  0  0  0  0  0  0  0  0  0  0
    1.2491    0.7723    0.2743 O   0  0  0  0  0  0  0  0  0  0  0  0
    0.0024   -1.0658    1.6137 O   0  0  0  0  0  0  0  0  0  0  0  0
   -2.5326    0.3814    0.0354 C   0  0  0  0  0  0  0  0  0  0  0  0
    2.5384    0.3800    0.0347 C   0  0  0  0  0  0  0  0  0  0  0  0
   -2.8259   -0.9669   -0.1688 C   0  0  0  0  0  0  0  0  0  0  0  0
    2.8233   -0.9661   -0.1690 C   0  0  0  0  0  0  0  0  0  0  0  0
   -3.5538    1.3308   -0.0039 C   0  0  0  0  0  0  0  0  0  0  0  0
    3.5529    1.3310   -0.0029 C   0  0  0  0  0  0  0  0  0  0  0  0
   -4.1401   -1.3659   -0.4119 C   0  0  0  0  0  0  0  0  0  0  0  0
    4.1373   -1.3658   -0.4131 C   0  0  0  0  0  0  0  0  0  0  0  0
   -4.8681    0.9318   -0.2471 C   0  0  0  0  0  0  0  0  0  0  0  0
    4.8668    0.9313   -0.2470 C   0  0  0  0  0  0  0  0  0  0  0  0
   -5.1614   -0.4164   -0.4511 C   0  0  0  0  0  0  0  0  0  0  0  0
    5.1590   -0.4170   -0.4522 C   0  0  0  0  0  0  0  0  0  0  0  0
    0.0031   -0.8555   -0.9469 H   0  0  0  0  0  0  0  0  0  0  0  0
   -2.0619   -1.7372   -0.1498 H   0  0  0  0  0  0  0  0  0  0  0  0
    2.0590   -1.7355   -0.1501 H   0  0  0  0  0  0  0  0  0  0  0  0
   -3.3314    2.3826    0.1543 H   0  0  0  0  0  0  0  0  0  0  0  0
    3.3299    2.3822    0.1563 H   0  0  0  0  0  0  0  0  0  0  0  0
   -4.3690   -2.4156   -0.5716 H   0  0  0  0  0  0  0  0  0  0  0  0
    4.3653   -2.4155   -0.5737 H   0  0  0  0  0  0  0  0  0  0  0  0
   -5.6631    1.6711   -0.2777 H   0  0  0  0  0  0  0  0  0  0  0  0
    5.6623    1.6702   -0.2774 H   0  0  0  0  0  0  0  0  0  0  0  0
   -6.1847   -0.7271   -0.6406 H   0  0  0  0  0  0  0  0  0  0  0  0
    6.1820   -0.7281   -0.6425 H   0  0  0  0  0  0  0  0  0  0  0  0
  1  2  1  0  0  0  0
  1  3  1  0  0  0  0
  1  4  2  0  0  0  0
  1 17  1  0  0  0  0
  2  5  1  0  0  0  0
  3  6  1  0  0  0  0
  5  7  2  0  0  0  0
  5  9  1  0  0  0  0
  6  8  2  0  0  0  0
  6 10  1  0  0  0  0
  7 11  1  0  0  0  0
  7 18  1  0  0  0  0
  8 12  1  0  0  0  0
  8 19  1  0  0  0  0
  9 13  2  0  0  0  0
  9 20  1  0  0  0  0
 10 14  2  0  0  0  0
 10 21  1  0  0  0  0
 11 15  2  0  0  0  0
 11 22  1  0  0  0  0
 12 16  2  0  0  0  0
 12 23  1  0  0  0  0
 13 15  1  0  0  0  0
 13 24  1  0  0  0  0
 14 16  1  0  0  0  0
 14 25  1  0  0  0  0
 15 26  1  0  0  0  0
 16 27  1  0  0  0  0
M  END
> <PUBCHEM_COMPOUND_CID>
62550

> <PUBCHEM_CONFORMER_RMSD>
0.6

> <PUBCHEM_CONFORMER_DIVERSEORDER>
1
23
3
16
14
26
11
18
17
5
27
28
19
13
4
20
8
2
12
10
6
21
29
7
24
25
22
15
9

> <PUBCHEM_MMFF94_PARTIAL_CHARGES>
27
1 1.28
10 -0.15
11 -0.15
12 -0.15
13 -0.15
14 -0.15
15 -0.15
16 -0.15
17 -0.04
18 0.15
19 0.15
2 -0.35
20 0.15
21 0.15
22 0.15
23 0.15
24 0.15
25 0.15
26 0.15
27 0.15
3 -0.35
4 -0.7
5 0.08
6 0.08
7 -0.15
8 -0.15
9 -0.15

> <PUBCHEM_EFFECTIVE_ROTOR_COUNT>
4

> <PUBCHEM_PHARMACOPHORE_FEATURES>
3
1 4 acceptor
6 5 7 9 11 13 15 rings
6 6 8 10 12 14 16 rings

> <PUBCHEM_HEAVY_ATOM_COUNT>
16

> <PUBCHEM_ATOM_DEF_STEREO_COUNT>
0

> <PUBCHEM_ATOM_UDEF_STEREO_COUNT>
0

> <PUBCHEM_BOND_DEF_STEREO_COUNT>
0

> <PUBCHEM_BOND_UDEF_STEREO_COUNT>
0

> <PUBCHEM_ISOTOPIC_ATOM_COUNT>
0

> <PUBCHEM_COMPONENT_COUNT>
1

> <PUBCHEM_CACTVS_TAUTO_COUNT>
2

> <PUBCHEM_CONFORMER_ID>
0000F45600000001

> <PUBCHEM_MMFF94_ENERGY>
37.649

> <PUBCHEM_FEATURE_SELFOVERLAP>
15.223

> <PUBCHEM_SHAPE_FINGERPRINT>
10354089 29 7925911478819883366
10595046 47 18413107285769848620
10680689 15 18187650197928612073
11287383 113 18341613741323388306
114248 4 18342738528754592960
12107183 9 17620760483332230600
12251169 10 9151167649614554960
12916748 109 17967818249290780001
13167823 11 18342455941307766198
14123238 8 18131914866341132204
14251718 22 18411982485495849092
14528608 73 18410296951735615748
15196674 1 18412826884476861759
17834072 33 18341894112488339772
17844677 252 18343590646008660105
18186145 218 17967808353591067436
18222031 100 14189573035570481344
200 152 17989489619063057744
20300324 65 18413108368555248865
204376 136 14851605479439643193
20645477 70 18343304721867681262
221357 26 18412539907990358461
22485316 2 18343863324759895100
23402539 116 18334853917997634508
23402655 69 18411420600868429444
23536379 177 18343865493744779321
23559900 14 18272363208913836656
239999 70 18060424608304588430
29717793 49 17632584820925782100
300161 21 18410567388092396436
3004659 81 18411420575489191262
314173 85 13758358868691935267
3268164 11 17313094238058382533
351380 180 18407759244296195012
3545911 37 18410857667773143437
4214541 1 18341895164871625021
42788 4 18411138034616545829
4921388 177 17458633366828296339
4990 188 18410576167290353546
5104073 3 18413389834430283834
542803 24 17458347441901144980
633830 44 18040434399398612575
69090 78 18410011052626137162
7495541 125 17489300936090368976
77779 3 18413108363811830197
9709674 26 18412271639948457758
9971528 1 17967816055021551524

> <PUBCHEM_SHAPE_MULTIPOLES>
315.51
13.08
1.47
0.8
0.03
0.04
0.18
-0.05
-2.93
0
-0.05
0
0.16
0

> <PUBCHEM_SHAPE_SELFOVERLAP>
658.789

> <PUBCHEM_SHAPE_VOLUME>
178.1

> <PUBCHEM_COORDINATE_TYPE>
2
5
10

$$$$
