2734580
  -OEChem-09142615013D

 30 32  0     1  0  0  0  0  0999 V2000
   -0.1276   -0.8698   -0.0843 O   0  0  0  0  0  0  0  0  0  0  0  0
    1.5247    2.8756   -0.3531 O   0  0  0  0  0  0  0  0  0  0  0  0
    5.3680   -0.4113    0.2140 O   0  0  0  0  0  0  0  0  0  0  0  0
   -0.8612    0.2884    0.3436 C   0  0  1  0  0  0  0  0  0  0  0  0
   -0.4534    1.5225   -0.4591 C   0  0  0  0  0  0  0  0  0  0  0  0
   -2.3401    0.0022    0.1906 C   0  0  0  0  0  0  0  0  0  0  0  0
    1.8525    0.5536   -0.0787 C   0  0  0  0  0  0  0  0  0  0  0  0
    1.0234    1.7600   -0.2792 C   0  0  0  0  0  0  0  0  0  0  0  0
    1.2308   -0.6968   -0.0151 C   0  0  0  0  0  0  0  0  0  0  0  0
    3.2436    0.6552    0.0033 C   0  0  0  0  0  0  0  0  0  0  0  0
   -3.2552    0.5697    1.0770 C   0  0  0  0  0  0  0  0  0  0  0  0
   -2.7867   -0.8291   -0.8363 C   0  0  0  0  0  0  0  0  0  0  0  0
    2.0057   -1.8520    0.0964 C   0  0  0  0  0  0  0  0  0  0  0  0
    4.0119   -0.5021    0.1353 C   0  0  0  0  0  0  0  0  0  0  0  0
    3.3950   -1.7530    0.1771 C   0  0  0  0  0  0  0  0  0  0  0  0
   -4.6178    0.3056    0.9363 C   0  0  0  0  0  0  0  0  0  0  0  0
   -4.1491   -1.0930   -0.9771 C   0  0  0  0  0  0  0  0  0  0  0  0
   -5.0645   -0.5256   -0.0907 C   0  0  0  0  0  0  0  0  0  0  0  0
   -0.6474    0.4338    1.4130 H   0  0  0  0  0  0  0  0  0  0  0  0
   -0.9988    2.4059   -0.1091 H   0  0  0  0  0  0  0  0  0  0  0  0
   -0.6412    1.3916   -1.5313 H   0  0  0  0  0  0  0  0  0  0  0  0
    3.7386    1.6216   -0.0444 H   0  0  0  0  0  0  0  0  0  0  0  0
   -2.9195    1.2205    1.8799 H   0  0  0  0  0  0  0  0  0  0  0  0
   -2.0961   -1.2728   -1.5481 H   0  0  0  0  0  0  0  0  0  0  0  0
    1.5347   -2.8307    0.1320 H   0  0  0  0  0  0  0  0  0  0  0  0
    3.9866   -2.6598    0.2726 H   0  0  0  0  0  0  0  0  0  0  0  0
   -5.3308    0.7478    1.6260 H   0  0  0  0  0  0  0  0  0  0  0  0
   -4.4977   -1.7377   -1.7786 H   0  0  0  0  0  0  0  0  0  0  0  0
   -6.1254   -0.7304   -0.2008 H   0  0  0  0  0  0  0  0  0  0  0  0
    5.7394   -1.3061    0.2999 H   0  0  0  0  0  0  0  0  0  0  0  0
  1  4  1  0  0  0  0
  1  9  1  0  0  0  0
  2  8  2  0  0  0  0
  3 14  1  0  0  0  0
  3 30  1  0  0  0  0
  4  5  1  0  0  0  0
  4  6  1  0  0  0  0
  4 19  1  0  0  0  0
  5  8  1  0  0  0  0
  5 20  1  0  0  0  0
  5 21  1  0  0  0  0
  6 11  2  0  0  0  0
  6 12  1  0  0  0  0
  7  8  1  0  0  0  0
  7  9  2  0  0  0  0
  7 10  1  0  0  0  0
  9 13  1  0  0  0  0
 10 14  2  0  0  0  0
 10 22  1  0  0  0  0
 11 16  1  0  0  0  0
 11 23  1  0  0  0  0
 12 17  2  0  0  0  0
 12 24  1  0  0  0  0
 13 15  2  0  0  0  0
 13 25  1  0  0  0  0
 14 15  1  0  0  0  0
 15 26  1  0  0  0  0
 16 18  2  0  0  0  0
 16 27  1  0  0  0  0
 17 18  1  0  0  0  0
 17 28  1  0  0  0  0
 18 29  1  0  0  0  0
M  END
> <PUBCHEM_COMPOUND_CID>
2734580

> <PUBCHEM_CONFORMER_RMSD>
0.6

> <PUBCHEM_CONFORMER_DIVERSEORDER>
2
3
4
1

> <PUBCHEM_MMFF94_PARTIAL_CHARGES>
27
1 -0.36
10 -0.15
11 -0.15
12 -0.15
13 -0.15
14 0.08
15 -0.15
16 -0.15
17 -0.15
18 -0.15
2 -0.57
22 0.15
23 0.15
24 0.15
25 0.15
26 0.15
27 0.15
28 0.15
29 0.15
3 -0.53
30 0.45
4 0.42
5 0.06
6 -0.14
7 0.09
8 0.42
9 0.08

> <PUBCHEM_EFFECTIVE_ROTOR_COUNT>
1.6

> <PUBCHEM_PHARMACOPHORE_FEATURES>
6
1 1 acceptor
1 2 acceptor
1 3 donor
6 1 4 5 7 8 9 rings
6 6 11 12 16 17 18 rings
6 7 9 10 13 14 15 rings

> <PUBCHEM_HEAVY_ATOM_COUNT>
18

> <PUBCHEM_ATOM_DEF_STEREO_COUNT>
0

> <PUBCHEM_ATOM_UDEF_STEREO_COUNT>
1

> <PUBCHEM_BOND_DEF_STEREO_COUNT>
0

> <PUBCHEM_BOND_UDEF_STEREO_COUNT>
0

> <PUBCHEM_ISOTOPIC_ATOM_COUNT>
0

> <PUBCHEM_COMPONENT_COUNT>
1

> <PUBCHEM_CACTVS_TAUTO_COUNT>
6

> <PUBCHEM_CONFORMER_ID>
0029B9F400000002

> <PUBCHEM_MMFF94_ENERGY>
51.2196

> <PUBCHEM_FEATURE_SELFOVERLAP>
30.476

> <PUBCHEM_SHAPE_FINGERPRINT>
10062212 137 18131349739488300719
10616163 171 18130506452566903175
11471102 20 18334857246581419036
11578080 2 17843936266000932761
11806522 49 18411135844272960494
12107183 9 17409944530649213051
12236239 1 18131070450612864411
12251169 10 18343586235256029919
12553582 1 18409162182341530862
12670546 56 17917705821027830009
13140716 1 18192150610505411992
13167823 11 18201719565681335527
13544653 18 18187649055008303974
13583140 156 15123217802389195759
13760787 5 18259708916852287380
13862211 1 18335978701756558874
14251717 144 18409165532305148054
14252887 29 18272095950700803614
14386348 63 17385728001969604963
15196674 1 18337390427135586034
15375462 189 18410573963703073083
15442244 35 18340772546425226673
15527383 91 18334299760259135749
15536298 74 18272368719419959760
15848700 24 18408319973872791652
15848702 151 18271529710470033447
16945 1 18335423499428078916
17357779 13 17895180100444840869
17862501 102 18202001040568096153
1813 80 18336278846401847572
18186145 218 17458621242293413593
18222031 100 18412536605028307686
18785283 64 17896892160134610372
19050596 39 18202569501281017459
200 152 18342452647521277231
20612939 158 18334295421941324957
20645477 70 18187642565481485733
21267235 1 18411990147638695646
21641784 216 17750252334927594276
221490 88 18190184683567755515
2255824 54 18338240482583512756
22646028 1 18273494585325643155
22646028 28 18343300379534237087
23402539 116 18410851027832831530
23559900 14 18340480183405571657
26918003 58 17967818240716630931
2748010 2 18193266395817227900
2871803 45 18187081707314502050
34797466 226 16271652303428492944
34934 24 18191584142937079145
474 4 18193554695085885329
5104073 3 18272093859294142563
573450 72 17775849017166600531
602551 16 15553875715126137815
67856867 119 18129656547036630321
7364860 26 18340485685470057392
7495541 125 16950860196384910649
77492 1 18059580221760032317
83771 10 18410009905764179200
84936 182 17841714307182118097
9971528 1 18411978079060116792
9981440 41 17332794458228862769

> <PUBCHEM_SHAPE_MULTIPOLES>
352.82
9.89
1.92
0.85
2.83
0.78
-0.03
-3.02
-0.88
-1.38
0.28
0.77
0
-0.81

> <PUBCHEM_SHAPE_SELFOVERLAP>
780.264

> <PUBCHEM_SHAPE_VOLUME>
188.2

> <PUBCHEM_COORDINATE_TYPE>
2
5
10

$$$$
