234907
  -OEChem-09142615083D

 42 43  0     1  0  0  0  0  0999 V2000
    3.7651    2.9905   -0.5160 O   0  0  0  0  0  0  0  0  0  0  0  0
   -3.7581    2.9924    0.5277 O   0  0  0  0  0  0  0  0  0  0  0  0
    0.6499   -1.6155    0.4383 C   0  0  1  0  0  0  0  0  0  0  0  0
   -0.6488   -1.6125   -0.4513 C   0  0  1  0  0  0  0  0  0  0  0  0
    1.4957   -2.9015    0.2564 C   0  0  0  0  0  0  0  0  0  0  0  0
   -1.4960   -2.8986   -0.2758 C   0  0  0  0  0  0  0  0  0  0  0  0
    1.4942   -0.3675    0.1797 C   0  0  0  0  0  0  0  0  0  0  0  0
   -1.4916   -0.3648   -0.1860 C   0  0  0  0  0  0  0  0  0  0  0  0
    2.7085   -2.9752    1.1805 C   0  0  0  0  0  0  0  0  0  0  0  0
   -2.7407   -2.9400   -1.1583 C   0  0  0  0  0  0  0  0  0  0  0  0
    1.7103    0.5095    1.2181 C   0  0  0  0  0  0  0  0  0  0  0  0
   -1.7069    0.5178   -1.2197 C   0  0  0  0  0  0  0  0  0  0  0  0
    2.0066   -0.1676   -1.0821 C   0  0  0  0  0  0  0  0  0  0  0  0
   -2.0033   -0.1707    1.0771 C   0  0  0  0  0  0  0  0  0  0  0  0
    2.4804    1.6483    0.9820 C   0  0  0  0  0  0  0  0  0  0  0  0
   -2.4756    1.6563   -0.9776 C   0  0  0  0  0  0  0  0  0  0  0  0
    2.7769    0.9712   -1.3182 C   0  0  0  0  0  0  0  0  0  0  0  0
   -2.7721    0.9677    1.3193 C   0  0  0  0  0  0  0  0  0  0  0  0
    3.0139    1.8791   -0.2860 C   0  0  0  0  0  0  0  0  0  0  0  0
   -3.0083    1.8813    0.2919 C   0  0  0  0  0  0  0  0  0  0  0  0
    0.3370   -1.6103    1.4919 H   0  0  0  0  0  0  0  0  0  0  0  0
   -0.3373   -1.6023   -1.5052 H   0  0  0  0  0  0  0  0  0  0  0  0
    1.8246   -3.0134   -0.7833 H   0  0  0  0  0  0  0  0  0  0  0  0
    0.8876   -3.7807    0.4914 H   0  0  0  0  0  0  0  0  0  0  0  0
   -0.8996   -3.7737   -0.5533 H   0  0  0  0  0  0  0  0  0  0  0  0
   -1.7910   -3.0345    0.7713 H   0  0  0  0  0  0  0  0  0  0  0  0
    3.1987   -3.9488    1.0768 H   0  0  0  0  0  0  0  0  0  0  0  0
    3.4490   -2.2070    0.9395 H   0  0  0  0  0  0  0  0  0  0  0  0
    2.4118   -2.8566    2.2275 H   0  0  0  0  0  0  0  0  0  0  0  0
   -2.4809   -2.7868   -2.2106 H   0  0  0  0  0  0  0  0  0  0  0  0
   -3.2281   -3.9165   -1.0701 H   0  0  0  0  0  0  0  0  0  0  0  0
   -3.4725   -2.1814   -0.8660 H   0  0  0  0  0  0  0  0  0  0  0  0
    1.3003    0.3392    2.2085 H   0  0  0  0  0  0  0  0  0  0  0  0
   -1.2975    0.3521   -2.2112 H   0  0  0  0  0  0  0  0  0  0  0  0
    1.8360   -0.8647   -1.8958 H   0  0  0  0  0  0  0  0  0  0  0  0
   -1.8338   -0.8728    1.8869 H   0  0  0  0  0  0  0  0  0  0  0  0
    2.6575    2.3479    1.7944 H   0  0  0  0  0  0  0  0  0  0  0  0
   -2.6520    2.3604   -1.7864 H   0  0  0  0  0  0  0  0  0  0  0  0
    3.1902    1.1452   -2.3079 H   0  0  0  0  0  0  0  0  0  0  0  0
   -3.1850    1.1370    2.3100 H   0  0  0  0  0  0  0  0  0  0  0  0
    3.8259    3.5055    0.3069 H   0  0  0  0  0  0  0  0  0  0  0  0
   -3.8185    3.5117   -0.2925 H   0  0  0  0  0  0  0  0  0  0  0  0
  1 19  1  0  0  0  0
  1 41  1  0  0  0  0
  2 20  1  0  0  0  0
  2 42  1  0  0  0  0
  3  4  1  0  0  0  0
  3  5  1  0  0  0  0
  3  7  1  0  0  0  0
  3 21  1  0  0  0  0
  4  6  1  0  0  0  0
  4  8  1  0  0  0  0
  4 22  1  0  0  0  0
  5  9  1  0  0  0  0
  5 23  1  0  0  0  0
  5 24  1  0  0  0  0
  6 10  1  0  0  0  0
  6 25  1  0  0  0  0
  6 26  1  0  0  0  0
  7 11  2  0  0  0  0
  7 13  1  0  0  0  0
  8 12  2  0  0  0  0
  8 14  1  0  0  0  0
  9 27  1  0  0  0  0
  9 28  1  0  0  0  0
  9 29  1  0  0  0  0
 10 30  1  0  0  0  0
 10 31  1  0  0  0  0
 10 32  1  0  0  0  0
 11 15  1  0  0  0  0
 11 33  1  0  0  0  0
 12 16  1  0  0  0  0
 12 34  1  0  0  0  0
 13 17  2  0  0  0  0
 13 35  1  0  0  0  0
 14 18  2  0  0  0  0
 14 36  1  0  0  0  0
 15 19  2  0  0  0  0
 15 37  1  0  0  0  0
 16 20  2  0  0  0  0
 16 38  1  0  0  0  0
 17 19  1  0  0  0  0
 17 39  1  0  0  0  0
 18 20  1  0  0  0  0
 18 40  1  0  0  0  0
M  END
> <PUBCHEM_COMPOUND_CID>
234907

> <PUBCHEM_CONFORMER_RMSD>
0.8

> <PUBCHEM_CONFORMER_DIVERSEORDER>
1
3
2
4

> <PUBCHEM_MMFF94_PARTIAL_CHARGES>
26
1 -0.53
11 -0.15
12 -0.15
13 -0.15
14 -0.15
15 -0.15
16 -0.15
17 -0.15
18 -0.15
19 0.08
2 -0.53
20 0.08
3 0.14
33 0.15
34 0.15
35 0.15
36 0.15
37 0.15
38 0.15
39 0.15
4 0.14
40 0.15
41 0.45
42 0.45
7 -0.14
8 -0.14

> <PUBCHEM_EFFECTIVE_ROTOR_COUNT>
5

> <PUBCHEM_PHARMACOPHORE_FEATURES>
7
1 1 donor
1 10 hydrophobe
1 2 donor
1 9 hydrophobe
4 3 4 5 6 hydrophobe
6 7 11 13 15 17 19 rings
6 8 12 14 16 18 20 rings

> <PUBCHEM_HEAVY_ATOM_COUNT>
20

> <PUBCHEM_ATOM_DEF_STEREO_COUNT>
2

> <PUBCHEM_ATOM_UDEF_STEREO_COUNT>
0

> <PUBCHEM_BOND_DEF_STEREO_COUNT>
0

> <PUBCHEM_BOND_UDEF_STEREO_COUNT>
0

> <PUBCHEM_ISOTOPIC_ATOM_COUNT>
0

> <PUBCHEM_COMPONENT_COUNT>
1

> <PUBCHEM_CACTVS_TAUTO_COUNT>
3

> <PUBCHEM_CONFORMER_ID>
0003959B00000001

> <PUBCHEM_MMFF94_ENERGY>
53.4128

> <PUBCHEM_FEATURE_SELFOVERLAP>
35.523

> <PUBCHEM_SHAPE_FINGERPRINT>
10165383 225 18194151609614251133
10498660 4 18194115441863184053
10871710 139 18047761678331161981
12173636 292 18340210811625835965
12633257 1 17756728333739472873
12788726 201 18049717726422082987
128993 33 18410586084074726721
13132413 78 17979630144242437514
13134695 92 17756982307571165906
13140716 1 18265050228634401547
13294875 104 18343015554656992192
133893 2 17604689137166630026
13965767 371 18114169818406640228
14142880 1 18263644142130436157
14178342 30 18339350972195163672
14386348 128 18339094738530332712
14614273 12 18190448536214341087
14955137 171 18050015393579292682
15238133 3 17472434148679786105
15490181 7 18338811073115045838
16945 1 18265890272645332222
17134986 127 18339931402602163101
17357779 13 17626941229429842951
18785283 64 18120387466477423745
18981168 100 18411135835593251177
20510252 161 17978226385309832348
20600515 1 17982723074731242218
20645476 183 18270965644004196743
20671657 1 18336828580788338798
20739085 24 17477215928948804770
21041028 32 17686340867556765116
21501502 16 18410848867353960078
21524375 3 18411429418114703586
23175994 123 17686345265281600931
23402539 116 17692244557961573246
23419403 2 16463696186600907062
23557571 272 17981891053217514798
23558518 356 18264214767116646862
238 59 18119793726056509933
283562 15 18049719912529132418
305870 269 18335137613883679344
350125 39 18410012134768284091
469060 322 17973448990408106755
589210 1 18338503196974665478
6442390 28 18193583235248880755
6992083 37 18050829044942037738
74978 22 18342452591233366078
7808743 9 18339369689668602784
81228 2 17835532891459711250

> <PUBCHEM_SHAPE_MULTIPOLES>
399.85
5.99
4.08
1.36
0
1.56
0
-4.09
0
-0.02
0.02
0
-0.08
-1.6

> <PUBCHEM_SHAPE_SELFOVERLAP>
841.65

> <PUBCHEM_SHAPE_VOLUME>
225.7

> <PUBCHEM_COORDINATE_TYPE>
2
5
10

$$$$
