79302
  -OEChem-09142615353D

 34 34  0     0  0  0  0  0  0999 V2000
    4.0425   -0.0518   -0.2317 O   0  0  0  0  0  0  0  0  0  0  0  0
   -0.1197    0.0578    0.5789 C   0  0  0  0  0  0  0  0  0  0  0  0
   -1.6344    0.0580    0.3815 C   0  0  0  0  0  0  0  0  0  0  0  0
    0.4938   -1.2514    0.0628 C   0  0  0  0  0  0  0  0  0  0  0  0
    0.5169    1.2716   -0.1122 C   0  0  0  0  0  0  0  0  0  0  0  0
    2.0134   -1.2520    0.1997 C   0  0  0  0  0  0  0  0  0  0  0  0
    2.0364    1.2638    0.0248 C   0  0  0  0  0  0  0  0  0  0  0  0
    2.6421   -0.0418   -0.4861 C   0  0  0  0  0  0  0  0  0  0  0  0
   -2.0144   -0.1142   -1.1158 C   0  0  0  0  0  0  0  0  0  0  0  0
   -2.2399   -1.1287    1.1627 C   0  0  0  0  0  0  0  0  0  0  0  0
   -2.2291    1.3612    0.9499 C   0  0  0  0  0  0  0  0  0  0  0  0
   -3.5076   -0.1725   -1.4146 C   0  0  0  0  0  0  0  0  0  0  0  0
    0.1060    0.1318    1.6527 H   0  0  0  0  0  0  0  0  0  0  0  0
    0.2803   -1.4177   -0.9965 H   0  0  0  0  0  0  0  0  0  0  0  0
    0.1147   -2.1174    0.6142 H   0  0  0  0  0  0  0  0  0  0  0  0
    0.1555    2.2106    0.3191 H   0  0  0  0  0  0  0  0  0  0  0  0
    0.2881    1.2963   -1.1819 H   0  0  0  0  0  0  0  0  0  0  0  0
    2.2922   -1.2625    1.2617 H   0  0  0  0  0  0  0  0  0  0  0  0
    2.4300   -2.1745   -0.2230 H   0  0  0  0  0  0  0  0  0  0  0  0
    2.4673    2.1115   -0.5220 H   0  0  0  0  0  0  0  0  0  0  0  0
    2.3181    1.4161    1.0750 H   0  0  0  0  0  0  0  0  0  0  0  0
    2.4989   -0.1209   -1.5704 H   0  0  0  0  0  0  0  0  0  0  0  0
   -1.6126    0.7112   -1.7117 H   0  0  0  0  0  0  0  0  0  0  0  0
   -1.5968   -1.0354   -1.5312 H   0  0  0  0  0  0  0  0  0  0  0  0
   -3.3270   -1.0318    1.2649 H   0  0  0  0  0  0  0  0  0  0  0  0
   -1.8360   -1.1796    2.1806 H   0  0  0  0  0  0  0  0  0  0  0  0
   -2.0554   -2.0916    0.6751 H   0  0  0  0  0  0  0  0  0  0  0  0
   -2.0311    2.2217    0.3025 H   0  0  0  0  0  0  0  0  0  0  0  0
   -3.3178    1.2945    1.0558 H   0  0  0  0  0  0  0  0  0  0  0  0
   -1.8284    1.5802    1.9463 H   0  0  0  0  0  0  0  0  0  0  0  0
   -4.0226    0.7355   -1.0887 H   0  0  0  0  0  0  0  0  0  0  0  0
   -3.6645   -0.2656   -2.4949 H   0  0  0  0  0  0  0  0  0  0  0  0
   -3.9857   -1.0357   -0.9434 H   0  0  0  0  0  0  0  0  0  0  0  0
    4.4267    0.7222   -0.6777 H   0  0  0  0  0  0  0  0  0  0  0  0
  1  8  1  0  0  0  0
  1 34  1  0  0  0  0
  2  3  1  0  0  0  0
  2  4  1  0  0  0  0
  2  5  1  0  0  0  0
  2 13  1  0  0  0  0
  3  9  1  0  0  0  0
  3 10  1  0  0  0  0
  3 11  1  0  0  0  0
  4  6  1  0  0  0  0
  4 14  1  0  0  0  0
  4 15  1  0  0  0  0
  5  7  1  0  0  0  0
  5 16  1  0  0  0  0
  5 17  1  0  0  0  0
  6  8  1  0  0  0  0
  6 18  1  0  0  0  0
  6 19  1  0  0  0  0
  7  8  1  0  0  0  0
  7 20  1  0  0  0  0
  7 21  1  0  0  0  0
  8 22  1  0  0  0  0
  9 12  1  0  0  0  0
  9 23  1  0  0  0  0
  9 24  1  0  0  0  0
 10 25  1  0  0  0  0
 10 26  1  0  0  0  0
 10 27  1  0  0  0  0
 11 28  1  0  0  0  0
 11 29  1  0  0  0  0
 11 30  1  0  0  0  0
 12 31  1  0  0  0  0
 12 32  1  0  0  0  0
 12 33  1  0  0  0  0
M  END
> <PUBCHEM_COMPOUND_CID>
79302

> <PUBCHEM_CONFORMER_RMSD>
0.6

> <PUBCHEM_CONFORMER_DIVERSEORDER>
3
8
5
10
4
9
2
6
7
1

> <PUBCHEM_MMFF94_PARTIAL_CHARGES>
3
1 -0.68
34 0.4
8 0.28

> <PUBCHEM_EFFECTIVE_ROTOR_COUNT>
3.2

> <PUBCHEM_PHARMACOPHORE_FEATURES>
5
1 1 acceptor
1 1 donor
1 12 hydrophobe
3 3 10 11 hydrophobe
6 2 4 5 6 7 8 rings

> <PUBCHEM_HEAVY_ATOM_COUNT>
12

> <PUBCHEM_ATOM_DEF_STEREO_COUNT>
0

> <PUBCHEM_ATOM_UDEF_STEREO_COUNT>
0

> <PUBCHEM_BOND_DEF_STEREO_COUNT>
0

> <PUBCHEM_BOND_UDEF_STEREO_COUNT>
0

> <PUBCHEM_ISOTOPIC_ATOM_COUNT>
0

> <PUBCHEM_COMPONENT_COUNT>
1

> <PUBCHEM_CACTVS_TAUTO_COUNT>
1

> <PUBCHEM_CONFORMER_ID>
000135C600000003

> <PUBCHEM_MMFF94_ENERGY>
29.8255

> <PUBCHEM_FEATURE_SELFOVERLAP>
25.378

> <PUBCHEM_SHAPE_FINGERPRINT>
11769659 78 16845575266814653398
12138202 97 17240753004390970423
124424 183 17458617900608390770
12897270 3 18408038532860122023
12932764 1 17418100909751303800
13024252 1 13623533476308540785
14128692 85 17560508599218883367
14325111 11 18410022052221868760
14993402 34 18201715158976117038
15219456 202 18040997409581835301
15775835 57 17704078360723515625
15906896 17 17916882205520020673
16945 1 18342461473410097242
17844478 74 17386305232604960793
18186145 218 17967828141053942006
18534176 82 17386004000863025915
200 152 18272083933324118367
20201158 50 18260264135822410094
20653085 51 17385720326937023429
21293036 1 18335695057166943807
23402655 69 18338507531187225469
23557571 272 16805615784081720431
25 1 18041549227338637285
2748010 2 18120099639217480888
3248919 1 18408324375939911586
369184 2 17022906748125243683
5084963 1 17604721099742936953
528886 8 18409453552859380424
63268167 104 18335980891661936848
6333449 129 17313100869646181455
8030462 33 18341894082249456281

> <PUBCHEM_SHAPE_MULTIPOLES>
241.09
5.41
1.42
1.15
1.69
0.1
-0.13
-0.18
-1.37
0.13
0.29
-1.16
-0.07
-0.13

> <PUBCHEM_SHAPE_SELFOVERLAP>
468.991

> <PUBCHEM_SHAPE_VOLUME>
146.1

> <PUBCHEM_COORDINATE_TYPE>
2
5
10

$$$$
