70038
  -OEChem-09142615093D

 26 27  0     0  0  0  0  0  0999 V2000
   -2.6568    2.0103    0.2364 O   0  0  0  0  0  0  0  0  0  0  0  0
    1.4565    0.5343   -2.1649 O   0  0  0  0  0  0  0  0  0  0  0  0
   -0.1345    2.1372    0.3383 O   0  0  0  0  0  0  0  0  0  0  0  0
   -1.2319    0.0848    0.1059 C   0  0  0  0  0  0  0  0  0  0  0  0
    1.3384    0.3241    0.2211 C   0  0  0  0  0  0  0  0  0  0  0  0
   -0.0361    0.9072    0.2265 C   0  0  0  0  0  0  0  0  0  0  0  0
   -2.5017    0.6618    0.1144 C   0  0  0  0  0  0  0  0  0  0  0  0
    2.0067    0.1708   -0.9721 C   0  0  0  0  0  0  0  0  0  0  0  0
   -1.0949   -1.2977   -0.0193 C   0  0  0  0  0  0  0  0  0  0  0  0
    1.8854   -0.0406    1.4315 C   0  0  0  0  0  0  0  0  0  0  0  0
   -3.6346   -0.1437   -0.0022 C   0  0  0  0  0  0  0  0  0  0  0  0
    3.2898   -0.3761   -0.9554 C   0  0  0  0  0  0  0  0  0  0  0  0
   -2.2277   -2.1031   -0.1358 C   0  0  0  0  0  0  0  0  0  0  0  0
    3.1685   -0.5876    1.4481 C   0  0  0  0  0  0  0  0  0  0  0  0
   -3.4976   -1.5262   -0.1272 C   0  0  0  0  0  0  0  0  0  0  0  0
    3.8707   -0.7553    0.2547 C   0  0  0  0  0  0  0  0  0  0  0  0
   -0.1286   -1.7922   -0.0313 H   0  0  0  0  0  0  0  0  0  0  0  0
    1.3433    0.0880    2.3636 H   0  0  0  0  0  0  0  0  0  0  0  0
   -4.6301    0.2921    0.0031 H   0  0  0  0  0  0  0  0  0  0  0  0
    3.8485   -0.5128   -1.8775 H   0  0  0  0  0  0  0  0  0  0  0  0
   -2.1217   -3.1796   -0.2333 H   0  0  0  0  0  0  0  0  0  0  0  0
    3.6208   -0.8830    2.3903 H   0  0  0  0  0  0  0  0  0  0  0  0
   -4.3796   -2.1535   -0.2179 H   0  0  0  0  0  0  0  0  0  0  0  0
    4.8697   -1.1812    0.2679 H   0  0  0  0  0  0  0  0  0  0  0  0
   -3.6056    2.2237    0.2223 H   0  0  0  0  0  0  0  0  0  0  0  0
    2.0888    0.3419   -2.8784 H   0  0  0  0  0  0  0  0  0  0  0  0
  1  7  1  0  0  0  0
  1 25  1  0  0  0  0
  2  8  1  0  0  0  0
  2 26  1  0  0  0  0
  3  6  2  0  0  0  0
  4  6  1  0  0  0  0
  4  7  1  0  0  0  0
  4  9  2  0  0  0  0
  5  6  1  0  0  0  0
  5  8  1  0  0  0  0
  5 10  2  0  0  0  0
  7 11  2  0  0  0  0
  8 12  2  0  0  0  0
  9 13  1  0  0  0  0
  9 17  1  0  0  0  0
 10 14  1  0  0  0  0
 10 18  1  0  0  0  0
 11 15  1  0  0  0  0
 11 19  1  0  0  0  0
 12 16  1  0  0  0  0
 12 20  1  0  0  0  0
 13 15  2  0  0  0  0
 13 21  1  0  0  0  0
 14 16  2  0  0  0  0
 14 22  1  0  0  0  0
 15 23  1  0  0  0  0
 16 24  1  0  0  0  0
M  END
> <PUBCHEM_COMPOUND_CID>
70038

> <PUBCHEM_CONFORMER_RMSD>
0.6

> <PUBCHEM_CONFORMER_DIVERSEORDER>
1
12
8
4
7
3
13
9
10
11
6
5
2

> <PUBCHEM_MMFF94_PARTIAL_CHARGES>
26
1 -0.53
10 -0.15
11 -0.15
12 -0.15
13 -0.15
14 -0.15
15 -0.15
16 -0.15
17 0.15
18 0.15
19 0.15
2 -0.53
20 0.15
21 0.15
22 0.15
23 0.15
24 0.15
25 0.45
26 0.45
3 -0.57
4 0.09
5 0.09
6 0.4
7 0.08
8 0.08
9 -0.15

> <PUBCHEM_EFFECTIVE_ROTOR_COUNT>
2

> <PUBCHEM_PHARMACOPHORE_FEATURES>
5
1 1 donor
1 2 donor
1 3 acceptor
6 4 7 9 11 13 15 rings
6 5 8 10 12 14 16 rings

> <PUBCHEM_HEAVY_ATOM_COUNT>
16

> <PUBCHEM_ATOM_DEF_STEREO_COUNT>
0

> <PUBCHEM_ATOM_UDEF_STEREO_COUNT>
0

> <PUBCHEM_BOND_DEF_STEREO_COUNT>
0

> <PUBCHEM_BOND_UDEF_STEREO_COUNT>
0

> <PUBCHEM_ISOTOPIC_ATOM_COUNT>
0

> <PUBCHEM_COMPONENT_COUNT>
1

> <PUBCHEM_CACTVS_TAUTO_COUNT>
14

> <PUBCHEM_CONFORMER_ID>
0001119600000001

> <PUBCHEM_MMFF94_ENERGY>
54.3949

> <PUBCHEM_FEATURE_SELFOVERLAP>
25.371

> <PUBCHEM_SHAPE_FINGERPRINT>
10465860 71 18338249235737184316
10751810 167 18259991478376706315
11471102 22 16200433555105087602
11543360 7 15864349215998247731
11578080 2 17606085529634373460
11582403 64 16187698852381857176
12202030 40 17488765401134841766
12236239 1 17894914009977465898
12346177 29 18272920627423854991
12500047 106 18269549442715027720
13083527 12 17195695180903485271
13134695 92 15647043872699395886
13296908 3 18131067151576892730
13538477 17 18259985989476878987
13581323 91 18411696590823814947
14115302 16 18041277768062442207
15219456 202 17489582364123132688
15375358 24 17703785903473185425
15375462 189 18113899355456206992
15653759 3 17917992776055645778
16752209 62 18336533959391625139
16945 1 18411415068692121897
17804303 29 18343582962527912859
1813 80 17314507020722979618
18175812 5 17561077021118934208
18186145 218 12757427207399988104
18522853 266 18339081484440507950
19049666 15 17273709649572403610
19422 9 17967255290604986363
200 152 16588017992344265762
20279233 1 17632858624563407135
20361792 2 17168133529746023782
20645476 183 17749113322174313947
20715346 28 17561361794314023616
21197605 99 12497641751691236426
21639500 275 16154002338673615868
22112679 90 18187374198618680460
23184049 29 18196083580693764459
232386 152 18409726300383521462
23402539 116 18201987812459299221
23463225 33 18334572412850865554
23557571 272 18201726154377497448
23559900 14 18201159828848612102
23598291 2 17822302257715600196
2748010 2 18051968418767247595
3082319 5 17748829639214751855
465052 167 18117013254814010203
474 4 17242465055849431284
568465 68 16917071079056534430
5902787 121 18341047531384300985
69090 78 17203317927810511679
7364860 26 17983575487709506200
74978 22 18335700602254455387
77492 1 17894633630127725440
81228 2 17558851510494684985

> <PUBCHEM_SHAPE_MULTIPOLES>
311.66
6.62
1.73
1.24
0.17
0.19
-0.28
-2.05
0.25
-1.57
0.09
1.32
0.05
-0.39

> <PUBCHEM_SHAPE_SELFOVERLAP>
684.371

> <PUBCHEM_SHAPE_VOLUME>
167.7

> <PUBCHEM_COORDINATE_TYPE>
2
5
10

$$$$
