5282361
  -OEChem-09142615003D

 29 30  0     0  0  0  0  0  0999 V2000
    5.9864    1.1322    0.2575 O   0  0  0  0  0  0  0  0  0  0  0  0
   -1.7174   -2.2439   -0.4388 O   0  0  0  0  0  0  0  0  0  0  0  0
    2.1771   -0.4784   -0.0938 C   0  0  0  0  0  0  0  0  0  0  0  0
   -2.8514   -0.2254   -0.0592 C   0  0  0  0  0  0  0  0  0  0  0  0
    0.8423   -1.0425   -0.2157 C   0  0  0  0  0  0  0  0  0  0  0  0
    2.3724    0.8931   -0.2573 C   0  0  0  0  0  0  0  0  0  0  0  0
    3.2621   -1.3086    0.1878 C   0  0  0  0  0  0  0  0  0  0  0  0
   -1.6238   -1.0397   -0.2285 C   0  0  0  0  0  0  0  0  0  0  0  0
   -0.3115   -0.3466   -0.1017 C   0  0  0  0  0  0  0  0  0  0  0  0
   -2.8228    1.1091   -0.4123 C   0  0  0  0  0  0  0  0  0  0  0  0
   -3.9874   -0.8257    0.4465 C   0  0  0  0  0  0  0  0  0  0  0  0
    3.6525    1.4344   -0.1396 C   0  0  0  0  0  0  0  0  0  0  0  0
    4.5422   -0.7673    0.3058 C   0  0  0  0  0  0  0  0  0  0  0  0
    4.7374    0.6042    0.1419 C   0  0  0  0  0  0  0  0  0  0  0  0
   -3.9779    1.8749   -0.2532 C   0  0  0  0  0  0  0  0  0  0  0  0
   -5.1425   -0.0600    0.6053 C   0  0  0  0  0  0  0  0  0  0  0  0
   -5.1377    1.2903    0.2554 C   0  0  0  0  0  0  0  0  0  0  0  0
    0.8051   -2.1101   -0.4213 H   0  0  0  0  0  0  0  0  0  0  0  0
    1.5622    1.5752   -0.4985 H   0  0  0  0  0  0  0  0  0  0  0  0
    3.1294   -2.3797    0.3202 H   0  0  0  0  0  0  0  0  0  0  0  0
   -0.3036    0.7037    0.1587 H   0  0  0  0  0  0  0  0  0  0  0  0
   -1.9558    1.5927   -0.8495 H   0  0  0  0  0  0  0  0  0  0  0  0
   -4.0055   -1.8744    0.7279 H   0  0  0  0  0  0  0  0  0  0  0  0
    3.7926    2.5036   -0.2738 H   0  0  0  0  0  0  0  0  0  0  0  0
    5.3836   -1.4188    0.5256 H   0  0  0  0  0  0  0  0  0  0  0  0
   -3.9776    2.9240   -0.5342 H   0  0  0  0  0  0  0  0  0  0  0  0
   -6.0455   -0.5149    1.0020 H   0  0  0  0  0  0  0  0  0  0  0  0
   -6.0377    1.8860    0.3772 H   0  0  0  0  0  0  0  0  0  0  0  0
    5.9368    2.0931    0.1148 H   0  0  0  0  0  0  0  0  0  0  0  0
  1 14  1  0  0  0  0
  1 29  1  0  0  0  0
  2  8  2  0  0  0  0
  3  5  1  0  0  0  0
  3  6  2  0  0  0  0
  3  7  1  0  0  0  0
  4  8  1  0  0  0  0
  4 10  2  0  0  0  0
  4 11  1  0  0  0  0
  5  9  2  0  0  0  0
  5 18  1  0  0  0  0
  6 12  1  0  0  0  0
  6 19  1  0  0  0  0
  7 13  2  0  0  0  0
  7 20  1  0  0  0  0
  8  9  1  0  0  0  0
  9 21  1  0  0  0  0
 10 15  1  0  0  0  0
 10 22  1  0  0  0  0
 11 16  2  0  0  0  0
 11 23  1  0  0  0  0
 12 14  2  0  0  0  0
 12 24  1  0  0  0  0
 13 14  1  0  0  0  0
 13 25  1  0  0  0  0
 15 17  2  0  0  0  0
 15 26  1  0  0  0  0
 16 17  1  0  0  0  0
 16 27  1  0  0  0  0
 17 28  1  0  0  0  0
M  END
> <PUBCHEM_COMPOUND_CID>
5282361

> <PUBCHEM_CONFORMER_RMSD>
0.6

> <PUBCHEM_CONFORMER_DIVERSEORDER>
1
8
7
4
5
6
3
2
9

> <PUBCHEM_MMFF94_PARTIAL_CHARGES>
29
1 -0.53
10 -0.15
11 -0.15
12 -0.15
13 -0.15
14 0.08
15 -0.15
16 -0.15
17 -0.15
18 0.15
19 0.15
2 -0.57
20 0.15
21 0.15
22 0.15
23 0.15
24 0.15
25 0.15
26 0.15
27 0.15
28 0.15
29 0.45
3 0.03
4 0.09
5 -0.18
6 -0.15
7 -0.15
8 0.47
9 -0.14

> <PUBCHEM_EFFECTIVE_ROTOR_COUNT>
3

> <PUBCHEM_PHARMACOPHORE_FEATURES>
4
1 1 donor
1 2 acceptor
6 3 6 7 12 13 14 rings
6 4 10 11 15 16 17 rings

> <PUBCHEM_HEAVY_ATOM_COUNT>
17

> <PUBCHEM_ATOM_DEF_STEREO_COUNT>
0

> <PUBCHEM_ATOM_UDEF_STEREO_COUNT>
0

> <PUBCHEM_BOND_DEF_STEREO_COUNT>
1

> <PUBCHEM_BOND_UDEF_STEREO_COUNT>
0

> <PUBCHEM_ISOTOPIC_ATOM_COUNT>
0

> <PUBCHEM_COMPONENT_COUNT>
1

> <PUBCHEM_CACTVS_TAUTO_COUNT>
2

> <PUBCHEM_CONFORMER_ID>
00509A3900000001

> <PUBCHEM_MMFF94_ENERGY>
52.5265

> <PUBCHEM_FEATURE_SELFOVERLAP>
20.297

> <PUBCHEM_SHAPE_FINGERPRINT>
10 15 18261953046281903440
10014705 185 18342453751101148991
10354089 29 18260269655256182184
11046707 91 7925909283817262511
11089746 13 17774994709427166640
11595378 159 17385989646935103960
12107183 9 17686332075463058497
12507557 5 18335423469674810513
12555020 224 9223225209957831209
12596602 18 17240202144443557177
12916748 109 18341337716612768497
13675066 3 18186524297446808439
13785724 45 17691123730380192610
14123255 352 18411979135548069301
14251764 18 18187078469409976610
14252887 29 14345790522732702930
14341114 176 18333737896409915120
15188451 53 16154000161473447827
15196674 1 18410292488699917005
15501527 16 18412827988478726521
17870717 6 10664103363612520841
1813 80 16298390136813632422
193927 3 11025793154997484056
19489759 90 15864066564648520773
20281389 69 18410290324585338008
20645477 56 18413670227259851407
20645477 70 16988294088240471926
21065199 12 18260270720149803779
212847 35 18272367560174286064
21421861 104 17823403917454973322
21652331 79 18408040701987729869
23402539 116 18273207595605559085
23402655 69 18341893013461963158
23559900 14 18130509609299163830
2916195 48 18341888627941826896
300161 21 18202558497495800578
351380 180 18333732407763620105
351380 3 10809347749818970297
3545911 37 18342178877678965846
42 15 18040436576952410342
4214541 1 18409729564621852967
465052 167 11458719291392482361
474 4 17822576104893793724
5104073 3 18334576815207844123
542803 24 17346599668412427050
77779 3 18408323289170949114
8272917 22 18341334401426108510
90127 26 18335713714658014314

> <PUBCHEM_SHAPE_MULTIPOLES>
338.11
13.34
1.8
0.69
3.09
0.01
0.01
4.78
2.18
-0.42
-0.15
-0.18
-0.02
0.06

> <PUBCHEM_SHAPE_SELFOVERLAP>
729.044

> <PUBCHEM_SHAPE_VOLUME>
185.6

> <PUBCHEM_COORDINATE_TYPE>
2
5
10

$$$$
