97032
  -OEChem-09142615083D

 24 25  0     0  0  0  0  0  0999 V2000
    3.6509    2.6252   -0.7069 Cl  0  0  0  0  0  0  0  0  0  0  0  0
   -3.6508    2.6252    0.7069 Cl  0  0  0  0  0  0  0  0  0  0  0  0
    3.6484   -2.6263    0.7057 Cl  0  0  0  0  0  0  0  0  0  0  0  0
   -3.6485   -2.6263   -0.7056 Cl  0  0  0  0  0  0  0  0  0  0  0  0
    4.8788   -0.0006   -0.0001 O   0  0  0  0  0  0  0  0  0  0  0  0
   -4.8788   -0.0006    0.0001 O   0  0  0  0  0  0  0  0  0  0  0  0
    0.7234    0.0007    0.0004 C   0  0  0  0  0  0  0  0  0  0  0  0
   -0.7234    0.0007   -0.0004 C   0  0  0  0  0  0  0  0  0  0  0  0
    1.4204   -1.1662    0.3133 C   0  0  0  0  0  0  0  0  0  0  0  0
   -1.4204   -1.1662   -0.3134 C   0  0  0  0  0  0  0  0  0  0  0  0
    1.4213    1.1672   -0.3126 C   0  0  0  0  0  0  0  0  0  0  0  0
   -1.4213    1.1673    0.3126 C   0  0  0  0  0  0  0  0  0  0  0  0
    2.8162    1.1668   -0.3123 C   0  0  0  0  0  0  0  0  0  0  0  0
   -2.8162    1.1668    0.3123 C   0  0  0  0  0  0  0  0  0  0  0  0
    2.8153   -1.1667    0.3135 C   0  0  0  0  0  0  0  0  0  0  0  0
   -2.8153   -1.1667   -0.3135 C   0  0  0  0  0  0  0  0  0  0  0  0
    3.5132   -0.0001    0.0007 C   0  0  0  0  0  0  0  0  0  0  0  0
   -3.5132   -0.0001   -0.0007 C   0  0  0  0  0  0  0  0  0  0  0  0
    0.9056   -2.0821    0.5933 H   0  0  0  0  0  0  0  0  0  0  0  0
   -0.9055   -2.0821   -0.5934 H   0  0  0  0  0  0  0  0  0  0  0  0
    0.9069    2.0833   -0.5930 H   0  0  0  0  0  0  0  0  0  0  0  0
   -0.9070    2.0834    0.5929 H   0  0  0  0  0  0  0  0  0  0  0  0
    5.1867    0.8907   -0.2392 H   0  0  0  0  0  0  0  0  0  0  0  0
   -5.1867    0.8907    0.2392 H   0  0  0  0  0  0  0  0  0  0  0  0
  1 13  1  0  0  0  0
  2 14  1  0  0  0  0
  3 15  1  0  0  0  0
  4 16  1  0  0  0  0
  5 17  1  0  0  0  0
  5 23  1  0  0  0  0
  6 18  1  0  0  0  0
  6 24  1  0  0  0  0
  7  8  1  0  0  0  0
  7  9  2  0  0  0  0
  7 11  1  0  0  0  0
  8 10  2  0  0  0  0
  8 12  1  0  0  0  0
  9 15  1  0  0  0  0
  9 19  1  0  0  0  0
 10 16  1  0  0  0  0
 10 20  1  0  0  0  0
 11 13  2  0  0  0  0
 11 21  1  0  0  0  0
 12 14  2  0  0  0  0
 12 22  1  0  0  0  0
 13 17  1  0  0  0  0
 14 18  1  0  0  0  0
 15 17  2  0  0  0  0
 16 18  2  0  0  0  0
M  END
> <PUBCHEM_COMPOUND_CID>
97032

> <PUBCHEM_CONFORMER_RMSD>
0.6

> <PUBCHEM_CONFORMER_DIVERSEORDER>
1
2

> <PUBCHEM_MMFF94_PARTIAL_CHARGES>
22
1 -0.18
10 -0.15
11 -0.15
12 -0.15
13 0.18
14 0.18
15 0.18
16 0.18
17 0.08
18 0.08
19 0.15
2 -0.18
20 0.15
21 0.15
22 0.15
23 0.45
24 0.45
3 -0.18
4 -0.18
5 -0.53
6 -0.53
9 -0.15

> <PUBCHEM_EFFECTIVE_ROTOR_COUNT>
1

> <PUBCHEM_PHARMACOPHORE_FEATURES>
4
1 5 donor
1 6 donor
6 7 9 11 13 15 17 rings
6 8 10 12 14 16 18 rings

> <PUBCHEM_HEAVY_ATOM_COUNT>
18

> <PUBCHEM_ATOM_DEF_STEREO_COUNT>
0

> <PUBCHEM_ATOM_UDEF_STEREO_COUNT>
0

> <PUBCHEM_BOND_DEF_STEREO_COUNT>
0

> <PUBCHEM_BOND_UDEF_STEREO_COUNT>
0

> <PUBCHEM_ISOTOPIC_ATOM_COUNT>
0

> <PUBCHEM_COMPONENT_COUNT>
1

> <PUBCHEM_CACTVS_TAUTO_COUNT>
3

> <PUBCHEM_CONFORMER_ID>
00017B0800000001

> <PUBCHEM_MMFF94_ENERGY>
50.1066

> <PUBCHEM_FEATURE_SELFOVERLAP>
20.298

> <PUBCHEM_SHAPE_FINGERPRINT>
10062212 137 18341043026111553787
10616163 171 18341895224816927839
12107183 9 17978509728396870259
12173636 292 18272082808068956805
12236239 1 18410856559639789576
12251169 10 18410573967971582030
13140716 1 18338798909767287154
13167823 11 18410575084663397222
13583140 156 17749396914807103289
13760787 19 18340209686286141711
14178342 30 18339342103298791682
14289901 80 18410856589704561011
14576447 43 18338228379524175046
15196674 1 18410855464423129088
15442244 35 18337953368404120802
15536298 74 18412544314763395458
15669948 3 18131067181852751591
17492 89 18410856564014911027
17834072 33 18336827592845705518
1813 80 17314235462746341982
18186145 218 17240197737785830218
19050596 39 18410574019521752050
19422 9 18410572885640102695
200 152 18339637940461374055
20281475 54 18410848867358968486
20510252 161 18060143081572083297
20645477 70 18334290955233475982
21267235 1 18410583880756341479
21501502 16 18410855464423129095
21709351 56 18335415790346775076
221490 88 18334583477055956714
2255824 54 18260831488666085490
23402539 116 18341043107694801167
23402655 69 18408604742788900484
23463225 33 18410573955266177614
23557571 272 17703794690971310248
23559900 14 18129662981229760550
23598288 3 18131351938305782901
23598291 2 18408317765827331798
312423 11 18335710433297705735
335352 9 18122344575367381356
3545911 37 18410573989446424958
4214541 1 18411699855146685377
4409770 3 17033303481496904772
474 4 17896325881803054740
5104073 3 18410575131907720072
53777708 50 18410857667773130474
543358 83 18336834091663980588
57096353 35 18266458900154810974
573450 72 18340477881261026411
58051976 100 18410576192843957823
603831 33 18198335354447430998
633830 44 17167867430509711192
67856867 119 18337381747212695192
7097593 13 18265329517267198970
7364860 26 18410293610366811266
77779 3 18410857659151456334
7832392 63 18411419466986695648
84936 182 18268994353137918504
9709674 26 18409735079402734650
9981440 41 17902510729346379240

> <PUBCHEM_SHAPE_MULTIPOLES>
366.17
9.48
2.92
0.78
0
0
0
0
0
0
0
0
0
-2.01

> <PUBCHEM_SHAPE_SELFOVERLAP>
762.833

> <PUBCHEM_SHAPE_VOLUME>
213.1

> <PUBCHEM_COORDINATE_TYPE>
2
5
10

$$$$
