5284655
  -OEChem-09142614563D

 45 48  0     1  0  0  0  0  0999 V2000
    5.2333   -1.1048   -0.1851 O   0  0  0  0  0  0  0  0  0  0  0  0
   -2.2720    2.9916    0.4079 O   0  0  0  0  0  0  0  0  0  0  0  0
   -5.7205   -0.5970   -0.5151 O   0  0  0  0  0  0  0  0  0  0  0  0
    2.7967   -0.6280   -0.1317 C   0  0  1  0  0  0  0  0  0  0  0  0
    2.0658    0.6524    0.3202 C   0  0  2  0  0  0  0  0  0  0  0  0
    0.5933    0.6538   -0.0901 C   0  0  1  0  0  0  0  0  0  0  0  0
   -0.1184   -0.5530    0.5919 C   0  0  2  0  0  0  0  0  0  0  0  0
    4.2171   -0.2877    0.3631 C   0  0  2  0  0  0  0  0  0  0  0  0
    2.1397   -1.8224    0.5704 C   0  0  0  0  0  0  0  0  0  0  0  0
    2.9787    1.7747   -0.1670 C   0  0  0  0  0  0  0  0  0  0  0  0
    0.6247   -1.8847    0.2977 C   0  0  0  0  0  0  0  0  0  0  0  0
    4.3979    1.1988   -0.0049 C   0  0  0  0  0  0  0  0  0  0  0  0
   -0.1250    1.9386    0.3177 C   0  0  0  0  0  0  0  0  0  0  0  0
    2.7925   -0.8691   -1.6625 C   0  0  0  0  0  0  0  0  0  0  0  0
   -1.6123   -0.5619    0.2742 C   0  0  0  0  0  0  0  0  0  0  0  0
   -1.5478    1.9470   -0.2401 C   0  0  1  0  0  0  0  0  0  0  0  0
   -2.2811    0.6320   -0.0816 C   0  0  0  0  0  0  0  0  0  0  0  0
   -2.3721   -1.7391    0.4040 C   0  0  0  0  0  0  0  0  0  0  0  0
   -3.6610    0.5968   -0.3606 C   0  0  0  0  0  0  0  0  0  0  0  0
   -3.7429   -1.7522    0.1405 C   0  0  0  0  0  0  0  0  0  0  0  0
   -4.3866   -0.5859   -0.2488 C   0  0  0  0  0  0  0  0  0  0  0  0
    2.0891    0.6993    1.4221 H   0  0  0  0  0  0  0  0  0  0  0  0
    0.5154    0.5618   -1.1811 H   0  0  0  0  0  0  0  0  0  0  0  0
   -0.0599   -0.4024    1.6811 H   0  0  0  0  0  0  0  0  0  0  0  0
    4.2750   -0.3847    1.4552 H   0  0  0  0  0  0  0  0  0  0  0  0
    2.2925   -1.7491    1.6551 H   0  0  0  0  0  0  0  0  0  0  0  0
    2.6085   -2.7630    0.2572 H   0  0  0  0  0  0  0  0  0  0  0  0
    2.8530    2.6900    0.4204 H   0  0  0  0  0  0  0  0  0  0  0  0
    2.7847    2.0244   -1.2160 H   0  0  0  0  0  0  0  0  0  0  0  0
    0.4442   -2.1885   -0.7405 H   0  0  0  0  0  0  0  0  0  0  0  0
    0.2211   -2.6885    0.9243 H   0  0  0  0  0  0  0  0  0  0  0  0
    4.9776    1.3249   -0.9261 H   0  0  0  0  0  0  0  0  0  0  0  0
    4.9439    1.7200    0.7892 H   0  0  0  0  0  0  0  0  0  0  0  0
    0.4028    2.8259   -0.0522 H   0  0  0  0  0  0  0  0  0  0  0  0
   -0.1428    2.0393    1.4115 H   0  0  0  0  0  0  0  0  0  0  0  0
    3.2765   -0.0569   -2.2138 H   0  0  0  0  0  0  0  0  0  0  0  0
    3.3349   -1.7898   -1.9074 H   0  0  0  0  0  0  0  0  0  0  0  0
    1.7853   -0.9770   -2.0731 H   0  0  0  0  0  0  0  0  0  0  0  0
   -1.5131    2.1775   -1.3127 H   0  0  0  0  0  0  0  0  0  0  0  0
    5.0240   -2.0256    0.0462 H   0  0  0  0  0  0  0  0  0  0  0  0
   -1.9142   -2.6723    0.7176 H   0  0  0  0  0  0  0  0  0  0  0  0
   -4.1759    1.5045   -0.6694 H   0  0  0  0  0  0  0  0  0  0  0  0
   -1.8018    3.8252    0.2354 H   0  0  0  0  0  0  0  0  0  0  0  0
   -4.2940   -2.6831    0.2448 H   0  0  0  0  0  0  0  0  0  0  0  0
   -6.0604   -1.4991   -0.3860 H   0  0  0  0  0  0  0  0  0  0  0  0
  1  8  1  0  0  0  0
  1 40  1  0  0  0  0
  2 16  1  0  0  0  0
  2 43  1  0  0  0  0
  3 21  1  0  0  0  0
  3 45  1  0  0  0  0
  4  5  1  0  0  0  0
  4  8  1  0  0  0  0
  4  9  1  0  0  0  0
  4 14  1  0  0  0  0
  5  6  1  0  0  0  0
  5 10  1  0  0  0  0
  5 22  1  0  0  0  0
  6  7  1  0  0  0  0
  6 13  1  0  0  0  0
  6 23  1  0  0  0  0
  7 11  1  0  0  0  0
  7 15  1  0  0  0  0
  7 24  1  0  0  0  0
  8 12  1  0  0  0  0
  8 25  1  0  0  0  0
  9 11  1  0  0  0  0
  9 26  1  0  0  0  0
  9 27  1  0  0  0  0
 10 12  1  0  0  0  0
 10 28  1  0  0  0  0
 10 29  1  0  0  0  0
 11 30  1  0  0  0  0
 11 31  1  0  0  0  0
 12 32  1  0  0  0  0
 12 33  1  0  0  0  0
 13 16  1  0  0  0  0
 13 34  1  0  0  0  0
 13 35  1  0  0  0  0
 14 36  1  0  0  0  0
 14 37  1  0  0  0  0
 14 38  1  0  0  0  0
 15 17  2  0  0  0  0
 15 18  1  0  0  0  0
 16 17  1  0  0  0  0
 16 39  1  0  0  0  0
 17 19  1  0  0  0  0
 18 20  2  0  0  0  0
 18 41  1  0  0  0  0
 19 21  2  0  0  0  0
 19 42  1  0  0  0  0
 20 21  1  0  0  0  0
 20 44  1  0  0  0  0
M  END
> <PUBCHEM_COMPOUND_CID>
5284655

> <PUBCHEM_CONFORMER_RMSD>
0.6

> <PUBCHEM_CONFORMER_DIVERSEORDER>
1

> <PUBCHEM_MMFF94_PARTIAL_CHARGES>
18
1 -0.68
15 -0.14
16 0.42
17 -0.14
18 -0.15
19 -0.15
2 -0.68
20 -0.15
21 0.08
3 -0.53
40 0.4
41 0.15
42 0.15
43 0.4
44 0.15
45 0.45
7 0.14
8 0.28

> <PUBCHEM_EFFECTIVE_ROTOR_COUNT>
1.4

> <PUBCHEM_PHARMACOPHORE_FEATURES>
9
1 1 acceptor
1 1 donor
1 2 acceptor
1 2 donor
1 3 donor
5 4 5 8 10 12 rings
6 15 17 18 19 20 21 rings
6 4 5 6 7 9 11 rings
6 6 7 13 15 16 17 rings

> <PUBCHEM_HEAVY_ATOM_COUNT>
21

> <PUBCHEM_ATOM_DEF_STEREO_COUNT>
6

> <PUBCHEM_ATOM_UDEF_STEREO_COUNT>
0

> <PUBCHEM_BOND_DEF_STEREO_COUNT>
0

> <PUBCHEM_BOND_UDEF_STEREO_COUNT>
0

> <PUBCHEM_ISOTOPIC_ATOM_COUNT>
0

> <PUBCHEM_COMPONENT_COUNT>
1

> <PUBCHEM_CACTVS_TAUTO_COUNT>
3

> <PUBCHEM_CONFORMER_ID>
0050A32F00000001

> <PUBCHEM_MMFF94_ENERGY>
72.8428

> <PUBCHEM_FEATURE_SELFOVERLAP>
45.769

> <PUBCHEM_SHAPE_FINGERPRINT>
10498660 4 18407477764797689845
10616163 171 18411700958969182687
10646746 165 18410012100872171700
10906281 52 18339942466975688779
10967382 1 18337390564321442481
11471102 20 18409447020335409706
12166972 35 17603868918333938476
12236239 1 17846500352922937747
12403259 226 18410849958824201608
12403260 363 18408038499033166128
12553582 1 18339909490111515947
12596599 1 17987820603457218847
12788726 201 18341324488620094425
128620 24 18060136544046159526
13140716 1 18264497363200732019
13224815 77 18411421704342617688
13862211 1 18409722980474288379
14115302 16 17894918467868845071
14178342 30 18194106426985292800
14787075 74 18265894842147429516
14790565 3 17835241147955408121
15196674 1 18409166640332681985
15375358 24 18335982064156594107
15442244 35 18120088386350625954
15536298 74 18412544331700671592
16945 1 18336835182010654504
17349148 13 17894346679083569306
17492 89 18337669694162490538
17802600 8 18409727357193253232
19141452 34 18059858415392707375
192875 21 17168148940025404860
19591789 44 18193838364970180403
19862831 5 17676205779545586323
200 152 18131349721733256155
20510252 161 18343303630655805337
20645477 70 18343585139834037734
21029758 11 18340484560446913409
21267235 1 18409455790801377811
21501502 16 18264487278248275152
221357 26 18342459231510982780
221490 88 18263087767618847274
22393880 68 18263361391632535910
23402539 116 18339072787052657878
23557571 272 18201723912087791392
23559900 14 18409726287978726024
2748010 2 18120654901290205809
2871803 45 18408600366085123022
3004659 81 18187078464202483510
3286 77 18335136480144279636
335352 9 18409165498309211957
34934 24 18339073899702420923
350125 39 18337110077150520480
351380 180 18409727378768439882
4028521 119 18260542312533094039
4214541 1 18410010996570022724
4409770 3 16021676853148197190
474 4 17313109682697370942
5104073 3 18410855460196870984
5283173 99 18261098639863853237
58051976 378 18411419544290851828
59755656 215 18335985285783525454
69090 78 18343581867111077990
9709674 26 18340773649968084238

> <PUBCHEM_SHAPE_MULTIPOLES>
414.56
9.56
2.41
0.84
1.58
0.9
0.21
-1.79
1.3
0.52
-0.28
-0.33
-0.15
0.11

> <PUBCHEM_SHAPE_SELFOVERLAP>
903.771

> <PUBCHEM_SHAPE_VOLUME>
225.2

> <PUBCHEM_COORDINATE_TYPE>
2
5
10

$$$$
