65434
  -OEChem-09142615023D

 49 50  0     1  0  0  0  0  0999 V2000
   -5.1669   -1.0564    0.2746 O   0  0  0  0  0  0  0  0  0  0  0  0
    0.2313    1.8373   -0.0461 O   0  0  0  0  0  0  0  0  0  0  0  0
    0.4292    1.0944    2.1420 O   0  0  0  0  0  0  0  0  0  0  0  0
    2.9847    2.3108   -0.2363 O   0  0  0  0  0  0  0  0  0  0  0  0
    5.0550   -1.8793   -1.0855 O   0  0  0  0  0  0  0  0  0  0  0  0
   -3.8704   -0.6009   -0.1189 C   0  0  1  0  0  0  0  0  0  0  0  0
   -3.2819   -1.6524   -1.0691 C   0  0  0  0  0  0  0  0  0  0  0  0
   -4.0124    0.7749   -0.7871 C   0  0  0  0  0  0  0  0  0  0  0  0
   -2.8166   -2.9328   -0.3594 C   0  0  0  0  0  0  0  0  0  0  0  0
   -2.6894    1.5384   -0.9492 C   0  0  0  0  0  0  0  0  0  0  0  0
   -1.6773   -2.7488    0.6532 C   0  0  0  0  0  0  0  0  0  0  0  0
   -2.1717    2.1064    0.3802 C   0  0  0  0  0  0  0  0  0  0  0  0
   -0.4613   -2.0256    0.0719 C   0  0  0  0  0  0  0  0  0  0  0  0
   -0.7978    2.7919    0.2967 C   0  0  2  0  0  0  0  0  0  0  0  0
    0.6721   -1.9009    1.0923 C   0  0  0  0  0  0  0  0  0  0  0  0
    1.8346   -1.1225    0.5192 C   0  0  0  0  0  0  0  0  0  0  0  0
   -0.7433    3.9087   -0.7389 C   0  0  0  0  0  0  0  0  0  0  0  0
    1.8499    0.2811    0.4217 C   0  0  0  0  0  0  0  0  0  0  0  0
    0.7585    1.1050    0.9687 C   0  0  0  0  0  0  0  0  0  0  0  0
    2.9283   -1.8336   -0.0021 C   0  0  0  0  0  0  0  0  0  0  0  0
    2.9323    0.9496   -0.1664 C   0  0  0  0  0  0  0  0  0  0  0  0
    4.0058   -1.1675   -0.5897 C   0  0  0  0  0  0  0  0  0  0  0  0
    4.0073    0.2222   -0.6719 C   0  0  0  0  0  0  0  0  0  0  0  0
   -3.2776   -0.5024    0.7928 H   0  0  0  0  0  0  0  0  0  0  0  0
   -2.4506   -1.2429   -1.6500 H   0  0  0  0  0  0  0  0  0  0  0  0
   -4.0495   -1.9428   -1.7988 H   0  0  0  0  0  0  0  0  0  0  0  0
   -4.7201    1.3887   -0.2149 H   0  0  0  0  0  0  0  0  0  0  0  0
   -4.4746    0.6444   -1.7742 H   0  0  0  0  0  0  0  0  0  0  0  0
   -2.4816   -3.6404   -1.1287 H   0  0  0  0  0  0  0  0  0  0  0  0
   -3.6639   -3.4125    0.1439 H   0  0  0  0  0  0  0  0  0  0  0  0
   -1.9296    0.9037   -1.4149 H   0  0  0  0  0  0  0  0  0  0  0  0
   -2.8717    2.3693   -1.6410 H   0  0  0  0  0  0  0  0  0  0  0  0
   -1.3726   -3.7400    1.0112 H   0  0  0  0  0  0  0  0  0  0  0  0
   -2.0443   -2.2063    1.5318 H   0  0  0  0  0  0  0  0  0  0  0  0
   -2.9039    2.8273    0.7649 H   0  0  0  0  0  0  0  0  0  0  0  0
   -2.1055    1.2986    1.1159 H   0  0  0  0  0  0  0  0  0  0  0  0
   -0.7523   -1.0240   -0.2595 H   0  0  0  0  0  0  0  0  0  0  0  0
   -0.1046   -2.5621   -0.8165 H   0  0  0  0  0  0  0  0  0  0  0  0
   -0.5648    3.2336    1.2744 H   0  0  0  0  0  0  0  0  0  0  0  0
    1.0077   -2.9015    1.3941 H   0  0  0  0  0  0  0  0  0  0  0  0
    0.3174   -1.4252    2.0130 H   0  0  0  0  0  0  0  0  0  0  0  0
    0.2228    4.4228   -0.6837 H   0  0  0  0  0  0  0  0  0  0  0  0
   -0.8211    3.5175   -1.7587 H   0  0  0  0  0  0  0  0  0  0  0  0
   -1.5363    4.6443   -0.5751 H   0  0  0  0  0  0  0  0  0  0  0  0
   -5.0485   -1.8420    0.8342 H   0  0  0  0  0  0  0  0  0  0  0  0
    2.9397   -2.9209    0.0427 H   0  0  0  0  0  0  0  0  0  0  0  0
    4.8507    0.7369   -1.1259 H   0  0  0  0  0  0  0  0  0  0  0  0
    3.8119    2.5793   -0.6717 H   0  0  0  0  0  0  0  0  0  0  0  0
    5.7091   -1.2618   -1.4555 H   0  0  0  0  0  0  0  0  0  0  0  0
  1  6  1  0  0  0  0
  1 45  1  0  0  0  0
  2 14  1  0  0  0  0
  2 19  1  0  0  0  0
  3 19  2  0  0  0  0
  4 21  1  0  0  0  0
  4 48  1  0  0  0  0
  5 22  1  0  0  0  0
  5 49  1  0  0  0  0
  6  7  1  0  0  0  0
  6  8  1  0  0  0  0
  6 24  1  0  0  0  0
  7  9  1  0  0  0  0
  7 25  1  0  0  0  0
  7 26  1  0  0  0  0
  8 10  1  0  0  0  0
  8 27  1  0  0  0  0
  8 28  1  0  0  0  0
  9 11  1  0  0  0  0
  9 29  1  0  0  0  0
  9 30  1  0  0  0  0
 10 12  1  0  0  0  0
 10 31  1  0  0  0  0
 10 32  1  0  0  0  0
 11 13  1  0  0  0  0
 11 33  1  0  0  0  0
 11 34  1  0  0  0  0
 12 14  1  0  0  0  0
 12 35  1  0  0  0  0
 12 36  1  0  0  0  0
 13 15  1  0  0  0  0
 13 37  1  0  0  0  0
 13 38  1  0  0  0  0
 14 17  1  0  0  0  0
 14 39  1  0  0  0  0
 15 16  1  0  0  0  0
 15 40  1  0  0  0  0
 15 41  1  0  0  0  0
 16 18  2  0  0  0  0
 16 20  1  0  0  0  0
 17 42  1  0  0  0  0
 17 43  1  0  0  0  0
 17 44  1  0  0  0  0
 18 19  1  0  0  0  0
 18 21  1  0  0  0  0
 20 22  2  0  0  0  0
 20 46  1  0  0  0  0
 21 23  2  0  0  0  0
 22 23  1  0  0  0  0
 23 47  1  0  0  0  0
M  END
> <PUBCHEM_COMPOUND_CID>
65434

> <PUBCHEM_CONFORMER_RMSD>
0.6

> <PUBCHEM_CONFORMER_DIVERSEORDER>
1
18
23
14
6
22
13
3
19
9
20
15
17
11
5
21
12
16
10
7
2
8
4

> <PUBCHEM_MMFF94_PARTIAL_CHARGES>
20
1 -0.68
14 0.28
15 0.14
16 -0.14
18 0.09
19 0.63
2 -0.43
20 -0.15
21 0.08
22 0.08
23 -0.15
3 -0.57
4 -0.53
45 0.4
46 0.15
47 0.15
48 0.45
49 0.45
5 -0.53
6 0.28

> <PUBCHEM_EFFECTIVE_ROTOR_COUNT>
2.2

> <PUBCHEM_PHARMACOPHORE_FEATURES>
6
1 1 acceptor
1 1 donor
1 3 acceptor
1 4 donor
1 5 donor
6 16 18 20 21 22 23 rings

> <PUBCHEM_HEAVY_ATOM_COUNT>
23

> <PUBCHEM_ATOM_DEF_STEREO_COUNT>
2

> <PUBCHEM_ATOM_UDEF_STEREO_COUNT>
0

> <PUBCHEM_BOND_DEF_STEREO_COUNT>
0

> <PUBCHEM_BOND_UDEF_STEREO_COUNT>
0

> <PUBCHEM_ISOTOPIC_ATOM_COUNT>
0

> <PUBCHEM_COMPONENT_COUNT>
1

> <PUBCHEM_CACTVS_TAUTO_COUNT>
25

> <PUBCHEM_CONFORMER_ID>
0000FF9A00000001

> <PUBCHEM_MMFF94_ENERGY>
51.8685

> <PUBCHEM_FEATURE_SELFOVERLAP>
30.447

> <PUBCHEM_SHAPE_FINGERPRINT>
104564 63 18341050705555225163
10498660 4 18262223483113243063
10616163 171 18266457599212470293
10759866 29 17823695265744098779
11578080 2 17417799682505135034
116883 192 18413394224404032118
12035759 4 18262518091947178506
12054548 360 18410287038666006235
12553582 1 18337659910806348785
12788726 201 18337110055981574418
13402501 40 18411699889944423263
138480 1 15744722995183361869
14117953 113 16967438302117413525
14251740 79 18339931394123245006
14251745 187 18267015248891230075
14251751 93 18194399996278484044
14251757 17 18269560446553576870
14251757 5 18409454665219623342
14289585 56 17025166107492853486
14363568 33 17687485858603573859
14790565 3 18195813968807654665
14931854 50 18336257973072084599
15081414 286 18266746968159723001
15210252 30 18041840747880207484
17093844 170 18267574900362924912
17357779 13 18342730866559590063
19591789 44 18409729552021950187
19930381 70 17040632267499010575
20775438 99 16977258522040476463
21141583 151 18412261752780202825
21634736 98 18410290298567289492
221357 26 18339640148291264391
22393880 68 18120088390898813868
22907989 373 17825988928951905076
23379529 103 18201164277955131502
23419403 2 17346018035973929986
23559900 14 18342452652059130128
23566358 2 18411698811791334180
2818148 4 17684118007549511043
2871803 45 18337382756261062317
3052486 1 18190160331145151794
6287921 2 17689436405353721859

> <PUBCHEM_SHAPE_MULTIPOLES>
443.98
8.33
4.12
1.13
0.57
1.66
0.26
-3.66
-3
-1.85
-0.26
0.12
0.05
0.37

> <PUBCHEM_SHAPE_SELFOVERLAP>
910.926

> <PUBCHEM_SHAPE_VOLUME>
254.2

> <PUBCHEM_COORDINATE_TYPE>
2
5
10

$$$$
