5991
 OpenBabel04222615303D

 46 49  0  0  1  0  0  0  0  0999 V2000
   -4.6340    0.7611   -1.1249 O   0  0  0  0  0  0  0  0  0  0  0  0
    6.2899    0.2460   -0.1527 O   0  0  0  0  0  0  0  0  0  0  0  0
   -2.2488    0.3875   -0.5906 C   0  0  1  0  0  0  0  0  0  0  0  0
   -1.5689   -0.7803    0.1608 C   0  0  2  0  0  0  0  0  0  0  0  0
   -0.0661   -0.8640   -0.1175 C   0  0  1  0  0  0  0  0  0  0  0  0
   -3.7416    0.1358   -0.2107 C   0  0  2  0  0  0  0  0  0  0  0  0
    0.6095    0.4565    0.3601 C   0  0  2  0  0  0  0  0  0  0  0  0
   -1.6071    1.7020   -0.1078 C   0  0  0  0  0  0  0  0  0  0  0  0
   -2.4456   -1.9825   -0.1804 C   0  0  0  0  0  0  0  0  0  0  0  0
   -0.0742    1.6969   -0.2718 C   0  0  0  0  0  0  0  0  0  0  0  0
   -3.8690   -1.4074   -0.3137 C   0  0  0  0  0  0  0  0  0  0  0  0
    0.5956   -2.0467    0.5939 C   0  0  0  0  0  0  0  0  0  0  0  0
   -2.0899    0.3110   -2.1380 C   0  0  0  0  0  0  0  0  0  0  0  0
    2.1266    0.3966    0.1856 C   0  0  0  0  0  0  0  0  0  0  0  0
    2.0530   -2.1625    0.1589 C   0  0  0  0  0  0  0  0  0  0  0  0
    2.7926   -0.8480    0.1363 C   0  0  0  0  0  0  0  0  0  0  0  0
   -4.0928    0.5849    1.1498 C   0  0  0  0  0  0  0  0  0  0  0  0
    2.9035    1.5676    0.1635 C   0  0  0  0  0  0  0  0  0  0  0  0
    4.1942   -0.8901    0.0084 C   0  0  0  0  0  0  0  0  0  0  0  0
    4.2989    1.5119    0.0464 C   0  0  0  0  0  0  0  0  0  0  0  0
    4.9322    0.2815   -0.0351 C   0  0  0  0  0  0  0  0  0  0  0  0
   -4.3752    0.9375    2.2651 C   0  0  0  0  0  0  0  0  0  0  0  0
   -4.4211    0.4796   -2.0284 H   0  0  0  0  0  0  0  0  0  0  0  0
    6.7339   -0.5772   -0.2090 H   0  0  0  0  0  0  0  0  0  0  0  0
   -1.5305   -0.6764    1.2251 H   0  0  0  0  0  0  0  0  0  0  0  0
    0.0619   -1.0069   -1.1702 H   0  0  0  0  0  0  0  0  0  0  0  0
    0.4590    0.5669    1.4137 H   0  0  0  0  0  0  0  0  0  0  0  0
   -1.8424    1.8406    0.9267 H   0  0  0  0  0  0  0  0  0  0  0  0
   -1.9986    2.4977   -0.7066 H   0  0  0  0  0  0  0  0  0  0  0  0
   -2.4056   -2.7120    0.6014 H   0  0  0  0  0  0  0  0  0  0  0  0
   -2.1242   -2.4757   -1.0739 H   0  0  0  0  0  0  0  0  0  0  0  0
    0.1550    1.7148   -1.3168 H   0  0  0  0  0  0  0  0  0  0  0  0
    0.3007    2.5587    0.2397 H   0  0  0  0  0  0  0  0  0  0  0  0
   -4.2891   -1.6798   -1.2594 H   0  0  0  0  0  0  0  0  0  0  0  0
   -4.5110   -1.7912    0.4514 H   0  0  0  0  0  0  0  0  0  0  0  0
    0.0770   -2.9481    0.3417 H   0  0  0  0  0  0  0  0  0  0  0  0
    0.5542   -1.8905    1.6516 H   0  0  0  0  0  0  0  0  0  0  0  0
   -2.5293   -0.5960   -2.4973 H   0  0  0  0  0  0  0  0  0  0  0  0
   -1.0504    0.3284   -2.3910 H   0  0  0  0  0  0  0  0  0  0  0  0
   -2.5807    1.1482   -2.5887 H   0  0  0  0  0  0  0  0  0  0  0  0
    2.0780   -2.5797   -0.8261 H   0  0  0  0  0  0  0  0  0  0  0  0
    2.5434   -2.7814    0.8810 H   0  0  0  0  0  0  0  0  0  0  0  0
    2.4376    2.4857    0.2349 H   0  0  0  0  0  0  0  0  0  0  0  0
    4.6755   -1.8009   -0.0534 H   0  0  0  0  0  0  0  0  0  0  0  0
    4.8523    2.3826    0.0211 H   0  0  0  0  0  0  0  0  0  0  0  0
   -4.6085    1.2288    3.1864 H   0  0  0  0  0  0  0  0  0  0  0  0
  1  6  1  0  0  0  0
  1 23  1  0  0  0  0
  2 21  1  0  0  0  0
  2 24  1  0  0  0  0
  3  4  1  0  0  0  0
  3  6  1  0  0  0  0
  3  8  1  0  0  0  0
  3 13  1  6  0  0  0
  4  5  1  0  0  0  0
  4  9  1  0  0  0  0
  4 25  1  1  0  0  0
  5  7  1  0  0  0  0
  5 12  1  0  0  0  0
  5 26  1  6  0  0  0
  6 11  1  0  0  0  0
  6 17  1  1  0  0  0
  7 10  1  0  0  0  0
  7 14  1  0  0  0  0
  7 27  1  1  0  0  0
  8 10  1  0  0  0  0
  8 28  1  0  0  0  0
  8 29  1  0  0  0  0
  9 11  1  0  0  0  0
  9 30  1  0  0  0  0
  9 31  1  0  0  0  0
 10 32  1  0  0  0  0
 10 33  1  0  0  0  0
 11 34  1  0  0  0  0
 11 35  1  0  0  0  0
 12 15  1  0  0  0  0
 12 36  1  0  0  0  0
 12 37  1  0  0  0  0
 13 38  1  0  0  0  0
 13 39  1  0  0  0  0
 13 40  1  0  0  0  0
 14 16  2  0  0  0  0
 14 18  1  0  0  0  0
 15 16  1  0  0  0  0
 15 41  1  0  0  0  0
 15 42  1  0  0  0  0
 16 19  1  0  0  0  0
 17 22  3  0  0  0  0
 18 20  2  0  0  0  0
 18 43  1  0  0  0  0
 19 21  2  0  0  0  0
 19 44  1  0  0  0  0
 20 21  1  0  0  0  0
 20 45  1  0  0  0  0
 22 46  1  0  0  0  0
M  END
>  <PUBCHEM_COMPOUND_CID>
5991

>  <PUBCHEM_CONFORMER_RMSD>
0.6

>  <PUBCHEM_CONFORMER_DIVERSEORDER>
1

>  <PUBCHEM_MMFF94_PARTIAL_CHARGES>
19
1 -0.68
14 -0.14
15 0.14
16 -0.14
17 -0.2
18 -0.15
19 -0.15
2 -0.53
20 -0.15
21 0.08
22 -0.18
41 0.4
42 0.15
43 0.15
44 0.15
45 0.18
46 0.45
6 0.48
7 0.14

>  <PUBCHEM_EFFECTIVE_ROTOR_COUNT>
1.4

>  <PUBCHEM_PHARMACOPHORE_FEATURES>
8
1 1 acceptor
1 1 donor
1 2 donor
1 22 hydrophobe
5 3 4 6 9 11 rings
6 14 16 18 19 20 21 rings
6 3 4 5 7 8 10 rings
6 5 7 12 14 15 16 rings

>  <PUBCHEM_HEAVY_ATOM_COUNT>
22

>  <PUBCHEM_ATOM_DEF_STEREO_COUNT>
5

>  <PUBCHEM_ATOM_UDEF_STEREO_COUNT>
0

>  <PUBCHEM_BOND_DEF_STEREO_COUNT>
0

>  <PUBCHEM_BOND_UDEF_STEREO_COUNT>
0

>  <PUBCHEM_ISOTOPIC_ATOM_COUNT>
0

>  <PUBCHEM_COMPONENT_COUNT>
1

>  <PUBCHEM_CACTVS_TAUTO_COUNT>
9

>  <PUBCHEM_CONFORMER_ID>
0000176700000001

>  <PUBCHEM_MMFF94_ENERGY>
75.3654

>  <PUBCHEM_FEATURE_SELFOVERLAP>
40.689

>  <PUBCHEM_SHAPE_FINGERPRINT>
10498660 4 18334565854482978588
10616163 171 18412261769892000550
10906281 52 18268729332496851400
10967382 1 18409163299196382730
11132069 177 18260823830106114581
11315181 36 17846777438100329984
11552529 35 18058445585631877095
11578080 2 16952518088400902894
11796584 16 15123796154675551020
12107183 9 17697047933183828707
12236239 1 17917992754997443209
12403259 415 18260540148118003532
12403814 3 17531241756051219503
12633257 1 18411416168188185458
12644460 14 18260827060354363322
12788726 201 17059505002047033793
128620 24 17385724690407290772
13140716 1 18264499557760559337
13224815 77 18408318891198213202
13675066 3 17749393654488776519
14790565 3 18338806709892665688
15163728 17 15481289097577292713
15183329 4 18408605830407435614
15196674 1 18337388339818468438
15209289 33 18341332270467662817
15209294 21 18059584555192331817
15309172 13 18409451371427638915
15536298 74 18341610425830279326
15788980 27 17749105603943632888
16945 1 18265320738190372627
17349148 13 18114176445825312880
1813 80 17530976782159466655
18186145 218 18409161126111612646
19489759 90 15410896249631894657
19591789 44 18193273216009210722
200 152 17918273168974754922
21033648 29 17968079933063946356
21267235 1 18338240469814837151
21623110 236 18263368155990106261
23402539 116 18410566319162361766
23402655 69 18201721773563375622
23559900 14 18341325700027887232
335352 9 18410007719541319564
34934 24 18335695014618288215
350125 39 18408603674022772468
3545911 37 18408602569419241710
3680242 22 18335416829913620042
4214541 1 18412824715549947695
474 4 18408605889666299408
5104073 3 18339077194179428906
542803 24 17561084709247609168
59755656 215 18335983078396721054
633830 44 18202282537272954908
9709674 26 18410014338397756278

>  <PUBCHEM_SHAPE_MULTIPOLES>
441.01
10.64
2.03
1.22
7.18
0.55
-0.05
-1.94
-1.01
0.21
-0.15
-1.94
-0.33
-0.49

>  <PUBCHEM_SHAPE_SELFOVERLAP>
961.464

>  <PUBCHEM_SHAPE_VOLUME>
238.8

>  <PUBCHEM_COORDINATE_TYPE>
2
5
10

>  <Energy>
61.5647

$$$$
