5870
 OpenBabel04222615303D

 42 45  0  0  1  0  0  0  0  0999 V2000
   -4.9402   -1.1744   -0.2605 O   0  0  0  0  0  0  0  0  0  0  0  0
    5.8524   -0.1560    0.3493 O   0  0  0  0  0  0  0  0  0  0  0  0
   -1.9998    0.6756   -0.3014 C   0  0  2  0  0  0  0  0  0  0  0  0
   -2.6433   -0.5948    0.2928 C   0  0  2  0  0  0  0  0  0  0  0  0
   -0.5245    0.7793    0.0815 C   0  0  1  0  0  0  0  0  0  0  0  0
    0.2275   -0.4421   -0.5348 C   0  0  2  0  0  0  0  0  0  0  0  0
   -1.9749   -1.8029   -0.3544 C   0  0  0  0  0  0  0  0  0  0  0  0
   -2.9678    1.7929    0.0708 C   0  0  0  0  0  0  0  0  0  0  0  0
   -0.4489   -1.7830   -0.1358 C   0  0  0  0  0  0  0  0  0  0  0  0
    0.1287    2.0687   -0.4176 C   0  0  0  0  0  0  0  0  0  0  0  0
   -4.0819   -0.3164   -0.1044 C   0  0  0  0  0  0  0  0  0  0  0  0
   -4.3372    1.1745   -0.2486 C   0  0  0  0  0  0  0  0  0  0  0  0
   -2.6264   -0.7077    1.8285 C   0  0  0  0  0  0  0  0  0  0  0  0
    1.7270   -0.3639   -0.2583 C   0  0  0  0  0  0  0  0  0  0  0  0
    1.5557    2.1648    0.1120 C   0  0  0  0  0  0  0  0  0  0  0  0
    2.3423    0.8815   -0.0005 C   0  0  0  0  0  0  0  0  0  0  0  0
    2.5441   -1.5059   -0.3425 C   0  0  0  0  0  0  0  0  0  0  0  0
    3.7302    0.9489    0.2165 C   0  0  0  0  0  0  0  0  0  0  0  0
    3.9229   -1.4265   -0.1348 C   0  0  0  0  0  0  0  0  0  0  0  0
    4.5051   -0.2013    0.1480 C   0  0  0  0  0  0  0  0  0  0  0  0
    6.2702    0.6603    0.5420 H   0  0  0  0  0  0  0  0  0  0  0  0
   -1.8954    0.7027   -1.3659 H   0  0  0  0  0  0  0  0  0  0  0  0
   -0.4621    0.7870    1.1497 H   0  0  0  0  0  0  0  0  0  0  0  0
    0.1442   -0.4045   -1.6009 H   0  0  0  0  0  0  0  0  0  0  0  0
   -2.1767   -1.7915   -1.4051 H   0  0  0  0  0  0  0  0  0  0  0  0
   -2.3692   -2.6892    0.0973 H   0  0  0  0  0  0  0  0  0  0  0  0
   -2.7925    2.6678   -0.5197 H   0  0  0  0  0  0  0  0  0  0  0  0
   -2.8741    2.1146    1.0870 H   0  0  0  0  0  0  0  0  0  0  0  0
   -0.2549   -1.9626    0.9010 H   0  0  0  0  0  0  0  0  0  0  0  0
   -0.0349   -2.5398   -0.7688 H   0  0  0  0  0  0  0  0  0  0  0  0
   -0.4356    2.9095   -0.0718 H   0  0  0  0  0  0  0  0  0  0  0  0
    0.1491    2.0627   -1.4874 H   0  0  0  0  0  0  0  0  0  0  0  0
   -4.6459    1.4171   -1.2440 H   0  0  0  0  0  0  0  0  0  0  0  0
   -5.1196    1.5315    0.3880 H   0  0  0  0  0  0  0  0  0  0  0  0
   -1.6286   -0.9049    2.1607 H   0  0  0  0  0  0  0  0  0  0  0  0
   -3.2687   -1.5069    2.1345 H   0  0  0  0  0  0  0  0  0  0  0  0
   -2.9703    0.2103    2.2574 H   0  0  0  0  0  0  0  0  0  0  0  0
    1.5131    2.4433    1.1443 H   0  0  0  0  0  0  0  0  0  0  0  0
    2.0606    2.8901   -0.4911 H   0  0  0  0  0  0  0  0  0  0  0  0
    2.1168   -2.4193   -0.5619 H   0  0  0  0  0  0  0  0  0  0  0  0
    4.1743    1.8563    0.4275 H   0  0  0  0  0  0  0  0  0  0  0  0
    4.5055   -2.2764   -0.1915 H   0  0  0  0  0  0  0  0  0  0  0  0
  1 11  2  0  0  0  0
  2 20  1  0  0  0  0
  2 21  1  0  0  0  0
  3  4  1  0  0  0  0
  3  5  1  0  0  0  0
  3  8  1  0  0  0  0
  3 22  1  6  0  0  0
  4  7  1  0  0  0  0
  4 11  1  0  0  0  0
  4 13  1  1  0  0  0
  5  6  1  0  0  0  0
  5 10  1  0  0  0  0
  5 23  1  1  0  0  0
  6  9  1  0  0  0  0
  6 14  1  0  0  0  0
  6 24  1  6  0  0  0
  7  9  1  0  0  0  0
  7 25  1  0  0  0  0
  7 26  1  0  0  0  0
  8 12  1  0  0  0  0
  8 27  1  0  0  0  0
  8 28  1  0  0  0  0
  9 29  1  0  0  0  0
  9 30  1  0  0  0  0
 10 15  1  0  0  0  0
 10 31  1  0  0  0  0
 10 32  1  0  0  0  0
 11 12  1  0  0  0  0
 12 33  1  0  0  0  0
 12 34  1  0  0  0  0
 13 35  1  0  0  0  0
 13 36  1  0  0  0  0
 13 37  1  0  0  0  0
 14 16  2  0  0  0  0
 14 17  1  0  0  0  0
 15 16  1  0  0  0  0
 15 38  1  0  0  0  0
 15 39  1  0  0  0  0
 16 18  1  0  0  0  0
 17 19  2  0  0  0  0
 17 40  1  0  0  0  0
 18 20  2  0  0  0  0
 18 41  1  0  0  0  0
 19 20  1  0  0  0  0
 19 42  1  0  0  0  0
M  END
>  <PUBCHEM_COMPOUND_CID>
5870

>  <PUBCHEM_CONFORMER_RMSD>
0.6

>  <PUBCHEM_CONFORMER_DIVERSEORDER>
1

>  <PUBCHEM_MMFF94_PARTIAL_CHARGES>
17
1 -0.57
11 0.45
12 0.06
14 -0.14
15 0.14
16 -0.14
17 -0.15
18 -0.15
19 -0.15
2 -0.53
20 0.08
39 0.15
4 0.06
40 0.15
41 0.15
42 0.45
6 0.14

>  <PUBCHEM_EFFECTIVE_ROTOR_COUNT>
1.2

>  <PUBCHEM_PHARMACOPHORE_FEATURES>
6
1 1 acceptor
1 2 donor
5 3 4 8 11 12 rings
6 14 16 17 18 19 20 rings
6 3 4 5 6 7 9 rings
6 5 6 10 14 15 16 rings

>  <PUBCHEM_HEAVY_ATOM_COUNT>
20

>  <PUBCHEM_ATOM_DEF_STEREO_COUNT>
4

>  <PUBCHEM_ATOM_UDEF_STEREO_COUNT>
0

>  <PUBCHEM_BOND_DEF_STEREO_COUNT>
0

>  <PUBCHEM_BOND_UDEF_STEREO_COUNT>
0

>  <PUBCHEM_ISOTOPIC_ATOM_COUNT>
0

>  <PUBCHEM_COMPONENT_COUNT>
1

>  <PUBCHEM_CACTVS_TAUTO_COUNT>
18

>  <PUBCHEM_CONFORMER_ID>
000016EE00000001

>  <PUBCHEM_MMFF94_ENERGY>
61.0299

>  <PUBCHEM_FEATURE_SELFOVERLAP>
30.545

>  <PUBCHEM_SHAPE_FINGERPRINT>
10 15 18338223965131089192
10366900 7 17894911836470871746
10967382 1 18411419513977868614
11132069 177 18342457036940969510
11315181 36 18408040710778072568
12011746 2 18410290294008630317
12107183 9 17689996739329065258
12236239 1 17418093217343596183
12251169 10 18341895216368748814
12403259 226 18340481279171234745
12403260 363 18341047501757561637
124424 183 18187085065693785585
12507557 5 18272651255285254217
128620 24 12103847864612095762
13140716 1 18196378236634800467
13675066 3 18333735740420709082
13862211 1 18410288116629288854
14115302 16 17313114067658656374
14790565 3 17760933235872838852
15099037 51 18408882923720737541
15196674 1 18411418384343453924
15375358 24 18412544284440304598
15442244 35 18411982455267528236
15536298 74 18343019995115008348
16945 1 18266748058928357437
17349148 13 17918274263943573687
17492 89 18193838377749879411
17802600 8 18411979186997914957
17804303 29 18411703196494273645
1813 80 17385724682213093092
19141452 34 18343301487366819711
200 152 18060697290955560605
20028762 73 18130504257828312535
20510252 161 18200877266454027793
20645477 70 18341894052601774190
21029758 11 18342453729673999593
21033648 29 17774706602472286504
21267235 1 18411426115617175454
21279426 13 18120933906312503461
21421861 104 17824536371286834754
221490 88 18263650730277627426
22854114 59 17989486325081643434
23402539 116 18342167856381395533
23559900 14 18341887519713943232
26918003 58 17894348886907833970
2748010 2 18339088072756615109
3004659 81 18187649051610375846
335352 9 18411136892165983365
34934 24 18410286987242690078
350125 39 18411703192879872657
351380 180 18410291415290441383
3545911 37 18272652359234345334
4214541 1 18411136922394271293
4921388 177 15936704747427002913
5104073 3 18411981338565443594
69090 78 18343017804808619327
7364860 26 18268992162414310440
8809292 202 18260270771457036475
9709674 26 18411425020268802135

>  <PUBCHEM_SHAPE_MULTIPOLES>
399.85
9.65
2.12
0.85
4.06
0.38
0.29
-1.09
0.62
-0.26
-0.16
-0.44
-0.13
0.29

>  <PUBCHEM_SHAPE_SELFOVERLAP>
876.644

>  <PUBCHEM_SHAPE_VOLUME>
216.5

>  <PUBCHEM_COORDINATE_TYPE>
2
5
10

>  <Energy>
51.1594

$$$$
