
 OpenBabel04232616053D

 27 28  0  0  0  0  0  0  0  0999 V2000
    1.0208   -0.2670   -0.1006 C   0  0  0  0  0  0  0  0  0  0  0  0
    2.3353   -0.3046   -0.7105 N   0  0  0  0  0  0  0  0  0  0  0  0
    2.9390    0.7889   -1.3096 C   0  0  0  0  0  0  0  0  0  0  0  0
    4.2088    0.6084   -1.6915 C   0  0  0  0  0  0  0  0  0  0  0  0
    4.7558   -1.0003   -1.2995 S   0  0  0  0  0  0  0  0  0  0  0  0
    3.1772   -1.4018   -0.5342 C   0  0  0  0  0  0  0  0  0  0  0  0
    2.8665   -2.5114    0.0596 N   0  0  0  0  0  0  0  0  0  0  0  0
    3.8672   -3.3988    0.3271 C   0  0  0  0  0  0  0  0  0  0  0  0
    4.8692   -3.0989    0.9649 O   0  0  0  0  0  0  0  0  0  0  0  0
    3.5512   -4.6575   -0.1163 N   0  0  0  0  0  0  0  0  0  0  0  0
    4.3413   -5.8242   -0.0465 C   0  0  0  0  0  0  0  0  0  0  0  0
    5.6233   -5.8565    0.5136 C   0  0  0  0  0  0  0  0  0  0  0  0
    6.3835   -7.0302    0.5042 C   0  0  0  0  0  0  0  0  0  0  0  0
    5.8673   -8.1904   -0.0629 C   0  0  0  0  0  0  0  0  0  0  0  0
    4.5841   -8.1734   -0.6029 C   0  0  0  0  0  0  0  0  0  0  0  0
    3.9407   -9.6092   -1.3022 Cl  0  0  0  0  0  0  0  0  0  0  0  0
    3.8190   -7.0027   -0.5934 C   0  0  0  0  0  0  0  0  0  0  0  0
    0.5179    0.6887   -0.2835 H   0  0  0  0  0  0  0  0  0  0  0  0
    1.0984   -0.4003    0.9841 H   0  0  0  0  0  0  0  0  0  0  0  0
    0.3883   -1.0610   -0.5079 H   0  0  0  0  0  0  0  0  0  0  0  0
    2.3755    1.7074   -1.4172 H   0  0  0  0  0  0  0  0  0  0  0  0
    4.8425    1.3469   -2.1614 H   0  0  0  0  0  0  0  0  0  0  0  0
    2.6389   -4.7150   -0.5440 H   0  0  0  0  0  0  0  0  0  0  0  0
    6.0733   -4.9774    0.9647 H   0  0  0  0  0  0  0  0  0  0  0  0
    7.3817   -7.0272    0.9355 H   0  0  0  0  0  0  0  0  0  0  0  0
    6.4671   -9.0961   -0.0812 H   0  0  0  0  0  0  0  0  0  0  0  0
    2.8222   -7.0192   -1.0247 H   0  0  0  0  0  0  0  0  0  0  0  0
  1  2  1  0  0  0  0
  1 18  1  0  0  0  0
  1 19  1  0  0  0  0
  1 20  1  0  0  0  0
  2  3  1  0  0  0  0
  2  6  1  0  0  0  0
  3  4  2  0  0  0  0
  3 21  1  0  0  0  0
  4  5  1  0  0  0  0
  4 22  1  0  0  0  0
  5  6  1  0  0  0  0
  6  7  2  0  0  0  0
  7  8  1  0  0  0  0
  8  9  2  0  0  0  0
  8 10  1  0  0  0  0
 10 11  1  0  0  0  0
 10 23  1  0  0  0  0
 11 12  1  0  0  0  0
 11 17  2  0  0  0  0
 12 13  2  0  0  0  0
 12 24  1  0  0  0  0
 13 14  1  0  0  0  0
 13 25  1  0  0  0  0
 14 15  2  0  0  0  0
 14 26  1  0  0  0  0
 15 16  1  0  0  0  0
 15 17  1  0  0  0  0
 17 27  1  0  0  0  0
M  END
>  <Energy>
-54.254

$$$$

 OpenBabel04232616053D

 39 42  0  0  0  0  0  0  0  0999 V2000
    2.6412    1.2132   -0.0660 O   0  0  0  0  0  0  0  0  0  0  0  0
    2.2880    0.0341    0.0075 C   0  0  0  0  0  0  0  0  0  0  0  0
    1.0456   -0.3976   -0.6684 C   0  0  0  0  0  0  0  0  0  0  0  0
    0.7760   -1.6774   -1.0027 N   0  0  0  0  0  0  0  0  0  0  0  0
   -0.4803   -1.6888   -1.5808 O   0  0  0  0  0  0  0  0  0  0  0  0
   -0.9380   -0.4250   -1.6298 C   0  0  0  0  0  0  0  0  0  0  0  0
   -0.0208    0.4405   -1.0987 C   0  0  0  0  0  0  0  0  0  0  0  0
   -0.2438    1.9067   -1.0568 C   0  0  0  0  0  0  0  0  0  0  0  0
   -1.7303    2.2419   -1.3291 C   0  0  0  0  0  0  0  0  0  0  0  0
   -2.3463    1.3907   -2.4644 C   0  0  0  0  0  0  0  0  0  0  0  0
   -2.2755   -0.1214   -2.1705 C   0  0  0  0  0  0  0  0  0  0  0  0
    3.0337   -0.8882    0.7576 N   0  0  0  0  0  0  0  0  0  0  0  0
    2.5872   -2.2553    1.0612 C   0  0  0  0  0  0  0  0  0  0  0  0
    3.3426   -2.9475    2.1965 C   0  0  0  0  0  0  0  0  0  0  0  0
    4.8216   -2.7939    1.9916 C   0  0  0  0  0  0  0  0  0  0  0  0
    5.7176   -3.8381    2.2352 C   0  0  0  0  0  0  0  0  0  0  0  0
    7.0844   -3.6343    2.0538 C   0  0  0  0  0  0  0  0  0  0  0  0
    7.5584   -2.3863    1.6486 C   0  0  0  0  0  0  0  0  0  0  0  0
    6.6666   -1.3390    1.4112 C   0  0  0  0  0  0  0  0  0  0  0  0
    5.2910   -1.5402    1.5651 C   0  0  0  0  0  0  0  0  0  0  0  0
    4.2972   -0.4262    1.3380 C   0  0  0  0  0  0  0  0  0  0  0  0
    0.3786    2.3822   -1.8245 H   0  0  0  0  0  0  0  0  0  0  0  0
    0.0512    2.3211   -0.0869 H   0  0  0  0  0  0  0  0  0  0  0  0
   -1.8231    3.3062   -1.5713 H   0  0  0  0  0  0  0  0  0  0  0  0
   -2.3100    2.0713   -0.4123 H   0  0  0  0  0  0  0  0  0  0  0  0
   -1.8057    1.6039   -3.3960 H   0  0  0  0  0  0  0  0  0  0  0  0
   -3.3901    1.6818   -2.6257 H   0  0  0  0  0  0  0  0  0  0  0  0
   -2.4811   -0.6972   -3.0780 H   0  0  0  0  0  0  0  0  0  0  0  0
   -3.0325   -0.3860   -1.4234 H   0  0  0  0  0  0  0  0  0  0  0  0
    2.7208   -2.8399    0.1424 H   0  0  0  0  0  0  0  0  0  0  0  0
    1.5224   -2.2372    1.3163 H   0  0  0  0  0  0  0  0  0  0  0  0
    3.0545   -4.0039    2.2306 H   0  0  0  0  0  0  0  0  0  0  0  0
    3.0751   -2.4977    3.1604 H   0  0  0  0  0  0  0  0  0  0  0  0
    5.3580   -4.8118    2.5581 H   0  0  0  0  0  0  0  0  0  0  0  0
    7.7821   -4.4484    2.2318 H   0  0  0  0  0  0  0  0  0  0  0  0
    8.6261   -2.2296    1.5178 H   0  0  0  0  0  0  0  0  0  0  0  0
    7.0515   -0.3700    1.1019 H   0  0  0  0  0  0  0  0  0  0  0  0
    4.7380    0.3430    0.6931 H   0  0  0  0  0  0  0  0  0  0  0  0
    4.0607    0.0418    2.3008 H   0  0  0  0  0  0  0  0  0  0  0  0
  1  2  2  0  0  0  0
  2  3  1  0  0  0  0
  2 12  1  0  0  0  0
  3  4  2  0  0  0  0
  3  7  1  0  0  0  0
  4  5  1  0  0  0  0
  5  6  1  0  0  0  0
  6  7  2  0  0  0  0
  6 11  1  0  0  0  0
  7  8  1  0  0  0  0
  8  9  1  0  0  0  0
  8 22  1  0  0  0  0
  8 23  1  0  0  0  0
  9 10  1  0  0  0  0
  9 24  1  0  0  0  0
  9 25  1  0  0  0  0
 10 11  1  0  0  0  0
 10 26  1  0  0  0  0
 10 27  1  0  0  0  0
 11 28  1  0  0  0  0
 11 29  1  0  0  0  0
 12 13  1  0  0  0  0
 12 21  1  0  0  0  0
 13 14  1  0  0  0  0
 13 30  1  0  0  0  0
 13 31  1  0  0  0  0
 14 15  1  0  0  0  0
 14 32  1  0  0  0  0
 14 33  1  0  0  0  0
 15 16  1  0  0  0  0
 15 20  2  0  0  0  0
 16 17  2  0  0  0  0
 16 34  1  0  0  0  0
 17 18  1  0  0  0  0
 17 35  1  0  0  0  0
 18 19  2  0  0  0  0
 18 36  1  0  0  0  0
 19 20  1  0  0  0  0
 19 37  1  0  0  0  0
 20 21  1  0  0  0  0
 21 38  1  0  0  0  0
 21 39  1  0  0  0  0
M  END
>  <Energy>
49.9283

$$$$

 OpenBabel04232616053D

 35 38  0  0  0  0  0  0  0  0999 V2000
   -3.4129    1.5344    0.5378 C   0  0  0  0  0  0  0  0  0  0  0  0
   -3.9259    0.2637    0.7315 C   0  0  0  0  0  0  0  0  0  0  0  0
   -3.1985   -0.8704    0.6211 N   0  0  0  0  0  0  0  0  0  0  0  0
   -1.9001   -0.7572    0.2673 C   0  0  0  0  0  0  0  0  0  0  0  0
   -1.3183    0.4924    0.0135 C   0  0  0  0  0  0  0  0  0  0  0  0
   -2.0755    1.6552    0.1819 C   0  0  0  0  0  0  0  0  0  0  0  0
    0.0158    0.5611   -0.4512 N   0  0  0  0  0  0  0  0  0  0  0  0
    0.9040    1.5804   -0.1757 C   0  0  0  0  0  0  0  0  0  0  0  0
    2.1419    1.2339   -0.6596 C   0  0  0  0  0  0  0  0  0  0  0  0
    1.9945    0.0031   -1.3314 C   0  0  0  0  0  0  0  0  0  0  0  0
    0.6619   -0.3824   -1.2502 C   0  0  0  0  0  0  0  0  0  0  0  0
   -0.0799   -1.5469   -1.9279 C   0  0  0  0  0  0  0  0  0  0  0  0
   -1.2148   -1.0235   -2.8604 C   0  0  0  0  0  0  0  0  0  0  0  0
   -2.0114   -2.1226   -3.5562 C   0  0  0  0  0  0  0  0  0  0  0  0
   -0.9778   -3.0340   -4.7320 S   0  0  0  0  0  0  0  0  0  0  0  0
    0.3377   -3.5274   -3.5920 C   0  0  0  0  0  0  0  0  0  0  0  0
    0.9236   -2.3416   -2.8284 C   0  0  0  0  0  0  0  0  0  0  0  0
   -0.6195   -2.4949   -0.9229 N   0  0  0  0  0  0  0  0  0  0  0  0
   -1.0996   -1.9300    0.2971 N   0  0  0  0  0  0  0  0  0  0  0  0
   -4.0465    2.4085    0.6420 H   0  0  0  0  0  0  0  0  0  0  0  0
   -4.9696    0.1156    0.9950 H   0  0  0  0  0  0  0  0  0  0  0  0
   -1.6671    2.6413   -0.0173 H   0  0  0  0  0  0  0  0  0  0  0  0
    0.6092    2.4403    0.4119 H   0  0  0  0  0  0  0  0  0  0  0  0
    3.0506    1.8118   -0.5503 H   0  0  0  0  0  0  0  0  0  0  0  0
    2.7805   -0.5225   -1.8588 H   0  0  0  0  0  0  0  0  0  0  0  0
   -0.7874   -0.3436   -3.6130 H   0  0  0  0  0  0  0  0  0  0  0  0
   -1.9416   -0.4104   -2.3219 H   0  0  0  0  0  0  0  0  0  0  0  0
   -2.8396   -1.6758   -4.1164 H   0  0  0  0  0  0  0  0  0  0  0  0
   -2.4562   -2.8219   -2.8401 H   0  0  0  0  0  0  0  0  0  0  0  0
    1.1281   -3.9970   -4.1867 H   0  0  0  0  0  0  0  0  0  0  0  0
   -0.0449   -4.2945   -2.9110 H   0  0  0  0  0  0  0  0  0  0  0  0
    1.3838   -1.6588   -3.5556 H   0  0  0  0  0  0  0  0  0  0  0  0
    1.7531   -2.7228   -2.2134 H   0  0  0  0  0  0  0  0  0  0  0  0
    0.0827   -3.2019   -0.6978 H   0  0  0  0  0  0  0  0  0  0  0  0
   -0.3493   -1.7443    0.9683 H   0  0  0  0  0  0  0  0  0  0  0  0
  1  2  1  0  0  0  0
  1  6  2  0  0  0  0
  1 20  1  0  0  0  0
  2  3  2  0  0  0  0
  2 21  1  0  0  0  0
  3  4  1  0  0  0  0
  4  5  2  0  0  0  0
  4 19  1  0  0  0  0
  5  6  1  0  0  0  0
  5  7  1  0  0  0  0
  6 22  1  0  0  0  0
  7  8  1  0  0  0  0
  7 11  1  0  0  0  0
  8  9  2  0  0  0  0
  8 23  1  0  0  0  0
  9 10  1  0  0  0  0
  9 24  1  0  0  0  0
 10 11  2  0  0  0  0
 10 25  1  0  0  0  0
 11 12  1  0  0  0  0
 12 13  1  0  0  0  0
 12 17  1  0  0  0  0
 12 18  1  0  0  0  0
 13 14  1  0  0  0  0
 13 26  1  0  0  0  0
 13 27  1  0  0  0  0
 14 15  1  0  0  0  0
 14 28  1  0  0  0  0
 14 29  1  0  0  0  0
 15 16  1  0  0  0  0
 16 17  1  0  0  0  0
 16 30  1  0  0  0  0
 16 31  1  0  0  0  0
 17 32  1  0  0  0  0
 17 33  1  0  0  0  0
 18 19  1  0  0  0  0
 18 34  1  0  0  0  0
 19 35  1  0  0  0  0
M  END
>  <Energy>
78.0192

$$$$

 OpenBabel04232616053D

 30 32  0  0  0  0  0  0  0  0999 V2000
    1.1098    0.0265    0.3357 O   0  0  0  0  0  0  0  0  0  0  0  0
    2.3210    0.0169    0.2601 C   0  0  0  0  0  0  0  0  0  0  0  0
    3.1297   -1.0676    0.2970 O   0  0  0  0  0  0  0  0  0  0  0  0
    4.4151   -0.6815    0.1203 C   0  0  0  0  0  0  0  0  0  0  0  0
    5.4355   -1.4572   -0.0055 N   0  0  0  0  0  0  0  0  0  0  0  0
    5.2776   -2.8571   -0.0122 C   0  0  0  0  0  0  0  0  0  0  0  0
    6.2155   -3.6160    0.6975 C   0  0  0  0  0  0  0  0  0  0  0  0
    6.1580   -5.0142    0.6992 C   0  0  0  0  0  0  0  0  0  0  0  0
    5.1525   -5.6671   -0.0113 C   0  0  0  0  0  0  0  0  0  0  0  0
    5.0759   -7.3853   -0.0024 Cl  0  0  0  0  0  0  0  0  0  0  0  0
    4.2217   -4.9385   -0.7420 C   0  0  0  0  0  0  0  0  0  0  0  0
    4.3058   -3.5477   -0.7563 C   0  0  0  0  0  0  0  0  0  0  0  0
    3.4388   -2.8768   -1.5299 F   0  0  0  0  0  0  0  0  0  0  0  0
    4.4323    0.7726    0.0901 C   0  0  0  0  0  0  0  0  0  0  0  0
    3.1769    1.1874    0.1323 C   0  0  0  0  0  0  0  0  0  0  0  0
    2.7167    2.5838    0.0672 C   0  0  0  0  0  0  0  0  0  0  0  0
    3.8519    3.6150    0.0038 C   0  0  0  0  0  0  0  0  0  0  0  0
    5.3163    3.1364    0.0356 C   0  0  0  0  0  0  0  0  0  0  0  0
    5.6232    1.6319   -0.0037 C   0  0  0  0  0  0  0  0  0  0  0  0
    7.0099   -3.1108    1.2439 H   0  0  0  0  0  0  0  0  0  0  0  0
    6.9029   -5.5835    1.2494 H   0  0  0  0  0  0  0  0  0  0  0  0
    3.4406   -5.4302   -1.3127 H   0  0  0  0  0  0  0  0  0  0  0  0
    2.0826    2.8016    0.9349 H   0  0  0  0  0  0  0  0  0  0  0  0
    2.0793    2.7084   -0.8183 H   0  0  0  0  0  0  0  0  0  0  0  0
    3.7112    4.3243    0.8312 H   0  0  0  0  0  0  0  0  0  0  0  0
    3.7101    4.2249   -0.8993 H   0  0  0  0  0  0  0  0  0  0  0  0
    5.7879    3.5558    0.9346 H   0  0  0  0  0  0  0  0  0  0  0  0
    5.8503    3.6155   -0.7965 H   0  0  0  0  0  0  0  0  0  0  0  0
    6.3062    1.3945    0.8223 H   0  0  0  0  0  0  0  0  0  0  0  0
    6.1677    1.3992   -0.9278 H   0  0  0  0  0  0  0  0  0  0  0  0
  1  2  2  0  0  0  0
  2  3  1  0  0  0  0
  2 15  1  0  0  0  0
  3  4  1  0  0  0  0
  4  5  2  0  0  0  0
  4 14  1  0  0  0  0
  5  6  1  0  0  0  0
  6  7  1  0  0  0  0
  6 12  2  0  0  0  0
  7  8  2  0  0  0  0
  7 20  1  0  0  0  0
  8  9  1  0  0  0  0
  8 21  1  0  0  0  0
  9 10  1  0  0  0  0
  9 11  2  0  0  0  0
 11 12  1  0  0  0  0
 11 22  1  0  0  0  0
 12 13  1  0  0  0  0
 14 15  2  0  0  0  0
 14 19  1  0  0  0  0
 15 16  1  0  0  0  0
 16 17  1  0  0  0  0
 16 23  1  0  0  0  0
 16 24  1  0  0  0  0
 17 18  1  0  0  0  0
 17 25  1  0  0  0  0
 17 26  1  0  0  0  0
 18 19  1  0  0  0  0
 18 27  1  0  0  0  0
 18 28  1  0  0  0  0
 19 29  1  0  0  0  0
 19 30  1  0  0  0  0
M  END
>  <Energy>
-6.05534

$$$$

 OpenBabel04232616053D

 31 34  0  0  0  0  0  0  0  0999 V2000
    1.1220    0.1081    0.0675 Cl  0  0  0  0  0  0  0  0  0  0  0  0
    2.8426    0.1084    0.0727 C   0  0  0  0  0  0  0  0  0  0  0  0
    3.5323   -1.1034    0.0787 C   0  0  0  0  0  0  0  0  0  0  0  0
    4.9289   -1.1072    0.0819 C   0  0  0  0  0  0  0  0  0  0  0  0
    5.6347    0.0965    0.0731 C   0  0  0  0  0  0  0  0  0  0  0  0
    4.9325    1.3001    0.0644 C   0  0  0  0  0  0  0  0  0  0  0  0
    3.5338    1.3199    0.0680 C   0  0  0  0  0  0  0  0  0  0  0  0
    5.6959    2.4687    0.0507 N   0  0  0  0  0  0  0  0  0  0  0  0
    5.3049    3.7812    0.0599 C   0  0  0  0  0  0  0  0  0  0  0  0
    6.4752    4.5112    0.0366 C   0  0  0  0  0  0  0  0  0  0  0  0
    6.5780    5.9594    0.0750 C   0  0  0  0  0  0  0  0  0  0  0  0
    7.7283    6.5562    0.6090 C   0  0  0  0  0  0  0  0  0  0  0  0
    7.8358    7.9464    0.6918 C   0  0  0  0  0  0  0  0  0  0  0  0
    6.7981    8.7530    0.2298 C   0  0  0  0  0  0  0  0  0  0  0  0
    5.6556    8.1724   -0.3213 C   0  0  0  0  0  0  0  0  0  0  0  0
    5.5471    6.7819   -0.3990 C   0  0  0  0  0  0  0  0  0  0  0  0
    7.5633    3.6714    0.0252 N   0  0  0  0  0  0  0  0  0  0  0  0
    7.0636    2.4505    0.0308 C   0  0  0  0  0  0  0  0  0  0  0  0
    7.8132    1.1729    0.0266 C   0  0  0  0  0  0  0  0  0  0  0  0
    6.9924   -0.0100    0.0821 O   0  0  0  0  0  0  0  0  0  0  0  0
    2.9919   -2.0464    0.0809 H   0  0  0  0  0  0  0  0  0  0  0  0
    5.4674   -2.0521    0.0892 H   0  0  0  0  0  0  0  0  0  0  0  0
    2.9723    2.2483    0.0636 H   0  0  0  0  0  0  0  0  0  0  0  0
    4.2713    4.0878    0.1071 H   0  0  0  0  0  0  0  0  0  0  0  0
    8.5435    5.9349    0.9746 H   0  0  0  0  0  0  0  0  0  0  0  0
    8.7279    8.3959    1.1194 H   0  0  0  0  0  0  0  0  0  0  0  0
    6.8802    9.8354    0.2954 H   0  0  0  0  0  0  0  0  0  0  0  0
    4.8515    8.8017   -0.6907 H   0  0  0  0  0  0  0  0  0  0  0  0
    4.6523    6.3536   -0.8429 H   0  0  0  0  0  0  0  0  0  0  0  0
    8.4863    1.1407    0.8899 H   0  0  0  0  0  0  0  0  0  0  0  0
    8.4262    1.1035   -0.8780 H   0  0  0  0  0  0  0  0  0  0  0  0
  1  2  1  0  0  0  0
  2  3  1  0  0  0  0
  2  7  2  0  0  0  0
  3  4  2  0  0  0  0
  3 21  1  0  0  0  0
  4  5  1  0  0  0  0
  4 22  1  0  0  0  0
  5  6  2  0  0  0  0
  5 20  1  0  0  0  0
  6  7  1  0  0  0  0
  6  8  1  0  0  0  0
  7 23  1  0  0  0  0
  8  9  1  0  0  0  0
  8 18  1  0  0  0  0
  9 10  2  0  0  0  0
  9 24  1  0  0  0  0
 10 11  1  0  0  0  0
 10 17  1  0  0  0  0
 11 12  1  0  0  0  0
 11 16  2  0  0  0  0
 12 13  2  0  0  0  0
 12 25  1  0  0  0  0
 13 14  1  0  0  0  0
 13 26  1  0  0  0  0
 14 15  2  0  0  0  0
 14 27  1  0  0  0  0
 15 16  1  0  0  0  0
 15 28  1  0  0  0  0
 16 29  1  0  0  0  0
 17 18  2  0  0  0  0
 18 19  1  0  0  0  0
 19 20  1  0  0  0  0
 19 30  1  0  0  0  0
 19 31  1  0  0  0  0
M  END
>  <Energy>
54.8732

$$$$

 OpenBabel04232616053D

 26 27  0  0  0  0  0  0  0  0999 V2000
    0.9709    0.2597    0.2051 C   0  0  0  0  0  0  0  0  0  0  0  0
    2.4198    0.0504   -0.0179 C   0  0  0  0  0  0  0  0  0  0  0  0
    3.1279   -1.0735   -0.1728 C   0  0  0  0  0  0  0  0  0  0  0  0
    2.7218   -2.4980   -0.1460 C   0  0  0  0  0  0  0  0  0  0  0  0
    4.5142   -0.6866   -0.4789 C   0  0  0  0  0  0  0  0  0  0  0  0
    5.4015   -1.5127   -0.6234 O   0  0  0  0  0  0  0  0  0  0  0  0
    4.5681    0.6790   -0.5283 N   0  0  0  0  0  0  0  0  0  0  0  0
    5.6950    1.4412   -0.9355 C   0  0  0  0  0  0  0  0  0  0  0  0
    6.6738    0.8724   -1.7679 C   0  0  0  0  0  0  0  0  0  0  0  0
    7.7390    1.6364   -2.2505 C   0  0  0  0  0  0  0  0  0  0  0  0
    8.8740    0.9252   -3.3319 Cl  0  0  0  0  0  0  0  0  0  0  0  0
    7.8753    2.9702   -1.8903 C   0  0  0  0  0  0  0  0  0  0  0  0
    6.9306    3.5362   -1.0427 C   0  0  0  0  0  0  0  0  0  0  0  0
    7.1009    5.1824   -0.5675 Cl  0  0  0  0  0  0  0  0  0  0  0  0
    5.8440    2.7887   -0.5763 C   0  0  0  0  0  0  0  0  0  0  0  0
    3.3446    1.1912   -0.1838 C   0  0  0  0  0  0  0  0  0  0  0  0
    2.9748    2.3483   -0.0749 O   0  0  0  0  0  0  0  0  0  0  0  0
    0.4137   -0.6821    0.1919 H   0  0  0  0  0  0  0  0  0  0  0  0
    0.5545    0.8954   -0.5836 H   0  0  0  0  0  0  0  0  0  0  0  0
    0.7937    0.7432    1.1688 H   0  0  0  0  0  0  0  0  0  0  0  0
    1.6372   -2.6167   -0.0768 H   0  0  0  0  0  0  0  0  0  0  0  0
    3.1723   -3.0057    0.7129 H   0  0  0  0  0  0  0  0  0  0  0  0
    3.0516   -3.0075   -1.0574 H   0  0  0  0  0  0  0  0  0  0  0  0
    6.5983   -0.1597   -2.1017 H   0  0  0  0  0  0  0  0  0  0  0  0
    8.7042    3.5611   -2.2690 H   0  0  0  0  0  0  0  0  0  0  0  0
    5.1332    3.2756    0.0878 H   0  0  0  0  0  0  0  0  0  0  0  0
  1  2  1  0  0  0  0
  1 18  1  0  0  0  0
  1 19  1  0  0  0  0
  1 20  1  0  0  0  0
  2  3  2  0  0  0  0
  2 16  1  0  0  0  0
  3  4  1  0  0  0  0
  3  5  1  0  0  0  0
  4 21  1  0  0  0  0
  4 22  1  0  0  0  0
  4 23  1  0  0  0  0
  5  6  2  0  0  0  0
  5  7  1  0  0  0  0
  7  8  1  0  0  0  0
  7 16  1  0  0  0  0
  8  9  1  0  0  0  0
  8 15  2  0  0  0  0
  9 10  2  0  0  0  0
  9 24  1  0  0  0  0
 10 11  1  0  0  0  0
 10 12  1  0  0  0  0
 12 13  2  0  0  0  0
 12 25  1  0  0  0  0
 13 14  1  0  0  0  0
 13 15  1  0  0  0  0
 15 26  1  0  0  0  0
 16 17  2  0  0  0  0
M  END
>  <Energy>
-21.8668

$$$$

 OpenBabel04232616053D

 29 31  0  0  0  0  0  0  0  0999 V2000
    1.0053    0.3997    0.0289 C   0  0  0  0  0  0  0  0  0  0  0  0
    2.4523   -0.0608   -0.0320 C   0  0  0  0  0  0  0  0  0  0  0  0
    2.9288   -0.5357    1.2922 C   0  0  0  0  0  0  0  0  0  0  0  0
    3.5371    0.1865    2.2157 N   0  0  0  0  0  0  0  0  0  0  0  0
    3.7943   -0.6284    3.2948 N   0  0  0  0  0  0  0  0  0  0  0  0
    3.3492   -1.8210    2.9884 C   0  0  0  0  0  0  0  0  0  0  0  0
    2.7985   -1.8372    1.7313 N   0  0  0  0  0  0  0  0  0  0  0  0
    2.1767   -2.8591    1.0645 N   0  0  0  0  0  0  0  0  0  0  0  0
    2.3727   -4.0655    1.5257 C   0  0  0  0  0  0  0  0  0  0  0  0
    1.6164   -5.1873    0.8772 C   0  0  0  0  0  0  0  0  0  0  0  0
    2.1267   -6.4916    0.8260 C   0  0  0  0  0  0  0  0  0  0  0  0
    1.3727   -7.5179    0.2461 C   0  0  0  0  0  0  0  0  0  0  0  0
    0.1166   -7.2418   -0.2915 C   0  0  0  0  0  0  0  0  0  0  0  0
   -0.8103   -8.5097   -0.9917 Cl  0  0  0  0  0  0  0  0  0  0  0  0
   -0.3904   -5.9450   -0.2648 C   0  0  0  0  0  0  0  0  0  0  0  0
    0.3594   -4.9181    0.3162 C   0  0  0  0  0  0  0  0  0  0  0  0
    3.3643   -4.4383    2.6247 C   0  0  0  0  0  0  0  0  0  0  0  0
    3.3548   -3.2340    3.9675 S   0  0  0  0  0  0  0  0  0  0  0  0
    0.6814    0.7630   -0.9514 H   0  0  0  0  0  0  0  0  0  0  0  0
    0.8797    1.2134    0.7517 H   0  0  0  0  0  0  0  0  0  0  0  0
    0.3400   -0.4181    0.3257 H   0  0  0  0  0  0  0  0  0  0  0  0
    3.0822    0.7750   -0.3587 H   0  0  0  0  0  0  0  0  0  0  0  0
    2.5606   -0.8478   -0.7868 H   0  0  0  0  0  0  0  0  0  0  0  0
    3.1103   -6.7374    1.2163 H   0  0  0  0  0  0  0  0  0  0  0  0
    1.7703   -8.5299    0.2164 H   0  0  0  0  0  0  0  0  0  0  0  0
   -1.3676   -5.7260   -0.6881 H   0  0  0  0  0  0  0  0  0  0  0  0
   -0.0509   -3.9103    0.3361 H   0  0  0  0  0  0  0  0  0  0  0  0
    4.3653   -4.4798    2.1811 H   0  0  0  0  0  0  0  0  0  0  0  0
    3.1355   -5.4137    3.0598 H   0  0  0  0  0  0  0  0  0  0  0  0
  1  2  1  0  0  0  0
  1 19  1  0  0  0  0
  1 20  1  0  0  0  0
  1 21  1  0  0  0  0
  2  3  1  0  0  0  0
  2 22  1  0  0  0  0
  2 23  1  0  0  0  0
  3  4  2  0  0  0  0
  3  7  1  0  0  0  0
  4  5  1  0  0  0  0
  5  6  2  0  0  0  0
  6  7  1  0  0  0  0
  6 18  1  0  0  0  0
  7  8  1  0  0  0  0
  8  9  2  0  0  0  0
  9 10  1  0  0  0  0
  9 17  1  0  0  0  0
 10 11  1  0  0  0  0
 10 16  2  0  0  0  0
 11 12  2  0  0  0  0
 11 24  1  0  0  0  0
 12 13  1  0  0  0  0
 12 25  1  0  0  0  0
 13 14  1  0  0  0  0
 13 15  2  0  0  0  0
 15 16  1  0  0  0  0
 15 26  1  0  0  0  0
 16 27  1  0  0  0  0
 17 18  1  0  0  0  0
 17 28  1  0  0  0  0
 17 29  1  0  0  0  0
M  END
>  <Energy>
83.4682

$$$$

 OpenBabel04232616053D

 28 30  0  0  0  0  0  0  0  0999 V2000
    0.9431    0.2301   -0.0334 O   0  0  0  0  0  0  0  0  0  0  0  0
    2.1630    0.1403    0.0090 C   0  0  0  0  0  0  0  0  0  0  0  0
    2.8804   -1.1632    0.0457 C   0  0  0  0  0  0  0  0  0  0  0  0
    4.2268   -1.2018    0.1157 C   0  0  0  0  0  0  0  0  0  0  0  0
    4.9528   -2.5361    0.1461 C   0  0  0  0  0  0  0  0  0  0  0  0
    6.3007   -2.3641    0.1299 F   0  0  0  0  0  0  0  0  0  0  0  0
    4.6554   -3.2471    1.2606 F   0  0  0  0  0  0  0  0  0  0  0  0
    4.6371   -3.3071   -0.9229 F   0  0  0  0  0  0  0  0  0  0  0  0
    4.9747   -0.0197    0.1479 N   0  0  0  0  0  0  0  0  0  0  0  0
    4.3892    1.2018    0.0804 C   0  0  0  0  0  0  0  0  0  0  0  0
    4.8512    2.5002    0.0657 C   0  0  0  0  0  0  0  0  0  0  0  0
    6.2422    2.9127    0.1227 C   0  0  0  0  0  0  0  0  0  0  0  0
    7.2333    2.2311   -0.5981 C   0  0  0  0  0  0  0  0  0  0  0  0
    8.5719    2.6199   -0.5083 C   0  0  0  0  0  0  0  0  0  0  0  0
    8.9306    3.7064    0.2858 C   0  0  0  0  0  0  0  0  0  0  0  0
    7.9512    4.4094    0.9846 C   0  0  0  0  0  0  0  0  0  0  0  0
    6.6130    4.0155    0.9037 C   0  0  0  0  0  0  0  0  0  0  0  0
    3.6668    3.2768    0.0268 C   0  0  0  0  0  0  0  0  0  0  0  0
    2.5505    2.5431   -0.0022 N   0  0  0  0  0  0  0  0  0  0  0  0
    3.0068    1.2641    0.0242 N   0  0  0  0  0  0  0  0  0  0  0  0
    2.2609   -2.0524    0.0171 H   0  0  0  0  0  0  0  0  0  0  0  0
    5.9867   -0.1305    0.2523 H   0  0  0  0  0  0  0  0  0  0  0  0
    6.9761    1.4007   -1.2506 H   0  0  0  0  0  0  0  0  0  0  0  0
    9.3337    2.0782   -1.0637 H   0  0  0  0  0  0  0  0  0  0  0  0
    9.9723    4.0097    0.3552 H   0  0  0  0  0  0  0  0  0  0  0  0
    8.2294    5.2635    1.5973 H   0  0  0  0  0  0  0  0  0  0  0  0
    5.8699    4.5732    1.4696 H   0  0  0  0  0  0  0  0  0  0  0  0
    3.5750    4.3559    0.0130 H   0  0  0  0  0  0  0  0  0  0  0  0
  1  2  2  0  0  0  0
  2  3  1  0  0  0  0
  2 20  1  0  0  0  0
  3  4  2  0  0  0  0
  3 21  1  0  0  0  0
  4  5  1  0  0  0  0
  4  9  1  0  0  0  0
  5  6  1  0  0  0  0
  5  7  1  0  0  0  0
  5  8  1  0  0  0  0
  9 10  1  0  0  0  0
  9 22  1  0  0  0  0
 10 11  2  0  0  0  0
 10 20  1  0  0  0  0
 11 12  1  0  0  0  0
 11 18  1  0  0  0  0
 12 13  1  0  0  0  0
 12 17  2  0  0  0  0
 13 14  2  0  0  0  0
 13 23  1  0  0  0  0
 14 15  1  0  0  0  0
 14 24  1  0  0  0  0
 15 16  2  0  0  0  0
 15 25  1  0  0  0  0
 16 17  1  0  0  0  0
 16 26  1  0  0  0  0
 17 27  1  0  0  0  0
 18 19  2  0  0  0  0
 18 28  1  0  0  0  0
 19 20  1  0  0  0  0
M  END
>  <Energy>
152.044

$$$$

 OpenBabel04232616053D

 19 20  0  0  0  0  0  0  0  0999 V2000
    1.1643   -0.2043    0.1701 Cl  0  0  0  0  0  0  0  0  0  0  0  0
    2.8809   -0.0489    0.0969 C   0  0  0  0  0  0  0  0  0  0  0  0
    3.4940   -1.2450    0.0636 N   0  0  0  0  0  0  0  0  0  0  0  0
    4.8369   -1.2338   -0.0072 C   0  0  0  0  0  0  0  0  0  0  0  0
    5.6044   -2.5652   -0.0957 C   0  0  0  0  0  0  0  0  0  0  0  0
    4.5219   -4.0026   -0.1146 Cl  0  0  0  0  0  0  0  0  0  0  0  0
    6.5803   -2.6078   -1.6090 Cl  0  0  0  0  0  0  0  0  0  0  0  0
    6.7110   -2.7353    1.3114 Cl  0  0  0  0  0  0  0  0  0  0  0  0
    5.5540   -0.0823   -0.0248 N   0  0  0  0  0  0  0  0  0  0  0  0
    4.9096    1.0927    0.0035 C   0  0  0  0  0  0  0  0  0  0  0  0
    5.6487    2.2691   -0.0390 C   0  0  0  0  0  0  0  0  0  0  0  0
    5.0397    3.5278   -0.0331 C   0  0  0  0  0  0  0  0  0  0  0  0
    3.6561    3.6250    0.0254 C   0  0  0  0  0  0  0  0  0  0  0  0
    2.8939    2.4620    0.0773 C   0  0  0  0  0  0  0  0  0  0  0  0
    3.5199    1.1877    0.0637 C   0  0  0  0  0  0  0  0  0  0  0  0
    6.7350    2.2079   -0.0861 H   0  0  0  0  0  0  0  0  0  0  0  0
    5.6503    4.4268   -0.0774 H   0  0  0  0  0  0  0  0  0  0  0  0
    3.1730    4.5995    0.0277 H   0  0  0  0  0  0  0  0  0  0  0  0
    1.8095    2.5492    0.1229 H   0  0  0  0  0  0  0  0  0  0  0  0
  1  2  1  0  0  0  0
  2  3  1  0  0  0  0
  2 15  2  0  0  0  0
  3  4  2  0  0  0  0
  4  5  1  0  0  0  0
  4  9  1  0  0  0  0
  5  6  1  0  0  0  0
  5  7  1  0  0  0  0
  5  8  1  0  0  0  0
  9 10  2  0  0  0  0
 10 11  1  0  0  0  0
 10 15  1  0  0  0  0
 11 12  2  0  0  0  0
 11 16  1  0  0  0  0
 12 13  1  0  0  0  0
 12 17  1  0  0  0  0
 13 14  2  0  0  0  0
 13 18  1  0  0  0  0
 14 15  1  0  0  0  0
 14 19  1  0  0  0  0
M  END
>  <Energy>
75.1628

$$$$

 OpenBabel04232616053D

 34 37  0  0  0  0  0  0  0  0999 V2000
    0.9275   -0.2904    0.0320 C   0  0  0  0  0  0  0  0  0  0  0  0
    2.4231   -0.2509   -0.0026 C   0  0  0  0  0  0  0  0  0  0  0  0
    3.0875    1.0517    0.0202 C   0  0  0  0  0  0  0  0  0  0  0  0
    4.4300    1.1647   -0.0259 C   0  0  0  0  0  0  0  0  0  0  0  0
    5.2319   -0.0069   -0.0887 C   0  0  0  0  0  0  0  0  0  0  0  0
    6.5310   -0.1543   -0.1225 N   0  0  0  0  0  0  0  0  0  0  0  0
    6.7535   -1.5140   -0.1085 C   0  0  0  0  0  0  0  0  0  0  0  0
    8.1000   -2.0556   -0.0225 C   0  0  0  0  0  0  0  0  0  0  0  0
    8.3728   -3.3414    0.4626 C   0  0  0  0  0  0  0  0  0  0  0  0
    9.6963   -3.7430    0.6952 C   0  0  0  0  0  0  0  0  0  0  0  0
   10.7484   -2.8606    0.4557 C   0  0  0  0  0  0  0  0  0  0  0  0
   10.4811   -1.5912   -0.0587 C   0  0  0  0  0  0  0  0  0  0  0  0
    9.1717   -1.2032   -0.3234 C   0  0  0  0  0  0  0  0  0  0  0  0
   11.4568   -0.6528   -0.2791 O   0  0  0  0  0  0  0  0  0  0  0  0
   12.5701   -0.9079    0.5794 C   0  0  0  0  0  0  0  0  0  0  0  0
   13.0276   -2.3495    0.4241 C   0  0  0  0  0  0  0  0  0  0  0  0
   12.0062   -3.2844    0.7984 O   0  0  0  0  0  0  0  0  0  0  0  0
    5.5563   -2.1997   -0.1108 C   0  0  0  0  0  0  0  0  0  0  0  0
    4.5778   -1.2325   -0.0935 N   0  0  0  0  0  0  0  0  0  0  0  0
    3.1907   -1.3590   -0.0633 C   0  0  0  0  0  0  0  0  0  0  0  0
    0.4884    0.6971   -0.1478 H   0  0  0  0  0  0  0  0  0  0  0  0
    0.5788   -0.6374    1.0102 H   0  0  0  0  0  0  0  0  0  0  0  0
    0.5384   -0.9629   -0.7399 H   0  0  0  0  0  0  0  0  0  0  0  0
    2.4747    1.9490    0.0777 H   0  0  0  0  0  0  0  0  0  0  0  0
    4.9225    2.1294   -0.0076 H   0  0  0  0  0  0  0  0  0  0  0  0
    7.5689   -4.0275    0.7137 H   0  0  0  0  0  0  0  0  0  0  0  0
    9.9014   -4.7307    1.1009 H   0  0  0  0  0  0  0  0  0  0  0  0
    8.9849   -0.1998   -0.7017 H   0  0  0  0  0  0  0  0  0  0  0  0
   12.2772   -0.6821    1.6131 H   0  0  0  0  0  0  0  0  0  0  0  0
   13.3722   -0.2184    0.2985 H   0  0  0  0  0  0  0  0  0  0  0  0
   13.8928   -2.5323    1.0696 H   0  0  0  0  0  0  0  0  0  0  0  0
   13.3207   -2.5611   -0.6105 H   0  0  0  0  0  0  0  0  0  0  0  0
    5.3125   -3.2517   -0.0986 H   0  0  0  0  0  0  0  0  0  0  0  0
    2.7863   -2.3637   -0.0774 H   0  0  0  0  0  0  0  0  0  0  0  0
  1  2  1  0  0  0  0
  1 21  1  0  0  0  0
  1 22  1  0  0  0  0
  1 23  1  0  0  0  0
  2  3  1  0  0  0  0
  2 20  2  0  0  0  0
  3  4  2  0  0  0  0
  3 24  1  0  0  0  0
  4  5  1  0  0  0  0
  4 25  1  0  0  0  0
  5  6  2  0  0  0  0
  5 19  1  0  0  0  0
  6  7  1  0  0  0  0
  7  8  1  0  0  0  0
  7 18  2  0  0  0  0
  8  9  1  0  0  0  0
  8 13  2  0  0  0  0
  9 10  2  0  0  0  0
  9 26  1  0  0  0  0
 10 11  1  0  0  0  0
 10 27  1  0  0  0  0
 11 12  2  0  0  0  0
 11 17  1  0  0  0  0
 12 13  1  0  0  0  0
 12 14  1  0  0  0  0
 13 28  1  0  0  0  0
 14 15  1  0  0  0  0
 15 16  1  0  0  0  0
 15 29  1  0  0  0  0
 15 30  1  0  0  0  0
 16 17  1  0  0  0  0
 16 31  1  0  0  0  0
 16 32  1  0  0  0  0
 18 19  1  0  0  0  0
 18 33  1  0  0  0  0
 19 20  1  0  0  0  0
 20 34  1  0  0  0  0
M  END
>  <Energy>
65.5998

$$$$

 OpenBabel04232616053D

 29 30  0  0  0  0  0  0  0  0999 V2000
    2.4885   -0.1546    0.2934 C   0  0  0  0  0  0  0  0  0  0  0  0
    0.9914   -0.1225    0.1966 C   0  0  0  0  0  0  0  0  0  0  0  0
    0.2886   -1.1474   -0.4472 C   0  0  0  0  0  0  0  0  0  0  0  0
   -1.1068   -1.1144   -0.5221 C   0  0  0  0  0  0  0  0  0  0  0  0
   -1.8188   -0.0532    0.0516 C   0  0  0  0  0  0  0  0  0  0  0  0
   -3.2996   -0.0243   -0.0117 C   0  0  0  0  0  0  0  0  0  0  0  0
   -3.9973    0.6145   -1.0955 C   0  0  0  0  0  0  0  0  0  0  0  0
   -3.2377    1.2732   -2.2355 C   0  0  0  0  0  0  0  0  0  0  0  0
   -2.6075    1.8196   -3.1812 N   0  0  0  0  0  0  0  0  0  0  0  0
   -5.3537    0.6967   -1.1363 C   0  0  0  0  0  0  0  0  0  0  0  0
   -6.0918    1.3334   -2.1021 N   0  0  0  0  0  0  0  0  0  0  0  0
   -6.0679    0.1090   -0.1265 N   0  0  0  0  0  0  0  0  0  0  0  0
   -5.5262   -0.5540    0.9461 C   0  0  0  0  0  0  0  0  0  0  0  0
   -6.5740   -1.2278    2.0635 S   0  0  0  0  0  0  0  0  0  0  0  0
   -4.0402   -0.5801    0.9711 C   0  0  0  0  0  0  0  0  0  0  0  0
   -3.3067   -1.2407    2.1269 C   0  0  0  0  0  0  0  0  0  0  0  0
   -2.6982   -1.7888    3.0858 N   0  0  0  0  0  0  0  0  0  0  0  0
   -1.1171    0.9815    0.6832 C   0  0  0  0  0  0  0  0  0  0  0  0
    0.2775    0.9451    0.7555 C   0  0  0  0  0  0  0  0  0  0  0  0
    2.9013   -1.0647   -0.1546 H   0  0  0  0  0  0  0  0  0  0  0  0
    2.7997   -0.1295    1.3431 H   0  0  0  0  0  0  0  0  0  0  0  0
    2.9199    0.7043   -0.2305 H   0  0  0  0  0  0  0  0  0  0  0  0
    0.8244   -1.9840   -0.8914 H   0  0  0  0  0  0  0  0  0  0  0  0
   -1.6244   -1.9284   -1.0235 H   0  0  0  0  0  0  0  0  0  0  0  0
   -5.6196    1.5435   -2.9801 H   0  0  0  0  0  0  0  0  0  0  0  0
   -7.0241    0.9578   -2.2453 H   0  0  0  0  0  0  0  0  0  0  0  0
   -7.0785    0.1863   -0.1445 H   0  0  0  0  0  0  0  0  0  0  0  0
   -1.6433    1.8224    1.1304 H   0  0  0  0  0  0  0  0  0  0  0  0
    0.8083    1.7526    1.2566 H   0  0  0  0  0  0  0  0  0  0  0  0
  1  2  1  0  0  0  0
  1 20  1  0  0  0  0
  1 21  1  0  0  0  0
  1 22  1  0  0  0  0
  2  3  1  0  0  0  0
  2 19  2  0  0  0  0
  3  4  2  0  0  0  0
  3 23  1  0  0  0  0
  4  5  1  0  0  0  0
  4 24  1  0  0  0  0
  5  6  1  0  0  0  0
  5 18  2  0  0  0  0
  6  7  1  0  0  0  0
  6 15  2  0  0  0  0
  7  8  1  0  0  0  0
  7 10  2  0  0  0  0
  8  9  3  0  0  0  0
 10 11  1  0  0  0  0
 10 12  1  0  0  0  0
 11 25  1  0  0  0  0
 11 26  1  0  0  0  0
 12 13  1  0  0  0  0
 12 27  1  0  0  0  0
 13 14  2  0  0  0  0
 13 15  1  0  0  0  0
 15 16  1  0  0  0  0
 16 17  3  0  0  0  0
 18 19  1  0  0  0  0
 18 28  1  0  0  0  0
 19 29  1  0  0  0  0
M  END
>  <Energy>
317.132

$$$$

 OpenBabel04232616053D

 35 38  0  0  0  0  0  0  0  0999 V2000
    1.0625    0.2723    0.0832 C   0  0  0  0  0  0  0  0  0  0  0  0
    2.5970    0.1366    0.0397 C   0  0  0  0  0  0  0  0  0  0  0  0
    3.0103   -0.0852   -1.4303 C   0  0  0  0  0  0  0  0  0  0  0  0
    2.9839   -1.0777    0.9045 C   0  0  0  0  0  0  0  0  0  0  0  0
    4.4734   -1.2872    0.9573 C   0  0  0  0  0  0  0  0  0  0  0  0
    4.9740   -2.4066    1.0087 O   0  0  0  0  0  0  0  0  0  0  0  0
    5.3051   -0.0676    1.0180 C   0  0  0  0  0  0  0  0  0  0  0  0
    6.6222   -0.1463    1.2283 C   0  0  0  0  0  0  0  0  0  0  0  0
    7.3604    1.0205    1.3231 N   0  0  0  0  0  0  0  0  0  0  0  0
    6.7786    2.2813    1.2101 C   0  0  0  0  0  0  0  0  0  0  0  0
    5.4370    2.4118    0.9620 N   0  0  0  0  0  0  0  0  0  0  0  0
    4.7430    1.3127    0.8614 C   0  0  0  0  0  0  0  0  0  0  0  0
    3.2458    1.4240    0.5982 C   0  0  0  0  0  0  0  0  0  0  0  0
    7.6900    3.2188    1.3837 N   0  0  0  0  0  0  0  0  0  0  0  0
    8.8766    2.5602    1.5993 C   0  0  0  0  0  0  0  0  0  0  0  0
   10.1607    3.0734    1.8441 C   0  0  0  0  0  0  0  0  0  0  0  0
   11.2256    2.1784    2.0275 C   0  0  0  0  0  0  0  0  0  0  0  0
   11.0227    0.8001    1.9686 C   0  0  0  0  0  0  0  0  0  0  0  0
    9.7521    0.2686    1.7316 C   0  0  0  0  0  0  0  0  0  0  0  0
    8.7042    1.1813    1.5544 C   0  0  0  0  0  0  0  0  0  0  0  0
    0.5787   -0.6343   -0.3007 H   0  0  0  0  0  0  0  0  0  0  0  0
    0.7183    1.1159   -0.5241 H   0  0  0  0  0  0  0  0  0  0  0  0
    0.7056    0.4266    1.1076 H   0  0  0  0  0  0  0  0  0  0  0  0
    2.6085   -1.0308   -1.8122 H   0  0  0  0  0  0  0  0  0  0  0  0
    4.0968   -0.1149   -1.5590 H   0  0  0  0  0  0  0  0  0  0  0  0
    2.6304    0.7191   -2.0704 H   0  0  0  0  0  0  0  0  0  0  0  0
    2.5254   -1.9910    0.5086 H   0  0  0  0  0  0  0  0  0  0  0  0
    2.6357   -0.9503    1.9378 H   0  0  0  0  0  0  0  0  0  0  0  0
    7.1494   -1.0846    1.3489 H   0  0  0  0  0  0  0  0  0  0  0  0
    3.0770    2.2605   -0.0917 H   0  0  0  0  0  0  0  0  0  0  0  0
    2.7798    1.7002    1.5541 H   0  0  0  0  0  0  0  0  0  0  0  0
   10.3190    4.1456    1.8899 H   0  0  0  0  0  0  0  0  0  0  0  0
   12.2244    2.5660    2.2171 H   0  0  0  0  0  0  0  0  0  0  0  0
   11.8634    0.1240    2.1104 H   0  0  0  0  0  0  0  0  0  0  0  0
    9.5943   -0.8041    1.6886 H   0  0  0  0  0  0  0  0  0  0  0  0
  1  2  1  0  0  0  0
  1 21  1  0  0  0  0
  1 22  1  0  0  0  0
  1 23  1  0  0  0  0
  2  3  1  0  0  0  0
  2  4  1  0  0  0  0
  2 13  1  0  0  0  0
  3 24  1  0  0  0  0
  3 25  1  0  0  0  0
  3 26  1  0  0  0  0
  4  5  1  0  0  0  0
  4 27  1  0  0  0  0
  4 28  1  0  0  0  0
  5  6  2  0  0  0  0
  5  7  1  0  0  0  0
  7  8  2  0  0  0  0
  7 12  1  0  0  0  0
  8  9  1  0  0  0  0
  8 29  1  0  0  0  0
  9 10  1  0  0  0  0
  9 20  1  0  0  0  0
 10 11  1  0  0  0  0
 10 14  2  0  0  0  0
 11 12  2  0  0  0  0
 12 13  1  0  0  0  0
 13 30  1  0  0  0  0
 13 31  1  0  0  0  0
 14 15  1  0  0  0  0
 15 16  1  0  0  0  0
 15 20  2  0  0  0  0
 16 17  2  0  0  0  0
 16 32  1  0  0  0  0
 17 18  1  0  0  0  0
 17 33  1  0  0  0  0
 18 19  2  0  0  0  0
 18 34  1  0  0  0  0
 19 20  1  0  0  0  0
 19 35  1  0  0  0  0
M  END
>  <Energy>
49.2392

$$$$

 OpenBabel04232616053D

 36 39  0  0  0  0  0  0  0  0999 V2000
    1.1883   -0.2055   -0.0543 C   0  0  0  0  0  0  0  0  0  0  0  0
    2.6585    0.0160   -0.0270 C   0  0  0  0  0  0  0  0  0  0  0  0
    3.4673   -1.0485   -0.0008 N   0  0  0  0  0  0  0  0  0  0  0  0
    4.7221   -0.5422   -0.0222 N   0  0  0  0  0  0  0  0  0  0  0  0
    5.9282   -1.2616   -0.0067 C   0  0  0  0  0  0  0  0  0  0  0  0
    7.0901   -0.5813   -0.0118 C   0  0  0  0  0  0  0  0  0  0  0  0
    6.9820    0.8990   -0.0660 C   0  0  0  0  0  0  0  0  0  0  0  0
    5.8797    1.5820   -0.0809 N   0  0  0  0  0  0  0  0  0  0  0  0
    4.7127    0.8593   -0.0543 C   0  0  0  0  0  0  0  0  0  0  0  0
    3.3796    1.2443   -0.0488 C   0  0  0  0  0  0  0  0  0  0  0  0
    2.9169    2.6337   -0.0713 C   0  0  0  0  0  0  0  0  0  0  0  0
    3.6410    3.6311   -0.7419 C   0  0  0  0  0  0  0  0  0  0  0  0
    3.1993    4.9577   -0.7610 C   0  0  0  0  0  0  0  0  0  0  0  0
    2.0124    5.3063   -0.1248 C   0  0  0  0  0  0  0  0  0  0  0  0
    1.2773    4.3318    0.5430 C   0  0  0  0  0  0  0  0  0  0  0  0
    1.7328    3.0093    0.5788 C   0  0  0  0  0  0  0  0  0  0  0  0
    8.3898   -1.2804    0.0781 C   0  0  0  0  0  0  0  0  0  0  0  0
    9.4423   -0.6536   -0.0107 O   0  0  0  0  0  0  0  0  0  0  0  0
    8.3636   -2.7616    0.3745 C   0  0  0  0  0  0  0  0  0  0  0  0
    7.1968   -3.4213   -0.3449 C   0  0  0  0  0  0  0  0  0  0  0  0
    5.8629   -2.7673    0.0245 C   0  0  0  0  0  0  0  0  0  0  0  0
    0.9440   -1.2680   -0.1608 H   0  0  0  0  0  0  0  0  0  0  0  0
    0.7341    0.3270   -0.8961 H   0  0  0  0  0  0  0  0  0  0  0  0
    0.7259    0.1393    0.8746 H   0  0  0  0  0  0  0  0  0  0  0  0
    7.9396    1.4470   -0.0928 H   0  0  0  0  0  0  0  0  0  0  0  0
    4.5681    3.3927   -1.2586 H   0  0  0  0  0  0  0  0  0  0  0  0
    3.7878    5.7147   -1.2728 H   0  0  0  0  0  0  0  0  0  0  0  0
    1.6657    6.3360   -0.1435 H   0  0  0  0  0  0  0  0  0  0  0  0
    0.3519    4.5996    1.0466 H   0  0  0  0  0  0  0  0  0  0  0  0
    1.1496    2.2897    1.1431 H   0  0  0  0  0  0  0  0  0  0  0  0
    8.2866   -2.8941    1.4595 H   0  0  0  0  0  0  0  0  0  0  0  0
    9.3050   -3.2072    0.0367 H   0  0  0  0  0  0  0  0  0  0  0  0
    7.1652   -4.4902   -0.1072 H   0  0  0  0  0  0  0  0  0  0  0  0
    7.3489   -3.3392   -1.4293 H   0  0  0  0  0  0  0  0  0  0  0  0
    5.5626   -3.0899    1.0292 H   0  0  0  0  0  0  0  0  0  0  0  0
    5.1034   -3.1339   -0.6764 H   0  0  0  0  0  0  0  0  0  0  0  0
  1  2  1  0  0  0  0
  1 22  1  0  0  0  0
  1 23  1  0  0  0  0
  1 24  1  0  0  0  0
  2  3  2  0  0  0  0
  2 10  1  0  0  0  0
  3  4  1  0  0  0  0
  4  5  1  0  0  0  0
  4  9  1  0  0  0  0
  5  6  2  0  0  0  0
  5 21  1  0  0  0  0
  6  7  1  0  0  0  0
  6 17  1  0  0  0  0
  7  8  2  0  0  0  0
  7 25  1  0  0  0  0
  8  9  1  0  0  0  0
  9 10  2  0  0  0  0
 10 11  1  0  0  0  0
 11 12  1  0  0  0  0
 11 16  2  0  0  0  0
 12 13  2  0  0  0  0
 12 26  1  0  0  0  0
 13 14  1  0  0  0  0
 13 27  1  0  0  0  0
 14 15  2  0  0  0  0
 14 28  1  0  0  0  0
 15 16  1  0  0  0  0
 15 29  1  0  0  0  0
 16 30  1  0  0  0  0
 17 18  2  0  0  0  0
 17 19  1  0  0  0  0
 19 20  1  0  0  0  0
 19 31  1  0  0  0  0
 19 32  1  0  0  0  0
 20 21  1  0  0  0  0
 20 33  1  0  0  0  0
 20 34  1  0  0  0  0
 21 35  1  0  0  0  0
 21 36  1  0  0  0  0
M  END
>  <Energy>
60.5631

$$$$

 OpenBabel04232616053D

 36 38  0  0  0  0  0  0  0  0999 V2000
   -1.3509    1.9997   -3.7924 C   0  0  0  0  0  0  0  0  0  0  0  0
   -1.4932    1.3270   -2.4590 C   0  0  0  0  0  0  0  0  0  0  0  0
   -1.0426    1.9457   -1.2866 C   0  0  0  0  0  0  0  0  0  0  0  0
   -1.1859    1.3125   -0.0493 C   0  0  0  0  0  0  0  0  0  0  0  0
   -1.7772    0.0515    0.0292 C   0  0  0  0  0  0  0  0  0  0  0  0
   -2.2235   -0.5743   -1.1362 C   0  0  0  0  0  0  0  0  0  0  0  0
   -2.8714   -1.9005   -1.0949 C   0  0  0  0  0  0  0  0  0  0  0  0
   -3.0354   -2.5565    0.0112 N   0  0  0  0  0  0  0  0  0  0  0  0
   -3.7758   -3.7357   -0.0384 N   0  0  0  0  0  0  0  0  0  0  0  0
   -3.4968   -4.7098    0.9099 C   0  0  0  0  0  0  0  0  0  0  0  0
   -2.3399   -4.4983    1.8625 C   0  0  0  0  0  0  0  0  0  0  0  0
   -4.1540   -5.8249    1.0178 N   0  0  0  0  0  0  0  0  0  0  0  0
   -5.2429   -6.0430    0.1686 C   0  0  0  0  0  0  0  0  0  0  0  0
   -5.9652   -7.2327    0.2895 C   0  0  0  0  0  0  0  0  0  0  0  0
   -7.0935   -7.4672   -0.5022 C   0  0  0  0  0  0  0  0  0  0  0  0
   -7.5074   -6.5137   -1.4308 C   0  0  0  0  0  0  0  0  0  0  0  0
   -6.7870   -5.3275   -1.5691 C   0  0  0  0  0  0  0  0  0  0  0  0
   -5.6612   -5.1003   -0.7672 C   0  0  0  0  0  0  0  0  0  0  0  0
   -4.9065   -3.8383   -0.8656 C   0  0  0  0  0  0  0  0  0  0  0  0
   -5.3347   -2.9680   -1.6242 O   0  0  0  0  0  0  0  0  0  0  0  0
   -2.0882    0.0611   -2.3758 C   0  0  0  0  0  0  0  0  0  0  0  0
   -0.8743    2.9811   -3.6993 H   0  0  0  0  0  0  0  0  0  0  0  0
   -2.3351    2.1462   -4.2489 H   0  0  0  0  0  0  0  0  0  0  0  0
   -0.7329    1.3880   -4.4577 H   0  0  0  0  0  0  0  0  0  0  0  0
   -0.5799    2.9298   -1.3266 H   0  0  0  0  0  0  0  0  0  0  0  0
   -0.8398    1.8061    0.8556 H   0  0  0  0  0  0  0  0  0  0  0  0
   -1.8935   -0.4301    0.9968 H   0  0  0  0  0  0  0  0  0  0  0  0
   -3.1887   -2.2999   -2.0739 H   0  0  0  0  0  0  0  0  0  0  0  0
   -2.0142   -3.4604    1.9379 H   0  0  0  0  0  0  0  0  0  0  0  0
   -1.4962   -5.1139    1.5358 H   0  0  0  0  0  0  0  0  0  0  0  0
   -2.6388   -4.8300    2.8627 H   0  0  0  0  0  0  0  0  0  0  0  0
   -5.6516   -7.9757    1.0181 H   0  0  0  0  0  0  0  0  0  0  0  0
   -7.6545   -8.3911   -0.3856 H   0  0  0  0  0  0  0  0  0  0  0  0
   -8.3898   -6.6879   -2.0402 H   0  0  0  0  0  0  0  0  0  0  0  0
   -7.1128   -4.5782   -2.2885 H   0  0  0  0  0  0  0  0  0  0  0  0
   -2.4521   -0.4205   -3.2810 H   0  0  0  0  0  0  0  0  0  0  0  0
  1  2  1  0  0  0  0
  1 22  1  0  0  0  0
  1 23  1  0  0  0  0
  1 24  1  0  0  0  0
  2  3  1  0  0  0  0
  2 21  2  0  0  0  0
  3  4  2  0  0  0  0
  3 25  1  0  0  0  0
  4  5  1  0  0  0  0
  4 26  1  0  0  0  0
  5  6  2  0  0  0  0
  5 27  1  0  0  0  0
  6  7  1  0  0  0  0
  6 21  1  0  0  0  0
  7  8  2  0  0  0  0
  7 28  1  0  0  0  0
  8  9  1  0  0  0  0
  9 10  1  0  0  0  0
  9 19  1  0  0  0  0
 10 11  1  0  0  0  0
 10 12  2  0  0  0  0
 11 29  1  0  0  0  0
 11 30  1  0  0  0  0
 11 31  1  0  0  0  0
 12 13  1  0  0  0  0
 13 14  1  0  0  0  0
 13 18  2  0  0  0  0
 14 15  2  0  0  0  0
 14 32  1  0  0  0  0
 15 16  1  0  0  0  0
 15 33  1  0  0  0  0
 16 17  2  0  0  0  0
 16 34  1  0  0  0  0
 17 18  1  0  0  0  0
 17 35  1  0  0  0  0
 18 19  1  0  0  0  0
 19 20  2  0  0  0  0
 21 36  1  0  0  0  0
M  END
>  <Energy>
96.0665

$$$$

 OpenBabel04232616053D

 39 41  0  0  0  0  0  0  0  0999 V2000
    1.0359   -0.1802   -0.0297 C   0  0  0  0  0  0  0  0  0  0  0  0
    2.5632   -0.0634   -0.0692 C   0  0  0  0  0  0  0  0  0  0  0  0
    3.1504   -0.5567    1.2572 C   0  0  0  0  0  0  0  0  0  0  0  0
    3.0336    1.3878   -0.3788 C   0  0  0  0  0  0  0  0  0  0  0  0
    3.3026    1.5093   -1.9121 C   0  0  0  0  0  0  0  0  0  0  0  0
    4.5340    2.3951   -2.1471 C   0  0  0  0  0  0  0  0  0  0  0  0
    2.0961    2.0832   -2.6633 C   0  0  0  0  0  0  0  0  0  0  0  0
    3.5293    0.0614   -2.2564 C   0  0  0  0  0  0  0  0  0  0  0  0
    3.1396   -0.7995   -1.2541 C   0  0  0  0  0  0  0  0  0  0  0  0
    3.2253   -2.1230   -1.3767 N   0  0  0  0  0  0  0  0  0  0  0  0
    3.7412   -2.6304   -2.5388 N   0  0  0  0  0  0  0  0  0  0  0  0
    4.1438   -1.8185   -3.5765 C   0  0  0  0  0  0  0  0  0  0  0  0
    4.6717   -2.4622   -4.7918 C   0  0  0  0  0  0  0  0  0  0  0  0
    4.2004   -3.7270   -5.1955 C   0  0  0  0  0  0  0  0  0  0  0  0
    4.6698   -4.3441   -6.3623 C   0  0  0  0  0  0  0  0  0  0  0  0
    5.6270   -3.7145   -7.1494 C   0  0  0  0  0  0  0  0  0  0  0  0
    6.1300   -2.4779   -6.7622 C   0  0  0  0  0  0  0  0  0  0  0  0
    5.6633   -1.8671   -5.5940 C   0  0  0  0  0  0  0  0  0  0  0  0
    4.0102   -0.4311   -3.4485 N   0  3  0  0  0  0  0  0  0  0  0  0
    4.2911    0.3868   -4.3879 O   0  5  0  0  0  0  0  0  0  0  0  0
    0.6162    0.4585    0.7557 H   0  0  0  0  0  0  0  0  0  0  0  0
    0.7243   -1.2108    0.1762 H   0  0  0  0  0  0  0  0  0  0  0  0
    0.5687    0.1064   -0.9758 H   0  0  0  0  0  0  0  0  0  0  0  0
    2.8116    0.0683    2.0909 H   0  0  0  0  0  0  0  0  0  0  0  0
    4.2465   -0.5378    1.2465 H   0  0  0  0  0  0  0  0  0  0  0  0
    2.8472   -1.5890    1.4675 H   0  0  0  0  0  0  0  0  0  0  0  0
    3.9707    1.5804    0.1646 H   0  0  0  0  0  0  0  0  0  0  0  0
    2.3212    2.1418   -0.0221 H   0  0  0  0  0  0  0  0  0  0  0  0
    4.3917    3.3853   -1.6989 H   0  0  0  0  0  0  0  0  0  0  0  0
    4.7315    2.5502   -3.2125 H   0  0  0  0  0  0  0  0  0  0  0  0
    5.4372    1.9534   -1.7102 H   0  0  0  0  0  0  0  0  0  0  0  0
    1.8640    3.0959   -2.3150 H   0  0  0  0  0  0  0  0  0  0  0  0
    1.1970    1.4737   -2.5385 H   0  0  0  0  0  0  0  0  0  0  0  0
    2.2890    2.1403   -3.7406 H   0  0  0  0  0  0  0  0  0  0  0  0
    3.4468   -4.2457   -4.6038 H   0  0  0  0  0  0  0  0  0  0  0  0
    4.2771   -5.3144   -6.6563 H   0  0  0  0  0  0  0  0  0  0  0  0
    5.9818   -4.1851   -8.0620 H   0  0  0  0  0  0  0  0  0  0  0  0
    6.8810   -1.9775   -7.3697 H   0  0  0  0  0  0  0  0  0  0  0  0
    6.0872   -0.8988   -5.3282 H   0  0  0  0  0  0  0  0  0  0  0  0
  1  2  1  0  0  0  0
  1 21  1  0  0  0  0
  1 22  1  0  0  0  0
  1 23  1  0  0  0  0
  2  3  1  0  0  0  0
  2  4  1  0  0  0  0
  2  9  1  0  0  0  0
  3 24  1  0  0  0  0
  3 25  1  0  0  0  0
  3 26  1  0  0  0  0
  4  5  1  0  0  0  0
  4 27  1  0  0  0  0
  4 28  1  0  0  0  0
  5  6  1  0  0  0  0
  5  7  1  0  0  0  0
  5  8  1  0  0  0  0
  6 29  1  0  0  0  0
  6 30  1  0  0  0  0
  6 31  1  0  0  0  0
  7 32  1  0  0  0  0
  7 33  1  0  0  0  0
  7 34  1  0  0  0  0
  8  9  1  0  0  0  0
  8 19  2  0  0  0  0
  9 10  2  0  0  0  0
 10 11  1  0  0  0  0
 11 12  2  0  0  0  0
 12 13  1  0  0  0  0
 12 19  1  0  0  0  0
 13 14  1  0  0  0  0
 13 18  2  0  0  0  0
 14 15  2  0  0  0  0
 14 35  1  0  0  0  0
 15 16  1  0  0  0  0
 15 36  1  0  0  0  0
 16 17  2  0  0  0  0
 16 37  1  0  0  0  0
 17 18  1  0  0  0  0
 17 38  1  0  0  0  0
 18 39  1  0  0  0  0
 19 20  1  0  0  0  0
M  CHG  2  19   1  20  -1
M  END
>  <Energy>
95.4248

$$$$

 OpenBabel04232616053D

 28 31  0  0  0  0  0  0  0  0999 V2000
    0.9421   -0.1741   -0.0687 O   0  0  0  0  0  0  0  0  0  0  0  0
    2.1676   -0.1629   -0.0679 C   0  0  0  0  0  0  0  0  0  0  0  0
    2.9309    1.1065   -0.0664 C   0  0  0  0  0  0  0  0  0  0  0  0
    2.2431    2.3279   -0.0667 C   0  0  0  0  0  0  0  0  0  0  0  0
    2.9574    3.5225   -0.0674 C   0  0  0  0  0  0  0  0  0  0  0  0
    4.3515    3.4929   -0.0678 C   0  0  0  0  0  0  0  0  0  0  0  0
    5.0338    2.2684   -0.0672 C   0  0  0  0  0  0  0  0  0  0  0  0
    6.7639    2.3132   -0.0684 Cl  0  0  0  0  0  0  0  0  0  0  0  0
    4.3364    1.0489   -0.0663 C   0  0  0  0  0  0  0  0  0  0  0  0
    5.0361   -0.1848   -0.0661 N   0  0  0  0  0  0  0  0  0  0  0  0
    4.3228   -1.2565   -0.0677 C   0  0  0  0  0  0  0  0  0  0  0  0
    2.9439   -1.2898   -0.0690 N   0  0  0  0  0  0  0  0  0  0  0  0
    2.4236   -2.6423   -0.0742 C   0  0  0  0  0  0  0  0  0  0  0  0
    3.6711   -3.4655   -0.0695 C   0  0  0  0  0  0  0  0  0  0  0  0
    3.8195   -4.8407   -0.0685 C   0  0  0  0  0  0  0  0  0  0  0  0
    5.1188   -5.3612   -0.0672 C   0  0  0  0  0  0  0  0  0  0  0  0
    6.2420   -4.5113   -0.0670 C   0  0  0  0  0  0  0  0  0  0  0  0
    6.0864   -3.1238   -0.0672 C   0  0  0  0  0  0  0  0  0  0  0  0
    4.7957   -2.6344   -0.0680 C   0  0  0  0  0  0  0  0  0  0  0  0
    1.1550    2.3451   -0.0670 H   0  0  0  0  0  0  0  0  0  0  0  0
    2.4300    4.4738   -0.0682 H   0  0  0  0  0  0  0  0  0  0  0  0
    4.9067    4.4285   -0.0688 H   0  0  0  0  0  0  0  0  0  0  0  0
    1.8265   -2.7960   -0.9783 H   0  0  0  0  0  0  0  0  0  0  0  0
    1.8137   -2.8003    0.8202 H   0  0  0  0  0  0  0  0  0  0  0  0
    2.9596   -5.5035   -0.0689 H   0  0  0  0  0  0  0  0  0  0  0  0
    5.2662   -6.4398   -0.0667 H   0  0  0  0  0  0  0  0  0  0  0  0
    7.2411   -4.9421   -0.0668 H   0  0  0  0  0  0  0  0  0  0  0  0
    6.9401   -2.4545   -0.0669 H   0  0  0  0  0  0  0  0  0  0  0  0
  1  2  2  0  0  0  0
  2  3  1  0  0  0  0
  2 12  1  0  0  0  0
  3  4  1  0  0  0  0
  3  9  2  0  0  0  0
  4  5  2  0  0  0  0
  4 20  1  0  0  0  0
  5  6  1  0  0  0  0
  5 21  1  0  0  0  0
  6  7  2  0  0  0  0
  6 22  1  0  0  0  0
  7  8  1  0  0  0  0
  7  9  1  0  0  0  0
  9 10  1  0  0  0  0
 10 11  2  0  0  0  0
 11 12  1  0  0  0  0
 11 19  1  0  0  0  0
 12 13  1  0  0  0  0
 13 14  1  0  0  0  0
 13 23  1  0  0  0  0
 13 24  1  0  0  0  0
 14 15  1  0  0  0  0
 14 19  2  0  0  0  0
 15 16  2  0  0  0  0
 15 25  1  0  0  0  0
 16 17  1  0  0  0  0
 16 26  1  0  0  0  0
 17 18  2  0  0  0  0
 17 27  1  0  0  0  0
 18 19  1  0  0  0  0
 18 28  1  0  0  0  0
M  END
>  <Energy>
28.5212

$$$$

 OpenBabel04232616053D

 33 34  0  0  0  0  0  0  0  0999 V2000
    1.0143   -0.1481   -0.2891 O   0  0  0  0  0  0  0  0  0  0  0  0
    2.2365   -0.0270   -0.2815 C   0  0  0  0  0  0  0  0  0  0  0  0
    2.9410    0.9455   -0.9718 N   0  0  0  0  0  0  0  0  0  0  0  0
    2.3588    2.0462   -1.5585 C   0  0  0  0  0  0  0  0  0  0  0  0
    1.2056    2.4047   -1.3406 O   0  0  0  0  0  0  0  0  0  0  0  0
    3.2007    2.7828   -2.3978 N   0  0  0  0  0  0  0  0  0  0  0  0
    2.6711    4.0151   -2.9872 C   0  0  0  0  0  0  0  0  0  0  0  0
    2.5494    3.8807   -4.5024 C   0  0  0  0  0  0  0  0  0  0  0  0
    3.8911    3.4913   -5.1178 C   0  0  0  0  0  0  0  0  0  0  0  0
    4.4486    2.2311   -4.4569 C   0  0  0  0  0  0  0  0  0  0  0  0
    4.4985    2.3644   -2.9334 C   0  0  0  0  0  0  0  0  0  0  0  0
    3.0307   -1.0515    0.4801 C   0  0  0  0  0  0  0  0  0  0  0  0
    2.3136   -1.9446    1.2967 C   0  0  0  0  0  0  0  0  0  0  0  0
    2.9657   -2.9649    1.9937 C   0  0  0  0  0  0  0  0  0  0  0  0
    4.3454   -3.1015    1.8808 C   0  0  0  0  0  0  0  0  0  0  0  0
    5.1523   -4.3700    2.7171 Cl  0  0  0  0  0  0  0  0  0  0  0  0
    5.0733   -2.2215    1.0842 C   0  0  0  0  0  0  0  0  0  0  0  0
    4.4215   -1.1991    0.3804 C   0  0  0  0  0  0  0  0  0  0  0  0
    3.9243    1.0276   -0.8174 H   0  0  0  0  0  0  0  0  0  0  0  0
    3.3690    4.8224   -2.7313 H   0  0  0  0  0  0  0  0  0  0  0  0
    1.6993    4.2844   -2.5628 H   0  0  0  0  0  0  0  0  0  0  0  0
    2.2009    4.8252   -4.9349 H   0  0  0  0  0  0  0  0  0  0  0  0
    1.8031    3.1157   -4.7452 H   0  0  0  0  0  0  0  0  0  0  0  0
    4.6048    4.3156   -4.9930 H   0  0  0  0  0  0  0  0  0  0  0  0
    3.7755    3.3279   -6.1953 H   0  0  0  0  0  0  0  0  0  0  0  0
    5.4516    2.0216   -4.8439 H   0  0  0  0  0  0  0  0  0  0  0  0
    3.8128    1.3777   -4.7239 H   0  0  0  0  0  0  0  0  0  0  0  0
    5.2283    3.1302   -2.6451 H   0  0  0  0  0  0  0  0  0  0  0  0
    4.8321    1.4156   -2.5093 H   0  0  0  0  0  0  0  0  0  0  0  0
    1.2318   -1.8564    1.3873 H   0  0  0  0  0  0  0  0  0  0  0  0
    2.3881   -3.6512    2.6091 H   0  0  0  0  0  0  0  0  0  0  0  0
    6.1521   -2.3350    0.9947 H   0  0  0  0  0  0  0  0  0  0  0  0
    5.0307   -0.5607   -0.2492 H   0  0  0  0  0  0  0  0  0  0  0  0
  1  2  2  0  0  0  0
  2  3  1  0  0  0  0
  2 12  1  0  0  0  0
  3  4  1  0  0  0  0
  3 19  1  0  0  0  0
  4  5  2  0  0  0  0
  4  6  1  0  0  0  0
  6  7  1  0  0  0  0
  6 11  1  0  0  0  0
  7  8  1  0  0  0  0
  7 20  1  0  0  0  0
  7 21  1  0  0  0  0
  8  9  1  0  0  0  0
  8 22  1  0  0  0  0
  8 23  1  0  0  0  0
  9 10  1  0  0  0  0
  9 24  1  0  0  0  0
  9 25  1  0  0  0  0
 10 11  1  0  0  0  0
 10 26  1  0  0  0  0
 10 27  1  0  0  0  0
 11 28  1  0  0  0  0
 11 29  1  0  0  0  0
 12 13  1  0  0  0  0
 12 18  2  0  0  0  0
 13 14  2  0  0  0  0
 13 30  1  0  0  0  0
 14 15  1  0  0  0  0
 14 31  1  0  0  0  0
 15 16  1  0  0  0  0
 15 17  2  0  0  0  0
 17 18  1  0  0  0  0
 17 32  1  0  0  0  0
 18 33  1  0  0  0  0
M  END
>  <Energy>
-43.1452

$$$$

 OpenBabel04232616053D

 27 29  0  0  0  0  0  0  0  0999 V2000
    1.0733    0.1786   -0.0333 C   0  0  0  0  0  0  0  0  0  0  0  0
    2.5531    0.0638   -0.0406 C   0  0  0  0  0  0  0  0  0  0  0  0
    3.3162    1.1640   -0.0374 N   0  0  0  0  0  0  0  0  0  0  0  0
    4.5906    0.6985   -0.0416 N   0  0  0  0  0  0  0  0  0  0  0  0
    5.7602    1.4515   -0.0326 C   0  0  0  0  0  0  0  0  0  0  0  0
    6.9593    0.8457   -0.0358 C   0  0  0  0  0  0  0  0  0  0  0  0
    8.2184    1.5851   -0.0169 C   0  0  0  0  0  0  0  0  0  0  0  0
    8.8432    1.9479   -1.2171 C   0  0  0  0  0  0  0  0  0  0  0  0
   10.0291    2.6856   -1.1985 C   0  0  0  0  0  0  0  0  0  0  0  0
   10.5977    3.0614    0.0185 C   0  0  0  0  0  0  0  0  0  0  0  0
    9.9819    2.6917    1.2129 C   0  0  0  0  0  0  0  0  0  0  0  0
   10.6880    3.1489    2.7139 Cl  0  0  0  0  0  0  0  0  0  0  0  0
    8.7963    1.9572    1.2025 C   0  0  0  0  0  0  0  0  0  0  0  0
    6.9074   -0.6492   -0.0530 C   0  0  0  0  0  0  0  0  0  0  0  0
    5.8331   -1.3814   -0.0621 N   0  0  0  0  0  0  0  0  0  0  0  0
    4.6423   -0.6988   -0.0535 C   0  0  0  0  0  0  0  0  0  0  0  0
    3.3305   -1.1147   -0.0511 C   0  0  0  0  0  0  0  0  0  0  0  0
    2.7426   -2.7072   -0.0576 Cl  0  0  0  0  0  0  0  0  0  0  0  0
    0.7487    1.2245   -0.0319 H   0  0  0  0  0  0  0  0  0  0  0  0
    0.6577   -0.3041    0.8571 H   0  0  0  0  0  0  0  0  0  0  0  0
    0.6484   -0.3047   -0.9190 H   0  0  0  0  0  0  0  0  0  0  0  0
    5.6249    2.5247   -0.0201 H   0  0  0  0  0  0  0  0  0  0  0  0
    8.4097    1.6657   -2.1752 H   0  0  0  0  0  0  0  0  0  0  0  0
   10.5075    2.9716   -2.1325 H   0  0  0  0  0  0  0  0  0  0  0  0
   11.5168    3.6419    0.0294 H   0  0  0  0  0  0  0  0  0  0  0  0
    8.3245    1.6817    2.1430 H   0  0  0  0  0  0  0  0  0  0  0  0
    7.8878   -1.1563   -0.0578 H   0  0  0  0  0  0  0  0  0  0  0  0
  1  2  1  0  0  0  0
  1 19  1  0  0  0  0
  1 20  1  0  0  0  0
  1 21  1  0  0  0  0
  2  3  2  0  0  0  0
  2 17  1  0  0  0  0
  3  4  1  0  0  0  0
  4  5  1  0  0  0  0
  4 16  1  0  0  0  0
  5  6  2  0  0  0  0
  5 22  1  0  0  0  0
  6  7  1  0  0  0  0
  6 14  1  0  0  0  0
  7  8  1  0  0  0  0
  7 13  2  0  0  0  0
  8  9  2  0  0  0  0
  8 23  1  0  0  0  0
  9 10  1  0  0  0  0
  9 24  1  0  0  0  0
 10 11  2  0  0  0  0
 10 25  1  0  0  0  0
 11 12  1  0  0  0  0
 11 13  1  0  0  0  0
 13 26  1  0  0  0  0
 14 15  2  0  0  0  0
 14 27  1  0  0  0  0
 15 16  1  0  0  0  0
 16 17  2  0  0  0  0
 17 18  1  0  0  0  0
M  END
>  <Energy>
71.2499

$$$$

 OpenBabel04232616053D

 40 42  0  0  0  0  0  0  0  0999 V2000
    1.9510   -0.3001    1.7960 C   0  0  0  0  0  0  0  0  0  0  0  0
    0.7282   -0.3564    0.9262 C   0  0  0  0  0  0  0  0  0  0  0  0
    0.4363    0.7182    0.0750 C   0  0  0  0  0  0  0  0  0  0  0  0
   -0.6767    0.6736   -0.7547 C   0  0  0  0  0  0  0  0  0  0  0  0
   -1.4980   -0.4528   -0.7475 C   0  0  0  0  0  0  0  0  0  0  0  0
   -1.2279   -1.5573    0.0836 C   0  0  0  0  0  0  0  0  0  0  0  0
   -2.1062   -2.7279   -0.0432 C   0  0  0  0  0  0  0  0  0  0  0  0
   -3.1051   -2.8647   -0.8905 N   0  0  0  0  0  0  0  0  0  0  0  0
   -3.5157   -4.1588   -0.7076 C   0  0  0  0  0  0  0  0  0  0  0  0
   -4.5710   -4.6832   -1.5049 C   0  0  0  0  0  0  0  0  0  0  0  0
   -5.4111   -5.1312   -2.1758 N   0  0  0  0  0  0  0  0  0  0  0  0
   -2.7677   -4.7929    0.2692 C   0  0  0  0  0  0  0  0  0  0  0  0
   -2.7220   -6.0517    0.8158 N   0  0  0  0  0  0  0  0  0  0  0  0
   -3.0718   -7.2113   -0.0214 C   0  0  0  0  0  0  0  0  0  0  0  0
   -4.2623   -7.9840    0.5495 C   0  0  0  0  0  0  0  0  0  0  0  0
   -3.9419   -8.8471    1.7681 C   0  0  0  0  0  0  0  0  0  0  0  0
   -3.2855   -8.0974    2.9246 C   0  0  0  0  0  0  0  0  0  0  0  0
   -1.8665   -7.6414    2.5904 C   0  0  0  0  0  0  0  0  0  0  0  0
   -1.7694   -6.2738    1.9114 C   0  0  0  0  0  0  0  0  0  0  0  0
   -1.8621   -3.8428    0.7230 O   0  0  0  0  0  0  0  0  0  0  0  0
   -0.1125   -1.4899    0.9313 C   0  0  0  0  0  0  0  0  0  0  0  0
    2.4749    0.6569    1.6862 H   0  0  0  0  0  0  0  0  0  0  0  0
    2.6506   -1.0932    1.5140 H   0  0  0  0  0  0  0  0  0  0  0  0
    1.6778   -0.4081    2.8499 H   0  0  0  0  0  0  0  0  0  0  0  0
    1.0797    1.5953    0.0476 H   0  0  0  0  0  0  0  0  0  0  0  0
   -0.9005    1.5045   -1.4188 H   0  0  0  0  0  0  0  0  0  0  0  0
   -2.3556   -0.4741   -1.4186 H   0  0  0  0  0  0  0  0  0  0  0  0
   -2.2042   -7.8691   -0.1474 H   0  0  0  0  0  0  0  0  0  0  0  0
   -3.3322   -6.9043   -1.0388 H   0  0  0  0  0  0  0  0  0  0  0  0
   -4.6397   -8.6568   -0.2322 H   0  0  0  0  0  0  0  0  0  0  0  0
   -5.0833   -7.2989    0.7920 H   0  0  0  0  0  0  0  0  0  0  0  0
   -3.2987   -9.6830    1.4631 H   0  0  0  0  0  0  0  0  0  0  0  0
   -4.8745   -9.3014    2.1268 H   0  0  0  0  0  0  0  0  0  0  0  0
   -3.2293   -8.7897    3.7744 H   0  0  0  0  0  0  0  0  0  0  0  0
   -3.9088   -7.2556    3.2463 H   0  0  0  0  0  0  0  0  0  0  0  0
   -1.3633   -8.4008    1.9791 H   0  0  0  0  0  0  0  0  0  0  0  0
   -1.2898   -7.5855    3.5224 H   0  0  0  0  0  0  0  0  0  0  0  0
   -0.7470   -6.1524    1.5324 H   0  0  0  0  0  0  0  0  0  0  0  0
   -1.9245   -5.5082    2.6822 H   0  0  0  0  0  0  0  0  0  0  0  0
    0.1235   -2.3250    1.5879 H   0  0  0  0  0  0  0  0  0  0  0  0
  1  2  1  0  0  0  0
  1 22  1  0  0  0  0
  1 23  1  0  0  0  0
  1 24  1  0  0  0  0
  2  3  1  0  0  0  0
  2 21  2  0  0  0  0
  3  4  2  0  0  0  0
  3 25  1  0  0  0  0
  4  5  1  0  0  0  0
  4 26  1  0  0  0  0
  5  6  2  0  0  0  0
  5 27  1  0  0  0  0
  6  7  1  0  0  0  0
  6 21  1  0  0  0  0
  7  8  2  0  0  0  0
  7 20  1  0  0  0  0
  8  9  1  0  0  0  0
  9 10  1  0  0  0  0
  9 12  2  0  0  0  0
 10 11  3  0  0  0  0
 12 13  1  0  0  0  0
 12 20  1  0  0  0  0
 13 14  1  0  0  0  0
 13 19  1  0  0  0  0
 14 15  1  0  0  0  0
 14 28  1  0  0  0  0
 14 29  1  0  0  0  0
 15 16  1  0  0  0  0
 15 30  1  0  0  0  0
 15 31  1  0  0  0  0
 16 17  1  0  0  0  0
 16 32  1  0  0  0  0
 16 33  1  0  0  0  0
 17 18  1  0  0  0  0
 17 34  1  0  0  0  0
 17 35  1  0  0  0  0
 18 19  1  0  0  0  0
 18 36  1  0  0  0  0
 18 37  1  0  0  0  0
 19 38  1  0  0  0  0
 19 39  1  0  0  0  0
 21 40  1  0  0  0  0
M  END
>  <Energy>
69.6224

$$$$

 OpenBabel04232616053D

 34 37  0  0  0  0  0  0  0  0999 V2000
   -2.3787    1.2570    1.1266 C   0  0  0  0  0  0  0  0  0  0  0  0
   -1.5368    0.2521    0.5212 N   0  0  0  0  0  0  0  0  0  0  0  0
   -1.9131   -0.9631   -0.0172 C   0  0  0  0  0  0  0  0  0  0  0  0
   -3.2646   -1.3718   -0.0255 C   0  0  0  0  0  0  0  0  0  0  0  0
   -4.1093   -1.0725   -1.0218 C   0  0  0  0  0  0  0  0  0  0  0  0
   -5.5475   -1.5052   -0.9319 C   0  0  0  0  0  0  0  0  0  0  0  0
   -6.0693   -2.1649   -0.0542 O   0  0  0  0  0  0  0  0  0  0  0  0
   -6.1573   -0.9547   -2.0466 N   0  0  0  0  0  0  0  0  0  0  0  0
   -5.2448   -0.2467   -2.8251 C   0  0  0  0  0  0  0  0  0  0  0  0
   -5.5147    0.4303   -3.9974 C   0  0  0  0  0  0  0  0  0  0  0  0
   -4.4446    1.0638   -4.6318 C   0  0  0  0  0  0  0  0  0  0  0  0
   -3.1464    0.9903   -4.0952 C   0  0  0  0  0  0  0  0  0  0  0  0
   -2.8970    0.2982   -2.9039 C   0  0  0  0  0  0  0  0  0  0  0  0
   -3.9639   -0.3035   -2.2616 C   0  0  0  0  0  0  0  0  0  0  0  0
   -0.8616   -1.6176   -0.4664 N   0  0  0  0  0  0  0  0  0  0  0  0
    0.2180   -0.8075   -0.2372 C   0  0  0  0  0  0  0  0  0  0  0  0
    1.5712   -1.0221   -0.5322 C   0  0  0  0  0  0  0  0  0  0  0  0
    2.4974   -0.0221   -0.2142 C   0  0  0  0  0  0  0  0  0  0  0  0
    2.0835    1.1674    0.3880 C   0  0  0  0  0  0  0  0  0  0  0  0
    0.7370    1.3956    0.6969 C   0  0  0  0  0  0  0  0  0  0  0  0
   -0.1719    0.3814    0.3697 C   0  0  0  0  0  0  0  0  0  0  0  0
   -3.4112    0.9128    1.2022 H   0  0  0  0  0  0  0  0  0  0  0  0
   -2.3358    2.1573    0.5075 H   0  0  0  0  0  0  0  0  0  0  0  0
   -1.9970    1.4672    2.1296 H   0  0  0  0  0  0  0  0  0  0  0  0
   -3.6026   -1.9742    0.8136 H   0  0  0  0  0  0  0  0  0  0  0  0
   -7.1371   -1.0774   -2.2501 H   0  0  0  0  0  0  0  0  0  0  0  0
   -6.5138    0.4740   -4.4150 H   0  0  0  0  0  0  0  0  0  0  0  0
   -4.6115    1.6122   -5.5564 H   0  0  0  0  0  0  0  0  0  0  0  0
   -2.3218    1.4732   -4.6162 H   0  0  0  0  0  0  0  0  0  0  0  0
   -1.8851    0.2336   -2.5182 H   0  0  0  0  0  0  0  0  0  0  0  0
    1.8830   -1.9491   -1.0009 H   0  0  0  0  0  0  0  0  0  0  0  0
    3.5496   -0.1765   -0.4411 H   0  0  0  0  0  0  0  0  0  0  0  0
    2.8219    1.9312    0.6232 H   0  0  0  0  0  0  0  0  0  0  0  0
    0.4225    2.3211    1.1673 H   0  0  0  0  0  0  0  0  0  0  0  0
  1  2  1  0  0  0  0
  1 22  1  0  0  0  0
  1 23  1  0  0  0  0
  1 24  1  0  0  0  0
  2  3  1  0  0  0  0
  2 21  1  0  0  0  0
  3  4  1  0  0  0  0
  3 15  2  0  0  0  0
  4  5  2  0  0  0  0
  4 25  1  0  0  0  0
  5  6  1  0  0  0  0
  5 14  1  0  0  0  0
  6  7  2  0  0  0  0
  6  8  1  0  0  0  0
  8  9  1  0  0  0  0
  8 26  1  0  0  0  0
  9 10  1  0  0  0  0
  9 14  2  0  0  0  0
 10 11  2  0  0  0  0
 10 27  1  0  0  0  0
 11 12  1  0  0  0  0
 11 28  1  0  0  0  0
 12 13  2  0  0  0  0
 12 29  1  0  0  0  0
 13 14  1  0  0  0  0
 13 30  1  0  0  0  0
 15 16  1  0  0  0  0
 16 17  1  0  0  0  0
 16 21  2  0  0  0  0
 17 18  2  0  0  0  0
 17 31  1  0  0  0  0
 18 19  1  0  0  0  0
 18 32  1  0  0  0  0
 19 20  2  0  0  0  0
 19 33  1  0  0  0  0
 20 21  1  0  0  0  0
 20 34  1  0  0  0  0
M  END
>  <Energy>
29.5693

$$$$

 OpenBabel04232616053D

 28 30  0  0  1  0  0  0  0  0999 V2000
    2.6297    1.3606    3.6446 Cl  0  0  0  0  0  0  0  0  0  0  0  0
    3.5199    0.2056    2.7030 C   0  0  0  0  0  0  0  0  0  0  0  0
    4.7080    0.6814    2.1132 C   0  0  0  0  0  0  0  0  0  0  0  0
    5.4235   -0.2893    1.3963 C   0  0  0  0  0  0  0  0  0  0  0  0
    6.5959   -0.1692    0.7665 N   0  0  0  0  0  0  0  0  0  0  0  0
    6.8262   -1.4194    0.3068 N   0  0  0  0  0  0  0  0  0  0  0  0
    8.1619   -1.8380   -0.1612 C   0  0  3  0  0  0  0  0  0  0  0  0
    9.2024   -1.8682    0.9607 C   0  0  0  0  0  0  0  0  0  0  0  0
    9.7127   -0.4768    1.3163 C   0  0  0  0  0  0  0  0  0  0  0  0
   10.1308    0.2781    0.0630 C   0  0  0  0  0  0  0  0  0  0  0  0
    9.0645    0.2340   -1.0239 C   0  0  0  0  0  0  0  0  0  0  0  0
    8.6086   -1.0866   -1.3052 O   0  0  0  0  0  0  0  0  0  0  0  0
    5.8792   -2.3540    0.5548 N   0  0  0  0  0  0  0  0  0  0  0  0
    4.9644   -1.6701    1.2579 C   0  0  0  0  0  0  0  0  0  0  0  0
    3.7651   -2.1228    1.8307 C   0  0  0  0  0  0  0  0  0  0  0  0
    3.0661   -1.1441    2.5650 C   0  0  0  0  0  0  0  0  0  0  0  0
    1.5999   -1.6751    3.3297 Cl  0  0  0  0  0  0  0  0  0  0  0  0
    5.0623    1.6985    2.2177 H   0  0  0  0  0  0  0  0  0  0  0  0
    8.0204   -2.8643   -0.5222 H   0  0  0  0  0  0  0  0  0  0  0  0
   10.0615   -2.4590    0.6160 H   0  0  0  0  0  0  0  0  0  0  0  0
    8.8059   -2.3645    1.8531 H   0  0  0  0  0  0  0  0  0  0  0  0
   10.5615   -0.5578    2.0045 H   0  0  0  0  0  0  0  0  0  0  0  0
    8.9398    0.0869    1.8507 H   0  0  0  0  0  0  0  0  0  0  0  0
   11.0492   -0.1800   -0.3229 H   0  0  0  0  0  0  0  0  0  0  0  0
   10.3667    1.3184    0.3122 H   0  0  0  0  0  0  0  0  0  0  0  0
    9.4902    0.6284   -1.9531 H   0  0  0  0  0  0  0  0  0  0  0  0
    8.2168    0.8811   -0.7838 H   0  0  0  0  0  0  0  0  0  0  0  0
    3.4306   -3.1472    1.7296 H   0  0  0  0  0  0  0  0  0  0  0  0
  1  2  1  0  0  0  0
  2  3  2  0  0  0  0
  2 16  1  0  0  0  0
  3  4  1  0  0  0  0
  3 18  1  0  0  0  0
  4  5  2  0  0  0  0
  4 14  1  0  0  0  0
  5  6  1  0  0  0  0
  6  7  1  0  0  0  0
  6 13  1  0  0  0  0
  7  8  1  0  0  0  0
  7 12  1  0  0  0  0
  7 19  1  0  0  0  0
  8  9  1  0  0  0  0
  8 20  1  0  0  0  0
  8 21  1  0  0  0  0
  9 10  1  0  0  0  0
  9 22  1  0  0  0  0
  9 23  1  0  0  0  0
 10 11  1  0  0  0  0
 10 24  1  0  0  0  0
 10 25  1  0  0  0  0
 11 12  1  0  0  0  0
 11 26  1  0  0  0  0
 11 27  1  0  0  0  0
 13 14  2  0  0  0  0
 14 15  1  0  0  0  0
 15 16  2  0  0  0  0
 15 28  1  0  0  0  0
 16 17  1  0  0  0  0
M  END
>  <Energy>
67.179

$$$$

 OpenBabel04232616053D

 30 32  0  0  0  0  0  0  0  0999 V2000
    4.0064   -0.9194   -2.3210 C   0  0  0  0  0  0  0  0  0  0  0  0
    4.0930   -0.1699   -1.1055 O   0  0  0  0  0  0  0  0  0  0  0  0
    4.6251    1.0839   -1.2419 C   0  0  0  0  0  0  0  0  0  0  0  0
    5.0172    1.5589   -2.2980 O   0  0  0  0  0  0  0  0  0  0  0  0
    4.6451    1.7548    0.1073 C   0  0  0  0  0  0  0  0  0  0  0  0
    5.2315    3.0859    0.0859 N   0  0  0  0  0  0  0  0  0  0  0  0
    6.5814    3.3867    0.3057 C   0  0  0  0  0  0  0  0  0  0  0  0
    7.7035    2.5603    0.4871 C   0  0  0  0  0  0  0  0  0  0  0  0
    8.9433    3.1771    0.7005 C   0  0  0  0  0  0  0  0  0  0  0  0
    9.0568    4.5618    0.7348 C   0  0  0  0  0  0  0  0  0  0  0  0
   10.2592    5.1153    0.9453 F   0  0  0  0  0  0  0  0  0  0  0  0
    7.9539    5.3885    0.5569 C   0  0  0  0  0  0  0  0  0  0  0  0
    6.7009    4.7943    0.3347 C   0  0  0  0  0  0  0  0  0  0  0  0
    5.4100    5.2859    0.1227 C   0  0  0  0  0  0  0  0  0  0  0  0
    4.8974    6.5410    0.0657 N   0  0  0  0  0  0  0  0  0  0  0  0
    3.5942    6.4212   -0.1410 C   0  0  0  0  0  0  0  0  0  0  0  0
    2.6641    7.5772   -0.2520 C   0  0  0  0  0  0  0  0  0  0  0  0
    2.9897    4.7793   -0.2658 S   0  0  0  0  0  0  0  0  0  0  0  0
    4.5590    4.2595   -0.0244 C   0  0  0  0  0  0  0  0  0  0  0  0
    3.3794   -1.7956   -2.1326 H   0  0  0  0  0  0  0  0  0  0  0  0
    5.0016   -1.2617   -2.6202 H   0  0  0  0  0  0  0  0  0  0  0  0
    3.5411   -0.3319   -3.1186 H   0  0  0  0  0  0  0  0  0  0  0  0
    5.2268    1.1466    0.8074 H   0  0  0  0  0  0  0  0  0  0  0  0
    3.6210    1.8434    0.4839 H   0  0  0  0  0  0  0  0  0  0  0  0
    7.6314    1.4780    0.4589 H   0  0  0  0  0  0  0  0  0  0  0  0
    9.8357    2.5748    0.8412 H   0  0  0  0  0  0  0  0  0  0  0  0
    8.0596    6.4673    0.5886 H   0  0  0  0  0  0  0  0  0  0  0  0
    3.2222    8.5165   -0.1629 H   0  0  0  0  0  0  0  0  0  0  0  0
    1.9184    7.5559    0.5479 H   0  0  0  0  0  0  0  0  0  0  0  0
    2.1543    7.5815   -1.2193 H   0  0  0  0  0  0  0  0  0  0  0  0
  1  2  1  0  0  0  0
  1 20  1  0  0  0  0
  1 21  1  0  0  0  0
  1 22  1  0  0  0  0
  2  3  1  0  0  0  0
  3  4  2  0  0  0  0
  3  5  1  0  0  0  0
  5  6  1  0  0  0  0
  5 23  1  0  0  0  0
  5 24  1  0  0  0  0
  6  7  1  0  0  0  0
  6 19  1  0  0  0  0
  7  8  1  0  0  0  0
  7 13  2  0  0  0  0
  8  9  2  0  0  0  0
  8 25  1  0  0  0  0
  9 10  1  0  0  0  0
  9 26  1  0  0  0  0
 10 11  1  0  0  0  0
 10 12  2  0  0  0  0
 12 13  1  0  0  0  0
 12 27  1  0  0  0  0
 13 14  1  0  0  0  0
 14 15  1  0  0  0  0
 14 19  2  0  0  0  0
 15 16  2  0  0  0  0
 16 17  1  0  0  0  0
 16 18  1  0  0  0  0
 17 28  1  0  0  0  0
 17 29  1  0  0  0  0
 17 30  1  0  0  0  0
 18 19  1  0  0  0  0
M  END
>  <Energy>
24.5523

$$$$

 OpenBabel04232616053D

 37 39  0  0  0  0  0  0  0  0999 V2000
    2.1645    0.4943   -1.6830 C   0  0  0  0  0  0  0  0  0  0  0  0
    1.0680    0.0459   -0.7640 C   0  0  0  0  0  0  0  0  0  0  0  0
    1.2426   -1.0464    0.0952 C   0  0  0  0  0  0  0  0  0  0  0  0
    0.2295   -1.4288    0.9841 C   0  0  0  0  0  0  0  0  0  0  0  0
    0.3678   -2.6668    1.8218 C   0  0  0  0  0  0  0  0  0  0  0  0
   -0.9662   -0.6978    1.0153 C   0  0  0  0  0  0  0  0  0  0  0  0
   -1.2049    0.3027    0.0654 C   0  0  0  0  0  0  0  0  0  0  0  0
   -2.5371    0.9339   -0.1388 C   0  0  0  0  0  0  0  0  0  0  0  0
   -2.5394    2.1475   -0.3741 O   0  0  0  0  0  0  0  0  0  0  0  0
   -3.7321    0.1972   -0.0456 N   0  0  0  0  0  0  0  0  0  0  0  0
   -4.9853    0.9564   -0.0232 C   0  0  0  0  0  0  0  0  0  0  0  0
   -6.0044    0.4399    0.9829 C   0  0  0  0  0  0  0  0  0  0  0  0
   -6.9524    1.1154    1.3818 O   0  0  0  0  0  0  0  0  0  0  0  0
   -5.9189   -0.8878    1.3106 N   0  0  0  0  0  0  0  0  0  0  0  0
   -4.9397   -1.7381    0.7850 C   0  0  0  0  0  0  0  0  0  0  0  0
   -5.0108   -3.1024    1.0730 C   0  0  0  0  0  0  0  0  0  0  0  0
   -4.0524   -3.9711    0.5543 C   0  0  0  0  0  0  0  0  0  0  0  0
   -3.0627   -3.4842   -0.2961 C   0  0  0  0  0  0  0  0  0  0  0  0
   -2.9939   -2.1179   -0.5831 C   0  0  0  0  0  0  0  0  0  0  0  0
   -3.8801   -1.2201    0.0200 C   0  0  0  0  0  0  0  0  0  0  0  0
   -0.1638    0.7096   -0.7800 C   0  0  0  0  0  0  0  0  0  0  0  0
    3.0464   -0.1529   -1.6050 H   0  0  0  0  0  0  0  0  0  0  0  0
    2.4719    1.5140   -1.4297 H   0  0  0  0  0  0  0  0  0  0  0  0
    1.8212    0.4688   -2.7219 H   0  0  0  0  0  0  0  0  0  0  0  0
    2.1733   -1.6101    0.0651 H   0  0  0  0  0  0  0  0  0  0  0  0
    1.3691   -3.1011    1.7363 H   0  0  0  0  0  0  0  0  0  0  0  0
   -0.3489   -3.4228    1.4806 H   0  0  0  0  0  0  0  0  0  0  0  0
    0.1798   -2.4457    2.8759 H   0  0  0  0  0  0  0  0  0  0  0  0
   -1.7443   -0.9783    1.7214 H   0  0  0  0  0  0  0  0  0  0  0  0
   -5.4259    0.8926   -1.0253 H   0  0  0  0  0  0  0  0  0  0  0  0
   -4.8007    2.0118    0.2051 H   0  0  0  0  0  0  0  0  0  0  0  0
   -6.6547   -1.2473    1.9032 H   0  0  0  0  0  0  0  0  0  0  0  0
   -5.7976   -3.4985    1.7089 H   0  0  0  0  0  0  0  0  0  0  0  0
   -4.0845   -5.0301    0.8006 H   0  0  0  0  0  0  0  0  0  0  0  0
   -2.3252   -4.1618   -0.7198 H   0  0  0  0  0  0  0  0  0  0  0  0
   -2.2160   -1.7738   -1.2601 H   0  0  0  0  0  0  0  0  0  0  0  0
   -0.3271    1.5336   -1.4739 H   0  0  0  0  0  0  0  0  0  0  0  0
  1  2  1  0  0  0  0
  1 22  1  0  0  0  0
  1 23  1  0  0  0  0
  1 24  1  0  0  0  0
  2  3  1  0  0  0  0
  2 21  2  0  0  0  0
  3  4  2  0  0  0  0
  3 25  1  0  0  0  0
  4  5  1  0  0  0  0
  4  6  1  0  0  0  0
  5 26  1  0  0  0  0
  5 27  1  0  0  0  0
  5 28  1  0  0  0  0
  6  7  2  0  0  0  0
  6 29  1  0  0  0  0
  7  8  1  0  0  0  0
  7 21  1  0  0  0  0
  8  9  2  0  0  0  0
  8 10  1  0  0  0  0
 10 11  1  0  0  0  0
 10 20  1  0  0  0  0
 11 12  1  0  0  0  0
 11 30  1  0  0  0  0
 11 31  1  0  0  0  0
 12 13  2  0  0  0  0
 12 14  1  0  0  0  0
 14 15  1  0  0  0  0
 14 32  1  0  0  0  0
 15 16  1  0  0  0  0
 15 20  2  0  0  0  0
 16 17  2  0  0  0  0
 16 33  1  0  0  0  0
 17 18  1  0  0  0  0
 17 34  1  0  0  0  0
 18 19  2  0  0  0  0
 18 35  1  0  0  0  0
 19 20  1  0  0  0  0
 19 36  1  0  0  0  0
 21 37  1  0  0  0  0
M  END
>  <Energy>
82.7792

$$$$

 OpenBabel04232616053D

 37 39  0  0  1  0  0  0  0  0999 V2000
    3.1657   -1.2647    0.6675 C   0  0  0  0  0  0  0  0  0  0  0  0
    2.5410   -0.1411   -0.1222 C   0  0  0  0  0  0  0  0  0  0  0  0
    1.4286    0.2995    0.1576 O   0  0  0  0  0  0  0  0  0  0  0  0
    3.3107    0.3379   -1.1565 N   0  0  0  0  0  0  0  0  0  0  0  0
    4.4500   -0.2755   -1.5773 N   0  0  0  0  0  0  0  0  0  0  0  0
    4.7525    0.3479   -2.6698 C   0  0  0  0  0  0  0  0  0  0  0  0
    5.9353    0.0934   -3.5018 C   0  0  0  0  0  0  0  0  0  0  0  0
    6.7602   -0.9889   -3.1721 C   0  0  0  0  0  0  0  0  0  0  0  0
    7.9314   -1.2255   -3.8928 C   0  0  0  0  0  0  0  0  0  0  0  0
    8.2898   -0.3837   -4.9509 C   0  0  0  0  0  0  0  0  0  0  0  0
    9.5690   -0.6036   -5.7029 C   0  0  0  0  0  0  0  0  0  0  0  0
    7.4525    0.6889   -5.2873 C   0  0  0  0  0  0  0  0  0  0  0  0
    6.2773    0.9278   -4.5687 C   0  0  0  0  0  0  0  0  0  0  0  0
    3.9207    1.3388   -3.0869 O   0  0  0  0  0  0  0  0  0  0  0  0
    2.9302    1.4092   -2.0519 C   0  0  3  0  0  0  0  0  0  0  0  0
    2.9474    2.7768   -1.3934 C   0  0  0  0  0  0  0  0  0  0  0  0
    1.7565    3.3211   -0.8839 C   0  0  0  0  0  0  0  0  0  0  0  0
    1.7537    4.5590   -0.2376 C   0  0  0  0  0  0  0  0  0  0  0  0
    2.9411    5.2714   -0.0893 C   0  0  0  0  0  0  0  0  0  0  0  0
    4.1323    4.7456   -0.5832 C   0  0  0  0  0  0  0  0  0  0  0  0
    4.1372    3.5059   -1.2263 C   0  0  0  0  0  0  0  0  0  0  0  0
    2.4483   -1.6377    1.4035 H   0  0  0  0  0  0  0  0  0  0  0  0
    4.0510   -0.8965    1.1943 H   0  0  0  0  0  0  0  0  0  0  0  0
    3.4395   -2.0922    0.0078 H   0  0  0  0  0  0  0  0  0  0  0  0
    6.5047   -1.6466   -2.3432 H   0  0  0  0  0  0  0  0  0  0  0  0
    8.5645   -2.0650   -3.6122 H   0  0  0  0  0  0  0  0  0  0  0  0
   10.0856   -1.5066   -5.3609 H   0  0  0  0  0  0  0  0  0  0  0  0
   10.2424    0.2462   -5.5514 H   0  0  0  0  0  0  0  0  0  0  0  0
    9.3655   -0.7183   -6.7716 H   0  0  0  0  0  0  0  0  0  0  0  0
    7.7199    1.3531   -6.1065 H   0  0  0  0  0  0  0  0  0  0  0  0
    5.6526    1.7756   -4.8384 H   0  0  0  0  0  0  0  0  0  0  0  0
    1.9489    1.1957   -2.4923 H   0  0  0  0  0  0  0  0  0  0  0  0
    0.8211    2.7688   -0.9653 H   0  0  0  0  0  0  0  0  0  0  0  0
    0.8252    4.9596    0.1615 H   0  0  0  0  0  0  0  0  0  0  0  0
    2.9394    6.2311    0.4206 H   0  0  0  0  0  0  0  0  0  0  0  0
    5.0613    5.2963   -0.4598 H   0  0  0  0  0  0  0  0  0  0  0  0
    5.0830    3.1097   -1.5892 H   0  0  0  0  0  0  0  0  0  0  0  0
  1  2  1  0  0  0  0
  1 22  1  0  0  0  0
  1 23  1  0  0  0  0
  1 24  1  0  0  0  0
  2  3  2  0  0  0  0
  2  4  1  0  0  0  0
  4  5  1  0  0  0  0
  4 15  1  0  0  0  0
  5  6  2  0  0  0  0
  6  7  1  0  0  0  0
  6 14  1  0  0  0  0
  7  8  1  0  0  0  0
  7 13  2  0  0  0  0
  8  9  2  0  0  0  0
  8 25  1  0  0  0  0
  9 10  1  0  0  0  0
  9 26  1  0  0  0  0
 10 11  1  0  0  0  0
 10 12  2  0  0  0  0
 11 27  1  0  0  0  0
 11 28  1  0  0  0  0
 11 29  1  0  0  0  0
 12 13  1  0  0  0  0
 12 30  1  0  0  0  0
 13 31  1  0  0  0  0
 14 15  1  0  0  0  0
 15 16  1  0  0  0  0
 15 32  1  0  0  0  0
 16 17  1  0  0  0  0
 16 21  2  0  0  0  0
 17 18  2  0  0  0  0
 17 33  1  0  0  0  0
 18 19  1  0  0  0  0
 18 34  1  0  0  0  0
 19 20  2  0  0  0  0
 19 35  1  0  0  0  0
 20 21  1  0  0  0  0
 20 36  1  0  0  0  0
 21 37  1  0  0  0  0
M  END
>  <Energy>
73.4813

$$$$

 OpenBabel04232616053D

 23 25  0  0  0  0  0  0  0  0999 V2000
   -2.6956    0.7904    0.0202 Cl  0  0  0  0  0  0  0  0  0  0  0  0
   -1.1958   -0.0506    0.0083 C   0  0  0  0  0  0  0  0  0  0  0  0
   -1.1128   -1.3076   -0.5782 C   0  0  0  0  0  0  0  0  0  0  0  0
    0.1108   -1.9826   -0.6035 C   0  0  0  0  0  0  0  0  0  0  0  0
    1.2625   -1.4109   -0.0282 C   0  0  0  0  0  0  0  0  0  0  0  0
    2.4802   -2.1449   -0.0631 N   0  0  0  0  0  0  0  0  0  0  0  0
    3.4404   -2.0089    0.8916 N   0  0  0  0  0  0  0  0  0  0  0  0
    4.4370   -2.8447    0.6274 N   0  0  0  0  0  0  0  0  0  0  0  0
    4.1271   -3.5157   -0.5146 C   0  0  0  0  0  0  0  0  0  0  0  0
    4.8355   -4.4691   -1.2546 C   0  0  0  0  0  0  0  0  0  0  0  0
    4.2386   -4.9400   -2.4252 C   0  0  0  0  0  0  0  0  0  0  0  0
    2.9861   -4.4579   -2.7891 C   0  0  0  0  0  0  0  0  0  0  0  0
    2.2587   -3.5466   -2.1000 N   0  0  0  0  0  0  0  0  0  0  0  0
    2.8805   -3.1167   -0.9756 C   0  0  0  0  0  0  0  0  0  0  0  0
    1.1627   -0.1384    0.5646 C   0  0  0  0  0  0  0  0  0  0  0  0
    2.4994    0.7646    1.1929 Cl  0  0  0  0  0  0  0  0  0  0  0  0
   -0.0679    0.5351    0.5741 C   0  0  0  0  0  0  0  0  0  0  0  0
   -1.9935   -1.7714   -1.0163 H   0  0  0  0  0  0  0  0  0  0  0  0
    0.1270   -2.9753   -1.0505 H   0  0  0  0  0  0  0  0  0  0  0  0
    5.8141   -4.8094   -0.9356 H   0  0  0  0  0  0  0  0  0  0  0  0
    4.7478   -5.6672   -3.0495 H   0  0  0  0  0  0  0  0  0  0  0  0
    2.5139   -4.8114   -3.7042 H   0  0  0  0  0  0  0  0  0  0  0  0
   -0.1405    1.5299    1.0089 H   0  0  0  0  0  0  0  0  0  0  0  0
  1  2  1  0  0  0  0
  2  3  1  0  0  0  0
  2 17  2  0  0  0  0
  3  4  2  0  0  0  0
  3 18  1  0  0  0  0
  4  5  1  0  0  0  0
  4 19  1  0  0  0  0
  5  6  1  0  0  0  0
  5 15  2  0  0  0  0
  6  7  1  0  0  0  0
  6 14  1  0  0  0  0
  7  8  2  0  0  0  0
  8  9  1  0  0  0  0
  9 10  1  0  0  0  0
  9 14  2  0  0  0  0
 10 11  2  0  0  0  0
 10 20  1  0  0  0  0
 11 12  1  0  0  0  0
 11 21  1  0  0  0  0
 12 13  2  0  0  0  0
 12 22  1  0  0  0  0
 13 14  1  0  0  0  0
 15 16  1  0  0  0  0
 15 17  1  0  0  0  0
 17 23  1  0  0  0  0
M  END
>  <Energy>
78.9345

$$$$

 OpenBabel04232616053D

 43 44  0  0  0  0  0  0  0  0999 V2000
    0.9616    0.0456    0.1143 C   0  0  0  0  0  0  0  0  0  0  0  0
    2.4764   -0.0253    0.0865 C   0  0  0  0  0  0  0  0  0  0  0  0
    3.1304   -1.2593    0.0919 C   0  0  0  0  0  0  0  0  0  0  0  0
    2.4220   -2.4353    0.1178 O   0  0  0  0  0  0  0  0  0  0  0  0
    4.5294   -1.3715    0.0888 C   0  0  0  0  0  0  0  0  0  0  0  0
    5.1568   -2.7444    0.0958 C   0  0  0  0  0  0  0  0  0  0  0  0
    5.3087   -0.1788    0.0558 C   0  0  0  0  0  0  0  0  0  0  0  0
    6.7267    0.0357    0.0217 C   0  0  0  0  0  0  0  0  0  0  0  0
    7.8686   -0.9149    0.0294 C   0  0  0  0  0  0  0  0  0  0  0  0
    6.9059    1.3907   -0.0534 C   0  0  0  0  0  0  0  0  0  0  0  0
    5.7093    2.0588    0.0786 N   0  0  0  0  0  0  0  0  0  0  0  0
    5.6470    3.4685    0.1394 C   0  0  0  0  0  0  0  0  0  0  0  0
    4.8790    4.0616   -0.6151 O   0  0  0  0  0  0  0  0  0  0  0  0
    6.6746    4.1974    1.0484 C   0  0  0  0  0  0  0  0  0  0  0  0
    7.8198    4.7449    0.1803 C   0  0  0  0  0  0  0  0  0  0  0  0
    5.9486    5.4123    1.6747 C   0  0  0  0  0  0  0  0  0  0  0  0
    7.2308    3.3861    2.2356 C   0  0  0  0  0  0  0  0  0  0  0  0
    4.6689    1.0929    0.0421 C   0  0  0  0  0  0  0  0  0  0  0  0
    3.2368    1.1911    0.0696 C   0  0  0  0  0  0  0  0  0  0  0  0
    2.4377    2.4761    0.0903 C   0  0  0  0  0  0  0  0  0  0  0  0
    0.4742   -0.9243    0.2379 H   0  0  0  0  0  0  0  0  0  0  0  0
    0.5907    0.4775   -0.8209 H   0  0  0  0  0  0  0  0  0  0  0  0
    0.6194    0.6481    0.9613 H   0  0  0  0  0  0  0  0  0  0  0  0
    1.6100   -2.3248   -0.3988 H   0  0  0  0  0  0  0  0  0  0  0  0
    4.4316   -3.5633    0.1030 H   0  0  0  0  0  0  0  0  0  0  0  0
    5.7751   -2.8634    0.9911 H   0  0  0  0  0  0  0  0  0  0  0  0
    5.7660   -2.8771   -0.8029 H   0  0  0  0  0  0  0  0  0  0  0  0
    7.5795   -1.9626    0.0268 H   0  0  0  0  0  0  0  0  0  0  0  0
    8.4800   -0.7483    0.9243 H   0  0  0  0  0  0  0  0  0  0  0  0
    8.5050   -0.7486   -0.8469 H   0  0  0  0  0  0  0  0  0  0  0  0
    7.8302    1.9302   -0.1773 H   0  0  0  0  0  0  0  0  0  0  0  0
    7.4376    5.4260   -0.5894 H   0  0  0  0  0  0  0  0  0  0  0  0
    8.3648    3.9552   -0.3428 H   0  0  0  0  0  0  0  0  0  0  0  0
    8.5471    5.2991    0.7842 H   0  0  0  0  0  0  0  0  0  0  0  0
    5.5519    6.0887    0.9090 H   0  0  0  0  0  0  0  0  0  0  0  0
    6.6273    5.9980    2.3064 H   0  0  0  0  0  0  0  0  0  0  0  0
    5.1067    5.0889    2.2979 H   0  0  0  0  0  0  0  0  0  0  0  0
    7.9347    2.6073    1.9341 H   0  0  0  0  0  0  0  0  0  0  0  0
    6.4238    2.9104    2.8039 H   0  0  0  0  0  0  0  0  0  0  0  0
    7.7878    4.0314    2.9262 H   0  0  0  0  0  0  0  0  0  0  0  0
    3.0272    3.3777    0.1631 H   0  0  0  0  0  0  0  0  0  0  0  0
    1.7871    2.4999    0.9709 H   0  0  0  0  0  0  0  0  0  0  0  0
    1.8232    2.5495   -0.8133 H   0  0  0  0  0  0  0  0  0  0  0  0
  1  2  1  0  0  0  0
  1 21  1  0  0  0  0
  1 22  1  0  0  0  0
  1 23  1  0  0  0  0
  2  3  1  0  0  0  0
  2 19  2  0  0  0  0
  3  4  1  0  0  0  0
  3  5  2  0  0  0  0
  4 24  1  0  0  0  0
  5  6  1  0  0  0  0
  5  7  1  0  0  0  0
  6 25  1  0  0  0  0
  6 26  1  0  0  0  0
  6 27  1  0  0  0  0
  7  8  1  0  0  0  0
  7 18  2  0  0  0  0
  8  9  1  0  0  0  0
  8 10  2  0  0  0  0
  9 28  1  0  0  0  0
  9 29  1  0  0  0  0
  9 30  1  0  0  0  0
 10 11  1  0  0  0  0
 10 31  1  0  0  0  0
 11 12  1  0  0  0  0
 11 18  1  0  0  0  0
 12 13  2  0  0  0  0
 12 14  1  0  0  0  0
 14 15  1  0  0  0  0
 14 16  1  0  0  0  0
 14 17  1  0  0  0  0
 15 32  1  0  0  0  0
 15 33  1  0  0  0  0
 15 34  1  0  0  0  0
 16 35  1  0  0  0  0
 16 36  1  0  0  0  0
 16 37  1  0  0  0  0
 17 38  1  0  0  0  0
 17 39  1  0  0  0  0
 17 40  1  0  0  0  0
 18 19  1  0  0  0  0
 19 20  1  0  0  0  0
 20 41  1  0  0  0  0
 20 42  1  0  0  0  0
 20 43  1  0  0  0  0
M  END
>  <Energy>
92.7588

$$$$

 OpenBabel04232616053D

 26 28  0  0  0  0  0  0  0  0999 V2000
    2.2095    1.1903    0.4128 F   0  0  0  0  0  0  0  0  0  0  0  0
    2.3997   -0.0275   -0.1643 C   0  0  0  0  0  0  0  0  0  0  0  0
    3.2680   -0.6940    0.6431 F   0  0  0  0  0  0  0  0  0  0  0  0
    1.2063   -0.6753   -0.0776 F   0  0  0  0  0  0  0  0  0  0  0  0
    2.8838    0.0783   -1.5463 C   0  0  0  0  0  0  0  0  0  0  0  0
    3.1466    1.1600   -2.2613 N   0  0  0  0  0  0  0  0  0  0  0  0
    3.5929    0.7551   -3.4986 N   0  0  0  0  0  0  0  0  0  0  0  0
    3.5919   -0.5589   -3.5094 C   0  0  0  0  0  0  0  0  0  0  0  0
    3.9385   -1.5040   -4.4951 C   0  0  0  0  0  0  0  0  0  0  0  0
    3.8351   -2.8090   -4.2138 C   0  0  0  0  0  0  0  0  0  0  0  0
    3.3728   -3.1946   -2.8412 C   0  0  0  0  0  0  0  0  0  0  0  0
    3.3224   -4.6555   -2.5291 C   0  0  0  0  0  0  0  0  0  0  0  0
    4.2233   -5.5660   -3.0975 C   0  0  0  0  0  0  0  0  0  0  0  0
    4.1751   -6.9166   -2.7430 C   0  0  0  0  0  0  0  0  0  0  0  0
    3.2370   -7.3637   -1.8142 C   0  0  0  0  0  0  0  0  0  0  0  0
    2.3430   -6.4632   -1.2379 C   0  0  0  0  0  0  0  0  0  0  0  0
    2.3861   -5.1125   -1.5915 C   0  0  0  0  0  0  0  0  0  0  0  0
    3.0154   -2.3424   -1.9221 N   0  0  0  0  0  0  0  0  0  0  0  0
    3.1446   -1.0369   -2.2958 N   0  0  0  0  0  0  0  0  0  0  0  0
    4.2683   -1.1517   -5.4659 H   0  0  0  0  0  0  0  0  0  0  0  0
    4.0563   -3.5627   -4.9580 H   0  0  0  0  0  0  0  0  0  0  0  0
    4.9947   -5.2464   -3.7916 H   0  0  0  0  0  0  0  0  0  0  0  0
    4.8817   -7.6188   -3.1794 H   0  0  0  0  0  0  0  0  0  0  0  0
    3.2109   -8.4128   -1.5294 H   0  0  0  0  0  0  0  0  0  0  0  0
    1.6185   -6.8096   -0.5047 H   0  0  0  0  0  0  0  0  0  0  0  0
    1.6878   -4.4207   -1.1245 H   0  0  0  0  0  0  0  0  0  0  0  0
  1  2  1  0  0  0  0
  2  3  1  0  0  0  0
  2  4  1  0  0  0  0
  2  5  1  0  0  0  0
  5  6  2  0  0  0  0
  5 19  1  0  0  0  0
  6  7  1  0  0  0  0
  7  8  2  0  0  0  0
  8  9  1  0  0  0  0
  8 19  1  0  0  0  0
  9 10  2  0  0  0  0
  9 20  1  0  0  0  0
 10 11  1  0  0  0  0
 10 21  1  0  0  0  0
 11 12  1  0  0  0  0
 11 18  2  0  0  0  0
 12 13  1  0  0  0  0
 12 17  2  0  0  0  0
 13 14  2  0  0  0  0
 13 22  1  0  0  0  0
 14 15  1  0  0  0  0
 14 23  1  0  0  0  0
 15 16  2  0  0  0  0
 15 24  1  0  0  0  0
 16 17  1  0  0  0  0
 16 25  1  0  0  0  0
 17 26  1  0  0  0  0
 18 19  1  0  0  0  0
M  END
>  <Energy>
59.2486

$$$$

 OpenBabel04232616053D

 34 36  0  0  0  0  0  0  0  0999 V2000
    4.1223    0.2806   -2.5788 C   0  0  0  0  0  0  0  0  0  0  0  0
    4.0068    0.3459   -1.0699 C   0  0  0  0  0  0  0  0  0  0  0  0
    3.2909    1.2168   -0.4142 N   0  0  0  0  0  0  0  0  0  0  0  0
    2.6495    2.1728   -1.1927 N   0  0  0  0  0  0  0  0  0  0  0  0
    1.6522    2.7817   -0.6155 C   0  0  0  0  0  0  0  0  0  0  0  0
    1.0437    2.4004    1.0271 S   0  0  0  0  0  0  0  0  0  0  0  0
   -0.3109    3.5307    0.8076 C   0  0  0  0  0  0  0  0  0  0  0  0
   -1.3545    3.7518    1.6955 C   0  0  0  0  0  0  0  0  0  0  0  0
   -2.3472    4.6595    1.3346 C   0  0  0  0  0  0  0  0  0  0  0  0
   -2.2727    5.3319    0.1091 C   0  0  0  0  0  0  0  0  0  0  0  0
   -1.2084    5.1002   -0.7739 C   0  0  0  0  0  0  0  0  0  0  0  0
   -0.2178    4.1854   -0.4348 C   0  0  0  0  0  0  0  0  0  0  0  0
    0.8921    3.7963   -1.1892 N   0  0  0  0  0  0  0  0  0  0  0  0
    1.1887    4.3053   -2.5099 C   0  0  0  0  0  0  0  0  0  0  0  0
    4.7792   -0.6751   -0.2939 C   0  0  0  0  0  0  0  0  0  0  0  0
    4.7176   -0.6935    1.0959 C   0  0  0  0  0  0  0  0  0  0  0  0
    5.4835   -1.6304    1.7833 C   0  0  0  0  0  0  0  0  0  0  0  0
    6.2808   -2.5148    1.0665 C   0  0  0  0  0  0  0  0  0  0  0  0
    6.2761   -2.4303   -0.3164 C   0  0  0  0  0  0  0  0  0  0  0  0
    5.5459   -1.5342   -1.0147 N   0  0  0  0  0  0  0  0  0  0  0  0
    3.5803    1.0830   -3.0823 H   0  0  0  0  0  0  0  0  0  0  0  0
    3.7147   -0.6730   -2.9309 H   0  0  0  0  0  0  0  0  0  0  0  0
    5.1739    0.3514   -2.8723 H   0  0  0  0  0  0  0  0  0  0  0  0
   -1.4029    3.2235    2.6419 H   0  0  0  0  0  0  0  0  0  0  0  0
   -3.1849    4.8425    2.0033 H   0  0  0  0  0  0  0  0  0  0  0  0
   -3.0541    6.0379   -0.1641 H   0  0  0  0  0  0  0  0  0  0  0  0
   -1.1930    5.6392   -1.7143 H   0  0  0  0  0  0  0  0  0  0  0  0
    0.5727    5.1585   -2.8045 H   0  0  0  0  0  0  0  0  0  0  0  0
    1.0502    3.5190   -3.2594 H   0  0  0  0  0  0  0  0  0  0  0  0
    2.2309    4.6416   -2.5568 H   0  0  0  0  0  0  0  0  0  0  0  0
    4.0942    0.0108    1.6377 H   0  0  0  0  0  0  0  0  0  0  0  0
    5.4609   -1.6627    2.8689 H   0  0  0  0  0  0  0  0  0  0  0  0
    6.8937   -3.2515    1.5741 H   0  0  0  0  0  0  0  0  0  0  0  0
    6.8844   -3.1007   -0.9179 H   0  0  0  0  0  0  0  0  0  0  0  0
  1  2  1  0  0  0  0
  1 21  1  0  0  0  0
  1 22  1  0  0  0  0
  1 23  1  0  0  0  0
  2  3  2  0  0  0  0
  2 15  1  0  0  0  0
  3  4  1  0  0  0  0
  4  5  2  0  0  0  0
  5  6  1  0  0  0  0
  5 13  1  0  0  0  0
  6  7  1  0  0  0  0
  7  8  1  0  0  0  0
  7 12  2  0  0  0  0
  8  9  2  0  0  0  0
  8 24  1  0  0  0  0
  9 10  1  0  0  0  0
  9 25  1  0  0  0  0
 10 11  2  0  0  0  0
 10 26  1  0  0  0  0
 11 12  1  0  0  0  0
 11 27  1  0  0  0  0
 12 13  1  0  0  0  0
 13 14  1  0  0  0  0
 14 28  1  0  0  0  0
 14 29  1  0  0  0  0
 14 30  1  0  0  0  0
 15 16  1  0  0  0  0
 15 20  2  0  0  0  0
 16 17  2  0  0  0  0
 16 31  1  0  0  0  0
 17 18  1  0  0  0  0
 17 32  1  0  0  0  0
 18 19  2  0  0  0  0
 18 33  1  0  0  0  0
 19 20  1  0  0  0  0
 19 34  1  0  0  0  0
M  END
>  <Energy>
78.6916

$$$$

 OpenBabel04232616053D

 36 38  0  0  0  0  0  0  0  0999 V2000
   -2.4710    1.0305   -0.3225 C   0  0  0  0  0  0  0  0  0  0  0  0
   -1.1749    0.3588    0.0143 C   0  0  0  0  0  0  0  0  0  0  0  0
   -0.0951    1.0765    0.4856 C   0  0  0  0  0  0  0  0  0  0  0  0
    1.0374    0.3551    0.8114 C   0  0  0  0  0  0  0  0  0  0  0  0
    2.2947    1.0435    1.2472 C   0  0  0  0  0  0  0  0  0  0  0  0
    1.0930   -0.9871    0.7044 N   0  0  0  0  0  0  0  0  0  0  0  0
    0.0099   -1.6121    0.1920 C   0  0  0  0  0  0  0  0  0  0  0  0
    0.0834   -3.0353   -0.0186 N   0  0  0  0  0  0  0  0  0  0  0  0
    0.8576   -3.8173    0.7990 N   0  0  0  0  0  0  0  0  0  0  0  0
    0.4746   -5.0672    0.5366 C   0  0  0  0  0  0  0  0  0  0  0  0
    0.9874   -6.2017    1.3409 C   0  0  0  0  0  0  0  0  0  0  0  0
   -0.3992   -5.1211   -0.5662 C   0  0  0  0  0  0  0  0  0  0  0  0
   -0.5957   -3.8081   -0.9699 C   0  0  0  0  0  0  0  0  0  0  0  0
   -1.3030   -3.3163   -2.1639 C   0  0  0  0  0  0  0  0  0  0  0  0
   -2.4269   -4.0011   -2.6502 C   0  0  0  0  0  0  0  0  0  0  0  0
   -3.0975   -3.5627   -3.7972 C   0  0  0  0  0  0  0  0  0  0  0  0
   -2.6595   -2.4266   -4.4729 C   0  0  0  0  0  0  0  0  0  0  0  0
   -1.5343   -1.7466   -4.0191 C   0  0  0  0  0  0  0  0  0  0  0  0
   -0.8485   -2.2032   -2.8901 C   0  0  0  0  0  0  0  0  0  0  0  0
   -1.1285   -0.9744   -0.1610 N   0  0  0  0  0  0  0  0  0  0  0  0
   -2.3999    2.1188   -0.2338 H   0  0  0  0  0  0  0  0  0  0  0  0
   -3.2543    0.6815    0.3576 H   0  0  0  0  0  0  0  0  0  0  0  0
   -2.7609    0.7893   -1.3498 H   0  0  0  0  0  0  0  0  0  0  0  0
   -0.1310    2.1539    0.5894 H   0  0  0  0  0  0  0  0  0  0  0  0
    2.1456    2.1205    1.3692 H   0  0  0  0  0  0  0  0  0  0  0  0
    3.0755    0.8913    0.4963 H   0  0  0  0  0  0  0  0  0  0  0  0
    2.6361    0.6344    2.2029 H   0  0  0  0  0  0  0  0  0  0  0  0
    1.5064   -5.8557    2.2410 H   0  0  0  0  0  0  0  0  0  0  0  0
    1.6854   -6.8048    0.7522 H   0  0  0  0  0  0  0  0  0  0  0  0
    0.1611   -6.8448    1.6599 H   0  0  0  0  0  0  0  0  0  0  0  0
   -0.7982   -6.0066   -1.0361 H   0  0  0  0  0  0  0  0  0  0  0  0
   -2.7964   -4.8868   -2.1400 H   0  0  0  0  0  0  0  0  0  0  0  0
   -3.9641   -4.1091   -4.1596 H   0  0  0  0  0  0  0  0  0  0  0  0
   -3.1895   -2.0763   -5.3544 H   0  0  0  0  0  0  0  0  0  0  0  0
   -1.1833   -0.8609   -4.5424 H   0  0  0  0  0  0  0  0  0  0  0  0
    0.0429   -1.6618   -2.5839 H   0  0  0  0  0  0  0  0  0  0  0  0
  1  2  1  0  0  0  0
  1 21  1  0  0  0  0
  1 22  1  0  0  0  0
  1 23  1  0  0  0  0
  2  3  1  0  0  0  0
  2 20  2  0  0  0  0
  3  4  2  0  0  0  0
  3 24  1  0  0  0  0
  4  5  1  0  0  0  0
  4  6  1  0  0  0  0
  5 25  1  0  0  0  0
  5 26  1  0  0  0  0
  5 27  1  0  0  0  0
  6  7  2  0  0  0  0
  7  8  1  0  0  0  0
  7 20  1  0  0  0  0
  8  9  1  0  0  0  0
  8 13  1  0  0  0  0
  9 10  2  0  0  0  0
 10 11  1  0  0  0  0
 10 12  1  0  0  0  0
 11 28  1  0  0  0  0
 11 29  1  0  0  0  0
 11 30  1  0  0  0  0
 12 13  2  0  0  0  0
 12 31  1  0  0  0  0
 13 14  1  0  0  0  0
 14 15  1  0  0  0  0
 14 19  2  0  0  0  0
 15 16  2  0  0  0  0
 15 32  1  0  0  0  0
 16 17  1  0  0  0  0
 16 33  1  0  0  0  0
 17 18  2  0  0  0  0
 17 34  1  0  0  0  0
 18 19  1  0  0  0  0
 18 35  1  0  0  0  0
 19 36  1  0  0  0  0
M  END
>  <Energy>
105.358

$$$$

 OpenBabel04232616053D

 34 37  0  0  0  0  0  0  0  0999 V2000
    0.9863    0.0201   -0.0850 C   0  0  0  0  0  0  0  0  0  0  0  0
    2.4822   -0.0321   -0.0796 C   0  0  0  0  0  0  0  0  0  0  0  0
    3.2394    1.2165    0.0157 C   0  0  0  0  0  0  0  0  0  0  0  0
    4.5866    1.2271    0.0813 C   0  0  0  0  0  0  0  0  0  0  0  0
    5.3049    0.0011    0.0461 C   0  0  0  0  0  0  0  0  0  0  0  0
    6.5935   -0.2616    0.1372 N   0  0  0  0  0  0  0  0  0  0  0  0
    6.6881   -1.6249   -0.0064 C   0  0  0  0  0  0  0  0  0  0  0  0
    7.9624   -2.3729    0.0363 C   0  0  0  0  0  0  0  0  0  0  0  0
    9.2003   -1.8423    0.2969 C   0  0  0  0  0  0  0  0  0  0  0  0
   10.0854   -2.9513    0.2996 C   0  0  0  0  0  0  0  0  0  0  0  0
   11.5117   -2.9576    0.6163 C   0  0  0  0  0  0  0  0  0  0  0  0
   12.1093   -4.1035    1.1612 C   0  0  0  0  0  0  0  0  0  0  0  0
   13.4531   -4.0943    1.5395 C   0  0  0  0  0  0  0  0  0  0  0  0
   14.2167   -2.9416    1.3679 C   0  0  0  0  0  0  0  0  0  0  0  0
   13.6424   -1.8034    0.8063 C   0  0  0  0  0  0  0  0  0  0  0  0
   12.2960   -1.8095    0.4314 C   0  0  0  0  0  0  0  0  0  0  0  0
    9.4156   -4.0799    0.0100 N   0  0  0  0  0  0  0  0  0  0  0  0
    8.0935   -3.7144   -0.1496 O   0  0  0  0  0  0  0  0  0  0  0  0
    5.4506   -2.2001   -0.1774 C   0  0  0  0  0  0  0  0  0  0  0  0
    4.5592   -1.1634   -0.1070 N   0  0  0  0  0  0  0  0  0  0  0  0
    3.1683   -1.1873   -0.1593 C   0  0  0  0  0  0  0  0  0  0  0  0
    0.6094    1.0473   -0.1165 H   0  0  0  0  0  0  0  0  0  0  0  0
    0.5882   -0.4507    0.8211 H   0  0  0  0  0  0  0  0  0  0  0  0
    0.5844   -0.5064   -0.9571 H   0  0  0  0  0  0  0  0  0  0  0  0
    2.6925    2.1549    0.0210 H   0  0  0  0  0  0  0  0  0  0  0  0
    5.1449    2.1530    0.1463 H   0  0  0  0  0  0  0  0  0  0  0  0
    9.4165   -0.8067    0.5125 H   0  0  0  0  0  0  0  0  0  0  0  0
   11.5245   -5.0088    1.3137 H   0  0  0  0  0  0  0  0  0  0  0  0
   13.8979   -4.9844    1.9765 H   0  0  0  0  0  0  0  0  0  0  0  0
   15.2606   -2.9317    1.6716 H   0  0  0  0  0  0  0  0  0  0  0  0
   14.2407   -0.9058    0.6653 H   0  0  0  0  0  0  0  0  0  0  0  0
   11.8732   -0.9087   -0.0065 H   0  0  0  0  0  0  0  0  0  0  0  0
    5.1380   -3.2252   -0.3190 H   0  0  0  0  0  0  0  0  0  0  0  0
    2.6952   -2.1585   -0.2425 H   0  0  0  0  0  0  0  0  0  0  0  0
  1  2  1  0  0  0  0
  1 22  1  0  0  0  0
  1 23  1  0  0  0  0
  1 24  1  0  0  0  0
  2  3  1  0  0  0  0
  2 21  2  0  0  0  0
  3  4  2  0  0  0  0
  3 25  1  0  0  0  0
  4  5  1  0  0  0  0
  4 26  1  0  0  0  0
  5  6  2  0  0  0  0
  5 20  1  0  0  0  0
  6  7  1  0  0  0  0
  7  8  1  0  0  0  0
  7 19  2  0  0  0  0
  8  9  2  0  0  0  0
  8 18  1  0  0  0  0
  9 10  1  0  0  0  0
  9 27  1  0  0  0  0
 10 11  1  0  0  0  0
 10 17  2  0  0  0  0
 11 12  1  0  0  0  0
 11 16  2  0  0  0  0
 12 13  2  0  0  0  0
 12 28  1  0  0  0  0
 13 14  1  0  0  0  0
 13 29  1  0  0  0  0
 14 15  2  0  0  0  0
 14 30  1  0  0  0  0
 15 16  1  0  0  0  0
 15 31  1  0  0  0  0
 16 32  1  0  0  0  0
 17 18  1  0  0  0  0
 19 20  1  0  0  0  0
 19 33  1  0  0  0  0
 20 21  1  0  0  0  0
 21 34  1  0  0  0  0
M  END
>  <Energy>
49.0386

$$$$

 OpenBabel04232616053D

 27 30  0  0  0  0  0  0  0  0999 V2000
    2.2105    1.5266   -0.8318 C   0  0  0  0  0  0  0  0  0  0  0  0
    2.8368    0.0871    0.0623 S   0  0  0  0  0  0  0  0  0  0  0  0
    3.2748    0.8174    1.6052 C   0  0  0  0  0  0  0  0  0  0  0  0
    3.0674    2.0968    1.7914 N   0  0  0  0  0  0  0  0  0  0  0  0
    3.4300    2.6087    3.0102 C   0  0  0  0  0  0  0  0  0  0  0  0
    3.2355    4.2797    3.4066 S   0  0  0  0  0  0  0  0  0  0  0  0
    3.8931    4.0219    4.9290 C   0  0  0  0  0  0  0  0  0  0  0  0
    4.2543    2.7259    5.1809 C   0  0  0  0  0  0  0  0  0  0  0  0
    3.9918    1.9190    4.0774 C   0  0  0  0  0  0  0  0  0  0  0  0
    4.2024    0.4934    3.8269 C   0  0  0  0  0  0  0  0  0  0  0  0
    4.7022   -0.4538    4.5800 N   0  0  0  0  0  0  0  0  0  0  0  0
    4.6709   -1.6149    3.8303 N   0  0  0  0  0  0  0  0  0  0  0  0
    4.1542   -1.3253    2.6531 C   0  0  0  0  0  0  0  0  0  0  0  0
    3.8384    0.0013    2.6020 N   0  0  0  0  0  0  0  0  0  0  0  0
    4.8249    2.5712    6.5375 C   0  0  0  0  0  0  0  0  0  0  0  0
    5.0945    4.0547    6.9440 C   0  0  0  0  0  0  0  0  0  0  0  0
    4.1644    4.9440    6.0573 C   0  0  0  0  0  0  0  0  0  0  0  0
    1.8822    1.2133   -1.8265 H   0  0  0  0  0  0  0  0  0  0  0  0
    2.9948    2.2792   -0.9508 H   0  0  0  0  0  0  0  0  0  0  0  0
    1.3545    1.9646   -0.3113 H   0  0  0  0  0  0  0  0  0  0  0  0
    3.9991   -2.0217    1.8410 H   0  0  0  0  0  0  0  0  0  0  0  0
    5.7460    1.9822    6.5478 H   0  0  0  0  0  0  0  0  0  0  0  0
    4.0924    2.1156    7.2119 H   0  0  0  0  0  0  0  0  0  0  0  0
    6.1409    4.2986    6.7164 H   0  0  0  0  0  0  0  0  0  0  0  0
    4.9417    4.2273    8.0136 H   0  0  0  0  0  0  0  0  0  0  0  0
    4.6697    5.8649    5.7543 H   0  0  0  0  0  0  0  0  0  0  0  0
    3.2415    5.1867    6.5934 H   0  0  0  0  0  0  0  0  0  0  0  0
  1  2  1  0  0  0  0
  1 18  1  0  0  0  0
  1 19  1  0  0  0  0
  1 20  1  0  0  0  0
  2  3  1  0  0  0  0
  3  4  2  0  0  0  0
  3 14  1  0  0  0  0
  4  5  1  0  0  0  0
  5  6  1  0  0  0  0
  5  9  2  0  0  0  0
  6  7  1  0  0  0  0
  7  8  2  0  0  0  0
  7 17  1  0  0  0  0
  8  9  1  0  0  0  0
  8 15  1  0  0  0  0
  9 10  1  0  0  0  0
 10 11  2  0  0  0  0
 10 14  1  0  0  0  0
 11 12  1  0  0  0  0
 12 13  2  0  0  0  0
 13 14  1  0  0  0  0
 13 21  1  0  0  0  0
 15 16  1  0  0  0  0
 15 22  1  0  0  0  0
 15 23  1  0  0  0  0
 16 17  1  0  0  0  0
 16 24  1  0  0  0  0
 16 25  1  0  0  0  0
 17 26  1  0  0  0  0
 17 27  1  0  0  0  0
M  END
>  <Energy>
29.4318

$$$$

 OpenBabel04232616053D

 33 36  0  0  0  0  0  0  0  0999 V2000
    1.4538    0.2558    0.0432 C   0  0  0  0  0  0  0  0  0  0  0  0
    2.8894    0.2162    0.0796 N   0  0  0  0  0  0  0  0  0  0  0  0
    3.6869   -0.9326    0.0498 C   0  0  0  0  0  0  0  0  0  0  0  0
    3.3879   -2.2753    0.0332 C   0  0  0  0  0  0  0  0  0  0  0  0
    4.4581   -3.1891    0.0185 C   0  0  0  0  0  0  0  0  0  0  0  0
    5.8050   -2.7583    0.0150 C   0  0  0  0  0  0  0  0  0  0  0  0
    6.1217   -1.4028    0.0232 C   0  0  0  0  0  0  0  0  0  0  0  0
    5.0470   -0.5474    0.0423 C   0  0  0  0  0  0  0  0  0  0  0  0
    5.0111    0.8334    0.0540 N   0  0  0  0  0  0  0  0  0  0  0  0
    5.8803    1.8623    0.0323 C   0  0  0  0  0  0  0  0  0  0  0  0
    5.0535    2.9789    0.0305 C   0  0  0  0  0  0  0  0  0  0  0  0
    5.5525    4.3502   -0.0279 C   0  0  0  0  0  0  0  0  0  0  0  0
    6.7714    4.6467   -0.6656 C   0  0  0  0  0  0  0  0  0  0  0  0
    7.2686    5.9562   -0.7093 C   0  0  0  0  0  0  0  0  0  0  0  0
    6.5542    6.9957   -0.1092 C   0  0  0  0  0  0  0  0  0  0  0  0
    7.0731    8.3372   -0.1303 C   0  0  0  0  0  0  0  0  0  0  0  0
    7.4983    9.4134   -0.1418 N   0  0  0  0  0  0  0  0  0  0  0  0
    5.3351    6.7145    0.5173 C   0  0  0  0  0  0  0  0  0  0  0  0
    4.8371    5.4011    0.5560 C   0  0  0  0  0  0  0  0  0  0  0  0
    3.6984    2.6120    0.0864 N   0  0  0  0  0  0  0  0  0  0  0  0
    3.7214    1.2988    0.0779 C   0  0  0  0  0  0  0  0  0  0  0  0
    1.0145   -0.7488    0.0398 H   0  0  0  0  0  0  0  0  0  0  0  0
    1.0952    0.7642   -0.8579 H   0  0  0  0  0  0  0  0  0  0  0  0
    1.0550    0.7747    0.9209 H   0  0  0  0  0  0  0  0  0  0  0  0
    2.3672   -2.6390    0.0363 H   0  0  0  0  0  0  0  0  0  0  0  0
    4.2481   -4.2574    0.0121 H   0  0  0  0  0  0  0  0  0  0  0  0
    6.6039   -3.4969    0.0076 H   0  0  0  0  0  0  0  0  0  0  0  0
    7.1457   -1.0527    0.0202 H   0  0  0  0  0  0  0  0  0  0  0  0
    6.9507    1.7318    0.0109 H   0  0  0  0  0  0  0  0  0  0  0  0
    7.3486    3.8617   -1.1494 H   0  0  0  0  0  0  0  0  0  0  0  0
    8.2127    6.1516   -1.2156 H   0  0  0  0  0  0  0  0  0  0  0  0
    4.7622    7.5147    0.9826 H   0  0  0  0  0  0  0  0  0  0  0  0
    3.8912    5.2030    1.0571 H   0  0  0  0  0  0  0  0  0  0  0  0
  1  2  1  0  0  0  0
  1 22  1  0  0  0  0
  1 23  1  0  0  0  0
  1 24  1  0  0  0  0
  2  3  1  0  0  0  0
  2 21  1  0  0  0  0
  3  4  1  0  0  0  0
  3  8  2  0  0  0  0
  4  5  2  0  0  0  0
  4 25  1  0  0  0  0
  5  6  1  0  0  0  0
  5 26  1  0  0  0  0
  6  7  2  0  0  0  0
  6 27  1  0  0  0  0
  7  8  1  0  0  0  0
  7 28  1  0  0  0  0
  8  9  1  0  0  0  0
  9 10  1  0  0  0  0
  9 21  1  0  0  0  0
 10 11  2  0  0  0  0
 10 29  1  0  0  0  0
 11 12  1  0  0  0  0
 11 20  1  0  0  0  0
 12 13  1  0  0  0  0
 12 19  2  0  0  0  0
 13 14  2  0  0  0  0
 13 30  1  0  0  0  0
 14 15  1  0  0  0  0
 14 31  1  0  0  0  0
 15 16  1  0  0  0  0
 15 18  2  0  0  0  0
 16 17  3  0  0  0  0
 18 19  1  0  0  0  0
 18 32  1  0  0  0  0
 19 33  1  0  0  0  0
 20 21  2  0  0  0  0
M  END
>  <Energy>
84.9286

$$$$

 OpenBabel04232616053D

 28 30  0  0  0  0  0  0  0  0999 V2000
    1.1890   -0.3039   -0.1420 C   0  0  0  0  0  0  0  0  0  0  0  0
    2.6712   -0.1576   -0.1712 C   0  0  0  0  0  0  0  0  0  0  0  0
    3.3642    1.0048   -0.1057 C   0  0  0  0  0  0  0  0  0  0  0  0
    4.7276    0.6607   -0.0656 C   0  0  0  0  0  0  0  0  0  0  0  0
    5.9229    1.1642    0.0575 N   0  0  0  0  0  0  0  0  0  0  0  0
    6.7948    0.0761    0.0621 N   0  0  0  0  0  0  0  0  0  0  0  0
    6.1023   -1.0588   -0.0596 C   0  0  0  0  0  0  0  0  0  0  0  0
    6.6771   -2.4060   -0.0807 C   0  0  0  0  0  0  0  0  0  0  0  0
    8.0475   -2.5513    0.1995 C   0  0  0  0  0  0  0  0  0  0  0  0
    8.6664   -3.8050    0.1862 C   0  0  0  0  0  0  0  0  0  0  0  0
    7.9285   -4.9553   -0.1086 C   0  0  0  0  0  0  0  0  0  0  0  0
    8.5821   -6.3157   -0.1381 C   0  0  0  0  0  0  0  0  0  0  0  0
    9.9180   -6.2872    0.1269 F   0  0  0  0  0  0  0  0  0  0  0  0
    8.0401   -7.1720    0.7721 F   0  0  0  0  0  0  0  0  0  0  0  0
    8.4553   -6.9282   -1.3478 F   0  0  0  0  0  0  0  0  0  0  0  0
    6.5597   -4.8195   -0.3877 C   0  0  0  0  0  0  0  0  0  0  0  0
    5.9427   -3.5599   -0.3780 C   0  0  0  0  0  0  0  0  0  0  0  0
    4.7843   -0.6977   -0.1337 N   0  0  0  0  0  0  0  0  0  0  0  0
    3.5256   -1.2888   -0.2284 N   0  0  0  0  0  0  0  0  0  0  0  0
    0.6919    0.6706   -0.0971 H   0  0  0  0  0  0  0  0  0  0  0  0
    0.8800   -0.8801    0.7353 H   0  0  0  0  0  0  0  0  0  0  0  0
    0.8372   -0.8201   -1.0400 H   0  0  0  0  0  0  0  0  0  0  0  0
    2.9758    2.0085   -0.0360 H   0  0  0  0  0  0  0  0  0  0  0  0
    8.6522   -1.6731    0.4274 H   0  0  0  0  0  0  0  0  0  0  0  0
    9.7320   -3.8702    0.4039 H   0  0  0  0  0  0  0  0  0  0  0  0
    5.9653   -5.7023   -0.6261 H   0  0  0  0  0  0  0  0  0  0  0  0
    4.8868   -3.5087   -0.6281 H   0  0  0  0  0  0  0  0  0  0  0  0
    3.3382   -1.9193    0.5477 H   0  0  0  0  0  0  0  0  0  0  0  0
  1  2  1  0  0  0  0
  1 20  1  0  0  0  0
  1 21  1  0  0  0  0
  1 22  1  0  0  0  0
  2  3  2  0  0  0  0
  2 19  1  0  0  0  0
  3  4  1  0  0  0  0
  3 23  1  0  0  0  0
  4  5  2  0  0  0  0
  4 18  1  0  0  0  0
  5  6  1  0  0  0  0
  6  7  2  0  0  0  0
  7  8  1  0  0  0  0
  7 18  1  0  0  0  0
  8  9  1  0  0  0  0
  8 17  2  0  0  0  0
  9 10  2  0  0  0  0
  9 24  1  0  0  0  0
 10 11  1  0  0  0  0
 10 25  1  0  0  0  0
 11 12  1  0  0  0  0
 11 16  2  0  0  0  0
 12 13  1  0  0  0  0
 12 14  1  0  0  0  0
 12 15  1  0  0  0  0
 16 17  1  0  0  0  0
 16 26  1  0  0  0  0
 17 27  1  0  0  0  0
 18 19  1  0  0  0  0
 19 28  1  0  0  0  0
M  END
>  <Energy>
105.931

$$$$

 OpenBabel04232616053D

 32 34  0  0  0  0  0  0  0  0999 V2000
    2.1425   -0.9391   -1.2504 C   0  0  0  0  0  0  0  0  0  0  0  0
    3.0169    0.0050    0.0204 S   0  0  0  0  0  0  0  0  0  0  0  0
    3.3850   -1.2630    1.1787 C   0  0  0  0  0  0  0  0  0  0  0  0
    3.0258   -2.4799    0.8986 N   0  0  0  0  0  0  0  0  0  0  0  0
    3.3203   -3.4317    1.8285 C   0  0  0  0  0  0  0  0  0  0  0  0
    3.0938   -4.7868    1.8332 C   0  0  0  0  0  0  0  0  0  0  0  0
    3.6124   -5.2471    3.0563 C   0  0  0  0  0  0  0  0  0  0  0  0
    3.6345   -6.6397    3.5644 C   0  0  0  0  0  0  0  0  0  0  0  0
    4.1278   -4.2532    3.7862 N   0  0  0  0  0  0  0  0  0  0  0  0
    3.9608   -3.1317    3.0355 N   0  0  0  0  0  0  0  0  0  0  0  0
    4.3427   -1.8124    3.3310 C   0  0  0  0  0  0  0  0  0  0  0  0
    5.0041   -1.4939    4.6125 C   0  0  0  0  0  0  0  0  0  0  0  0
    4.2429   -1.1189    5.7285 C   0  0  0  0  0  0  0  0  0  0  0  0
    4.8732   -0.7387    6.9159 C   0  0  0  0  0  0  0  0  0  0  0  0
    6.2648   -0.7344    6.9971 C   0  0  0  0  0  0  0  0  0  0  0  0
    7.0285   -1.1179    5.8953 C   0  0  0  0  0  0  0  0  0  0  0  0
    6.4017   -1.4964    4.7065 C   0  0  0  0  0  0  0  0  0  0  0  0
    4.0922   -0.8349    2.4282 C   0  0  0  0  0  0  0  0  0  0  0  0
    4.4711    0.6118    2.6999 C   0  0  0  0  0  0  0  0  0  0  0  0
    4.7854    1.8120    2.9254 N   0  0  0  0  0  0  0  0  0  0  0  0
    1.8444   -0.2653   -2.0586 H   0  0  0  0  0  0  0  0  0  0  0  0
    1.2403   -1.4002   -0.8392 H   0  0  0  0  0  0  0  0  0  0  0  0
    2.7908   -1.7126   -1.6716 H   0  0  0  0  0  0  0  0  0  0  0  0
    2.6177   -5.3578    1.0496 H   0  0  0  0  0  0  0  0  0  0  0  0
    3.1896   -7.3308    2.8409 H   0  0  0  0  0  0  0  0  0  0  0  0
    3.0682   -6.7175    4.4982 H   0  0  0  0  0  0  0  0  0  0  0  0
    4.6629   -6.9636    3.7527 H   0  0  0  0  0  0  0  0  0  0  0  0
    3.1561   -1.1109    5.6848 H   0  0  0  0  0  0  0  0  0  0  0  0
    4.2796   -0.4415    7.7764 H   0  0  0  0  0  0  0  0  0  0  0  0
    6.7550   -0.4313    7.9190 H   0  0  0  0  0  0  0  0  0  0  0  0
    8.1135   -1.1133    5.9602 H   0  0  0  0  0  0  0  0  0  0  0  0
    7.0162   -1.7865    3.8570 H   0  0  0  0  0  0  0  0  0  0  0  0
  1  2  1  0  0  0  0
  1 21  1  0  0  0  0
  1 22  1  0  0  0  0
  1 23  1  0  0  0  0
  2  3  1  0  0  0  0
  3  4  2  0  0  0  0
  3 18  1  0  0  0  0
  4  5  1  0  0  0  0
  5  6  2  0  0  0  0
  5 10  1  0  0  0  0
  6  7  1  0  0  0  0
  6 24  1  0  0  0  0
  7  8  1  0  0  0  0
  7  9  2  0  0  0  0
  8 25  1  0  0  0  0
  8 26  1  0  0  0  0
  8 27  1  0  0  0  0
  9 10  1  0  0  0  0
 10 11  1  0  0  0  0
 11 12  1  0  0  0  0
 11 18  2  0  0  0  0
 12 13  1  0  0  0  0
 12 17  2  0  0  0  0
 13 14  2  0  0  0  0
 13 28  1  0  0  0  0
 14 15  1  0  0  0  0
 14 29  1  0  0  0  0
 15 16  2  0  0  0  0
 15 30  1  0  0  0  0
 16 17  1  0  0  0  0
 16 31  1  0  0  0  0
 17 32  1  0  0  0  0
 18 19  1  0  0  0  0
 19 20  3  0  0  0  0
M  END
>  <Energy>
200.386

$$$$

 OpenBabel04232616053D

 25 27  0  0  0  0  0  0  0  0999 V2000
    1.0897   -0.0188    0.0010 O   0  0  0  0  0  0  0  0  0  0  0  0
    2.3134   -0.0447    0.0034 C   0  0  0  0  0  0  0  0  0  0  0  0
    3.0650    1.1218    0.0056 O   0  0  0  0  0  0  0  0  0  0  0  0
    4.4750    1.1369    0.0077 C   0  0  0  0  0  0  0  0  0  0  0  0
    5.0893    2.3898    0.0094 C   0  0  0  0  0  0  0  0  0  0  0  0
    4.3507    3.5085    0.0084 F   0  0  0  0  0  0  0  0  0  0  0  0
    6.4716    2.4729    0.0108 C   0  0  0  0  0  0  0  0  0  0  0  0
    7.0813    3.6654    0.0115 F   0  0  0  0  0  0  0  0  0  0  0  0
    7.2393    1.3162    0.0111 C   0  0  0  0  0  0  0  0  0  0  0  0
    6.6119    0.0633    0.0098 C   0  0  0  0  0  0  0  0  0  0  0  0
    5.2083   -0.0545    0.0082 C   0  0  0  0  0  0  0  0  0  0  0  0
    4.4812   -1.3322    0.0070 C   0  0  0  0  0  0  0  0  0  0  0  0
    5.1286   -2.5860    0.0088 C   0  0  0  0  0  0  0  0  0  0  0  0
    4.3894   -3.7661    0.0076 C   0  0  0  0  0  0  0  0  0  0  0  0
    4.9893   -4.9946    0.0102 O   0  0  0  0  0  0  0  0  0  0  0  0
    3.0022   -3.7273    0.0039 C   0  0  0  0  0  0  0  0  0  0  0  0
    2.2861   -4.8878    0.0019 O   0  0  0  0  0  0  0  0  0  0  0  0
    2.3328   -2.5168    0.0023 C   0  0  0  0  0  0  0  0  0  0  0  0
    3.0709   -1.3212    0.0042 C   0  0  0  0  0  0  0  0  0  0  0  0
    8.3231    1.3924    0.0121 H   0  0  0  0  0  0  0  0  0  0  0  0
    7.2569   -0.8109    0.0100 H   0  0  0  0  0  0  0  0  0  0  0  0
    6.2106   -2.6545    0.0109 H   0  0  0  0  0  0  0  0  0  0  0  0
    5.9547   -4.8753    0.0183 H   0  0  0  0  0  0  0  0  0  0  0  0
    2.9559   -5.6005    0.0027 H   0  0  0  0  0  0  0  0  0  0  0  0
    1.2450   -2.5043   -0.0002 H   0  0  0  0  0  0  0  0  0  0  0  0
  1  2  2  0  0  0  0
  2  3  1  0  0  0  0
  2 19  1  0  0  0  0
  3  4  1  0  0  0  0
  4  5  1  0  0  0  0
  4 11  2  0  0  0  0
  5  6  1  0  0  0  0
  5  7  2  0  0  0  0
  7  8  1  0  0  0  0
  7  9  1  0  0  0  0
  9 10  2  0  0  0  0
  9 20  1  0  0  0  0
 10 11  1  0  0  0  0
 10 21  1  0  0  0  0
 11 12  1  0  0  0  0
 12 13  1  0  0  0  0
 12 19  2  0  0  0  0
 13 14  2  0  0  0  0
 13 22  1  0  0  0  0
 14 15  1  0  0  0  0
 14 16  1  0  0  0  0
 15 23  1  0  0  0  0
 16 17  1  0  0  0  0
 16 18  2  0  0  0  0
 17 24  1  0  0  0  0
 18 19  1  0  0  0  0
 18 25  1  0  0  0  0
M  END
>  <Energy>
57.1488

$$$$

 OpenBabel04232616053D

 26 28  0  0  0  0  0  0  0  0999 V2000
    1.8710   -0.7304   -1.0736 F   0  0  0  0  0  0  0  0  0  0  0  0
    2.4386    0.0124   -0.0840 C   0  0  0  0  0  0  0  0  0  0  0  0
    3.4977    0.6491   -0.6539 F   0  0  0  0  0  0  0  0  0  0  0  0
    1.5356    0.9841    0.2196 F   0  0  0  0  0  0  0  0  0  0  0  0
    2.8370   -0.7987    1.1285 C   0  0  0  0  0  0  0  0  0  0  0  0
    2.6074   -2.1811    1.1659 C   0  0  0  0  0  0  0  0  0  0  0  0
    2.9632   -2.8626    2.3324 C   0  0  0  0  0  0  0  0  0  0  0  0
    2.8531   -4.1894    2.6582 N   0  0  0  0  0  0  0  0  0  0  0  0
    3.2649   -4.4837    3.8984 N   0  0  0  0  0  0  0  0  0  0  0  0
    3.6559   -3.3031    4.3813 C   0  0  0  0  0  0  0  0  0  0  0  0
    3.5299   -2.2432    3.4451 C   0  0  0  0  0  0  0  0  0  0  0  0
    3.7989   -0.8489    3.4155 C   0  0  0  0  0  0  0  0  0  0  0  0
    4.4052   -0.1602    4.5671 C   0  0  0  0  0  0  0  0  0  0  0  0
    5.3950   -0.7120    5.3714 C   0  0  0  0  0  0  0  0  0  0  0  0
    5.9402   -0.1148    6.4540 N   0  0  0  0  0  0  0  0  0  0  0  0
    5.4879    1.1143    6.7293 C   0  0  0  0  0  0  0  0  0  0  0  0
    4.5678    1.7811    6.0226 N   0  0  0  0  0  0  0  0  0  0  0  0
    4.0508    1.1211    4.9622 C   0  0  0  0  0  0  0  0  0  0  0  0
    3.4331   -0.1590    2.2324 C   0  0  0  0  0  0  0  0  0  0  0  0
    2.1558   -2.7024    0.3252 H   0  0  0  0  0  0  0  0  0  0  0  0
    2.4946   -4.9428    2.0809 H   0  0  0  0  0  0  0  0  0  0  0  0
    4.0200   -3.2668    5.4001 H   0  0  0  0  0  0  0  0  0  0  0  0
    5.8150   -1.6921    5.1636 H   0  0  0  0  0  0  0  0  0  0  0  0
    5.9027    1.6115    7.5989 H   0  0  0  0  0  0  0  0  0  0  0  0
    3.3010    1.6925    4.4198 H   0  0  0  0  0  0  0  0  0  0  0  0
    3.6191    0.9139    2.1575 H   0  0  0  0  0  0  0  0  0  0  0  0
  1  2  1  0  0  0  0
  2  3  1  0  0  0  0
  2  4  1  0  0  0  0
  2  5  1  0  0  0  0
  5  6  1  0  0  0  0
  5 19  2  0  0  0  0
  6  7  2  0  0  0  0
  6 20  1  0  0  0  0
  7  8  1  0  0  0  0
  7 11  1  0  0  0  0
  8  9  1  0  0  0  0
  8 21  1  0  0  0  0
  9 10  2  0  0  0  0
 10 11  1  0  0  0  0
 10 22  1  0  0  0  0
 11 12  2  0  0  0  0
 12 13  1  0  0  0  0
 12 19  1  0  0  0  0
 13 14  1  0  0  0  0
 13 18  2  0  0  0  0
 14 15  2  0  0  0  0
 14 23  1  0  0  0  0
 15 16  1  0  0  0  0
 16 17  2  0  0  0  0
 16 24  1  0  0  0  0
 17 18  1  0  0  0  0
 18 25  1  0  0  0  0
 19 26  1  0  0  0  0
M  END
>  <Energy>
67.3747

$$$$

 OpenBabel04232616053D

 28 29  0  0  0  0  0  0  0  0999 V2000
    0.9142   -0.0573   -0.0344 C   0  0  0  0  0  0  0  0  0  0  0  0
    2.4415   -0.1027   -0.0246 C   0  0  0  0  0  0  0  0  0  0  0  0
    3.0475    0.9356   -0.9519 C   0  0  0  0  0  0  0  0  0  0  0  0
    2.9721    0.5440   -2.4113 C   0  0  0  0  0  0  0  0  0  0  0  0
    2.6203    1.3807   -3.2443 O   0  0  0  0  0  0  0  0  0  0  0  0
    3.3499   -0.7694   -2.6926 N   0  0  0  0  0  0  0  0  0  0  0  0
    3.9856   -1.0717   -3.9573 C   0  0  0  0  0  0  0  0  0  0  0  0
    4.6692   -0.0593   -4.6604 C   0  0  0  0  0  0  0  0  0  0  0  0
    5.4346   -0.3349   -5.8003 C   0  0  0  0  0  0  0  0  0  0  0  0
    5.5289   -1.6377   -6.2676 C   0  0  0  0  0  0  0  0  0  0  0  0
    6.5989   -2.0233   -7.7750 Br  0  0  0  0  0  0  0  0  0  0  0  0
    4.8560   -2.6596   -5.6105 C   0  0  0  0  0  0  0  0  0  0  0  0
    4.1000   -2.3788   -4.4623 C   0  0  0  0  0  0  0  0  0  0  0  0
    2.8419   -1.7727   -1.8718 C   0  0  0  0  0  0  0  0  0  0  0  0
    2.3369   -2.8355   -2.2333 O   0  0  0  0  0  0  0  0  0  0  0  0
    2.9708   -1.4778   -0.3913 C   0  0  0  0  0  0  0  0  0  0  0  0
    0.5578    0.9330    0.2689 H   0  0  0  0  0  0  0  0  0  0  0  0
    0.5053   -0.7863    0.6738 H   0  0  0  0  0  0  0  0  0  0  0  0
    0.5019   -0.2774   -1.0240 H   0  0  0  0  0  0  0  0  0  0  0  0
    2.7619    0.1268    0.9999 H   0  0  0  0  0  0  0  0  0  0  0  0
    4.1102    1.0787   -0.7194 H   0  0  0  0  0  0  0  0  0  0  0  0
    2.5559    1.9062   -0.8183 H   0  0  0  0  0  0  0  0  0  0  0  0
    4.6657    0.9734   -4.3183 H   0  0  0  0  0  0  0  0  0  0  0  0
    5.9643    0.4755   -6.2948 H   0  0  0  0  0  0  0  0  0  0  0  0
    4.9199   -3.6849   -5.9670 H   0  0  0  0  0  0  0  0  0  0  0  0
    3.6153   -3.2276   -3.9898 H   0  0  0  0  0  0  0  0  0  0  0  0
    4.0364   -1.5538   -0.1425 H   0  0  0  0  0  0  0  0  0  0  0  0
    2.4524   -2.2580    0.1778 H   0  0  0  0  0  0  0  0  0  0  0  0
  1  2  1  0  0  0  0
  1 17  1  0  0  0  0
  1 18  1  0  0  0  0
  1 19  1  0  0  0  0
  2  3  1  0  0  0  0
  2 16  1  0  0  0  0
  2 20  1  0  0  0  0
  3  4  1  0  0  0  0
  3 21  1  0  0  0  0
  3 22  1  0  0  0  0
  4  5  2  0  0  0  0
  4  6  1  0  0  0  0
  6  7  1  0  0  0  0
  6 14  1  0  0  0  0
  7  8  1  0  0  0  0
  7 13  2  0  0  0  0
  8  9  2  0  0  0  0
  8 23  1  0  0  0  0
  9 10  1  0  0  0  0
  9 24  1  0  0  0  0
 10 11  1  0  0  0  0
 10 12  2  0  0  0  0
 12 13  1  0  0  0  0
 12 25  1  0  0  0  0
 13 26  1  0  0  0  0
 14 15  2  0  0  0  0
 14 16  1  0  0  0  0
 16 27  1  0  0  0  0
 16 28  1  0  0  0  0
M  END
>  <Energy>
23.9024

$$$$

 OpenBabel04232616053D

 31 34  0  0  0  0  0  0  0  0999 V2000
    1.1206    0.8653    0.2119 O   0  0  0  0  0  0  0  0  0  0  0  0
    2.3177    0.6226    0.1328 C   0  0  0  0  0  0  0  0  0  0  0  0
    2.7741   -0.7968    0.1186 C   0  0  0  0  0  0  0  0  0  0  0  0
    4.0896   -1.0838    0.1171 C   0  0  0  0  0  0  0  0  0  0  0  0
    4.6035   -2.4909    0.0936 C   0  0  0  0  0  0  0  0  0  0  0  0
    3.8263   -3.5851    0.5149 C   0  0  0  0  0  0  0  0  0  0  0  0
    4.3426   -4.8901    0.5133 C   0  0  0  0  0  0  0  0  0  0  0  0
    5.6510   -5.1326    0.1028 C   0  0  0  0  0  0  0  0  0  0  0  0
    6.4440   -4.0713   -0.3125 C   0  0  0  0  0  0  0  0  0  0  0  0
    5.9214   -2.7785   -0.3166 C   0  0  0  0  0  0  0  0  0  0  0  0
    6.7404   -1.7916   -0.7208 F   0  0  0  0  0  0  0  0  0  0  0  0
    5.0346   -0.0759    0.1283 N   0  0  0  0  0  0  0  0  0  0  0  0
    4.7003    1.2761   -0.0190 C   0  0  0  0  0  0  0  0  0  0  0  0
    5.7217    2.2375   -0.1447 C   0  0  0  0  0  0  0  0  0  0  0  0
    5.4135    3.5937   -0.2450 C   0  0  0  0  0  0  0  0  0  0  0  0
    4.0839    3.9548   -0.1828 C   0  0  0  0  0  0  0  0  0  0  0  0
    3.0695    3.0302   -0.0470 C   0  0  0  0  0  0  0  0  0  0  0  0
    3.3539    1.6784    0.0269 C   0  0  0  0  0  0  0  0  0  0  0  0
    1.8508    3.6347   -0.0034 O   0  0  0  0  0  0  0  0  0  0  0  0
    2.2146    5.0260   -0.0558 C   0  0  0  0  0  0  0  0  0  0  0  0
    3.6274    5.2353   -0.2423 O   0  0  0  0  0  0  0  0  0  0  0  0
    1.9793   -1.5298    0.0975 H   0  0  0  0  0  0  0  0  0  0  0  0
    2.8077   -3.4498    0.8699 H   0  0  0  0  0  0  0  0  0  0  0  0
    3.7192   -5.7183    0.8439 H   0  0  0  0  0  0  0  0  0  0  0  0
    6.0522   -6.1427    0.1119 H   0  0  0  0  0  0  0  0  0  0  0  0
    7.4698   -4.2329   -0.6297 H   0  0  0  0  0  0  0  0  0  0  0  0
    5.9958   -0.3410   -0.0702 H   0  0  0  0  0  0  0  0  0  0  0  0
    6.7635    1.9267   -0.1700 H   0  0  0  0  0  0  0  0  0  0  0  0
    6.1918    4.3404   -0.3569 H   0  0  0  0  0  0  0  0  0  0  0  0
    1.9140    5.5054    0.8835 H   0  0  0  0  0  0  0  0  0  0  0  0
    1.6763    5.5032   -0.8820 H   0  0  0  0  0  0  0  0  0  0  0  0
  1  2  2  0  0  0  0
  2  3  1  0  0  0  0
  2 18  1  0  0  0  0
  3  4  2  0  0  0  0
  3 22  1  0  0  0  0
  4  5  1  0  0  0  0
  4 12  1  0  0  0  0
  5  6  1  0  0  0  0
  5 10  2  0  0  0  0
  6  7  2  0  0  0  0
  6 23  1  0  0  0  0
  7  8  1  0  0  0  0
  7 24  1  0  0  0  0
  8  9  2  0  0  0  0
  8 25  1  0  0  0  0
  9 10  1  0  0  0  0
  9 26  1  0  0  0  0
 10 11  1  0  0  0  0
 12 13  1  0  0  0  0
 12 27  1  0  0  0  0
 13 14  1  0  0  0  0
 13 18  2  0  0  0  0
 14 15  2  0  0  0  0
 14 28  1  0  0  0  0
 15 16  1  0  0  0  0
 15 29  1  0  0  0  0
 16 17  2  0  0  0  0
 16 21  1  0  0  0  0
 17 18  1  0  0  0  0
 17 19  1  0  0  0  0
 19 20  1  0  0  0  0
 20 21  1  0  0  0  0
 20 30  1  0  0  0  0
 20 31  1  0  0  0  0
M  END
>  <Energy>
61.7099

$$$$

 OpenBabel04232616053D

 35 37  0  0  0  0  0  0  0  0999 V2000
   -1.9919   -0.1525   -0.0272 C   0  0  0  0  0  0  0  0  0  0  0  0
   -0.5261   -0.1243   -0.1657 C   0  0  0  0  0  0  0  0  0  0  0  0
    0.3293   -1.0921   -0.4233 N   0  0  0  0  0  0  0  0  0  0  0  0
    1.5895   -0.5218   -0.3824 N   0  0  0  0  0  0  0  0  0  0  0  0
    1.4096    0.7522   -0.1083 C   0  0  0  0  0  0  0  0  0  0  0  0
    2.3816    1.8395    0.1967 C   0  0  0  0  0  0  0  0  0  0  0  0
    3.5327    1.9362   -0.8172 C   0  0  0  0  0  0  0  0  0  0  0  0
    4.7374    1.0321   -0.5185 C   0  0  0  0  0  0  0  0  0  0  0  0
    5.0728    1.1214    0.9005 N   0  0  0  0  0  0  0  0  0  0  0  0
    6.2900    1.5782    1.3720 C   0  0  0  0  0  0  0  0  0  0  0  0
    6.4095    2.2217    2.6188 C   0  0  0  0  0  0  0  0  0  0  0  0
    7.6421    2.6654    3.1153 C   0  0  0  0  0  0  0  0  0  0  0  0
    8.7865    2.4729    2.3642 C   0  0  0  0  0  0  0  0  0  0  0  0
    9.9695    2.8872    2.8355 F   0  0  0  0  0  0  0  0  0  0  0  0
    8.7181    1.8491    1.1286 C   0  0  0  0  0  0  0  0  0  0  0  0
    7.4808    1.4082    0.6441 C   0  0  0  0  0  0  0  0  0  0  0  0
    3.9941    0.7226    1.8002 C   0  0  0  0  0  0  0  0  0  0  0  0
    2.8561    1.7248    1.6528 C   0  0  0  0  0  0  0  0  0  0  0  0
    0.0860    1.0802    0.0321 O   0  0  0  0  0  0  0  0  0  0  0  0
   -2.3664   -1.1797   -0.0249 H   0  0  0  0  0  0  0  0  0  0  0  0
   -2.4654    0.3882   -0.8516 H   0  0  0  0  0  0  0  0  0  0  0  0
   -2.2950    0.3211    0.9126 H   0  0  0  0  0  0  0  0  0  0  0  0
    1.8161    2.7787    0.1141 H   0  0  0  0  0  0  0  0  0  0  0  0
    3.8920    2.9747   -0.8060 H   0  0  0  0  0  0  0  0  0  0  0  0
    3.1768    1.7468   -1.8376 H   0  0  0  0  0  0  0  0  0  0  0  0
    5.5552    1.3516   -1.1742 H   0  0  0  0  0  0  0  0  0  0  0  0
    4.5092   -0.0069   -0.7783 H   0  0  0  0  0  0  0  0  0  0  0  0
    5.5301    2.4146    3.2268 H   0  0  0  0  0  0  0  0  0  0  0  0
    7.7049    3.1583    4.0805 H   0  0  0  0  0  0  0  0  0  0  0  0
    9.6241    1.6931    0.5535 H   0  0  0  0  0  0  0  0  0  0  0  0
    7.4715    0.8881   -0.3104 H   0  0  0  0  0  0  0  0  0  0  0  0
    4.3065    0.6499    2.8469 H   0  0  0  0  0  0  0  0  0  0  0  0
    3.6567   -0.2859    1.5289 H   0  0  0  0  0  0  0  0  0  0  0  0
    3.2022    2.7118    1.9866 H   0  0  0  0  0  0  0  0  0  0  0  0
    2.0288    1.4387    2.3140 H   0  0  0  0  0  0  0  0  0  0  0  0
  1  2  1  0  0  0  0
  1 20  1  0  0  0  0
  1 21  1  0  0  0  0
  1 22  1  0  0  0  0
  2  3  2  0  0  0  0
  2 19  1  0  0  0  0
  3  4  1  0  0  0  0
  4  5  2  0  0  0  0
  5  6  1  0  0  0  0
  5 19  1  0  0  0  0
  6  7  1  0  0  0  0
  6 18  1  0  0  0  0
  6 23  1  0  0  0  0
  7  8  1  0  0  0  0
  7 24  1  0  0  0  0
  7 25  1  0  0  0  0
  8  9  1  0  0  0  0
  8 26  1  0  0  0  0
  8 27  1  0  0  0  0
  9 10  1  0  0  0  0
  9 17  1  0  0  0  0
 10 11  1  0  0  0  0
 10 16  2  0  0  0  0
 11 12  2  0  0  0  0
 11 28  1  0  0  0  0
 12 13  1  0  0  0  0
 12 29  1  0  0  0  0
 13 14  1  0  0  0  0
 13 15  2  0  0  0  0
 15 16  1  0  0  0  0
 15 30  1  0  0  0  0
 16 31  1  0  0  0  0
 17 18  1  0  0  0  0
 17 32  1  0  0  0  0
 17 33  1  0  0  0  0
 18 34  1  0  0  0  0
 18 35  1  0  0  0  0
M  END
>  <Energy>
7.88817

$$$$

 OpenBabel04232616053D

 30 32  0  0  0  0  0  0  0  0999 V2000
    1.1362    0.4249    0.8097 C   0  0  0  0  0  0  0  0  0  0  0  0
    2.8411    0.0910    0.3279 S   0  0  0  0  0  0  0  0  0  0  0  0
    3.3366    1.6834   -0.2383 C   0  0  0  0  0  0  0  0  0  0  0  0
    2.7608    2.7043    0.3130 N   0  0  0  0  0  0  0  0  0  0  0  0
    3.1605    3.9874   -0.0682 C   0  0  0  0  0  0  0  0  0  0  0  0
    2.5129    5.0901    0.4932 C   0  0  0  0  0  0  0  0  0  0  0  0
    2.8353    6.3873    0.0844 C   0  0  0  0  0  0  0  0  0  0  0  0
    3.8219    6.5917   -0.8792 C   0  0  0  0  0  0  0  0  0  0  0  0
    4.5090    5.5008   -1.4076 C   0  0  0  0  0  0  0  0  0  0  0  0
    4.1743    4.2051   -0.9939 C   0  0  0  0  0  0  0  0  0  0  0  0
    4.8729    3.0297   -1.5385 C   0  0  0  0  0  0  0  0  0  0  0  0
    5.8407    3.2139   -2.2793 O   0  0  0  0  0  0  0  0  0  0  0  0
    4.3595    1.7832   -1.1837 N   0  0  0  0  0  0  0  0  0  0  0  0
    4.9801    0.6368   -1.7579 C   0  0  0  0  0  0  0  0  0  0  0  0
    4.2605   -0.2572   -2.5551 C   0  0  0  0  0  0  0  0  0  0  0  0
    4.8804   -1.4157   -3.0157 C   0  0  0  0  0  0  0  0  0  0  0  0
    6.2033   -1.6377   -2.6665 C   0  0  0  0  0  0  0  0  0  0  0  0
    6.9456   -0.7722   -1.9431 N   0  0  0  0  0  0  0  0  0  0  0  0
    6.3241    0.3554   -1.5225 C   0  0  0  0  0  0  0  0  0  0  0  0
    0.6534   -0.5185    1.0779 H   0  0  0  0  0  0  0  0  0  0  0  0
    0.5809    0.8720   -0.0195 H   0  0  0  0  0  0  0  0  0  0  0  0
    1.0990    1.0884    1.6776 H   0  0  0  0  0  0  0  0  0  0  0  0
    1.7465    4.9364    1.2491 H   0  0  0  0  0  0  0  0  0  0  0  0
    2.3096    7.2372    0.5130 H   0  0  0  0  0  0  0  0  0  0  0  0
    4.0579    7.5983   -1.2166 H   0  0  0  0  0  0  0  0  0  0  0  0
    5.2913    5.6579   -2.1465 H   0  0  0  0  0  0  0  0  0  0  0  0
    3.2261   -0.0599   -2.8220 H   0  0  0  0  0  0  0  0  0  0  0  0
    4.3413   -2.1341   -3.6227 H   0  0  0  0  0  0  0  0  0  0  0  0
    6.7170   -2.5457   -2.9693 H   0  0  0  0  0  0  0  0  0  0  0  0
    6.9491    1.0265   -0.9395 H   0  0  0  0  0  0  0  0  0  0  0  0
  1  2  1  0  0  0  0
  1 20  1  0  0  0  0
  1 21  1  0  0  0  0
  1 22  1  0  0  0  0
  2  3  1  0  0  0  0
  3  4  2  0  0  0  0
  3 13  1  0  0  0  0
  4  5  1  0  0  0  0
  5  6  1  0  0  0  0
  5 10  2  0  0  0  0
  6  7  2  0  0  0  0
  6 23  1  0  0  0  0
  7  8  1  0  0  0  0
  7 24  1  0  0  0  0
  8  9  2  0  0  0  0
  8 25  1  0  0  0  0
  9 10  1  0  0  0  0
  9 26  1  0  0  0  0
 10 11  1  0  0  0  0
 11 12  2  0  0  0  0
 11 13  1  0  0  0  0
 13 14  1  0  0  0  0
 14 15  1  0  0  0  0
 14 19  2  0  0  0  0
 15 16  2  0  0  0  0
 15 27  1  0  0  0  0
 16 17  1  0  0  0  0
 16 28  1  0  0  0  0
 17 18  2  0  0  0  0
 17 29  1  0  0  0  0
 18 19  1  0  0  0  0
 19 30  1  0  0  0  0
M  END
>  <Energy>
34.8288

$$$$

 OpenBabel04232616053D

 36 39  0  0  0  0  0  0  0  0999 V2000
    1.1479    0.2504    0.1336 C   0  0  0  0  0  0  0  0  0  0  0  0
    2.5873    0.1276   -0.0465 N   0  0  0  0  0  0  0  0  0  0  0  0
    3.2132   -1.0901   -0.3154 C   0  0  0  0  0  0  0  0  0  0  0  0
    4.5642   -1.2084   -0.3076 C   0  0  0  0  0  0  0  0  0  0  0  0
    5.3960   -0.0358    0.0389 C   0  0  0  0  0  0  0  0  0  0  0  0
    6.7813   -0.1058    0.2621 C   0  0  0  0  0  0  0  0  0  0  0  0
    7.5312    1.0415    0.5464 C   0  0  0  0  0  0  0  0  0  0  0  0
    6.9121    2.2842    0.6103 C   0  0  0  0  0  0  0  0  0  0  0  0
    5.5359    2.3734    0.4251 C   0  0  0  0  0  0  0  0  0  0  0  0
    4.7830    1.2172    0.1620 C   0  0  0  0  0  0  0  0  0  0  0  0
    3.3068    1.3208    0.0967 C   0  0  0  0  0  0  0  0  0  0  0  0
    2.7753    2.4251    0.2075 O   0  0  0  0  0  0  0  0  0  0  0  0
    5.2133   -2.5393   -0.6277 C   0  0  0  0  0  0  0  0  0  0  0  0
    4.9656   -3.5652    0.4868 C   0  0  0  0  0  0  0  0  0  0  0  0
    3.6269   -3.6290    1.0115 O   0  0  0  0  0  0  0  0  0  0  0  0
    2.6677   -3.5298    0.0373 C   0  0  0  0  0  0  0  0  0  0  0  0
    1.9301   -4.6789   -0.2470 C   0  0  0  0  0  0  0  0  0  0  0  0
    0.9678   -4.6492   -1.2513 C   0  0  0  0  0  0  0  0  0  0  0  0
    0.7422   -3.4717   -1.9664 C   0  0  0  0  0  0  0  0  0  0  0  0
    1.4682   -2.3149   -1.6624 C   0  0  0  0  0  0  0  0  0  0  0  0
    2.4210   -2.3148   -0.6322 C   0  0  0  0  0  0  0  0  0  0  0  0
    0.6642   -0.7027    0.3550 H   0  0  0  0  0  0  0  0  0  0  0  0
    0.7158    0.7011   -0.7651 H   0  0  0  0  0  0  0  0  0  0  0  0
    0.9430    0.9143    0.9820 H   0  0  0  0  0  0  0  0  0  0  0  0
    7.3157   -1.0503    0.2422 H   0  0  0  0  0  0  0  0  0  0  0  0
    8.6014    0.9587    0.7215 H   0  0  0  0  0  0  0  0  0  0  0  0
    7.4932    3.1770    0.8256 H   0  0  0  0  0  0  0  0  0  0  0  0
    5.0439    3.3406    0.5059 H   0  0  0  0  0  0  0  0  0  0  0  0
    6.2847   -2.4686   -0.8325 H   0  0  0  0  0  0  0  0  0  0  0  0
    4.8039   -2.9158   -1.5761 H   0  0  0  0  0  0  0  0  0  0  0  0
    5.6170   -3.3315    1.3374 H   0  0  0  0  0  0  0  0  0  0  0  0
    5.2479   -4.5666    0.1399 H   0  0  0  0  0  0  0  0  0  0  0  0
    2.1203   -5.5966    0.3027 H   0  0  0  0  0  0  0  0  0  0  0  0
    0.4000   -5.5461   -1.4874 H   0  0  0  0  0  0  0  0  0  0  0  0
    0.0021   -3.4540   -2.7610 H   0  0  0  0  0  0  0  0  0  0  0  0
    1.2866   -1.4115   -2.2409 H   0  0  0  0  0  0  0  0  0  0  0  0
  1  2  1  0  0  0  0
  1 22  1  0  0  0  0
  1 23  1  0  0  0  0
  1 24  1  0  0  0  0
  2  3  1  0  0  0  0
  2 11  1  0  0  0  0
  3  4  2  0  0  0  0
  3 21  1  0  0  0  0
  4  5  1  0  0  0  0
  4 13  1  0  0  0  0
  5  6  1  0  0  0  0
  5 10  2  0  0  0  0
  6  7  2  0  0  0  0
  6 25  1  0  0  0  0
  7  8  1  0  0  0  0
  7 26  1  0  0  0  0
  8  9  2  0  0  0  0
  8 27  1  0  0  0  0
  9 10  1  0  0  0  0
  9 28  1  0  0  0  0
 10 11  1  0  0  0  0
 11 12  2  0  0  0  0
 13 14  1  0  0  0  0
 13 29  1  0  0  0  0
 13 30  1  0  0  0  0
 14 15  1  0  0  0  0
 14 31  1  0  0  0  0
 14 32  1  0  0  0  0
 15 16  1  0  0  0  0
 16 17  1  0  0  0  0
 16 21  2  0  0  0  0
 17 18  2  0  0  0  0
 17 33  1  0  0  0  0
 18 19  1  0  0  0  0
 18 34  1  0  0  0  0
 19 20  2  0  0  0  0
 19 35  1  0  0  0  0
 20 21  1  0  0  0  0
 20 36  1  0  0  0  0
M  END
>  <Energy>
85.1862

$$$$

 OpenBabel04232616053D

 26 27  0  0  0  0  0  0  0  0999 V2000
    4.3868    1.3880    0.4403 C   0  0  0  0  0  0  0  0  0  0  0  0
    4.8848   -0.2431   -0.1649 S   0  0  0  0  0  0  0  0  0  0  0  0
    4.2021   -1.2431    1.0789 C   0  0  0  0  0  0  0  0  0  0  0  0
    3.5467   -0.7872    2.1257 N   0  0  0  0  0  0  0  0  0  0  0  0
    3.1729   -1.8832    2.8641 N   0  0  0  0  0  0  0  0  0  0  0  0
    3.6189   -2.9440    2.2268 C   0  0  0  0  0  0  0  0  0  0  0  0
    3.4993   -4.3610    2.5596 C   0  0  0  0  0  0  0  0  0  0  0  0
    4.1068   -5.3466    1.7676 C   0  0  0  0  0  0  0  0  0  0  0  0
    3.9910   -6.6994    2.0974 C   0  0  0  0  0  0  0  0  0  0  0  0
    3.2625   -7.0627    3.2258 C   0  0  0  0  0  0  0  0  0  0  0  0
    3.1242   -8.5304    3.6136 C   0  0  0  0  0  0  0  0  0  0  0  0
    3.7732   -9.3762    2.7575 F   0  0  0  0  0  0  0  0  0  0  0  0
    3.6329   -8.8075    4.8484 F   0  0  0  0  0  0  0  0  0  0  0  0
    1.8298   -8.9596    3.6322 F   0  0  0  0  0  0  0  0  0  0  0  0
    2.6619   -6.1226    4.0070 N   0  0  0  0  0  0  0  0  0  0  0  0
    2.7787   -4.8049    3.6782 C   0  0  0  0  0  0  0  0  0  0  0  0
    2.0714   -3.8664    4.6165 C   0  0  0  0  0  0  0  0  0  0  0  0
    4.2905   -2.6126    1.0753 O   0  0  0  0  0  0  0  0  0  0  0  0
    4.7707    2.1585   -0.2333 H   0  0  0  0  0  0  0  0  0  0  0  0
    4.7935    1.5710    1.4393 H   0  0  0  0  0  0  0  0  0  0  0  0
    3.2963    1.4699    0.4729 H   0  0  0  0  0  0  0  0  0  0  0  0
    4.6814   -5.0746    0.8841 H   0  0  0  0  0  0  0  0  0  0  0  0
    4.4685   -7.4521    1.4755 H   0  0  0  0  0  0  0  0  0  0  0  0
    1.5478   -4.4241    5.4001 H   0  0  0  0  0  0  0  0  0  0  0  0
    1.3208   -3.2775    4.0803 H   0  0  0  0  0  0  0  0  0  0  0  0
    2.7891   -3.2038    5.1100 H   0  0  0  0  0  0  0  0  0  0  0  0
  1  2  1  0  0  0  0
  1 19  1  0  0  0  0
  1 20  1  0  0  0  0
  1 21  1  0  0  0  0
  2  3  1  0  0  0  0
  3  4  2  0  0  0  0
  3 18  1  0  0  0  0
  4  5  1  0  0  0  0
  5  6  2  0  0  0  0
  6  7  1  0  0  0  0
  6 18  1  0  0  0  0
  7  8  1  0  0  0  0
  7 16  2  0  0  0  0
  8  9  2  0  0  0  0
  8 22  1  0  0  0  0
  9 10  1  0  0  0  0
  9 23  1  0  0  0  0
 10 11  1  0  0  0  0
 10 15  2  0  0  0  0
 11 12  1  0  0  0  0
 11 13  1  0  0  0  0
 11 14  1  0  0  0  0
 15 16  1  0  0  0  0
 16 17  1  0  0  0  0
 17 24  1  0  0  0  0
 17 25  1  0  0  0  0
 17 26  1  0  0  0  0
M  END
>  <Energy>
86.4948

$$$$

 OpenBabel04232616053D

 33 35  0  0  0  0  0  0  0  0999 V2000
    2.2144   -3.7732    2.5334 C   0  0  0  0  0  0  0  0  0  0  0  0
    0.8887   -3.0715    2.4918 C   0  0  0  0  0  0  0  0  0  0  0  0
    0.4002   -2.3963    3.6162 C   0  0  0  0  0  0  0  0  0  0  0  0
   -0.8146   -1.7122    3.5596 C   0  0  0  0  0  0  0  0  0  0  0  0
   -1.5627   -1.7085    2.3818 C   0  0  0  0  0  0  0  0  0  0  0  0
   -1.1178   -2.4323    1.2679 C   0  0  0  0  0  0  0  0  0  0  0  0
   -1.9103   -2.4817    0.0058 C   0  0  0  0  0  0  0  0  0  0  0  0
   -1.2945   -2.5148   -1.0578 O   0  0  0  0  0  0  0  0  0  0  0  0
   -3.3108   -2.4957    0.1187 N   0  0  0  0  0  0  0  0  0  0  0  0
   -4.2154   -3.2045    0.9624 C   0  0  0  0  0  0  0  0  0  0  0  0
   -3.8354   -4.2831    2.1868 S   0  0  0  0  0  0  0  0  0  0  0  0
   -5.5254   -2.9436    0.5705 N   0  0  0  0  0  0  0  0  0  0  0  0
   -5.4044   -2.2802   -0.5447 C   0  0  0  0  0  0  0  0  0  0  0  0
   -6.5478   -1.7972   -1.3550 C   0  0  0  0  0  0  0  0  0  0  0  0
   -6.2372   -1.1281   -2.4858 C   0  0  0  0  0  0  0  0  0  0  0  0
   -7.2937   -0.5889   -3.4040 C   0  0  0  0  0  0  0  0  0  0  0  0
   -4.8376   -0.8895   -2.8680 C   0  0  0  0  0  0  0  0  0  0  0  0
   -3.8341   -1.3287   -2.0835 C   0  0  0  0  0  0  0  0  0  0  0  0
   -4.1089   -2.0359   -0.9399 N   0  0  0  0  0  0  0  0  0  0  0  0
    0.1235   -3.0833    1.3162 C   0  0  0  0  0  0  0  0  0  0  0  0
    2.6794   -3.6934    3.5219 H   0  0  0  0  0  0  0  0  0  0  0  0
    2.8992   -3.3268    1.8051 H   0  0  0  0  0  0  0  0  0  0  0  0
    2.0886   -4.8366    2.3074 H   0  0  0  0  0  0  0  0  0  0  0  0
    0.9667   -2.3928    4.5455 H   0  0  0  0  0  0  0  0  0  0  0  0
   -1.1809   -1.1867    4.4382 H   0  0  0  0  0  0  0  0  0  0  0  0
   -2.4954   -1.1514    2.3585 H   0  0  0  0  0  0  0  0  0  0  0  0
   -7.5516   -2.0008   -1.0096 H   0  0  0  0  0  0  0  0  0  0  0  0
   -8.3025   -0.7934   -3.0287 H   0  0  0  0  0  0  0  0  0  0  0  0
   -7.2114   -1.0460   -4.3961 H   0  0  0  0  0  0  0  0  0  0  0  0
   -7.1958    0.4969   -3.5106 H   0  0  0  0  0  0  0  0  0  0  0  0
   -4.6283   -0.3511   -3.7875 H   0  0  0  0  0  0  0  0  0  0  0  0
   -2.7914   -1.1659   -2.3304 H   0  0  0  0  0  0  0  0  0  0  0  0
    0.4925   -3.6081    0.4362 H   0  0  0  0  0  0  0  0  0  0  0  0
  1  2  1  0  0  0  0
  1 21  1  0  0  0  0
  1 22  1  0  0  0  0
  1 23  1  0  0  0  0
  2  3  1  0  0  0  0
  2 20  2  0  0  0  0
  3  4  2  0  0  0  0
  3 24  1  0  0  0  0
  4  5  1  0  0  0  0
  4 25  1  0  0  0  0
  5  6  2  0  0  0  0
  5 26  1  0  0  0  0
  6  7  1  0  0  0  0
  6 20  1  0  0  0  0
  7  8  2  0  0  0  0
  7  9  1  0  0  0  0
  9 10  1  0  0  0  0
  9 19  1  0  0  0  0
 10 11  2  0  0  0  0
 10 12  1  0  0  0  0
 12 13  2  0  0  0  0
 13 14  1  0  0  0  0
 13 19  1  0  0  0  0
 14 15  2  0  0  0  0
 14 27  1  0  0  0  0
 15 16  1  0  0  0  0
 15 17  1  0  0  0  0
 16 28  1  0  0  0  0
 16 29  1  0  0  0  0
 16 30  1  0  0  0  0
 17 18  2  0  0  0  0
 17 31  1  0  0  0  0
 18 19  1  0  0  0  0
 18 32  1  0  0  0  0
 20 33  1  0  0  0  0
M  END
>  <Energy>
61.5351

$$$$

 OpenBabel04232616053D

 33 36  0  0  0  0  0  0  0  0999 V2000
    1.0625   -0.0914    0.0165 C   0  0  0  0  0  0  0  0  0  0  0  0
    2.5604   -0.0778   -0.0001 C   0  0  0  0  0  0  0  0  0  0  0  0
    3.1569    1.1329    0.0211 N   0  0  0  0  0  0  0  0  0  0  0  0
    4.5114    1.1987    0.0888 C   0  0  0  0  0  0  0  0  0  0  0  0
    5.1647    2.4195    0.1598 O   0  0  0  0  0  0  0  0  0  0  0  0
    4.5005    3.4807    0.7344 C   0  0  0  0  0  0  0  0  0  0  0  0
    3.6366    3.3636    1.8273 C   0  0  0  0  0  0  0  0  0  0  0  0
    3.0098    4.4944    2.3529 C   0  0  0  0  0  0  0  0  0  0  0  0
    3.2775    5.7530    1.8152 C   0  0  0  0  0  0  0  0  0  0  0  0
    4.1767    5.8799    0.7578 C   0  0  0  0  0  0  0  0  0  0  0  0
    4.7912    4.7466    0.2195 C   0  0  0  0  0  0  0  0  0  0  0  0
    5.2114    0.0123    0.0609 C   0  0  0  0  0  0  0  0  0  0  0  0
    6.5570   -0.1934    0.0819 O   0  0  0  0  0  0  0  0  0  0  0  0
    6.7397   -1.5461    0.0673 C   0  0  0  0  0  0  0  0  0  0  0  0
    7.9734   -2.1932    0.0798 C   0  0  0  0  0  0  0  0  0  0  0  0
    7.9459   -3.5925    0.0761 C   0  0  0  0  0  0  0  0  0  0  0  0
    6.7376   -4.2946    0.0626 C   0  0  0  0  0  0  0  0  0  0  0  0
    5.5104   -3.6170    0.0457 C   0  0  0  0  0  0  0  0  0  0  0  0
    5.5155   -2.2102    0.0441 C   0  0  0  0  0  0  0  0  0  0  0  0
    4.5290   -1.1916    0.0287 C   0  0  0  0  0  0  0  0  0  0  0  0
    3.1777   -1.2743    0.0079 N   0  0  0  0  0  0  0  0  0  0  0  0
    0.6597    0.9267    0.0156 H   0  0  0  0  0  0  0  0  0  0  0  0
    0.7060   -0.6014    0.9155 H   0  0  0  0  0  0  0  0  0  0  0  0
    0.6824   -0.6161   -0.8658 H   0  0  0  0  0  0  0  0  0  0  0  0
    3.4279    2.3959    2.2738 H   0  0  0  0  0  0  0  0  0  0  0  0
    2.3132    4.3899    3.1801 H   0  0  0  0  0  0  0  0  0  0  0  0
    2.7881    6.6314    2.2256 H   0  0  0  0  0  0  0  0  0  0  0  0
    4.3981    6.8628    0.3500 H   0  0  0  0  0  0  0  0  0  0  0  0
    5.4911    4.8517   -0.6044 H   0  0  0  0  0  0  0  0  0  0  0  0
    8.9031   -1.6370    0.0937 H   0  0  0  0  0  0  0  0  0  0  0  0
    8.8841   -4.1437    0.0869 H   0  0  0  0  0  0  0  0  0  0  0  0
    6.7462   -5.3824    0.0655 H   0  0  0  0  0  0  0  0  0  0  0  0
    4.5722   -4.1646    0.0368 H   0  0  0  0  0  0  0  0  0  0  0  0
  1  2  1  0  0  0  0
  1 22  1  0  0  0  0
  1 23  1  0  0  0  0
  1 24  1  0  0  0  0
  2  3  1  0  0  0  0
  2 21  2  0  0  0  0
  3  4  2  0  0  0  0
  4  5  1  0  0  0  0
  4 12  1  0  0  0  0
  5  6  1  0  0  0  0
  6  7  1  0  0  0  0
  6 11  2  0  0  0  0
  7  8  2  0  0  0  0
  7 25  1  0  0  0  0
  8  9  1  0  0  0  0
  8 26  1  0  0  0  0
  9 10  2  0  0  0  0
  9 27  1  0  0  0  0
 10 11  1  0  0  0  0
 10 28  1  0  0  0  0
 11 29  1  0  0  0  0
 12 13  1  0  0  0  0
 12 20  2  0  0  0  0
 13 14  1  0  0  0  0
 14 15  1  0  0  0  0
 14 19  2  0  0  0  0
 15 16  2  0  0  0  0
 15 30  1  0  0  0  0
 16 17  1  0  0  0  0
 16 31  1  0  0  0  0
 17 18  2  0  0  0  0
 17 32  1  0  0  0  0
 18 19  1  0  0  0  0
 18 33  1  0  0  0  0
 19 20  1  0  0  0  0
 20 21  1  0  0  0  0
M  END
>  <Energy>
49.4828

$$$$

 OpenBabel04232616053D

 37 40  0  0  0  0  0  0  0  0999 V2000
   -1.9893    0.4214    2.2076 C   0  0  0  0  0  0  0  0  0  0  0  0
   -1.3432   -0.0044    0.9883 N   0  0  0  0  0  0  0  0  0  0  0  0
   -1.8709   -0.8132    0.0035 C   0  0  0  0  0  0  0  0  0  0  0  0
   -3.2726   -1.3491    0.0052 C   0  0  0  0  0  0  0  0  0  0  0  0
   -4.2925   -0.2568   -0.0814 C   0  0  0  0  0  0  0  0  0  0  0  0
   -4.9130    0.2803    0.9530 N   0  0  0  0  0  0  0  0  0  0  0  0
   -5.6615    1.3092    0.4452 C   0  0  0  0  0  0  0  0  0  0  0  0
   -6.4790    2.2262    1.1218 C   0  0  0  0  0  0  0  0  0  0  0  0
   -7.1227    3.2263    0.3853 C   0  0  0  0  0  0  0  0  0  0  0  0
   -6.9630    3.3043   -0.9987 C   0  0  0  0  0  0  0  0  0  0  0  0
   -6.1650    2.3859   -1.6925 C   0  0  0  0  0  0  0  0  0  0  0  0
   -5.5215    1.3970   -0.9369 C   0  0  0  0  0  0  0  0  0  0  0  0
   -4.6744    0.3601   -1.2549 N   0  0  0  0  0  0  0  0  0  0  0  0
   -4.2495   -0.0203   -2.5811 C   0  0  0  0  0  0  0  0  0  0  0  0
   -0.9775   -1.0421   -0.9423 N   0  0  0  0  0  0  0  0  0  0  0  0
    0.1433   -0.3409   -0.5748 C   0  0  0  0  0  0  0  0  0  0  0  0
    1.3843   -0.2374   -1.2218 C   0  0  0  0  0  0  0  0  0  0  0  0
    2.3762    0.5730   -0.6555 C   0  0  0  0  0  0  0  0  0  0  0  0
    2.1359    1.2708    0.5293 C   0  0  0  0  0  0  0  0  0  0  0  0
    0.9084    1.1705    1.1943 C   0  0  0  0  0  0  0  0  0  0  0  0
   -0.0649    0.3449    0.6167 C   0  0  0  0  0  0  0  0  0  0  0  0
   -2.7749   -0.2823    2.4850 H   0  0  0  0  0  0  0  0  0  0  0  0
   -2.3990    1.4221    2.0469 H   0  0  0  0  0  0  0  0  0  0  0  0
   -1.2501    0.4409    3.0129 H   0  0  0  0  0  0  0  0  0  0  0  0
   -3.4382   -1.9348    0.9172 H   0  0  0  0  0  0  0  0  0  0  0  0
   -3.3979   -2.0484   -0.8296 H   0  0  0  0  0  0  0  0  0  0  0  0
   -6.5940    2.1589    2.1973 H   0  0  0  0  0  0  0  0  0  0  0  0
   -7.7488    3.9508    0.9002 H   0  0  0  0  0  0  0  0  0  0  0  0
   -7.4669    4.0954   -1.5501 H   0  0  0  0  0  0  0  0  0  0  0  0
   -6.0479    2.4581   -2.7681 H   0  0  0  0  0  0  0  0  0  0  0  0
   -4.6534    0.6726   -3.3218 H   0  0  0  0  0  0  0  0  0  0  0  0
   -4.6262   -1.0259   -2.7849 H   0  0  0  0  0  0  0  0  0  0  0  0
   -3.1582    0.0003   -2.6253 H   0  0  0  0  0  0  0  0  0  0  0  0
    1.5617   -0.7785   -2.1441 H   0  0  0  0  0  0  0  0  0  0  0  0
    3.3412    0.6609   -1.1481 H   0  0  0  0  0  0  0  0  0  0  0  0
    2.9175    1.9031    0.9457 H   0  0  0  0  0  0  0  0  0  0  0  0
    0.7275    1.7145    2.1144 H   0  0  0  0  0  0  0  0  0  0  0  0
  1  2  1  0  0  0  0
  1 22  1  0  0  0  0
  1 23  1  0  0  0  0
  1 24  1  0  0  0  0
  2  3  1  0  0  0  0
  2 21  1  0  0  0  0
  3  4  1  0  0  0  0
  3 15  2  0  0  0  0
  4  5  1  0  0  0  0
  4 25  1  0  0  0  0
  4 26  1  0  0  0  0
  5  6  2  0  0  0  0
  5 13  1  0  0  0  0
  6  7  1  0  0  0  0
  7  8  1  0  0  0  0
  7 12  2  0  0  0  0
  8  9  2  0  0  0  0
  8 27  1  0  0  0  0
  9 10  1  0  0  0  0
  9 28  1  0  0  0  0
 10 11  2  0  0  0  0
 10 29  1  0  0  0  0
 11 12  1  0  0  0  0
 11 30  1  0  0  0  0
 12 13  1  0  0  0  0
 13 14  1  0  0  0  0
 14 31  1  0  0  0  0
 14 32  1  0  0  0  0
 14 33  1  0  0  0  0
 15 16  1  0  0  0  0
 16 17  1  0  0  0  0
 16 21  2  0  0  0  0
 17 18  2  0  0  0  0
 17 34  1  0  0  0  0
 18 19  1  0  0  0  0
 18 35  1  0  0  0  0
 19 20  2  0  0  0  0
 19 36  1  0  0  0  0
 20 21  1  0  0  0  0
 20 37  1  0  0  0  0
M  END
>  <Energy>
37.6744

$$$$

 OpenBabel04232616053D

 32 35  0  0  0  0  0  0  0  0999 V2000
    0.4783   -1.0741   -3.8407 N   0  0  0  0  0  0  0  0  0  0  0  0
    0.1224   -0.7028   -2.7980 C   0  0  0  0  0  0  0  0  0  0  0  0
   -0.3089   -0.2581   -1.5141 C   0  0  0  0  0  0  0  0  0  0  0  0
    0.0894   -0.9289   -0.3694 C   0  0  0  0  0  0  0  0  0  0  0  0
   -0.2753   -0.5636    0.8792 N   0  0  0  0  0  0  0  0  0  0  0  0
   -1.0584    0.5402    0.9853 C   0  0  0  0  0  0  0  0  0  0  0  0
   -1.5144    1.2913   -0.0929 C   0  0  0  0  0  0  0  0  0  0  0  0
   -2.2956    2.5079    0.0503 C   0  0  0  0  0  0  0  0  0  0  0  0
   -2.1984    3.5112   -0.8929 N   0  0  0  0  0  0  0  0  0  0  0  0
   -2.9924    4.4722   -0.4800 C   0  0  0  0  0  0  0  0  0  0  0  0
   -3.2662    5.7577   -1.0321 C   0  0  0  0  0  0  0  0  0  0  0  0
   -4.1341    6.5788   -0.4099 C   0  0  0  0  0  0  0  0  0  0  0  0
   -4.7843    6.1770    0.8198 C   0  0  0  0  0  0  0  0  0  0  0  0
   -5.6394    7.0329    1.4088 F   0  0  0  0  0  0  0  0  0  0  0  0
   -4.5296    4.9766    1.3566 C   0  0  0  0  0  0  0  0  0  0  0  0
   -3.6425    4.1239    0.7029 N   0  0  0  0  0  0  0  0  0  0  0  0
   -3.2063    2.8559    1.0349 C   0  0  0  0  0  0  0  0  0  0  0  0
   -3.6013    2.0634    2.2651 C   0  0  0  0  0  0  0  0  0  0  0  0
   -4.2701    0.7286    2.1158 C   0  0  0  0  0  0  0  0  0  0  0  0
   -5.0251    1.8993    2.6994 C   0  0  0  0  0  0  0  0  0  0  0  0
   -1.1265    0.8652   -1.3697 C   0  0  0  0  0  0  0  0  0  0  0  0
    0.7408   -1.7995   -0.4171 H   0  0  0  0  0  0  0  0  0  0  0  0
   -1.2844    0.8098    2.0103 H   0  0  0  0  0  0  0  0  0  0  0  0
   -2.7626    6.0486   -1.9472 H   0  0  0  0  0  0  0  0  0  0  0  0
   -4.3670    7.5613   -0.8056 H   0  0  0  0  0  0  0  0  0  0  0  0
   -4.9849    4.6431    2.2770 H   0  0  0  0  0  0  0  0  0  0  0  0
   -2.8583    2.1229    3.0585 H   0  0  0  0  0  0  0  0  0  0  0  0
   -3.9714   -0.0693    2.7867 H   0  0  0  0  0  0  0  0  0  0  0  0
   -4.5569    0.3889    1.1265 H   0  0  0  0  0  0  0  0  0  0  0  0
   -5.2292    1.8851    3.7646 H   0  0  0  0  0  0  0  0  0  0  0  0
   -5.8342    2.2977    2.0990 H   0  0  0  0  0  0  0  0  0  0  0  0
   -1.4496    1.4222   -2.2484 H   0  0  0  0  0  0  0  0  0  0  0  0
  1  2  3  0  0  0  0
  2  3  1  0  0  0  0
  3  4  1  0  0  0  0
  3 21  2  0  0  0  0
  4  5  2  0  0  0  0
  4 22  1  0  0  0  0
  5  6  1  0  0  0  0
  6  7  2  0  0  0  0
  6 23  1  0  0  0  0
  7  8  1  0  0  0  0
  7 21  1  0  0  0  0
  8  9  1  0  0  0  0
  8 17  2  0  0  0  0
  9 10  2  0  0  0  0
 10 11  1  0  0  0  0
 10 16  1  0  0  0  0
 11 12  2  0  0  0  0
 11 24  1  0  0  0  0
 12 13  1  0  0  0  0
 12 25  1  0  0  0  0
 13 14  1  0  0  0  0
 13 15  2  0  0  0  0
 15 16  1  0  0  0  0
 15 26  1  0  0  0  0
 16 17  1  0  0  0  0
 17 18  1  0  0  0  0
 18 19  1  0  0  0  0
 18 20  1  0  0  0  0
 18 27  1  0  0  0  0
 19 20  1  0  0  0  0
 19 28  1  0  0  0  0
 19 29  1  0  0  0  0
 20 30  1  0  0  0  0
 20 31  1  0  0  0  0
 21 32  1  0  0  0  0
M  END
>  <Energy>
76.4208

$$$$

 OpenBabel04232616053D

 33 35  0  0  0  0  0  0  0  0999 V2000
    6.2437    3.1305    4.7726 C   0  0  0  0  0  0  0  0  0  0  0  0
    6.1729    2.7666    3.3367 C   0  0  0  0  0  0  0  0  0  0  0  0
    5.9583    3.7091    2.4154 N   0  0  0  0  0  0  0  0  0  0  0  0
    5.8824    3.0190    1.2593 N   0  0  0  0  0  0  0  0  0  0  0  0
    5.4500    3.7073    0.0622 C   0  0  0  0  0  0  0  0  0  0  0  0
    6.2458    1.6974    1.3785 C   0  0  0  0  0  0  0  0  0  0  0  0
    6.3550    0.7967    0.2532 C   0  0  0  0  0  0  0  0  0  0  0  0
    5.4393    0.7474   -0.5675 O   0  0  0  0  0  0  0  0  0  0  0  0
    7.5411    0.0815    0.1104 N   0  0  0  0  0  0  0  0  0  0  0  0
    8.7484    0.1853    0.9559 C   0  0  0  0  0  0  0  0  0  0  0  0
    9.8464   -0.6814    0.3285 C   0  0  0  0  0  0  0  0  0  0  0  0
    9.1288   -1.3117   -0.8176 C   0  0  0  0  0  0  0  0  0  0  0  0
    9.6412   -2.2431   -1.7103 C   0  0  0  0  0  0  0  0  0  0  0  0
    8.8250   -2.6812   -2.7524 C   0  0  0  0  0  0  0  0  0  0  0  0
    7.5227   -2.1819   -2.8887 C   0  0  0  0  0  0  0  0  0  0  0  0
    7.0139   -1.2517   -1.9751 C   0  0  0  0  0  0  0  0  0  0  0  0
    7.8246   -0.8273   -0.9344 C   0  0  0  0  0  0  0  0  0  0  0  0
    6.3013    1.4866    2.7438 C   0  0  0  0  0  0  0  0  0  0  0  0
    6.4394    0.0265    3.6017 Cl  0  0  0  0  0  0  0  0  0  0  0  0
    5.9431    4.1705    4.9384 H   0  0  0  0  0  0  0  0  0  0  0  0
    7.2682    3.0129    5.1416 H   0  0  0  0  0  0  0  0  0  0  0  0
    5.5845    2.4925    5.3691 H   0  0  0  0  0  0  0  0  0  0  0  0
    5.0793    4.7007    0.3318 H   0  0  0  0  0  0  0  0  0  0  0  0
    4.6353    3.1421   -0.3974 H   0  0  0  0  0  0  0  0  0  0  0  0
    6.3020    3.7953   -0.6145 H   0  0  0  0  0  0  0  0  0  0  0  0
    8.5254   -0.1940    1.9536 H   0  0  0  0  0  0  0  0  0  0  0  0
    9.0527    1.2336    1.0435 H   0  0  0  0  0  0  0  0  0  0  0  0
   10.2146   -1.4310    1.0363 H   0  0  0  0  0  0  0  0  0  0  0  0
   10.6806   -0.0661   -0.0221 H   0  0  0  0  0  0  0  0  0  0  0  0
   10.6528   -2.6227   -1.6068 H   0  0  0  0  0  0  0  0  0  0  0  0
    9.2003   -3.4098   -3.4668 H   0  0  0  0  0  0  0  0  0  0  0  0
    6.8982   -2.5216   -3.7118 H   0  0  0  0  0  0  0  0  0  0  0  0
    6.0012   -0.8873   -2.1038 H   0  0  0  0  0  0  0  0  0  0  0  0
  1  2  1  0  0  0  0
  1 20  1  0  0  0  0
  1 21  1  0  0  0  0
  1 22  1  0  0  0  0
  2  3  2  0  0  0  0
  2 18  1  0  0  0  0
  3  4  1  0  0  0  0
  4  5  1  0  0  0  0
  4  6  1  0  0  0  0
  5 23  1  0  0  0  0
  5 24  1  0  0  0  0
  5 25  1  0  0  0  0
  6  7  1  0  0  0  0
  6 18  2  0  0  0  0
  7  8  2  0  0  0  0
  7  9  1  0  0  0  0
  9 10  1  0  0  0  0
  9 17  1  0  0  0  0
 10 11  1  0  0  0  0
 10 26  1  0  0  0  0
 10 27  1  0  0  0  0
 11 12  1  0  0  0  0
 11 28  1  0  0  0  0
 11 29  1  0  0  0  0
 12 13  1  0  0  0  0
 12 17  2  0  0  0  0
 13 14  2  0  0  0  0
 13 30  1  0  0  0  0
 14 15  1  0  0  0  0
 14 31  1  0  0  0  0
 15 16  2  0  0  0  0
 15 32  1  0  0  0  0
 16 17  1  0  0  0  0
 16 33  1  0  0  0  0
 18 19  1  0  0  0  0
M  END
>  <Energy>
15.9957

$$$$

 OpenBabel04232616053D

 40 43  0  0  0  0  0  0  0  0999 V2000
    1.0714    0.0032    0.1511 O   0  0  0  0  0  0  0  0  0  0  0  0
    2.2952   -0.0241    0.0628 C   0  0  0  0  0  0  0  0  0  0  0  0
    2.9988   -1.2073   -0.0270 N   0  0  0  0  0  0  0  0  0  0  0  0
    4.2879   -1.1410   -0.0322 C   0  0  0  0  0  0  0  0  0  0  0  0
    5.0398    0.0026    0.0412 N   0  0  0  0  0  0  0  0  0  0  0  0
    4.4305    1.2395    0.0299 C   0  0  0  0  0  0  0  0  0  0  0  0
    5.1265    2.4530   -0.0004 C   0  0  0  0  0  0  0  0  0  0  0  0
    4.4384    3.6701   -0.0221 C   0  0  0  0  0  0  0  0  0  0  0  0
    3.0445    3.6908   -0.0018 C   0  0  0  0  0  0  0  0  0  0  0  0
    2.3338    2.4933    0.0345 C   0  0  0  0  0  0  0  0  0  0  0  0
    3.0279    1.2777    0.0431 C   0  0  0  0  0  0  0  0  0  0  0  0
    6.4668   -0.2518    0.0077 C   0  0  0  0  0  0  0  0  0  0  0  0
    6.5945   -1.7877   -0.0575 C   0  0  0  0  0  0  0  0  0  0  0  0
    5.1951   -2.3289   -0.1241 C   0  0  0  0  0  0  0  0  0  0  0  0
    4.7305   -3.5797   -0.1966 C   0  0  0  0  0  0  0  0  0  0  0  0
    5.3646   -4.8173   -0.2814 N   0  0  0  0  0  0  0  0  0  0  0  0
    6.8016   -4.9980   -0.5176 C   0  0  0  0  0  0  0  0  0  0  0  0
    7.0589   -6.2256   -1.3915 C   0  0  0  0  0  0  0  0  0  0  0  0
    6.3945   -7.4744   -0.8282 C   0  0  0  0  0  0  0  0  0  0  0  0
    4.9096   -7.2224   -0.5977 C   0  0  0  0  0  0  0  0  0  0  0  0
    4.6967   -6.0034    0.2915 C   0  0  0  0  0  0  0  0  0  0  0  0
    6.2123    2.4725   -0.0170 H   0  0  0  0  0  0  0  0  0  0  0  0
    4.9934    4.6048   -0.0557 H   0  0  0  0  0  0  0  0  0  0  0  0
    2.5123    4.6393   -0.0159 H   0  0  0  0  0  0  0  0  0  0  0  0
    1.2465    2.5043    0.0494 H   0  0  0  0  0  0  0  0  0  0  0  0
    6.9638    0.1370    0.9035 H   0  0  0  0  0  0  0  0  0  0  0  0
    6.9302    0.2006   -0.8768 H   0  0  0  0  0  0  0  0  0  0  0  0
    7.1087   -2.1610    0.8353 H   0  0  0  0  0  0  0  0  0  0  0  0
    7.1813   -2.0537   -0.9408 H   0  0  0  0  0  0  0  0  0  0  0  0
    3.6463   -3.7065   -0.1789 H   0  0  0  0  0  0  0  0  0  0  0  0
    7.3249   -5.0871    0.4415 H   0  0  0  0  0  0  0  0  0  0  0  0
    7.2275   -4.1473   -1.0517 H   0  0  0  0  0  0  0  0  0  0  0  0
    8.1381   -6.3888   -1.4893 H   0  0  0  0  0  0  0  0  0  0  0  0
    6.6711   -6.0374   -2.4011 H   0  0  0  0  0  0  0  0  0  0  0  0
    6.8748   -7.7534    0.1173 H   0  0  0  0  0  0  0  0  0  0  0  0
    6.5283   -8.3127   -1.5203 H   0  0  0  0  0  0  0  0  0  0  0  0
    4.4506   -8.1035   -0.1364 H   0  0  0  0  0  0  0  0  0  0  0  0
    4.4119   -7.0638   -1.5626 H   0  0  0  0  0  0  0  0  0  0  0  0
    5.1006   -6.1887    1.2949 H   0  0  0  0  0  0  0  0  0  0  0  0
    3.6188   -5.8370    0.4073 H   0  0  0  0  0  0  0  0  0  0  0  0
  1  2  2  0  0  0  0
  2  3  1  0  0  0  0
  2 11  1  0  0  0  0
  3  4  2  0  0  0  0
  4  5  1  0  0  0  0
  4 14  1  0  0  0  0
  5  6  1  0  0  0  0
  5 12  1  0  0  0  0
  6  7  1  0  0  0  0
  6 11  2  0  0  0  0
  7  8  2  0  0  0  0
  7 22  1  0  0  0  0
  8  9  1  0  0  0  0
  8 23  1  0  0  0  0
  9 10  2  0  0  0  0
  9 24  1  0  0  0  0
 10 11  1  0  0  0  0
 10 25  1  0  0  0  0
 12 13  1  0  0  0  0
 12 26  1  0  0  0  0
 12 27  1  0  0  0  0
 13 14  1  0  0  0  0
 13 28  1  0  0  0  0
 13 29  1  0  0  0  0
 14 15  2  0  0  0  0
 15 16  1  0  0  0  0
 15 30  1  0  0  0  0
 16 17  1  0  0  0  0
 16 21  1  0  0  0  0
 17 18  1  0  0  0  0
 17 31  1  0  0  0  0
 17 32  1  0  0  0  0
 18 19  1  0  0  0  0
 18 33  1  0  0  0  0
 18 34  1  0  0  0  0
 19 20  1  0  0  0  0
 19 35  1  0  0  0  0
 19 36  1  0  0  0  0
 20 21  1  0  0  0  0
 20 37  1  0  0  0  0
 20 38  1  0  0  0  0
 21 39  1  0  0  0  0
 21 40  1  0  0  0  0
M  END
>  <Energy>
37.5743

$$$$

 OpenBabel04232616053D

 35 38  0  0  0  0  0  0  0  0999 V2000
    0.9597   -0.0635   -0.0466 C   0  0  0  0  0  0  0  0  0  0  0  0
    2.4647   -0.1007   -0.0524 C   0  0  0  0  0  0  0  0  0  0  0  0
    3.1774    1.1098   -0.0546 C   0  0  0  0  0  0  0  0  0  0  0  0
    4.5757    1.1284   -0.0647 C   0  0  0  0  0  0  0  0  0  0  0  0
    5.2610    2.3546   -0.0686 N   0  0  0  0  0  0  0  0  0  0  0  0
    6.6279    2.4088   -0.0834 C   0  0  0  0  0  0  0  0  0  0  0  0
    7.2547    3.5406   -0.0914 N   0  0  0  0  0  0  0  0  0  0  0  0
    7.3842    1.1801   -0.0907 C   0  0  0  0  0  0  0  0  0  0  0  0
    8.7285    0.8811   -0.1052 C   0  0  0  0  0  0  0  0  0  0  0  0
    9.7985    1.7731   -0.1187 C   0  0  0  0  0  0  0  0  0  0  0  0
   11.0321    1.0839   -0.1318 C   0  0  0  0  0  0  0  0  0  0  0  0
   11.1550   -0.3493   -0.1307 C   0  0  0  0  0  0  0  0  0  0  0  0
   10.0566   -1.2408   -0.1166 C   0  0  0  0  0  0  0  0  0  0  0  0
    8.8591   -0.5369   -0.1045 C   0  0  0  0  0  0  0  0  0  0  0  0
    7.6021   -1.0850   -0.0904 C   0  0  0  0  0  0  0  0  0  0  0  0
    6.6972   -0.0357   -0.0832 N   0  0  0  0  0  0  0  0  0  0  0  0
    5.2730   -0.0959   -0.0709 C   0  0  0  0  0  0  0  0  0  0  0  0
    4.5779   -1.3102   -0.0666 C   0  0  0  0  0  0  0  0  0  0  0  0
    3.1710   -1.3212   -0.0578 C   0  0  0  0  0  0  0  0  0  0  0  0
    2.4417   -2.6388   -0.0548 C   0  0  0  0  0  0  0  0  0  0  0  0
    0.5829    0.9650   -0.0403 H   0  0  0  0  0  0  0  0  0  0  0  0
    0.5696   -0.5612    0.8466 H   0  0  0  0  0  0  0  0  0  0  0  0
    0.5638   -0.5524   -0.9422 H   0  0  0  0  0  0  0  0  0  0  0  0
    2.6294    2.0494   -0.0494 H   0  0  0  0  0  0  0  0  0  0  0  0
    4.7193    3.2031   -0.0666 H   0  0  0  0  0  0  0  0  0  0  0  0
    6.5830    4.3073   -0.0847 H   0  0  0  0  0  0  0  0  0  0  0  0
    9.7200    2.8514   -0.1199 H   0  0  0  0  0  0  0  0  0  0  0  0
   11.9479    1.6756   -0.1434 H   0  0  0  0  0  0  0  0  0  0  0  0
   12.1609   -0.7700   -0.1415 H   0  0  0  0  0  0  0  0  0  0  0  0
   10.1622   -2.3154   -0.1162 H   0  0  0  0  0  0  0  0  0  0  0  0
    7.2824   -2.1155   -0.0853 H   0  0  0  0  0  0  0  0  0  0  0  0
    5.1069   -2.2588   -0.0712 H   0  0  0  0  0  0  0  0  0  0  0  0
    3.1359   -3.4855   -0.0600 H   0  0  0  0  0  0  0  0  0  0  0  0
    1.8100   -2.7249   -0.9447 H   0  0  0  0  0  0  0  0  0  0  0  0
    1.8210   -2.7269    0.8427 H   0  0  0  0  0  0  0  0  0  0  0  0
  1  2  1  0  0  0  0
  1 21  1  0  0  0  0
  1 22  1  0  0  0  0
  1 23  1  0  0  0  0
  2  3  1  0  0  0  0
  2 19  2  0  0  0  0
  3  4  2  0  0  0  0
  3 24  1  0  0  0  0
  4  5  1  0  0  0  0
  4 17  1  0  0  0  0
  5  6  1  0  0  0  0
  5 25  1  0  0  0  0
  6  7  2  0  0  0  0
  6  8  1  0  0  0  0
  7 26  1  0  0  0  0
  8  9  2  0  0  0  0
  8 16  1  0  0  0  0
  9 10  1  0  0  0  0
  9 14  1  0  0  0  0
 10 11  2  0  0  0  0
 10 27  1  0  0  0  0
 11 12  1  0  0  0  0
 11 28  1  0  0  0  0
 12 13  2  0  0  0  0
 12 29  1  0  0  0  0
 13 14  1  0  0  0  0
 13 30  1  0  0  0  0
 14 15  2  0  0  0  0
 15 16  1  0  0  0  0
 15 31  1  0  0  0  0
 16 17  1  0  0  0  0
 17 18  2  0  0  0  0
 18 19  1  0  0  0  0
 18 32  1  0  0  0  0
 19 20  1  0  0  0  0
 20 33  1  0  0  0  0
 20 34  1  0  0  0  0
 20 35  1  0  0  0  0
M  END
>  <Energy>
6.2288

$$$$

 OpenBabel04232616053D

 29 32  0  0  0  0  0  0  0  0999 V2000
    1.8895    0.1659    0.9746 N   0  0  0  0  0  0  0  0  0  0  0  0
    0.6629   -0.1091    0.5033 C   0  0  0  0  0  0  0  0  0  0  0  0
    0.1095   -1.2925    0.5903 N   0  0  0  0  0  0  0  0  0  0  0  0
   -1.1489   -1.2795    0.0070 C   0  0  0  0  0  0  0  0  0  0  0  0
   -1.9808   -2.4781   -0.0202 C   0  0  0  0  0  0  0  0  0  0  0  0
   -1.8427   -3.4344    1.0002 C   0  0  0  0  0  0  0  0  0  0  0  0
   -2.6106   -4.6071    1.0262 C   0  0  0  0  0  0  0  0  0  0  0  0
   -3.5099   -4.7833   -0.0203 C   0  0  0  0  0  0  0  0  0  0  0  0
   -4.3319   -5.8565   -0.1815 O   0  0  0  0  0  0  0  0  0  0  0  0
   -5.0379   -5.6486   -1.3277 C   0  0  0  0  0  0  0  0  0  0  0  0
   -5.9860   -6.5191   -1.8600 C   0  0  0  0  0  0  0  0  0  0  0  0
   -6.6031   -6.1207   -3.0509 C   0  0  0  0  0  0  0  0  0  0  0  0
   -6.2774   -4.9072   -3.6623 C   0  0  0  0  0  0  0  0  0  0  0  0
   -5.3174   -4.0519   -3.1034 C   0  0  0  0  0  0  0  0  0  0  0  0
   -4.6817   -4.4354   -1.9070 C   0  0  0  0  0  0  0  0  0  0  0  0
   -3.6845   -3.8746   -1.0574 C   0  0  0  0  0  0  0  0  0  0  0  0
   -2.9067   -2.6990   -1.0598 C   0  0  0  0  0  0  0  0  0  0  0  0
   -1.5323   -0.0562   -0.5077 C   0  0  0  0  0  0  0  0  0  0  0  0
   -0.2797    1.0912   -0.2809 S   0  0  0  0  0  0  0  0  0  0  0  0
    2.4784   -0.6377    1.1596 H   0  0  0  0  0  0  0  0  0  0  0  0
    2.3774    0.9664    0.5935 H   0  0  0  0  0  0  0  0  0  0  0  0
   -1.1214   -3.2661    1.8001 H   0  0  0  0  0  0  0  0  0  0  0  0
   -2.5067   -5.3431    1.8139 H   0  0  0  0  0  0  0  0  0  0  0  0
   -6.2267   -7.4564   -1.3731 H   0  0  0  0  0  0  0  0  0  0  0  0
   -7.3491   -6.7678   -3.5069 H   0  0  0  0  0  0  0  0  0  0  0  0
   -6.7741   -4.6216   -4.5873 H   0  0  0  0  0  0  0  0  0  0  0  0
   -5.0708   -3.1124   -3.5885 H   0  0  0  0  0  0  0  0  0  0  0  0
   -3.0189   -1.9929   -1.8764 H   0  0  0  0  0  0  0  0  0  0  0  0
   -2.4590    0.2256   -0.9849 H   0  0  0  0  0  0  0  0  0  0  0  0
  1  2  1  0  0  0  0
  1 20  1  0  0  0  0
  1 21  1  0  0  0  0
  2  3  2  0  0  0  0
  2 19  1  0  0  0  0
  3  4  1  0  0  0  0
  4  5  1  0  0  0  0
  4 18  2  0  0  0  0
  5  6  1  0  0  0  0
  5 17  2  0  0  0  0
  6  7  2  0  0  0  0
  6 22  1  0  0  0  0
  7  8  1  0  0  0  0
  7 23  1  0  0  0  0
  8  9  1  0  0  0  0
  8 16  2  0  0  0  0
  9 10  1  0  0  0  0
 10 11  1  0  0  0  0
 10 15  2  0  0  0  0
 11 12  2  0  0  0  0
 11 24  1  0  0  0  0
 12 13  1  0  0  0  0
 12 25  1  0  0  0  0
 13 14  2  0  0  0  0
 13 26  1  0  0  0  0
 14 15  1  0  0  0  0
 14 27  1  0  0  0  0
 15 16  1  0  0  0  0
 16 17  1  0  0  0  0
 17 28  1  0  0  0  0
 18 19  1  0  0  0  0
 18 29  1  0  0  0  0
M  END
>  <Energy>
-2.84935

$$$$

 OpenBabel04232616053D

 34 36  0  0  0  0  0  0  0  0999 V2000
    1.7991    1.3731    1.5005 C   0  0  0  0  0  0  0  0  0  0  0  0
    3.0976    0.7490    1.0645 C   0  0  0  0  0  0  0  0  0  0  0  0
    4.2440    1.4704    1.4192 C   0  0  0  0  0  0  0  0  0  0  0  0
    5.5085    1.0350    1.0421 C   0  0  0  0  0  0  0  0  0  0  0  0
    5.6834   -0.1519    0.3238 C   0  0  0  0  0  0  0  0  0  0  0  0
    7.0009   -0.5781    0.0743 N   0  0  0  0  0  0  0  0  0  0  0  0
    4.5596   -0.9575    0.0476 C   0  0  0  0  0  0  0  0  0  0  0  0
    4.7014   -2.3540   -0.5106 C   0  0  0  0  0  0  0  0  0  0  0  0
    3.2590   -0.4546    0.3308 C   0  0  0  0  0  0  0  0  0  0  0  0
    2.1591   -0.9923   -0.4064 N   0  0  0  0  0  0  0  0  0  0  0  0
    1.9958   -0.4940   -1.6865 C   0  0  0  0  0  0  0  0  0  0  0  0
    2.8221   -0.1449   -2.5120 O   0  0  0  0  0  0  0  0  0  0  0  0
    0.5685   -0.2881   -1.8824 C   0  0  0  0  0  0  0  0  0  0  0  0
   -0.0582    0.5081   -2.8230 C   0  0  0  0  0  0  0  0  0  0  0  0
   -1.3978    0.8256   -2.5929 C   0  0  0  0  0  0  0  0  0  0  0  0
   -2.0715    0.3322   -1.4573 C   0  0  0  0  0  0  0  0  0  0  0  0
   -1.4160   -0.4836   -0.5283 C   0  0  0  0  0  0  0  0  0  0  0  0
   -0.0840   -0.7687   -0.7659 C   0  0  0  0  0  0  0  0  0  0  0  0
    0.9327   -1.2503    0.1706 C   0  0  0  0  0  0  0  0  0  0  0  0
    0.6632   -1.6725    1.2783 O   0  0  0  0  0  0  0  0  0  0  0  0
    1.7445    2.4108    1.1543 H   0  0  0  0  0  0  0  0  0  0  0  0
    1.7373    1.3599    2.5950 H   0  0  0  0  0  0  0  0  0  0  0  0
    0.8969    0.8955    1.1317 H   0  0  0  0  0  0  0  0  0  0  0  0
    4.1506    2.4087    1.9624 H   0  0  0  0  0  0  0  0  0  0  0  0
    6.3675    1.6465    1.3067 H   0  0  0  0  0  0  0  0  0  0  0  0
    7.6605    0.1935    0.0285 H   0  0  0  0  0  0  0  0  0  0  0  0
    7.0776   -1.1644   -0.7509 H   0  0  0  0  0  0  0  0  0  0  0  0
    5.7399   -2.6841   -0.5853 H   0  0  0  0  0  0  0  0  0  0  0  0
    4.2557   -2.4303   -1.5094 H   0  0  0  0  0  0  0  0  0  0  0  0
    4.2081   -3.0627    0.1638 H   0  0  0  0  0  0  0  0  0  0  0  0
    0.4993    0.9419   -3.6463 H   0  0  0  0  0  0  0  0  0  0  0  0
   -1.9096    1.5075   -3.2690 H   0  0  0  0  0  0  0  0  0  0  0  0
   -3.1002    0.6377   -1.2730 H   0  0  0  0  0  0  0  0  0  0  0  0
   -1.8998   -0.7972    0.3915 H   0  0  0  0  0  0  0  0  0  0  0  0
  1  2  1  0  0  0  0
  1 21  1  0  0  0  0
  1 22  1  0  0  0  0
  1 23  1  0  0  0  0
  2  3  1  0  0  0  0
  2  9  2  0  0  0  0
  3  4  2  0  0  0  0
  3 24  1  0  0  0  0
  4  5  1  0  0  0  0
  4 25  1  0  0  0  0
  5  6  1  0  0  0  0
  5  7  2  0  0  0  0
  6 26  1  0  0  0  0
  6 27  1  0  0  0  0
  7  8  1  0  0  0  0
  7  9  1  0  0  0  0
  8 28  1  0  0  0  0
  8 29  1  0  0  0  0
  8 30  1  0  0  0  0
  9 10  1  0  0  0  0
 10 11  1  0  0  0  0
 10 19  1  0  0  0  0
 11 12  2  0  0  0  0
 11 13  1  0  0  0  0
 13 14  1  0  0  0  0
 13 18  2  0  0  0  0
 14 15  2  0  0  0  0
 14 31  1  0  0  0  0
 15 16  1  0  0  0  0
 15 32  1  0  0  0  0
 16 17  2  0  0  0  0
 16 33  1  0  0  0  0
 17 18  1  0  0  0  0
 17 34  1  0  0  0  0
 18 19  1  0  0  0  0
 19 20  2  0  0  0  0
M  END
>  <Energy>
75.9926

$$$$

 OpenBabel04232616053D

 37 39  0  0  1  0  0  0  0  0999 V2000
    1.0970   -0.5883   -0.4405 C   0  0  0  0  0  0  0  0  0  0  0  0
    2.4442    0.0296   -0.0531 C   0  0  0  0  0  0  0  0  0  0  0  0
    3.4290   -1.0715    0.3546 C   0  0  0  0  0  0  0  0  0  0  0  0
    2.9392    0.9316   -1.1735 C   0  0  0  0  0  0  0  0  0  0  0  0
    2.5521    2.2819   -1.1907 C   0  0  0  0  0  0  0  0  0  0  0  0
    2.9000    3.1175   -2.2577 C   0  0  0  0  0  0  0  0  0  0  0  0
    3.6449    2.6252   -3.3383 C   0  0  0  0  0  0  0  0  0  0  0  0
    3.9379    3.4678   -4.5598 C   0  0  3  0  0  0  0  0  0  0  0  0
    4.7297    4.6245   -4.2693 N   0  0  0  0  0  0  0  0  0  0  0  0
    4.9777    5.5383   -5.2659 C   0  0  0  0  0  0  0  0  0  0  0  0
    5.9305    6.3046   -5.2279 O   0  0  0  0  0  0  0  0  0  0  0  0
    4.0251    5.5320   -6.3938 C   0  0  0  0  0  0  0  0  0  0  0  0
    4.2071    6.3022   -7.5392 C   0  0  0  0  0  0  0  0  0  0  0  0
    3.2499    6.2255   -8.5470 C   0  0  0  0  0  0  0  0  0  0  0  0
    2.1672    5.3785   -8.3611 C   0  0  0  0  0  0  0  0  0  0  0  0
    1.9850    4.6083   -7.2623 N   0  0  0  0  0  0  0  0  0  0  0  0
    2.9152    4.6972   -6.2898 C   0  0  0  0  0  0  0  0  0  0  0  0
    2.7067    3.9366   -5.1412 N   0  0  0  0  0  0  0  0  0  0  0  0
    4.0621    1.2858   -3.3012 C   0  0  0  0  0  0  0  0  0  0  0  0
    3.7097    0.4505   -2.2380 C   0  0  0  0  0  0  0  0  0  0  0  0
    0.7042   -1.2085    0.3722 H   0  0  0  0  0  0  0  0  0  0  0  0
    1.1860   -1.2185   -1.3331 H   0  0  0  0  0  0  0  0  0  0  0  0
    0.3535    0.1873   -0.6561 H   0  0  0  0  0  0  0  0  0  0  0  0
    2.2891    0.6516    0.8385 H   0  0  0  0  0  0  0  0  0  0  0  0
    3.5818   -1.8064   -0.4431 H   0  0  0  0  0  0  0  0  0  0  0  0
    3.0515   -1.6178    1.2264 H   0  0  0  0  0  0  0  0  0  0  0  0
    4.4040   -0.6492    0.6194 H   0  0  0  0  0  0  0  0  0  0  0  0
    1.9438    2.6878   -0.3854 H   0  0  0  0  0  0  0  0  0  0  0  0
    2.5562    4.1512   -2.2620 H   0  0  0  0  0  0  0  0  0  0  0  0
    4.4967    2.8647   -5.2891 H   0  0  0  0  0  0  0  0  0  0  0  0
    5.4401    4.5630   -3.5536 H   0  0  0  0  0  0  0  0  0  0  0  0
    5.0740    6.9479   -7.6412 H   0  0  0  0  0  0  0  0  0  0  0  0
    3.3425    6.8151   -9.4526 H   0  0  0  0  0  0  0  0  0  0  0  0
    1.3862    5.2973   -9.1130 H   0  0  0  0  0  0  0  0  0  0  0  0
    1.9973    3.2358   -5.3251 H   0  0  0  0  0  0  0  0  0  0  0  0
    4.6439    0.8661   -4.1209 H   0  0  0  0  0  0  0  0  0  0  0  0
    4.0234   -0.5901   -2.2757 H   0  0  0  0  0  0  0  0  0  0  0  0
  1  2  1  0  0  0  0
  1 21  1  0  0  0  0
  1 22  1  0  0  0  0
  1 23  1  0  0  0  0
  2  3  1  0  0  0  0
  2  4  1  0  0  0  0
  2 24  1  0  0  0  0
  3 25  1  0  0  0  0
  3 26  1  0  0  0  0
  3 27  1  0  0  0  0
  4  5  1  0  0  0  0
  4 20  2  0  0  0  0
  5  6  2  0  0  0  0
  5 28  1  0  0  0  0
  6  7  1  0  0  0  0
  6 29  1  0  0  0  0
  7  8  1  0  0  0  0
  7 19  2  0  0  0  0
  8  9  1  0  0  0  0
  8 18  1  0  0  0  0
  8 30  1  0  0  0  0
  9 10  1  0  0  0  0
  9 31  1  0  0  0  0
 10 11  2  0  0  0  0
 10 12  1  0  0  0  0
 12 13  1  0  0  0  0
 12 17  2  0  0  0  0
 13 14  2  0  0  0  0
 13 32  1  0  0  0  0
 14 15  1  0  0  0  0
 14 33  1  0  0  0  0
 15 16  2  0  0  0  0
 15 34  1  0  0  0  0
 16 17  1  0  0  0  0
 17 18  1  0  0  0  0
 18 35  1  0  0  0  0
 19 20  1  0  0  0  0
 19 36  1  0  0  0  0
 20 37  1  0  0  0  0
M  END
>  <Energy>
-65.1606

$$$$

 OpenBabel04232616053D

 28 28  0  0  1  0  0  0  0  0999 V2000
    2.9631    0.4290    1.3545 C   0  0  0  0  0  0  0  0  0  0  0  0
    2.4097   -0.0536   -0.0099 C   0  0  1  0  0  0  0  0  0  0  0  0
    0.8900   -0.0935    0.1797 C   0  0  0  0  0  0  0  0  0  0  0  0
    0.0350    0.9277    0.0286 C   0  0  0  0  0  0  0  0  0  0  0  0
   -1.6531    0.7563    0.2724 Cl  0  0  0  0  0  0  0  0  0  0  0  0
    2.8853    0.9312   -1.1220 C   0  0  0  0  0  0  0  0  0  0  0  0
    2.6117    0.4956   -2.5911 C   0  0  1  0  0  0  0  0  0  0  0  0
    1.1402    0.6826   -2.9972 C   0  0  0  0  0  0  0  0  0  0  0  0
    3.5638    1.6356   -3.6438 Cl  0  0  0  0  0  0  0  0  0  0  0  0
    3.1235   -0.9499   -2.8188 C   0  0  2  0  0  0  0  0  0  0  0  0
    2.7340   -1.5951   -4.4521 Cl  0  0  0  0  0  0  0  0  0  0  0  0
    2.5828   -1.9299   -1.7702 C   0  0  0  0  0  0  0  0  0  0  0  0
    2.9254   -1.4964   -0.3386 C   0  0  1  0  0  0  0  0  0  0  0  0
    4.7044   -1.6758   -0.1020 Cl  0  0  0  0  0  0  0  0  0  0  0  0
    4.0485    0.5759    1.3355 H   0  0  0  0  0  0  0  0  0  0  0  0
    2.7379   -0.2899    2.1520 H   0  0  0  0  0  0  0  0  0  0  0  0
    2.5281    1.3930    1.6452 H   0  0  0  0  0  0  0  0  0  0  0  0
    0.4728   -1.0401    0.5278 H   0  0  0  0  0  0  0  0  0  0  0  0
    0.2976    1.9354   -0.2636 H   0  0  0  0  0  0  0  0  0  0  0  0
    3.9731    1.0539   -1.0060 H   0  0  0  0  0  0  0  0  0  0  0  0
    2.4749    1.9339   -0.9482 H   0  0  0  0  0  0  0  0  0  0  0  0
    0.7750    1.6770   -2.7181 H   0  0  0  0  0  0  0  0  0  0  0  0
    0.4849   -0.0633   -2.5404 H   0  0  0  0  0  0  0  0  0  0  0  0
    0.9986    0.5953   -4.0805 H   0  0  0  0  0  0  0  0  0  0  0  0
    4.2187   -0.9538   -2.7775 H   0  0  0  0  0  0  0  0  0  0  0  0
    2.9903   -2.9333   -1.9532 H   0  0  0  0  0  0  0  0  0  0  0  0
    1.4947   -2.0298   -1.8679 H   0  0  0  0  0  0  0  0  0  0  0  0
    2.4846   -2.2177    0.3598 H   0  0  0  0  0  0  0  0  0  0  0  0
  1 15  1  0  0  0  0
  1 16  1  0  0  0  0
  1 17  1  0  0  0  0
  2  6  1  0  0  0  0
  2 13  1  0  0  0  0
  2  3  1  1  0  0  0
  2  1  1  0  0  0  0
  3  4  2  0  0  0  0
  3 18  1  0  0  0  0
  4  5  1  0  0  0  0
  4 19  1  0  0  0  0
  6  7  1  0  0  0  0
  6 20  1  0  0  0  0
  6 21  1  0  0  0  0
  7  8  1  0  0  0  0
  7  9  1  6  0  0  0
  7 10  1  0  0  0  0
  8 22  1  0  0  0  0
  8 23  1  0  0  0  0
  8 24  1  0  0  0  0
 10 12  1  0  0  0  0
 10 11  1  0  0  0  0
 10 25  1  1  0  0  0
 12 13  1  0  0  0  0
 12 26  1  0  0  0  0
 12 27  1  0  0  0  0
 13 14  1  0  0  0  0
 13 28  1  1  0  0  0
M  END
>  <Energy>
45.3832

$$$$

 OpenBabel04232616053D

 35 38  0  0  0  0  0  0  0  0999 V2000
    1.7066   -0.4517   -0.1371 F   0  0  0  0  0  0  0  0  0  0  0  0
    3.0253   -0.2121   -0.1368 C   0  0  0  0  0  0  0  0  0  0  0  0
    3.9146   -1.2884   -0.1431 C   0  0  0  0  0  0  0  0  0  0  0  0
    5.2939   -1.0578   -0.1338 C   0  0  0  0  0  0  0  0  0  0  0  0
    5.7560    0.2550   -0.1160 C   0  0  0  0  0  0  0  0  0  0  0  0
    4.8524    1.3209   -0.1110 C   0  0  0  0  0  0  0  0  0  0  0  0
    3.4799    1.1025   -0.1240 C   0  0  0  0  0  0  0  0  0  0  0  0
    5.5386    2.6492   -0.0894 C   0  0  0  0  0  0  0  0  0  0  0  0
    7.0312    2.2878    0.0033 C   0  0  0  0  0  0  0  0  0  0  0  0
    7.1227    0.7783   -0.0539 C   0  0  0  0  0  0  0  0  0  0  0  0
    8.2322    0.0251   -0.0072 C   0  0  0  0  0  0  0  0  0  0  0  0
    9.5988    0.5447    0.1745 C   0  0  0  0  0  0  0  0  0  0  0  0
   10.3461    0.8632   -0.9578 C   0  0  0  0  0  0  0  0  0  0  0  0
   11.6553    1.2670   -0.7813 C   0  0  0  0  0  0  0  0  0  0  0  0
   12.2555    1.3704    0.4222 N   0  0  0  0  0  0  0  0  0  0  0  0
   11.5386    1.0685    1.5184 C   0  0  0  0  0  0  0  0  0  0  0  0
   12.1591    1.1553    2.7577 C   0  0  0  0  0  0  0  0  0  0  0  0
   11.4867    0.8559    3.9446 C   0  0  0  0  0  0  0  0  0  0  0  0
   10.1562    0.4654    3.9003 C   0  0  0  0  0  0  0  0  0  0  0  0
    9.5115    0.3654    2.6689 C   0  0  0  0  0  0  0  0  0  0  0  0
   10.1887    0.6562    1.4590 C   0  0  0  0  0  0  0  0  0  0  0  0
    3.5241   -2.3014   -0.1487 H   0  0  0  0  0  0  0  0  0  0  0  0
    5.9785   -1.8993   -0.1298 H   0  0  0  0  0  0  0  0  0  0  0  0
    2.7712    1.9225   -0.1167 H   0  0  0  0  0  0  0  0  0  0  0  0
    5.2236    3.2418    0.7754 H   0  0  0  0  0  0  0  0  0  0  0  0
    5.3257    3.2070   -1.0077 H   0  0  0  0  0  0  0  0  0  0  0  0
    7.4480    2.6676    0.9430 H   0  0  0  0  0  0  0  0  0  0  0  0
    7.5790    2.7502   -0.8255 H   0  0  0  0  0  0  0  0  0  0  0  0
    8.1808   -1.0598   -0.0453 H   0  0  0  0  0  0  0  0  0  0  0  0
    9.9310    0.7824   -1.9568 H   0  0  0  0  0  0  0  0  0  0  0  0
   12.2856    1.5142   -1.6306 H   0  0  0  0  0  0  0  0  0  0  0  0
   13.2025    1.4596    2.7999 H   0  0  0  0  0  0  0  0  0  0  0  0
   12.0061    0.9291    4.8964 H   0  0  0  0  0  0  0  0  0  0  0  0
    9.6208    0.2354    4.8175 H   0  0  0  0  0  0  0  0  0  0  0  0
    8.4678    0.0585    2.6563 H   0  0  0  0  0  0  0  0  0  0  0  0
  1  2  1  0  0  0  0
  2  3  1  0  0  0  0
  2  7  2  0  0  0  0
  3  4  2  0  0  0  0
  3 22  1  0  0  0  0
  4  5  1  0  0  0  0
  4 23  1  0  0  0  0
  5  6  2  0  0  0  0
  5 10  1  0  0  0  0
  6  7  1  0  0  0  0
  6  8  1  0  0  0  0
  7 24  1  0  0  0  0
  8  9  1  0  0  0  0
  8 25  1  0  0  0  0
  8 26  1  0  0  0  0
  9 10  1  0  0  0  0
  9 27  1  0  0  0  0
  9 28  1  0  0  0  0
 10 11  2  0  0  0  0
 11 12  1  0  0  0  0
 11 29  1  0  0  0  0
 12 13  1  0  0  0  0
 12 21  2  0  0  0  0
 13 14  2  0  0  0  0
 13 30  1  0  0  0  0
 14 15  1  0  0  0  0
 14 31  1  0  0  0  0
 15 16  2  0  0  0  0
 16 17  1  0  0  0  0
 16 21  1  0  0  0  0
 17 18  2  0  0  0  0
 17 32  1  0  0  0  0
 18 19  1  0  0  0  0
 18 33  1  0  0  0  0
 19 20  2  0  0  0  0
 19 34  1  0  0  0  0
 20 21  1  0  0  0  0
 20 35  1  0  0  0  0
M  END
>  <Energy>
63.2173

$$$$

 OpenBabel04232616053D

 30 32  0  0  0  0  0  0  0  0999 V2000
    1.1520    0.3632    0.3078 C   0  0  0  0  0  0  0  0  0  0  0  0
    2.5593    0.1349    0.2602 O   0  0  0  0  0  0  0  0  0  0  0  0
    3.2179    0.7411   -0.7879 C   0  0  0  0  0  0  0  0  0  0  0  0
    2.8810    2.0508   -1.1728 C   0  0  0  0  0  0  0  0  0  0  0  0
    3.5906    2.6978   -2.1758 C   0  0  0  0  0  0  0  0  0  0  0  0
    4.6337    2.0362   -2.8075 C   0  0  0  0  0  0  0  0  0  0  0  0
    4.9714    0.7216   -2.4434 C   0  0  0  0  0  0  0  0  0  0  0  0
    6.2230   -0.0016   -3.4062 Cl  0  0  0  0  0  0  0  0  0  0  0  0
    4.2924    0.0369   -1.4029 C   0  0  0  0  0  0  0  0  0  0  0  0
    4.6568   -1.3529   -0.9697 C   0  0  0  0  0  0  0  0  0  0  0  0
    3.6455   -2.3356   -0.7434 C   0  0  0  0  0  0  0  0  0  0  0  0
    3.9285   -3.6382   -0.2997 C   0  0  0  0  0  0  0  0  0  0  0  0
    5.2486   -3.9572   -0.1407 C   0  0  0  0  0  0  0  0  0  0  0  0
    5.8393   -5.1563    0.2404 N   0  0  0  0  0  0  0  0  0  0  0  0
    7.2339   -5.0030    0.2083 C   0  0  0  0  0  0  0  0  0  0  0  0
    8.0640   -5.8542    0.4568 O   0  0  0  0  0  0  0  0  0  0  0  0
    7.4795   -3.6756   -0.1745 N   0  0  0  0  0  0  0  0  0  0  0  0
    6.2607   -3.0350   -0.3787 C   0  0  0  0  0  0  0  0  0  0  0  0
    5.9996   -1.7346   -0.7585 C   0  0  0  0  0  0  0  0  0  0  0  0
    0.7113   -0.4063    0.9504 H   0  0  0  0  0  0  0  0  0  0  0  0
    0.6904    0.2744   -0.6821 H   0  0  0  0  0  0  0  0  0  0  0  0
    0.9311    1.3355    0.7578 H   0  0  0  0  0  0  0  0  0  0  0  0
    2.0813    2.5944   -0.6799 H   0  0  0  0  0  0  0  0  0  0  0  0
    3.3323    3.7139   -2.4622 H   0  0  0  0  0  0  0  0  0  0  0  0
    5.1845    2.5460   -3.5952 H   0  0  0  0  0  0  0  0  0  0  0  0
    2.5988   -2.0782   -0.9069 H   0  0  0  0  0  0  0  0  0  0  0  0
    3.1353   -4.3510   -0.1099 H   0  0  0  0  0  0  0  0  0  0  0  0
    5.3763   -6.0180    0.4817 H   0  0  0  0  0  0  0  0  0  0  0  0
    8.4001   -3.2902   -0.3040 H   0  0  0  0  0  0  0  0  0  0  0  0
    6.8195   -1.0376   -0.8869 H   0  0  0  0  0  0  0  0  0  0  0  0
  1  2  1  0  0  0  0
  1 20  1  0  0  0  0
  1 21  1  0  0  0  0
  1 22  1  0  0  0  0
  2  3  1  0  0  0  0
  3  4  1  0  0  0  0
  3  9  2  0  0  0  0
  4  5  2  0  0  0  0
  4 23  1  0  0  0  0
  5  6  1  0  0  0  0
  5 24  1  0  0  0  0
  6  7  2  0  0  0  0
  6 25  1  0  0  0  0
  7  8  1  0  0  0  0
  7  9  1  0  0  0  0
  9 10  1  0  0  0  0
 10 11  1  0  0  0  0
 10 19  2  0  0  0  0
 11 12  2  0  0  0  0
 11 26  1  0  0  0  0
 12 13  1  0  0  0  0
 12 27  1  0  0  0  0
 13 14  1  0  0  0  0
 13 18  2  0  0  0  0
 14 15  1  0  0  0  0
 14 28  1  0  0  0  0
 15 16  2  0  0  0  0
 15 17  1  0  0  0  0
 17 18  1  0  0  0  0
 17 29  1  0  0  0  0
 18 19  1  0  0  0  0
 19 30  1  0  0  0  0
M  END
>  <Energy>
13.3533

$$$$

 OpenBabel04232616053D

 32 35  0  0  0  0  0  0  0  0999 V2000
    2.3600    0.1632    2.4825 N   0  0  0  0  0  0  0  0  0  0  0  0
    3.0539    0.1440    1.3016 C   0  0  0  0  0  0  0  0  0  0  0  0
    3.3428   -1.0295    0.7804 N   0  0  0  0  0  0  0  0  0  0  0  0
    4.0495   -1.0721   -0.4098 C   0  0  0  0  0  0  0  0  0  0  0  0
    4.4523    0.0148   -1.0874 C   0  0  0  0  0  0  0  0  0  0  0  0
    4.1414    1.2528   -0.5632 N   0  0  0  0  0  0  0  0  0  0  0  0
    4.3954    2.5229   -0.9974 C   0  0  0  0  0  0  0  0  0  0  0  0
    3.8311    3.3562   -0.0463 C   0  0  0  0  0  0  0  0  0  0  0  0
    3.8796    4.8135   -0.0514 C   0  0  0  0  0  0  0  0  0  0  0  0
    4.4265    5.5264   -1.1258 C   0  0  0  0  0  0  0  0  0  0  0  0
    4.5115    6.9213   -1.0926 C   0  0  0  0  0  0  0  0  0  0  0  0
    4.0495    7.6406    0.0160 C   0  0  0  0  0  0  0  0  0  0  0  0
    4.1526    9.0398    0.0690 C   0  0  0  0  0  0  0  0  0  0  0  0
    3.6930    9.7458    1.1801 C   0  0  0  0  0  0  0  0  0  0  0  0
    3.1182    9.0620    2.2474 C   0  0  0  0  0  0  0  0  0  0  0  0
    3.0086    7.6701    2.2082 C   0  0  0  0  0  0  0  0  0  0  0  0
    3.4750    6.9414    1.1011 C   0  0  0  0  0  0  0  0  0  0  0  0
    3.3949    5.5355    1.0504 C   0  0  0  0  0  0  0  0  0  0  0  0
    3.2265    2.6111    0.9533 N   0  0  0  0  0  0  0  0  0  0  0  0
    3.4509    1.3589    0.6115 C   0  0  0  0  0  0  0  0  0  0  0  0
    1.8514   -0.6944    2.6560 H   0  0  0  0  0  0  0  0  0  0  0  0
    1.8399    1.0176    2.6464 H   0  0  0  0  0  0  0  0  0  0  0  0
    4.2756   -2.0671   -0.7848 H   0  0  0  0  0  0  0  0  0  0  0  0
    5.0051   -0.0255   -2.0155 H   0  0  0  0  0  0  0  0  0  0  0  0
    4.9489    2.7107   -1.9045 H   0  0  0  0  0  0  0  0  0  0  0  0
    4.8037    5.0153   -2.0064 H   0  0  0  0  0  0  0  0  0  0  0  0
    4.9508    7.4407   -1.9410 H   0  0  0  0  0  0  0  0  0  0  0  0
    4.6001    9.5899   -0.7559 H   0  0  0  0  0  0  0  0  0  0  0  0
    3.7849   10.8284    1.2115 H   0  0  0  0  0  0  0  0  0  0  0  0
    2.7582    9.6110    3.1135 H   0  0  0  0  0  0  0  0  0  0  0  0
    2.5596    7.1542    3.0541 H   0  0  0  0  0  0  0  0  0  0  0  0
    2.9622    4.9930    1.8900 H   0  0  0  0  0  0  0  0  0  0  0  0
  1  2  1  0  0  0  0
  1 21  1  0  0  0  0
  1 22  1  0  0  0  0
  2  3  2  0  0  0  0
  2 20  1  0  0  0  0
  3  4  1  0  0  0  0
  4  5  2  0  0  0  0
  4 23  1  0  0  0  0
  5  6  1  0  0  0  0
  5 24  1  0  0  0  0
  6  7  1  0  0  0  0
  6 20  1  0  0  0  0
  7  8  2  0  0  0  0
  7 25  1  0  0  0  0
  8  9  1  0  0  0  0
  8 19  1  0  0  0  0
  9 10  1  0  0  0  0
  9 18  2  0  0  0  0
 10 11  2  0  0  0  0
 10 26  1  0  0  0  0
 11 12  1  0  0  0  0
 11 27  1  0  0  0  0
 12 13  1  0  0  0  0
 12 17  2  0  0  0  0
 13 14  2  0  0  0  0
 13 28  1  0  0  0  0
 14 15  1  0  0  0  0
 14 29  1  0  0  0  0
 15 16  2  0  0  0  0
 15 30  1  0  0  0  0
 16 17  1  0  0  0  0
 16 31  1  0  0  0  0
 17 18  1  0  0  0  0
 18 32  1  0  0  0  0
 19 20  2  0  0  0  0
M  END
>  <Energy>
18.9936

$$$$

 OpenBabel04232616053D

 43 45  0  0  0  0  0  0  0  0999 V2000
   -2.4737   -0.0919    0.1403 C   0  0  0  0  0  0  0  0  0  0  0  0
   -0.9776   -0.0733    0.0816 C   0  0  0  0  0  0  0  0  0  0  0  0
   -0.2665   -1.2309   -0.1153 C   0  0  0  0  0  0  0  0  0  0  0  0
    1.1051   -1.1210   -0.2253 C   0  0  0  0  0  0  0  0  0  0  0  0
    1.8449   -2.2830   -0.4931 N   0  0  0  0  0  0  0  0  0  0  0  0
    3.1897   -2.0676   -1.0292 C   0  0  0  0  0  0  0  0  0  0  0  0
    3.6333   -3.3706   -1.7020 C   0  0  0  0  0  0  0  0  0  0  0  0
    3.5480   -4.5653   -0.7484 C   0  0  0  0  0  0  0  0  0  0  0  0
    2.1912   -4.6399   -0.0453 C   0  0  0  0  0  0  0  0  0  0  0  0
    1.8036   -3.2951    0.5708 C   0  0  0  0  0  0  0  0  0  0  0  0
    1.7103    0.0795   -0.1562 N   0  0  0  0  0  0  0  0  0  0  0  0
    0.9613    1.1733    0.0698 C   0  0  0  0  0  0  0  0  0  0  0  0
    1.6010    2.3929    0.2667 N   0  0  0  0  0  0  0  0  0  0  0  0
    2.8629    2.5809   -0.4423 C   0  0  0  0  0  0  0  0  0  0  0  0
    3.6756    3.6642    0.2714 C   0  0  0  0  0  0  0  0  0  0  0  0
    2.8740    4.9526    0.4496 C   0  0  0  0  0  0  0  0  0  0  0  0
    1.5206    4.6767    1.1002 C   0  0  0  0  0  0  0  0  0  0  0  0
    0.7511    3.5761    0.3656 C   0  0  0  0  0  0  0  0  0  0  0  0
   -0.3739    1.1233    0.1837 N   0  0  0  0  0  0  0  0  0  0  0  0
   -2.8624   -1.1115    0.2292 H   0  0  0  0  0  0  0  0  0  0  0  0
   -2.8844    0.3555   -0.7697 H   0  0  0  0  0  0  0  0  0  0  0  0
   -2.8231    0.4788    1.0065 H   0  0  0  0  0  0  0  0  0  0  0  0
   -0.7583   -2.1866   -0.2246 H   0  0  0  0  0  0  0  0  0  0  0  0
    3.8927   -1.7892   -0.2326 H   0  0  0  0  0  0  0  0  0  0  0  0
    3.1997   -1.2733   -1.7853 H   0  0  0  0  0  0  0  0  0  0  0  0
    4.6556   -3.2684   -2.0806 H   0  0  0  0  0  0  0  0  0  0  0  0
    2.9860   -3.5626   -2.5677 H   0  0  0  0  0  0  0  0  0  0  0  0
    4.3414   -4.4853    0.0039 H   0  0  0  0  0  0  0  0  0  0  0  0
    3.7244   -5.4934   -1.3042 H   0  0  0  0  0  0  0  0  0  0  0  0
    2.2147   -5.4153    0.7284 H   0  0  0  0  0  0  0  0  0  0  0  0
    1.4252   -4.9345   -0.7741 H   0  0  0  0  0  0  0  0  0  0  0  0
    2.5010   -3.0315    1.3774 H   0  0  0  0  0  0  0  0  0  0  0  0
    0.8103   -3.3955    1.0230 H   0  0  0  0  0  0  0  0  0  0  0  0
    2.6691    2.8813   -1.4805 H   0  0  0  0  0  0  0  0  0  0  0  0
    3.4771    1.6737   -0.4729 H   0  0  0  0  0  0  0  0  0  0  0  0
    4.5935    3.8727   -0.2894 H   0  0  0  0  0  0  0  0  0  0  0  0
    3.9786    3.2922    1.2585 H   0  0  0  0  0  0  0  0  0  0  0  0
    2.7210    5.4280   -0.5265 H   0  0  0  0  0  0  0  0  0  0  0  0
    3.4424    5.6580    1.0665 H   0  0  0  0  0  0  0  0  0  0  0  0
    0.9247    5.5958    1.1269 H   0  0  0  0  0  0  0  0  0  0  0  0
    1.6809    4.3674    2.1412 H   0  0  0  0  0  0  0  0  0  0  0  0
    0.4588    3.9208   -0.6349 H   0  0  0  0  0  0  0  0  0  0  0  0
   -0.1665    3.3891    0.9360 H   0  0  0  0  0  0  0  0  0  0  0  0
  1  2  1  0  0  0  0
  1 20  1  0  0  0  0
  1 21  1  0  0  0  0
  1 22  1  0  0  0  0
  2  3  1  0  0  0  0
  2 19  2  0  0  0  0
  3  4  2  0  0  0  0
  3 23  1  0  0  0  0
  4  5  1  0  0  0  0
  4 11  1  0  0  0  0
  5  6  1  0  0  0  0
  5 10  1  0  0  0  0
  6  7  1  0  0  0  0
  6 24  1  0  0  0  0
  6 25  1  0  0  0  0
  7  8  1  0  0  0  0
  7 26  1  0  0  0  0
  7 27  1  0  0  0  0
  8  9  1  0  0  0  0
  8 28  1  0  0  0  0
  8 29  1  0  0  0  0
  9 10  1  0  0  0  0
  9 30  1  0  0  0  0
  9 31  1  0  0  0  0
 10 32  1  0  0  0  0
 10 33  1  0  0  0  0
 11 12  2  0  0  0  0
 12 13  1  0  0  0  0
 12 19  1  0  0  0  0
 13 14  1  0  0  0  0
 13 18  1  0  0  0  0
 14 15  1  0  0  0  0
 14 34  1  0  0  0  0
 14 35  1  0  0  0  0
 15 16  1  0  0  0  0
 15 36  1  0  0  0  0
 15 37  1  0  0  0  0
 16 17  1  0  0  0  0
 16 38  1  0  0  0  0
 16 39  1  0  0  0  0
 17 18  1  0  0  0  0
 17 40  1  0  0  0  0
 17 41  1  0  0  0  0
 18 42  1  0  0  0  0
 18 43  1  0  0  0  0
M  END
>  <Energy>
-101.885

$$$$

 OpenBabel04232616053D

 35 38  0  0  0  0  0  0  0  0999 V2000
    2.9714   -2.0320   -1.0443 C   0  0  0  0  0  0  0  0  0  0  0  0
    3.4800   -0.9120   -0.3228 O   0  0  0  0  0  0  0  0  0  0  0  0
    4.3205   -0.1240   -1.0641 C   0  0  0  0  0  0  0  0  0  0  0  0
    5.3467   -0.6261   -1.8582 C   0  0  0  0  0  0  0  0  0  0  0  0
    6.1577    0.2431   -2.6059 C   0  0  0  0  0  0  0  0  0  0  0  0
    5.9230    1.6370   -2.5750 C   0  0  0  0  0  0  0  0  0  0  0  0
    6.4818    2.7905   -3.2487 C   0  0  0  0  0  0  0  0  0  0  0  0
    5.8202    3.9105   -2.7503 C   0  0  0  0  0  0  0  0  0  0  0  0
    4.8868    3.4599   -1.8436 N   0  0  0  0  0  0  0  0  0  0  0  0
    4.9183    2.0983   -1.7256 C   0  0  0  0  0  0  0  0  0  0  0  0
    4.1204    1.2516   -0.9463 C   0  0  0  0  0  0  0  0  0  0  0  0
    5.9095    5.3225   -3.0290 C   0  0  0  0  0  0  0  0  0  0  0  0
    5.0075    6.1103   -2.7477 O   0  0  0  0  0  0  0  0  0  0  0  0
    7.0601    5.8096   -3.5811 N   0  0  0  0  0  0  0  0  0  0  0  0
    8.3202    5.1149   -3.5456 C   0  0  0  0  0  0  0  0  0  0  0  0
    8.3429    3.9498   -4.4930 C   0  0  0  0  0  0  0  0  0  0  0  0
    9.2565    3.9677   -5.5657 C   0  0  0  0  0  0  0  0  0  0  0  0
    9.3237    2.9080   -6.4662 C   0  0  0  0  0  0  0  0  0  0  0  0
    8.4700    1.8235   -6.3144 C   0  0  0  0  0  0  0  0  0  0  0  0
    7.5477    1.8025   -5.2645 C   0  0  0  0  0  0  0  0  0  0  0  0
    7.4759    2.8499   -4.3299 C   0  0  0  0  0  0  0  0  0  0  0  0
    2.0483   -2.3536   -0.5528 H   0  0  0  0  0  0  0  0  0  0  0  0
    3.6813   -2.8638   -1.0086 H   0  0  0  0  0  0  0  0  0  0  0  0
    2.7237   -1.7775   -2.0813 H   0  0  0  0  0  0  0  0  0  0  0  0
    5.5423   -1.6931   -1.9050 H   0  0  0  0  0  0  0  0  0  0  0  0
    6.9591   -0.1722   -3.2095 H   0  0  0  0  0  0  0  0  0  0  0  0
    4.2453    4.0722   -1.3554 H   0  0  0  0  0  0  0  0  0  0  0  0
    3.3418    1.6430   -0.2998 H   0  0  0  0  0  0  0  0  0  0  0  0
    7.0634    6.8165   -3.6609 H   0  0  0  0  0  0  0  0  0  0  0  0
    8.5311    4.7822   -2.5221 H   0  0  0  0  0  0  0  0  0  0  0  0
    9.0890    5.8496   -3.8097 H   0  0  0  0  0  0  0  0  0  0  0  0
    9.9207    4.8177   -5.7089 H   0  0  0  0  0  0  0  0  0  0  0  0
   10.0322    2.9347   -7.2897 H   0  0  0  0  0  0  0  0  0  0  0  0
    8.5081    0.9972   -7.0195 H   0  0  0  0  0  0  0  0  0  0  0  0
    6.8650    0.9593   -5.2080 H   0  0  0  0  0  0  0  0  0  0  0  0
  1  2  1  0  0  0  0
  1 22  1  0  0  0  0
  1 23  1  0  0  0  0
  1 24  1  0  0  0  0
  2  3  1  0  0  0  0
  3  4  1  0  0  0  0
  3 11  2  0  0  0  0
  4  5  2  0  0  0  0
  4 25  1  0  0  0  0
  5  6  1  0  0  0  0
  5 26  1  0  0  0  0
  6  7  1  0  0  0  0
  6 10  2  0  0  0  0
  7  8  2  0  0  0  0
  7 21  1  0  0  0  0
  8  9  1  0  0  0  0
  8 12  1  0  0  0  0
  9 10  1  0  0  0  0
  9 27  1  0  0  0  0
 10 11  1  0  0  0  0
 11 28  1  0  0  0  0
 12 13  2  0  0  0  0
 12 14  1  0  0  0  0
 14 15  1  0  0  0  0
 14 29  1  0  0  0  0
 15 16  1  0  0  0  0
 15 30  1  0  0  0  0
 15 31  1  0  0  0  0
 16 17  1  0  0  0  0
 16 21  2  0  0  0  0
 17 18  2  0  0  0  0
 17 32  1  0  0  0  0
 18 19  1  0  0  0  0
 18 33  1  0  0  0  0
 19 20  2  0  0  0  0
 19 34  1  0  0  0  0
 20 21  1  0  0  0  0
 20 35  1  0  0  0  0
M  END
>  <Energy>
-0.715155

$$$$

 OpenBabel04232616053D

 30 32  0  0  0  0  0  0  0  0999 V2000
    2.4349    2.1529    1.7131 C   0  0  0  0  0  0  0  0  0  0  0  0
    3.2919    1.3887    0.8719 O   0  0  0  0  0  0  0  0  0  0  0  0
    3.3872    1.8655   -0.3905 C   0  0  0  0  0  0  0  0  0  0  0  0
    3.0741    3.1550   -0.8943 C   0  0  0  0  0  0  0  0  0  0  0  0
    3.4162    3.1659   -2.2266 C   0  0  0  0  0  0  0  0  0  0  0  0
    3.9189    1.9304   -2.5385 N   0  0  0  0  0  0  0  0  0  0  0  0
    3.9012    1.1102   -1.4289 C   0  0  0  0  0  0  0  0  0  0  0  0
    4.4595   -0.1804   -1.6000 C   0  0  0  0  0  0  0  0  0  0  0  0
    3.9874   -1.3418   -1.1212 C   0  0  0  0  0  0  0  0  0  0  0  0
    4.8124   -2.5800   -1.3997 C   0  0  0  0  0  0  0  0  0  0  0  0
    5.8224   -2.6670   -2.0700 O   0  0  0  0  0  0  0  0  0  0  0  0
    4.1668   -3.6060   -0.7341 N   0  0  0  0  0  0  0  0  0  0  0  0
    3.0140   -3.1517   -0.1043 C   0  0  0  0  0  0  0  0  0  0  0  0
    2.1346   -3.9236    0.6327 C   0  0  0  0  0  0  0  0  0  0  0  0
    1.0163   -3.2830    1.1621 C   0  0  0  0  0  0  0  0  0  0  0  0
    0.8044   -1.9195    0.9134 C   0  0  0  0  0  0  0  0  0  0  0  0
   -0.2861   -1.3309    1.4239 F   0  0  0  0  0  0  0  0  0  0  0  0
    1.6928   -1.1600    0.1511 C   0  0  0  0  0  0  0  0  0  0  0  0
    2.8299   -1.7774   -0.3314 C   0  0  0  0  0  0  0  0  0  0  0  0
    2.3040    1.6022    2.6492 H   0  0  0  0  0  0  0  0  0  0  0  0
    1.4431    2.2812    1.2638 H   0  0  0  0  0  0  0  0  0  0  0  0
    2.8819    3.1231    1.9504 H   0  0  0  0  0  0  0  0  0  0  0  0
    2.6744    4.0002   -0.3507 H   0  0  0  0  0  0  0  0  0  0  0  0
    3.3632    3.9470   -2.9730 H   0  0  0  0  0  0  0  0  0  0  0  0
    4.2644    1.6622   -3.4510 H   0  0  0  0  0  0  0  0  0  0  0  0
    5.3783   -0.2206   -2.1877 H   0  0  0  0  0  0  0  0  0  0  0  0
    4.5016   -4.5565   -0.7462 H   0  0  0  0  0  0  0  0  0  0  0  0
    2.3032   -4.9813    0.7981 H   0  0  0  0  0  0  0  0  0  0  0  0
    0.2959   -3.8323    1.7612 H   0  0  0  0  0  0  0  0  0  0  0  0
    1.4747   -0.1193   -0.0407 H   0  0  0  0  0  0  0  0  0  0  0  0
  1  2  1  0  0  0  0
  1 20  1  0  0  0  0
  1 21  1  0  0  0  0
  1 22  1  0  0  0  0
  2  3  1  0  0  0  0
  3  4  1  0  0  0  0
  3  7  2  0  0  0  0
  4  5  2  0  0  0  0
  4 23  1  0  0  0  0
  5  6  1  0  0  0  0
  5 24  1  0  0  0  0
  6  7  1  0  0  0  0
  6 25  1  0  0  0  0
  7  8  1  0  0  0  0
  8  9  2  0  0  0  0
  8 26  1  0  0  0  0
  9 10  1  0  0  0  0
  9 19  1  0  0  0  0
 10 11  2  0  0  0  0
 10 12  1  0  0  0  0
 12 13  1  0  0  0  0
 12 27  1  0  0  0  0
 13 14  1  0  0  0  0
 13 19  2  0  0  0  0
 14 15  2  0  0  0  0
 14 28  1  0  0  0  0
 15 16  1  0  0  0  0
 15 29  1  0  0  0  0
 16 17  1  0  0  0  0
 16 18  2  0  0  0  0
 18 19  1  0  0  0  0
 18 30  1  0  0  0  0
M  END
>  <Energy>
23.2394

$$$$

 OpenBabel04232616053D

 32 35  0  0  0  0  0  0  0  0999 V2000
    0.9096   -0.0828    0.1860 N   0  0  0  0  0  0  0  0  0  0  0  0
    2.3050   -0.0318    0.1109 C   0  0  0  0  0  0  0  0  0  0  0  0
    2.9029   -1.2379    0.0640 N   0  0  0  0  0  0  0  0  0  0  0  0
    4.2479   -1.2597   -0.0183 C   0  0  0  0  0  0  0  0  0  0  0  0
    5.0374   -0.1256   -0.0451 C   0  0  0  0  0  0  0  0  0  0  0  0
    4.4152    1.1232    0.0102 C   0  0  0  0  0  0  0  0  0  0  0  0
    5.1730    2.3030   -0.0250 C   0  0  0  0  0  0  0  0  0  0  0  0
    4.5481    3.5498   -0.0178 C   0  0  0  0  0  0  0  0  0  0  0  0
    3.1552    3.6407    0.0370 C   0  0  0  0  0  0  0  0  0  0  0  0
    2.5219    4.9588   -0.1196 C   0  0  0  0  0  0  0  0  0  0  0  0
    2.1854    5.4892   -1.4448 C   0  0  0  0  0  0  0  0  0  0  0  0
    1.7232    6.7409   -1.6196 C   0  0  0  0  0  0  0  0  0  0  0  0
    1.5373    7.5841   -0.4913 C   0  0  0  0  0  0  0  0  0  0  0  0
    1.1451    8.8372   -0.3979 N   0  0  0  0  0  0  0  0  0  0  0  0
    1.1579    9.1202    0.9432 C   0  0  0  0  0  0  0  0  0  0  0  0
    1.5549    8.0258    1.6780 C   0  0  0  0  0  0  0  0  0  0  0  0
    1.8191    7.0419    0.7588 N   0  0  0  0  0  0  0  0  0  0  0  0
    2.3092    5.7513    0.9539 C   0  0  0  0  0  0  0  0  0  0  0  0
    2.3918    2.4701    0.1138 C   0  0  0  0  0  0  0  0  0  0  0  0
    3.0064    1.1936    0.0874 C   0  0  0  0  0  0  0  0  0  0  0  0
    0.6658   -1.0710    0.1486 H   0  0  0  0  0  0  0  0  0  0  0  0
    0.4902    0.4267   -0.5822 H   0  0  0  0  0  0  0  0  0  0  0  0
    4.6925   -2.2497   -0.0684 H   0  0  0  0  0  0  0  0  0  0  0  0
    6.1158   -0.2218   -0.1166 H   0  0  0  0  0  0  0  0  0  0  0  0
    6.2587    2.2628   -0.0843 H   0  0  0  0  0  0  0  0  0  0  0  0
    5.1552    4.4502   -0.0867 H   0  0  0  0  0  0  0  0  0  0  0  0
    2.3316    4.8360   -2.3012 H   0  0  0  0  0  0  0  0  0  0  0  0
    1.4892    7.1301   -2.6034 H   0  0  0  0  0  0  0  0  0  0  0  0
    0.8800   10.1006    1.3090 H   0  0  0  0  0  0  0  0  0  0  0  0
    1.6802    7.8736    2.7394 H   0  0  0  0  0  0  0  0  0  0  0  0
    2.5305    5.4562    1.9710 H   0  0  0  0  0  0  0  0  0  0  0  0
    1.3072    2.5435    0.1678 H   0  0  0  0  0  0  0  0  0  0  0  0
  1  2  1  0  0  0  0
  1 21  1  0  0  0  0
  1 22  1  0  0  0  0
  2  3  1  0  0  0  0
  2 20  2  0  0  0  0
  3  4  2  0  0  0  0
  4  5  1  0  0  0  0
  4 23  1  0  0  0  0
  5  6  2  0  0  0  0
  5 24  1  0  0  0  0
  6  7  1  0  0  0  0
  6 20  1  0  0  0  0
  7  8  2  0  0  0  0
  7 25  1  0  0  0  0
  8  9  1  0  0  0  0
  8 26  1  0  0  0  0
  9 10  1  0  0  0  0
  9 19  2  0  0  0  0
 10 11  1  0  0  0  0
 10 18  2  0  0  0  0
 11 12  2  0  0  0  0
 11 27  1  0  0  0  0
 12 13  1  0  0  0  0
 12 28  1  0  0  0  0
 13 14  2  0  0  0  0
 13 17  1  0  0  0  0
 14 15  1  0  0  0  0
 15 16  2  0  0  0  0
 15 29  1  0  0  0  0
 16 17  1  0  0  0  0
 16 30  1  0  0  0  0
 17 18  1  0  0  0  0
 18 31  1  0  0  0  0
 19 20  1  0  0  0  0
 19 32  1  0  0  0  0
M  END
>  <Energy>
14.7978

$$$$

 OpenBabel04232616053D

 32 34  0  0  0  0  0  0  0  0999 V2000
    3.1058   -0.6562   -1.1157 C   0  0  0  0  0  0  0  0  0  0  0  0
    2.6480   -0.2231    0.2767 C   0  0  0  0  0  0  0  0  0  0  0  0
    1.1310   -0.0591    0.3403 C   0  0  0  0  0  0  0  0  0  0  0  0
    3.1223   -1.1356    1.3143 N   0  0  0  0  0  0  0  0  0  0  0  0
    3.8415   -0.7943    2.4279 C   0  0  0  0  0  0  0  0  0  0  0  0
    4.0313   -1.9567    3.1451 C   0  0  0  0  0  0  0  0  0  0  0  0
    4.7218   -2.0557    4.4220 C   0  0  0  0  0  0  0  0  0  0  0  0
    5.6851   -1.1141    4.8005 C   0  0  0  0  0  0  0  0  0  0  0  0
    6.3569   -1.2140    6.0271 C   0  0  0  0  0  0  0  0  0  0  0  0
    6.0761   -2.2874    6.8930 C   0  0  0  0  0  0  0  0  0  0  0  0
    6.6851   -2.5319    8.1114 N   0  0  0  0  0  0  0  0  0  0  0  0
    6.2040   -3.6272    8.6398 C   0  0  0  0  0  0  0  0  0  0  0  0
    6.6547   -4.1391    9.7973 N   0  0  0  0  0  0  0  0  0  0  0  0
    4.9743   -4.4123    7.7416 S   0  0  0  0  0  0  0  0  0  0  0  0
    5.1127   -3.2190    6.5096 C   0  0  0  0  0  0  0  0  0  0  0  0
    4.4219   -3.1208    5.2878 C   0  0  0  0  0  0  0  0  0  0  0  0
    3.3898   -2.9434    2.3601 C   0  0  0  0  0  0  0  0  0  0  0  0
    2.8350   -2.4501    1.2506 N   0  0  0  0  0  0  0  0  0  0  0  0
    2.8144    0.0866   -1.8659 H   0  0  0  0  0  0  0  0  0  0  0  0
    2.6663   -1.6168   -1.4066 H   0  0  0  0  0  0  0  0  0  0  0  0
    4.1955   -0.7640   -1.1528 H   0  0  0  0  0  0  0  0  0  0  0  0
    3.1061    0.7505    0.4930 H   0  0  0  0  0  0  0  0  0  0  0  0
    0.6138   -1.0013    0.1268 H   0  0  0  0  0  0  0  0  0  0  0  0
    0.7910    0.6855   -0.3873 H   0  0  0  0  0  0  0  0  0  0  0  0
    0.8155    0.2735    1.3357 H   0  0  0  0  0  0  0  0  0  0  0  0
    4.1244    0.2322    2.6150 H   0  0  0  0  0  0  0  0  0  0  0  0
    5.9468   -0.2881    4.1420 H   0  0  0  0  0  0  0  0  0  0  0  0
    7.1044   -0.4793    6.3106 H   0  0  0  0  0  0  0  0  0  0  0  0
    7.5565   -3.7868   10.0990 H   0  0  0  0  0  0  0  0  0  0  0  0
    6.5314   -5.1331    9.9466 H   0  0  0  0  0  0  0  0  0  0  0  0
    3.6720   -3.8637    5.0352 H   0  0  0  0  0  0  0  0  0  0  0  0
    3.3029   -4.0060    2.5497 H   0  0  0  0  0  0  0  0  0  0  0  0
  1  2  1  0  0  0  0
  1 19  1  0  0  0  0
  1 20  1  0  0  0  0
  1 21  1  0  0  0  0
  2  3  1  0  0  0  0
  2  4  1  0  0  0  0
  2 22  1  0  0  0  0
  3 23  1  0  0  0  0
  3 24  1  0  0  0  0
  3 25  1  0  0  0  0
  4  5  1  0  0  0  0
  4 18  1  0  0  0  0
  5  6  2  0  0  0  0
  5 26  1  0  0  0  0
  6  7  1  0  0  0  0
  6 17  1  0  0  0  0
  7  8  1  0  0  0  0
  7 16  2  0  0  0  0
  8  9  2  0  0  0  0
  8 27  1  0  0  0  0
  9 10  1  0  0  0  0
  9 28  1  0  0  0  0
 10 11  1  0  0  0  0
 10 15  2  0  0  0  0
 11 12  2  0  0  0  0
 12 13  1  0  0  0  0
 12 14  1  0  0  0  0
 13 29  1  0  0  0  0
 13 30  1  0  0  0  0
 14 15  1  0  0  0  0
 15 16  1  0  0  0  0
 16 31  1  0  0  0  0
 17 18  2  0  0  0  0
 17 32  1  0  0  0  0
M  END
>  <Energy>
-13.0439

$$$$

 OpenBabel04232616053D

 28 30  0  0  0  0  0  0  0  0999 V2000
    3.0802    1.4139   -0.0013 C   0  0  0  0  0  0  0  0  0  0  0  0
    2.5233    0.0062    0.0060 C   0  0  0  0  0  0  0  0  0  0  0  0
    1.4708   -0.2188   -0.5968 O   0  0  0  0  0  0  0  0  0  0  0  0
    3.2625   -1.0399    0.7113 C   0  0  0  0  0  0  0  0  0  0  0  0
    4.7256   -0.6992    1.5369 S   0  0  0  0  0  0  0  0  0  0  0  0
    4.9536   -2.3256    1.9666 C   0  0  0  0  0  0  0  0  0  0  0  0
    6.0639   -2.6998    2.6326 N   0  0  0  0  0  0  0  0  0  0  0  0
    6.1399   -4.0242    2.8932 C   0  0  0  0  0  0  0  0  0  0  0  0
    7.3955   -4.4326    3.5134 C   0  0  0  0  0  0  0  0  0  0  0  0
    8.5261   -3.7485    3.9201 C   0  0  0  0  0  0  0  0  0  0  0  0
    9.4417   -4.7184    4.3943 C   0  0  0  0  0  0  0  0  0  0  0  0
    8.8138   -5.9333    4.2591 C   0  0  0  0  0  0  0  0  0  0  0  0
    7.5735   -5.7723    3.7311 O   0  0  0  0  0  0  0  0  0  0  0  0
    5.1505   -4.9444    2.5639 C   0  0  0  0  0  0  0  0  0  0  0  0
    4.0129   -4.5094    1.8850 C   0  0  0  0  0  0  0  0  0  0  0  0
    3.9131   -3.1438    1.5477 C   0  0  0  0  0  0  0  0  0  0  0  0
    2.9416   -2.3834    0.8174 C   0  0  0  0  0  0  0  0  0  0  0  0
    1.8363   -2.9326    0.2665 N   0  0  0  0  0  0  0  0  0  0  0  0
    2.4359    2.0564   -0.6094 H   0  0  0  0  0  0  0  0  0  0  0  0
    4.0794    1.4274   -0.4452 H   0  0  0  0  0  0  0  0  0  0  0  0
    3.1021    1.8178    1.0142 H   0  0  0  0  0  0  0  0  0  0  0  0
    8.6668   -2.6783    3.8572 H   0  0  0  0  0  0  0  0  0  0  0  0
   10.4381   -4.5531    4.7785 H   0  0  0  0  0  0  0  0  0  0  0  0
    9.0998   -6.9532    4.4741 H   0  0  0  0  0  0  0  0  0  0  0  0
    5.2643   -5.9961    2.8078 H   0  0  0  0  0  0  0  0  0  0  0  0
    3.2379   -5.2144    1.6028 H   0  0  0  0  0  0  0  0  0  0  0  0
    1.6702   -3.9317    0.2188 H   0  0  0  0  0  0  0  0  0  0  0  0
    1.2215   -2.3776   -0.3352 H   0  0  0  0  0  0  0  0  0  0  0  0
  1  2  1  0  0  0  0
  1 19  1  0  0  0  0
  1 20  1  0  0  0  0
  1 21  1  0  0  0  0
  2  3  2  0  0  0  0
  2  4  1  0  0  0  0
  4  5  1  0  0  0  0
  4 17  2  0  0  0  0
  5  6  1  0  0  0  0
  6  7  1  0  0  0  0
  6 16  2  0  0  0  0
  7  8  2  0  0  0  0
  8  9  1  0  0  0  0
  8 14  1  0  0  0  0
  9 10  2  0  0  0  0
  9 13  1  0  0  0  0
 10 11  1  0  0  0  0
 10 22  1  0  0  0  0
 11 12  2  0  0  0  0
 11 23  1  0  0  0  0
 12 13  1  0  0  0  0
 12 24  1  0  0  0  0
 14 15  2  0  0  0  0
 14 25  1  0  0  0  0
 15 16  1  0  0  0  0
 15 26  1  0  0  0  0
 16 17  1  0  0  0  0
 17 18  1  0  0  0  0
 18 27  1  0  0  0  0
 18 28  1  0  0  0  0
M  END
>  <Energy>
46.3228

$$$$

 OpenBabel04232616053D

 33 36  0  0  0  0  0  0  0  0999 V2000
    1.4586   -0.8387   -0.1214 C   0  0  0  0  0  0  0  0  0  0  0  0
    2.5530    0.0485    0.0831 O   0  0  0  0  0  0  0  0  0  0  0  0
    3.1510    0.0175    1.3142 C   0  0  0  0  0  0  0  0  0  0  0  0
    2.7558   -0.7854    2.3855 C   0  0  0  0  0  0  0  0  0  0  0  0
    3.4447   -0.7326    3.6008 C   0  0  0  0  0  0  0  0  0  0  0  0
    4.5372    0.1222    3.7630 C   0  0  0  0  0  0  0  0  0  0  0  0
    5.2201    0.1625    4.9885 N   0  0  0  0  0  0  0  0  0  0  0  0
    6.2944    0.9886    5.1790 C   0  0  0  0  0  0  0  0  0  0  0  0
    6.9203    1.0228    6.3097 N   0  0  0  0  0  0  0  0  0  0  0  0
    6.7365    1.8349    4.0980 C   0  0  0  0  0  0  0  0  0  0  0  0
    7.7510    2.7558    3.9544 C   0  0  0  0  0  0  0  0  0  0  0  0
    8.6934    3.1378    4.9065 C   0  0  0  0  0  0  0  0  0  0  0  0
    9.5749    4.1114    4.3839 C   0  0  0  0  0  0  0  0  0  0  0  0
    9.4998    4.6310    3.0446 C   0  0  0  0  0  0  0  0  0  0  0  0
    8.5356    4.2308    2.0901 C   0  0  0  0  0  0  0  0  0  0  0  0
    7.6832    3.2753    2.6300 C   0  0  0  0  0  0  0  0  0  0  0  0
    6.6356    2.6713    1.9837 C   0  0  0  0  0  0  0  0  0  0  0  0
    6.0537    1.7899    2.8802 N   0  0  0  0  0  0  0  0  0  0  0  0
    4.9343    0.9323    2.6780 C   0  0  0  0  0  0  0  0  0  0  0  0
    4.2433    0.8808    1.4616 C   0  0  0  0  0  0  0  0  0  0  0  0
    1.1014   -0.7036   -1.1466 H   0  0  0  0  0  0  0  0  0  0  0  0
    0.6284   -0.6036    0.5535 H   0  0  0  0  0  0  0  0  0  0  0  0
    1.7715   -1.8829   -0.0130 H   0  0  0  0  0  0  0  0  0  0  0  0
    1.9134   -1.4653    2.3111 H   0  0  0  0  0  0  0  0  0  0  0  0
    3.1148   -1.3690    4.4176 H   0  0  0  0  0  0  0  0  0  0  0  0
    4.9005   -0.4314    5.7350 H   0  0  0  0  0  0  0  0  0  0  0  0
    6.4902    0.3717    6.9650 H   0  0  0  0  0  0  0  0  0  0  0  0
    8.7613    2.7554    5.9152 H   0  0  0  0  0  0  0  0  0  0  0  0
   10.3608    4.4921    5.0368 H   0  0  0  0  0  0  0  0  0  0  0  0
   10.2353    5.3809    2.7520 H   0  0  0  0  0  0  0  0  0  0  0  0
    8.4897    4.6285    1.0871 H   0  0  0  0  0  0  0  0  0  0  0  0
    6.2621    2.7930    0.9780 H   0  0  0  0  0  0  0  0  0  0  0  0
    4.5289    1.4952    0.6134 H   0  0  0  0  0  0  0  0  0  0  0  0
  1  2  1  0  0  0  0
  1 21  1  0  0  0  0
  1 22  1  0  0  0  0
  1 23  1  0  0  0  0
  2  3  1  0  0  0  0
  3  4  1  0  0  0  0
  3 20  2  0  0  0  0
  4  5  2  0  0  0  0
  4 24  1  0  0  0  0
  5  6  1  0  0  0  0
  5 25  1  0  0  0  0
  6  7  1  0  0  0  0
  6 19  2  0  0  0  0
  7  8  1  0  0  0  0
  7 26  1  0  0  0  0
  8  9  2  0  0  0  0
  8 10  1  0  0  0  0
  9 27  1  0  0  0  0
 10 11  2  0  0  0  0
 10 18  1  0  0  0  0
 11 12  1  0  0  0  0
 11 16  1  0  0  0  0
 12 13  2  0  0  0  0
 12 28  1  0  0  0  0
 13 14  1  0  0  0  0
 13 29  1  0  0  0  0
 14 15  2  0  0  0  0
 14 30  1  0  0  0  0
 15 16  1  0  0  0  0
 15 31  1  0  0  0  0
 16 17  2  0  0  0  0
 17 18  1  0  0  0  0
 17 32  1  0  0  0  0
 18 19  1  0  0  0  0
 19 20  1  0  0  0  0
 20 33  1  0  0  0  0
M  END
>  <Energy>
1.22085

$$$$

 OpenBabel04232616053D

 28 30  0  0  0  0  0  0  0  0999 V2000
    0.9064   -0.0217   -0.3199 O   0  0  0  0  0  0  0  0  0  0  0  0
    2.3566    0.0021   -0.3365 S   0  0  0  0  0  0  0  0  0  0  0  0
    3.0664   -0.0517   -1.5981 O   0  0  0  0  0  0  0  0  0  0  0  0
    2.8637    1.4290    0.4938 C   0  0  0  0  0  0  0  0  0  0  0  0
    3.6277    1.3868    1.5854 C   0  0  0  0  0  0  0  0  0  0  0  0
    4.0784    0.1363    2.1786 C   0  0  0  0  0  0  0  0  0  0  0  0
    4.9071    0.1687    3.3112 C   0  0  0  0  0  0  0  0  0  0  0  0
    5.3488   -1.0077    3.9495 C   0  0  0  0  0  0  0  0  0  0  0  0
    6.2213   -0.9489    5.1456 C   0  0  0  0  0  0  0  0  0  0  0  0
    6.1093    0.0938    6.0850 C   0  0  0  0  0  0  0  0  0  0  0  0
    6.9714    0.1857    7.1816 C   0  0  0  0  0  0  0  0  0  0  0  0
    7.9513   -0.7806    7.3791 C   0  0  0  0  0  0  0  0  0  0  0  0
    8.0631   -1.8416    6.4869 C   0  0  0  0  0  0  0  0  0  0  0  0
    7.2117   -1.9201    5.3808 C   0  0  0  0  0  0  0  0  0  0  0  0
    4.9373   -2.2304    3.3949 C   0  0  0  0  0  0  0  0  0  0  0  0
    4.1240   -2.2742    2.2599 C   0  0  0  0  0  0  0  0  0  0  0  0
    3.6928   -1.0934    1.6587 C   0  0  0  0  0  0  0  0  0  0  0  0
    2.8754   -1.2404    0.5763 O   0  0  0  0  0  0  0  0  0  0  0  0
    2.5336    2.3652    0.0656 H   0  0  0  0  0  0  0  0  0  0  0  0
    3.9268    2.3153    2.0632 H   0  0  0  0  0  0  0  0  0  0  0  0
    5.2250    1.1352    3.6991 H   0  0  0  0  0  0  0  0  0  0  0  0
    5.3403    0.8556    5.9780 H   0  0  0  0  0  0  0  0  0  0  0  0
    6.8747    1.0146    7.8779 H   0  0  0  0  0  0  0  0  0  0  0  0
    8.6262   -0.7077    8.2274 H   0  0  0  0  0  0  0  0  0  0  0  0
    8.8202   -2.6059    6.6415 H   0  0  0  0  0  0  0  0  0  0  0  0
    7.3502   -2.7491    4.6903 H   0  0  0  0  0  0  0  0  0  0  0  0
    5.2359   -3.1739    3.8472 H   0  0  0  0  0  0  0  0  0  0  0  0
    3.8232   -3.2362    1.8515 H   0  0  0  0  0  0  0  0  0  0  0  0
  1  2  2  0  0  0  0
  2  3  2  0  0  0  0
  2  4  1  0  0  0  0
  2 18  1  0  0  0  0
  4  5  2  0  0  0  0
  4 19  1  0  0  0  0
  5  6  1  0  0  0  0
  5 20  1  0  0  0  0
  6  7  1  0  0  0  0
  6 17  2  0  0  0  0
  7  8  2  0  0  0  0
  7 21  1  0  0  0  0
  8  9  1  0  0  0  0
  8 15  1  0  0  0  0
  9 10  1  0  0  0  0
  9 14  2  0  0  0  0
 10 11  2  0  0  0  0
 10 22  1  0  0  0  0
 11 12  1  0  0  0  0
 11 23  1  0  0  0  0
 12 13  2  0  0  0  0
 12 24  1  0  0  0  0
 13 14  1  0  0  0  0
 13 25  1  0  0  0  0
 14 26  1  0  0  0  0
 15 16  2  0  0  0  0
 15 27  1  0  0  0  0
 16 17  1  0  0  0  0
 16 28  1  0  0  0  0
 17 18  1  0  0  0  0
M  END
>  <Energy>
45.5276

$$$$

 OpenBabel04232616053D

 32 35  0  0  0  0  0  0  0  0999 V2000
    1.0319    0.0218    0.0711 C   0  0  0  0  0  0  0  0  0  0  0  0
    2.5366    0.0627    0.0714 C   0  0  0  0  0  0  0  0  0  0  0  0
    3.2682   -1.1379    0.0721 C   0  0  0  0  0  0  0  0  0  0  0  0
    4.6581   -1.1605    0.0716 C   0  0  0  0  0  0  0  0  0  0  0  0
    5.2992   -2.3530    0.0719 N   0  0  0  0  0  0  0  0  0  0  0  0
    6.6377   -2.2417    0.0697 C   0  0  0  0  0  0  0  0  0  0  0  0
    7.3303   -1.0429    0.0686 C   0  0  0  0  0  0  0  0  0  0  0  0
    6.7202    0.1525    0.0689 N   0  0  0  0  0  0  0  0  0  0  0  0
    5.3651    0.0877    0.0702 C   0  0  0  0  0  0  0  0  0  0  0  0
    4.6339    1.2696    0.0699 C   0  0  0  0  0  0  0  0  0  0  0  0
    3.2288    1.2831    0.0706 C   0  0  0  0  0  0  0  0  0  0  0  0
    2.4930    2.5963    0.0706 C   0  0  0  0  0  0  0  0  0  0  0  0
    8.7488   -1.2854    0.0675 C   0  0  0  0  0  0  0  0  0  0  0  0
    9.8254   -0.4163    0.0664 C   0  0  0  0  0  0  0  0  0  0  0  0
   11.1155   -0.9619    0.0662 C   0  0  0  0  0  0  0  0  0  0  0  0
   11.3154   -2.3569    0.0671 C   0  0  0  0  0  0  0  0  0  0  0  0
   10.2291   -3.2353    0.0681 C   0  0  0  0  0  0  0  0  0  0  0  0
    8.9650   -2.6744    0.0684 C   0  0  0  0  0  0  0  0  0  0  0  0
    7.6347   -3.3376    0.0710 C   0  0  0  0  0  0  0  0  0  0  0  0
    7.4465   -4.5373    0.0705 O   0  0  0  0  0  0  0  0  0  0  0  0
    0.6532   -1.0051    0.0712 H   0  0  0  0  0  0  0  0  0  0  0  0
    0.6396    0.5191   -0.8222 H   0  0  0  0  0  0  0  0  0  0  0  0
    0.6392    0.5196    0.9638 H   0  0  0  0  0  0  0  0  0  0  0  0
    2.7421   -2.0914    0.0726 H   0  0  0  0  0  0  0  0  0  0  0  0
    5.1826    2.2099    0.0690 H   0  0  0  0  0  0  0  0  0  0  0  0
    3.1808    3.4478    0.0703 H   0  0  0  0  0  0  0  0  0  0  0  0
    1.8650    2.6790    0.9638 H   0  0  0  0  0  0  0  0  0  0  0  0
    1.8644    2.6787   -0.8223 H   0  0  0  0  0  0  0  0  0  0  0  0
    9.6753    0.6596    0.0659 H   0  0  0  0  0  0  0  0  0  0  0  0
   11.9789   -0.2982    0.0655 H   0  0  0  0  0  0  0  0  0  0  0  0
   12.3305   -2.7513    0.0671 H   0  0  0  0  0  0  0  0  0  0  0  0
   10.3688   -4.3114    0.0689 H   0  0  0  0  0  0  0  0  0  0  0  0
  1  2  1  0  0  0  0
  1 21  1  0  0  0  0
  1 22  1  0  0  0  0
  1 23  1  0  0  0  0
  2  3  1  0  0  0  0
  2 11  2  0  0  0  0
  3  4  2  0  0  0  0
  3 24  1  0  0  0  0
  4  5  1  0  0  0  0
  4  9  1  0  0  0  0
  5  6  2  0  0  0  0
  6  7  1  0  0  0  0
  6 19  1  0  0  0  0
  7  8  2  0  0  0  0
  7 13  1  0  0  0  0
  8  9  1  0  0  0  0
  9 10  2  0  0  0  0
 10 11  1  0  0  0  0
 10 25  1  0  0  0  0
 11 12  1  0  0  0  0
 12 26  1  0  0  0  0
 12 27  1  0  0  0  0
 12 28  1  0  0  0  0
 13 14  1  0  0  0  0
 13 18  2  0  0  0  0
 14 15  2  0  0  0  0
 14 29  1  0  0  0  0
 15 16  1  0  0  0  0
 15 30  1  0  0  0  0
 16 17  2  0  0  0  0
 16 31  1  0  0  0  0
 17 18  1  0  0  0  0
 17 32  1  0  0  0  0
 18 19  1  0  0  0  0
 19 20  2  0  0  0  0
M  END
>  <Energy>
152.088

$$$$

 OpenBabel04232616053D

 29 31  0  0  0  0  0  0  0  0999 V2000
    0.9514   -0.3965   -0.0690 C   0  0  0  0  0  0  0  0  0  0  0  0
    2.4380   -0.3987    0.0106 C   0  0  0  0  0  0  0  0  0  0  0  0
    3.0839    0.8122    0.0274 N   0  0  0  0  0  0  0  0  0  0  0  0
    4.5214    0.9727    0.1312 N   0  0  0  0  0  0  0  0  0  0  0  0
    5.3606   -0.0807    0.2443 C   0  0  0  0  0  0  0  0  0  0  0  0
    7.0272    0.1363    0.3704 Cl  0  0  0  0  0  0  0  0  0  0  0  0
    4.7720   -1.3550    0.2356 C   0  0  0  0  0  0  0  0  0  0  0  0
    5.3005   -2.5824    0.3693 N   0  0  0  0  0  0  0  0  0  0  0  0
    4.2881   -3.4633    0.1644 N   0  0  0  0  0  0  0  0  0  0  0  0
    4.6215   -4.8451    0.0563 C   0  0  0  0  0  0  0  0  0  0  0  0
    5.7651   -5.3160    0.7226 C   0  0  0  0  0  0  0  0  0  0  0  0
    6.1270   -6.6612    0.6405 C   0  0  0  0  0  0  0  0  0  0  0  0
    5.3705   -7.5385   -0.1324 C   0  0  0  0  0  0  0  0  0  0  0  0
    4.2541   -7.0710   -0.8256 C   0  0  0  0  0  0  0  0  0  0  0  0
    3.8757   -5.7273   -0.7335 C   0  0  0  0  0  0  0  0  0  0  0  0
    3.0463   -2.8319    0.0956 C   0  0  0  0  0  0  0  0  0  0  0  0
    1.7365   -3.5363    0.1033 C   0  0  0  0  0  0  0  0  0  0  0  0
    3.3377   -1.4787    0.0970 C   0  0  0  0  0  0  0  0  0  0  0  0
    0.5694    0.6264   -0.1527 H   0  0  0  0  0  0  0  0  0  0  0  0
    0.5227   -0.8364    0.8361 H   0  0  0  0  0  0  0  0  0  0  0  0
    0.6130   -0.9583   -0.9435 H   0  0  0  0  0  0  0  0  0  0  0  0
    6.3713   -4.6475    1.3328 H   0  0  0  0  0  0  0  0  0  0  0  0
    7.0017   -7.0202    1.1771 H   0  0  0  0  0  0  0  0  0  0  0  0
    5.6606   -8.5838   -0.2053 H   0  0  0  0  0  0  0  0  0  0  0  0
    3.6863   -7.7544   -1.4529 H   0  0  0  0  0  0  0  0  0  0  0  0
    3.0351   -5.3913   -1.3329 H   0  0  0  0  0  0  0  0  0  0  0  0
    1.8069   -4.5838    0.4027 H   0  0  0  0  0  0  0  0  0  0  0  0
    1.2690   -3.4832   -0.8849 H   0  0  0  0  0  0  0  0  0  0  0  0
    1.0603   -3.0743    0.8294 H   0  0  0  0  0  0  0  0  0  0  0  0
  1  2  1  0  0  0  0
  1 19  1  0  0  0  0
  1 20  1  0  0  0  0
  1 21  1  0  0  0  0
  2  3  2  0  0  0  0
  2 18  1  0  0  0  0
  3  4  1  0  0  0  0
  4  5  2  0  0  0  0
  5  6  1  0  0  0  0
  5  7  1  0  0  0  0
  7  8  2  0  0  0  0
  7 18  1  0  0  0  0
  8  9  1  0  0  0  0
  9 10  1  0  0  0  0
  9 16  1  0  0  0  0
 10 11  1  0  0  0  0
 10 15  2  0  0  0  0
 11 12  2  0  0  0  0
 11 22  1  0  0  0  0
 12 13  1  0  0  0  0
 12 23  1  0  0  0  0
 13 14  2  0  0  0  0
 13 24  1  0  0  0  0
 14 15  1  0  0  0  0
 14 25  1  0  0  0  0
 15 26  1  0  0  0  0
 16 17  1  0  0  0  0
 16 18  2  0  0  0  0
 17 27  1  0  0  0  0
 17 28  1  0  0  0  0
 17 29  1  0  0  0  0
M  END
>  <Energy>
106.758

$$$$

 OpenBabel04232616053D

 24 26  0  0  0  0  0  0  0  0999 V2000
    1.0834    0.0243    0.1001 N   0  0  0  0  0  0  0  0  0  0  0  0
    2.4689    0.0491   -0.0841 C   0  0  0  0  0  0  0  0  0  0  0  0
    3.1574    1.2579   -0.0572 C   0  0  0  0  0  0  0  0  0  0  0  0
    4.5535    1.2740   -0.0933 C   0  0  0  0  0  0  0  0  0  0  0  0
    5.2862    0.0965   -0.1107 C   0  0  0  0  0  0  0  0  0  0  0  0
    6.6301    0.1524   -0.1280 N   0  0  0  0  0  0  0  0  0  0  0  0
    7.2975   -1.0138   -0.1189 C   0  0  0  0  0  0  0  0  0  0  0  0
    8.6869   -1.0056   -0.1209 C   0  0  0  0  0  0  0  0  0  0  0  0
    9.4186   -2.1938   -0.1119 C   0  0  0  0  0  0  0  0  0  0  0  0
    8.7407   -3.4055   -0.1026 C   0  0  0  0  0  0  0  0  0  0  0  0
    9.7128   -5.0258   -0.0952 Br  0  0  0  0  0  0  0  0  0  0  0  0
    7.3481   -3.4312   -0.0979 C   0  0  0  0  0  0  0  0  0  0  0  0
    6.6153   -2.2513   -0.1029 C   0  0  0  0  0  0  0  0  0  0  0  0
    5.2712   -2.3050   -0.0897 N   0  0  0  0  0  0  0  0  0  0  0  0
    4.6011   -1.1364   -0.0893 C   0  0  0  0  0  0  0  0  0  0  0  0
    3.2093   -1.1356   -0.0555 C   0  0  0  0  0  0  0  0  0  0  0  0
    0.6008    0.8575   -0.2224 H   0  0  0  0  0  0  0  0  0  0  0  0
    0.6330   -0.8289   -0.2171 H   0  0  0  0  0  0  0  0  0  0  0  0
    2.6184    2.2002   -0.0041 H   0  0  0  0  0  0  0  0  0  0  0  0
    5.0807    2.2248   -0.0879 H   0  0  0  0  0  0  0  0  0  0  0  0
    9.2084   -0.0514   -0.1270 H   0  0  0  0  0  0  0  0  0  0  0  0
   10.5049   -2.1576   -0.1120 H   0  0  0  0  0  0  0  0  0  0  0  0
    6.8137   -4.3777   -0.0881 H   0  0  0  0  0  0  0  0  0  0  0  0
    2.6978   -2.0932   -0.0025 H   0  0  0  0  0  0  0  0  0  0  0  0
  1  2  1  0  0  0  0
  1 17  1  0  0  0  0
  1 18  1  0  0  0  0
  2  3  1  0  0  0  0
  2 16  2  0  0  0  0
  3  4  2  0  0  0  0
  3 19  1  0  0  0  0
  4  5  1  0  0  0  0
  4 20  1  0  0  0  0
  5  6  1  0  0  0  0
  5 15  2  0  0  0  0
  6  7  2  0  0  0  0
  7  8  1  0  0  0  0
  7 13  1  0  0  0  0
  8  9  2  0  0  0  0
  8 21  1  0  0  0  0
  9 10  1  0  0  0  0
  9 22  1  0  0  0  0
 10 11  1  0  0  0  0
 10 12  2  0  0  0  0
 12 13  1  0  0  0  0
 12 23  1  0  0  0  0
 13 14  2  0  0  0  0
 14 15  1  0  0  0  0
 15 16  1  0  0  0  0
 16 24  1  0  0  0  0
M  END
>  <Energy>
72.0953

$$$$

 OpenBabel04232616053D

 32 34  0  0  0  0  0  0  0  0999 V2000
    0.9575    0.2266   -0.0230 C   0  0  0  0  0  0  0  0  0  0  0  0
    2.4587    0.1246   -0.0226 C   0  0  0  0  0  0  0  0  0  0  0  0
    3.1471   -1.0968   -0.0224 C   0  0  0  0  0  0  0  0  0  0  0  0
    2.5486   -2.3248   -0.0254 O   0  0  0  0  0  0  0  0  0  0  0  0
    4.5416   -1.1420   -0.0207 C   0  0  0  0  0  0  0  0  0  0  0  0
    5.2817    0.0358   -0.0179 C   0  0  0  0  0  0  0  0  0  0  0  0
    6.6441   -0.0481   -0.0176 O   0  0  0  0  0  0  0  0  0  0  0  0
    4.6314    1.2727   -0.0192 C   0  0  0  0  0  0  0  0  0  0  0  0
    5.3800    2.5504   -0.0170 C   0  0  0  0  0  0  0  0  0  0  0  0
    6.6006    2.6503   -0.0007 O   0  0  0  0  0  0  0  0  0  0  0  0
    4.5792    3.7770   -0.0311 C   0  0  0  0  0  0  0  0  0  0  0  0
    3.2467    3.6914   -0.0341 C   0  0  0  0  0  0  0  0  0  0  0  0
    2.4734    4.9392   -0.0372 C   0  0  0  0  0  0  0  0  0  0  0  0
    2.1115    5.5466   -1.2460 C   0  0  0  0  0  0  0  0  0  0  0  0
    1.5378    6.8207   -1.2519 C   0  0  0  0  0  0  0  0  0  0  0  0
    1.3248    7.4980   -0.0515 C   0  0  0  0  0  0  0  0  0  0  0  0
    1.6649    6.8931    1.1574 C   0  0  0  0  0  0  0  0  0  0  0  0
    2.2329    5.6167    1.1668 C   0  0  0  0  0  0  0  0  0  0  0  0
    2.5262    2.5133   -0.0288 O   0  0  0  0  0  0  0  0  0  0  0  0
    3.2261    1.3171   -0.0228 C   0  0  0  0  0  0  0  0  0  0  0  0
    0.4526   -0.7408   -0.0225 H   0  0  0  0  0  0  0  0  0  0  0  0
    0.6184    0.7607   -0.9168 H   0  0  0  0  0  0  0  0  0  0  0  0
    0.6176    0.7614    0.8701 H   0  0  0  0  0  0  0  0  0  0  0  0
    1.5840   -2.2433   -0.0289 H   0  0  0  0  0  0  0  0  0  0  0  0
    5.0339   -2.1109   -0.0224 H   0  0  0  0  0  0  0  0  0  0  0  0
    6.9272   -0.9749   -0.0132 H   0  0  0  0  0  0  0  0  0  0  0  0
    5.1206    4.7153   -0.0345 H   0  0  0  0  0  0  0  0  0  0  0  0
    2.3072    5.0482   -2.1929 H   0  0  0  0  0  0  0  0  0  0  0  0
    1.2797    7.2973   -2.1949 H   0  0  0  0  0  0  0  0  0  0  0  0
    0.9051    8.5007   -0.0588 H   0  0  0  0  0  0  0  0  0  0  0  0
    1.5097    7.4252    2.0930 H   0  0  0  0  0  0  0  0  0  0  0  0
    2.5195    5.1701    2.1156 H   0  0  0  0  0  0  0  0  0  0  0  0
  1  2  1  0  0  0  0
  1 21  1  0  0  0  0
  1 22  1  0  0  0  0
  1 23  1  0  0  0  0
  2  3  1  0  0  0  0
  2 20  2  0  0  0  0
  3  4  1  0  0  0  0
  3  5  2  0  0  0  0
  4 24  1  0  0  0  0
  5  6  1  0  0  0  0
  5 25  1  0  0  0  0
  6  7  1  0  0  0  0
  6  8  2  0  0  0  0
  7 26  1  0  0  0  0
  8  9  1  0  0  0  0
  8 20  1  0  0  0  0
  9 10  2  0  0  0  0
  9 11  1  0  0  0  0
 11 12  2  0  0  0  0
 11 27  1  0  0  0  0
 12 13  1  0  0  0  0
 12 19  1  0  0  0  0
 13 14  1  0  0  0  0
 13 18  2  0  0  0  0
 14 15  2  0  0  0  0
 14 28  1  0  0  0  0
 15 16  1  0  0  0  0
 15 29  1  0  0  0  0
 16 17  2  0  0  0  0
 16 30  1  0  0  0  0
 17 18  1  0  0  0  0
 17 31  1  0  0  0  0
 18 32  1  0  0  0  0
 19 20  1  0  0  0  0
M  END
>  <Energy>
52.4987

$$$$

 OpenBabel04232616053D

 31 34  0  0  0  0  0  0  0  0999 V2000
   -3.2306    0.6649   -0.1525 O   0  0  0  0  0  0  0  0  0  0  0  0
   -2.0916    0.2022   -0.0829 C   0  0  0  0  0  0  0  0  0  0  0  0
   -1.0025    1.0332   -0.0533 N   0  0  0  0  0  0  0  0  0  0  0  0
    0.3193    0.5757   -0.0162 C   0  0  0  0  0  0  0  0  0  0  0  0
    1.3719    1.4893   -0.0095 C   0  0  0  0  0  0  0  0  0  0  0  0
    2.6866    1.0218    0.0058 C   0  0  0  0  0  0  0  0  0  0  0  0
    2.9421   -0.3505    0.0146 C   0  0  0  0  0  0  0  0  0  0  0  0
    1.8839   -1.2624    0.0161 C   0  0  0  0  0  0  0  0  0  0  0  0
    0.5650   -0.8024    0.0031 C   0  0  0  0  0  0  0  0  0  0  0  0
   -0.5674   -1.7273    0.0113 C   0  0  0  0  0  0  0  0  0  0  0  0
   -1.8357   -1.2789   -0.0276 C   0  0  0  0  0  0  0  0  0  0  0  0
   -2.8995   -2.2281   -0.0101 C   0  0  0  0  0  0  0  0  0  0  0  0
   -2.8718   -3.5442    0.1254 N   0  0  0  0  0  0  0  0  0  0  0  0
   -4.1800   -3.9597    0.0686 C   0  0  0  0  0  0  0  0  0  0  0  0
   -4.7179   -5.2508    0.1683 C   0  0  0  0  0  0  0  0  0  0  0  0
   -6.1065   -5.4087    0.0697 C   0  0  0  0  0  0  0  0  0  0  0  0
   -6.9404   -4.3046   -0.1261 C   0  0  0  0  0  0  0  0  0  0  0  0
   -6.4211   -3.0084   -0.2233 C   0  0  0  0  0  0  0  0  0  0  0  0
   -5.0348   -2.8821   -0.1177 C   0  0  0  0  0  0  0  0  0  0  0  0
   -4.2003   -1.7968   -0.1553 N   0  0  0  0  0  0  0  0  0  0  0  0
   -1.1962    2.0249   -0.0831 H   0  0  0  0  0  0  0  0  0  0  0  0
    1.1855    2.5590   -0.0187 H   0  0  0  0  0  0  0  0  0  0  0  0
    3.5142    1.7271    0.0079 H   0  0  0  0  0  0  0  0  0  0  0  0
    3.9681   -0.7115    0.0213 H   0  0  0  0  0  0  0  0  0  0  0  0
    2.0996   -2.3286    0.0252 H   0  0  0  0  0  0  0  0  0  0  0  0
   -0.3517   -2.7917    0.0535 H   0  0  0  0  0  0  0  0  0  0  0  0
   -4.0646   -6.1025    0.3193 H   0  0  0  0  0  0  0  0  0  0  0  0
   -6.5379   -6.4040    0.1461 H   0  0  0  0  0  0  0  0  0  0  0  0
   -8.0157   -4.4543   -0.2029 H   0  0  0  0  0  0  0  0  0  0  0  0
   -7.0669   -2.1504   -0.3732 H   0  0  0  0  0  0  0  0  0  0  0  0
   -4.4771   -0.8273   -0.2631 H   0  0  0  0  0  0  0  0  0  0  0  0
  1  2  2  0  0  0  0
  2  3  1  0  0  0  0
  2 11  1  0  0  0  0
  3  4  1  0  0  0  0
  3 21  1  0  0  0  0
  4  5  1  0  0  0  0
  4  9  2  0  0  0  0
  5  6  2  0  0  0  0
  5 22  1  0  0  0  0
  6  7  1  0  0  0  0
  6 23  1  0  0  0  0
  7  8  2  0  0  0  0
  7 24  1  0  0  0  0
  8  9  1  0  0  0  0
  8 25  1  0  0  0  0
  9 10  1  0  0  0  0
 10 11  2  0  0  0  0
 10 26  1  0  0  0  0
 11 12  1  0  0  0  0
 12 13  2  0  0  0  0
 12 20  1  0  0  0  0
 13 14  1  0  0  0  0
 14 15  1  0  0  0  0
 14 19  2  0  0  0  0
 15 16  2  0  0  0  0
 15 27  1  0  0  0  0
 16 17  1  0  0  0  0
 16 28  1  0  0  0  0
 17 18  2  0  0  0  0
 17 29  1  0  0  0  0
 18 19  1  0  0  0  0
 18 30  1  0  0  0  0
 19 20  1  0  0  0  0
 20 31  1  0  0  0  0
M  END
>  <Energy>
17.7888

$$$$

 OpenBabel04232616053D

 32 34  0  0  0  0  0  0  0  0999 V2000
    1.8355   -1.3634    2.3855 N   0  0  0  0  0  0  0  0  0  0  0  0
    0.5026   -1.6362    2.0333 C   0  0  0  0  0  0  0  0  0  0  0  0
   -0.4860   -1.2292    2.9472 C   0  0  0  0  0  0  0  0  0  0  0  0
   -1.8465   -1.3041    2.6413 C   0  0  0  0  0  0  0  0  0  0  0  0
   -2.2510   -1.7566    1.3935 C   0  0  0  0  0  0  0  0  0  0  0  0
   -1.2919   -2.1301    0.4544 C   0  0  0  0  0  0  0  0  0  0  0  0
    0.0855   -2.0571    0.7519 C   0  0  0  0  0  0  0  0  0  0  0  0
    0.9962   -2.5338   -0.3309 C   0  0  0  0  0  0  0  0  0  0  0  0
    0.6059   -2.8539   -1.4485 O   0  0  0  0  0  0  0  0  0  0  0  0
    2.2935   -2.6364    0.1296 O   0  0  0  0  0  0  0  0  0  0  0  0
    3.0621   -3.8250   -0.0121 C   0  0  0  0  0  0  0  0  0  0  0  0
    2.7079   -4.8467   -0.8973 C   0  0  0  0  0  0  0  0  0  0  0  0
    3.4247   -6.0349   -0.8874 C   0  0  0  0  0  0  0  0  0  0  0  0
    4.4895   -6.1911   -0.0056 C   0  0  0  0  0  0  0  0  0  0  0  0
    4.8631   -5.1514    0.8611 C   0  0  0  0  0  0  0  0  0  0  0  0
    5.9411   -5.3017    1.7413 C   0  0  0  0  0  0  0  0  0  0  0  0
    6.3039   -4.2600    2.5833 C   0  0  0  0  0  0  0  0  0  0  0  0
    5.5577   -3.0989    2.5291 C   0  0  0  0  0  0  0  0  0  0  0  0
    4.4899   -2.9257    1.7155 N   0  0  0  0  0  0  0  0  0  0  0  0
    4.1497   -3.9320    0.8704 C   0  0  0  0  0  0  0  0  0  0  0  0
    2.0307   -1.4092    3.3792 H   0  0  0  0  0  0  0  0  0  0  0  0
    2.5471   -1.8866    1.8637 H   0  0  0  0  0  0  0  0  0  0  0  0
   -0.1930   -0.8370    3.9186 H   0  0  0  0  0  0  0  0  0  0  0  0
   -2.5847   -0.9898    3.3749 H   0  0  0  0  0  0  0  0  0  0  0  0
   -3.3084   -1.8093    1.1449 H   0  0  0  0  0  0  0  0  0  0  0  0
   -1.6250   -2.4796   -0.5220 H   0  0  0  0  0  0  0  0  0  0  0  0
    1.8790   -4.7476   -1.5897 H   0  0  0  0  0  0  0  0  0  0  0  0
    3.1416   -6.8440   -1.5581 H   0  0  0  0  0  0  0  0  0  0  0  0
    5.0323   -7.1329    0.0005 H   0  0  0  0  0  0  0  0  0  0  0  0
    6.5074   -6.2302    1.7689 H   0  0  0  0  0  0  0  0  0  0  0  0
    7.1461   -4.3525    3.2604 H   0  0  0  0  0  0  0  0  0  0  0  0
    5.8090   -2.2476    3.1571 H   0  0  0  0  0  0  0  0  0  0  0  0
  1  2  1  0  0  0  0
  1 21  1  0  0  0  0
  1 22  1  0  0  0  0
  2  3  1  0  0  0  0
  2  7  2  0  0  0  0
  3  4  2  0  0  0  0
  3 23  1  0  0  0  0
  4  5  1  0  0  0  0
  4 24  1  0  0  0  0
  5  6  2  0  0  0  0
  5 25  1  0  0  0  0
  6  7  1  0  0  0  0
  6 26  1  0  0  0  0
  7  8  1  0  0  0  0
  8  9  2  0  0  0  0
  8 10  1  0  0  0  0
 10 11  1  0  0  0  0
 11 12  1  0  0  0  0
 11 20  2  0  0  0  0
 12 13  2  0  0  0  0
 12 27  1  0  0  0  0
 13 14  1  0  0  0  0
 13 28  1  0  0  0  0
 14 15  2  0  0  0  0
 14 29  1  0  0  0  0
 15 16  1  0  0  0  0
 15 20  1  0  0  0  0
 16 17  2  0  0  0  0
 16 30  1  0  0  0  0
 17 18  1  0  0  0  0
 17 31  1  0  0  0  0
 18 19  2  0  0  0  0
 18 32  1  0  0  0  0
 19 20  1  0  0  0  0
M  END
>  <Energy>
112.248

$$$$

 OpenBabel04232616053D

 38 40  0  0  1  0  0  0  0  0999 V2000
    2.4988   -0.0180   -0.1202 C   0  0  0  0  0  0  0  0  0  0  0  0
    1.0349   -0.0065    0.3192 C   0  0  3  0  0  0  0  0  0  0  0  0
    0.3416    1.2784   -0.1537 C   0  0  0  0  0  0  0  0  0  0  0  0
   -1.1453    1.2878    0.2047 C   0  0  0  0  0  0  0  0  0  0  0  0
   -1.8808    0.0524   -0.3272 C   0  0  3  0  0  0  0  0  0  0  0  0
   -1.9728    0.0740   -1.7822 N   0  0  0  0  0  0  0  0  0  0  0  0
   -2.9927    0.7076   -2.4615 C   0  0  0  0  0  0  0  0  0  0  0  0
   -3.9175    1.2950   -1.9162 O   0  0  0  0  0  0  0  0  0  0  0  0
   -2.8929    0.6672   -3.9501 C   0  0  0  0  0  0  0  0  0  0  0  0
   -3.4965    1.6913   -4.6962 C   0  0  0  0  0  0  0  0  0  0  0  0
   -3.4157    1.7218   -6.0956 C   0  0  0  0  0  0  0  0  0  0  0  0
   -2.7119    0.6796   -6.7017 C   0  0  0  0  0  0  0  0  0  0  0  0
   -2.4268    0.3892   -8.0132 N   0  0  0  0  0  0  0  0  0  0  0  0
   -1.7035   -0.7697   -8.0411 C   0  0  0  0  0  0  0  0  0  0  0  0
   -1.5055   -1.2471   -6.8347 N   0  0  0  0  0  0  0  0  0  0  0  0
   -2.1230   -0.3599   -5.9909 C   0  0  0  0  0  0  0  0  0  0  0  0
   -2.2190   -0.3837   -4.5944 C   0  0  0  0  0  0  0  0  0  0  0  0
   -1.1855   -1.2332    0.1381 C   0  0  0  0  0  0  0  0  0  0  0  0
    0.3085   -1.2566   -0.1943 C   0  0  0  0  0  0  0  0  0  0  0  0
    3.0281    0.8590    0.2670 H   0  0  0  0  0  0  0  0  0  0  0  0
    2.5870   -0.0107   -1.2121 H   0  0  0  0  0  0  0  0  0  0  0  0
    3.0104   -0.9109    0.2542 H   0  0  0  0  0  0  0  0  0  0  0  0
    1.0124   -0.0243    1.4170 H   0  0  0  0  0  0  0  0  0  0  0  0
    0.4582    1.3912   -1.2388 H   0  0  0  0  0  0  0  0  0  0  0  0
    0.8258    2.1492    0.3048 H   0  0  0  0  0  0  0  0  0  0  0  0
   -1.6062    2.2058   -0.1781 H   0  0  0  0  0  0  0  0  0  0  0  0
   -1.2431    1.3155    1.2977 H   0  0  0  0  0  0  0  0  0  0  0  0
   -2.9043    0.0601    0.0669 H   0  0  0  0  0  0  0  0  0  0  0  0
   -1.1402   -0.1698   -2.2999 H   0  0  0  0  0  0  0  0  0  0  0  0
   -4.0362    2.4849   -4.1799 H   0  0  0  0  0  0  0  0  0  0  0  0
   -3.8781    2.5183   -6.6688 H   0  0  0  0  0  0  0  0  0  0  0  0
   -2.7031    0.9350   -8.8163 H   0  0  0  0  0  0  0  0  0  0  0  0
   -1.3525   -1.2138   -8.9634 H   0  0  0  0  0  0  0  0  0  0  0  0
   -1.7868   -1.2184   -4.0575 H   0  0  0  0  0  0  0  0  0  0  0  0
   -1.6687   -2.1083   -0.3134 H   0  0  0  0  0  0  0  0  0  0  0  0
   -1.3056   -1.3293    1.2244 H   0  0  0  0  0  0  0  0  0  0  0  0
    0.4431   -1.3487   -1.2792 H   0  0  0  0  0  0  0  0  0  0  0  0
    0.7582   -2.1536    0.2487 H   0  0  0  0  0  0  0  0  0  0  0  0
  1  2  1  0  0  0  0
  1 20  1  0  0  0  0
  1 21  1  0  0  0  0
  1 22  1  0  0  0  0
  2  3  1  0  0  0  0
  2 19  1  0  0  0  0
  2 23  1  0  0  0  0
  3  4  1  0  0  0  0
  3 24  1  0  0  0  0
  3 25  1  0  0  0  0
  4  5  1  0  0  0  0
  4 26  1  0  0  0  0
  4 27  1  0  0  0  0
  5  6  1  0  0  0  0
  5 18  1  0  0  0  0
  5 28  1  0  0  0  0
  6  7  1  0  0  0  0
  6 29  1  0  0  0  0
  7  8  2  0  0  0  0
  7  9  1  0  0  0  0
  9 10  1  0  0  0  0
  9 17  2  0  0  0  0
 10 11  2  0  0  0  0
 10 30  1  0  0  0  0
 11 12  1  0  0  0  0
 11 31  1  0  0  0  0
 12 13  1  0  0  0  0
 12 16  2  0  0  0  0
 13 14  1  0  0  0  0
 13 32  1  0  0  0  0
 14 15  2  0  0  0  0
 14 33  1  0  0  0  0
 15 16  1  0  0  0  0
 16 17  1  0  0  0  0
 17 34  1  0  0  0  0
 18 19  1  0  0  0  0
 18 35  1  0  0  0  0
 18 36  1  0  0  0  0
 19 37  1  0  0  0  0
 19 38  1  0  0  0  0
M  END
>  <Energy>
-2.24361

$$$$

 OpenBabel04232616053D

 31 34  0  0  0  0  0  0  0  0999 V2000
    1.3482   -0.2251    0.2932 O   0  0  0  0  0  0  0  0  0  0  0  0
    2.5492   -0.2916    0.0972 C   0  0  0  0  0  0  0  0  0  0  0  0
    3.4385    0.7664    0.0855 N   0  0  0  0  0  0  0  0  0  0  0  0
    4.7339    0.3434   -0.1699 C   0  0  0  0  0  0  0  0  0  0  0  0
    5.8124    1.1294   -0.0569 N   0  0  0  0  0  0  0  0  0  0  0  0
    6.9926    0.4687   -0.1462 C   0  0  0  0  0  0  0  0  0  0  0  0
    7.1199   -0.9068   -0.3536 C   0  0  0  0  0  0  0  0  0  0  0  0
    5.9702   -1.6778   -0.4968 C   0  0  0  0  0  0  0  0  0  0  0  0
    4.7535   -1.0253   -0.4044 C   0  0  0  0  0  0  0  0  0  0  0  0
    3.3759   -1.4998   -0.2308 C   0  0  0  0  0  0  0  0  0  0  0  0
    3.1058   -2.8095   -0.1423 C   0  0  0  0  0  0  0  0  0  0  0  0
    2.1339   -3.4671    0.6718 C   0  0  0  0  0  0  0  0  0  0  0  0
    1.5196   -2.9248    1.7783 C   0  0  0  0  0  0  0  0  0  0  0  0
    1.0147   -3.9557    2.5260 N   0  0  0  0  0  0  0  0  0  0  0  0
    1.4179   -5.1571    1.9927 C   0  0  0  0  0  0  0  0  0  0  0  0
    1.3895   -6.4444    2.5355 C   0  0  0  0  0  0  0  0  0  0  0  0
    1.8873   -7.4769    1.7435 C   0  0  0  0  0  0  0  0  0  0  0  0
    1.9628   -8.7120    2.2597 F   0  0  0  0  0  0  0  0  0  0  0  0
    2.3246   -7.2634    0.4428 C   0  0  0  0  0  0  0  0  0  0  0  0
    2.3658   -5.9671   -0.0791 C   0  0  0  0  0  0  0  0  0  0  0  0
    1.9611   -4.8853    0.7350 C   0  0  0  0  0  0  0  0  0  0  0  0
    3.2014    1.7157    0.3147 H   0  0  0  0  0  0  0  0  0  0  0  0
    7.8749    1.0888   -0.0112 H   0  0  0  0  0  0  0  0  0  0  0  0
    8.1000   -1.3732   -0.3622 H   0  0  0  0  0  0  0  0  0  0  0  0
    6.0392   -2.7557   -0.5942 H   0  0  0  0  0  0  0  0  0  0  0  0
    3.8584   -3.4946   -0.5278 H   0  0  0  0  0  0  0  0  0  0  0  0
    1.4748   -1.9156    2.1648 H   0  0  0  0  0  0  0  0  0  0  0  0
    0.5414   -3.8477    3.4113 H   0  0  0  0  0  0  0  0  0  0  0  0
    1.0579   -6.6341    3.5493 H   0  0  0  0  0  0  0  0  0  0  0  0
    2.6725   -8.1032   -0.1497 H   0  0  0  0  0  0  0  0  0  0  0  0
    2.7485   -5.7936   -1.0806 H   0  0  0  0  0  0  0  0  0  0  0  0
  1  2  2  0  0  0  0
  2  3  1  0  0  0  0
  2 10  1  0  0  0  0
  3  4  1  0  0  0  0
  3 22  1  0  0  0  0
  4  5  1  0  0  0  0
  4  9  2  0  0  0  0
  5  6  2  0  0  0  0
  6  7  1  0  0  0  0
  6 23  1  0  0  0  0
  7  8  2  0  0  0  0
  7 24  1  0  0  0  0
  8  9  1  0  0  0  0
  8 25  1  0  0  0  0
  9 10  1  0  0  0  0
 10 11  2  0  0  0  0
 11 12  1  0  0  0  0
 11 26  1  0  0  0  0
 12 13  2  0  0  0  0
 12 21  1  0  0  0  0
 13 14  1  0  0  0  0
 13 27  1  0  0  0  0
 14 15  1  0  0  0  0
 14 28  1  0  0  0  0
 15 16  1  0  0  0  0
 15 21  2  0  0  0  0
 16 17  2  0  0  0  0
 16 29  1  0  0  0  0
 17 18  1  0  0  0  0
 17 19  1  0  0  0  0
 19 20  2  0  0  0  0
 19 30  1  0  0  0  0
 20 21  1  0  0  0  0
 20 31  1  0  0  0  0
M  END
>  <Energy>
25.6352

$$$$

 OpenBabel04232616053D

 34 36  0  0  0  0  0  0  0  0999 V2000
    0.5513   -1.9432    3.6477 C   0  0  0  0  0  0  0  0  0  0  0  0
   -0.3135   -1.4777    2.5106 C   0  0  0  0  0  0  0  0  0  0  0  0
   -0.0963   -1.9697    1.2089 C   0  0  0  0  0  0  0  0  0  0  0  0
   -0.9291   -1.6025    0.1431 C   0  0  0  0  0  0  0  0  0  0  0  0
   -2.0309   -0.7909    0.3918 C   0  0  0  0  0  0  0  0  0  0  0  0
   -2.9672   -0.4443   -0.6035 N   0  0  0  0  0  0  0  0  0  0  0  0
   -2.6287    0.2254   -1.7625 C   0  0  0  0  0  0  0  0  0  0  0  0
   -1.5603    0.3580   -2.3226 O   0  0  0  0  0  0  0  0  0  0  0  0
   -3.8504    0.9365   -2.1795 C   0  0  0  0  0  0  0  0  0  0  0  0
   -4.0349    1.9456   -3.0997 C   0  0  0  0  0  0  0  0  0  0  0  0
   -5.2702    2.6178   -3.0801 C   0  0  0  0  0  0  0  0  0  0  0  0
   -6.3070    2.2533   -2.1891 C   0  0  0  0  0  0  0  0  0  0  0  0
   -7.4258    3.0791   -2.0351 N   0  0  0  0  0  0  0  0  0  0  0  0
   -6.0806    1.2376   -1.2643 C   0  0  0  0  0  0  0  0  0  0  0  0
   -4.8537    0.6045   -1.2941 C   0  0  0  0  0  0  0  0  0  0  0  0
   -4.3023   -0.3001   -0.3071 C   0  0  0  0  0  0  0  0  0  0  0  0
   -4.9695   -0.7515    0.6076 O   0  0  0  0  0  0  0  0  0  0  0  0
   -2.2159   -0.2628    1.6787 C   0  0  0  0  0  0  0  0  0  0  0  0
   -1.3449   -0.5529    2.7296 C   0  0  0  0  0  0  0  0  0  0  0  0
   -1.5870    0.1093    4.0564 C   0  0  0  0  0  0  0  0  0  0  0  0
    1.1875   -2.7829    3.3520 H   0  0  0  0  0  0  0  0  0  0  0  0
   -0.0775   -2.2922    4.4749 H   0  0  0  0  0  0  0  0  0  0  0  0
    1.1925   -1.1299    3.9994 H   0  0  0  0  0  0  0  0  0  0  0  0
    0.7224   -2.6623    1.0196 H   0  0  0  0  0  0  0  0  0  0  0  0
   -0.7429   -2.0043   -0.8487 H   0  0  0  0  0  0  0  0  0  0  0  0
   -3.2278    2.2692   -3.7509 H   0  0  0  0  0  0  0  0  0  0  0  0
   -5.4079    3.4778   -3.7358 H   0  0  0  0  0  0  0  0  0  0  0  0
   -7.6907    3.6050   -2.8612 H   0  0  0  0  0  0  0  0  0  0  0  0
   -8.2207    2.6337   -1.5844 H   0  0  0  0  0  0  0  0  0  0  0  0
   -6.8001    0.9944   -0.4882 H   0  0  0  0  0  0  0  0  0  0  0  0
   -3.0403    0.4238    1.8659 H   0  0  0  0  0  0  0  0  0  0  0  0
   -2.1957    1.0142    3.9360 H   0  0  0  0  0  0  0  0  0  0  0  0
   -0.6450    0.4312    4.5099 H   0  0  0  0  0  0  0  0  0  0  0  0
   -2.1124   -0.5705    4.7315 H   0  0  0  0  0  0  0  0  0  0  0  0
  1  2  1  0  0  0  0
  1 21  1  0  0  0  0
  1 22  1  0  0  0  0
  1 23  1  0  0  0  0
  2  3  1  0  0  0  0
  2 19  2  0  0  0  0
  3  4  2  0  0  0  0
  3 24  1  0  0  0  0
  4  5  1  0  0  0  0
  4 25  1  0  0  0  0
  5  6  1  0  0  0  0
  5 18  2  0  0  0  0
  6  7  1  0  0  0  0
  6 16  1  0  0  0  0
  7  8  2  0  0  0  0
  7  9  1  0  0  0  0
  9 10  1  0  0  0  0
  9 15  2  0  0  0  0
 10 11  2  0  0  0  0
 10 26  1  0  0  0  0
 11 12  1  0  0  0  0
 11 27  1  0  0  0  0
 12 13  1  0  0  0  0
 12 14  2  0  0  0  0
 13 28  1  0  0  0  0
 13 29  1  0  0  0  0
 14 15  1  0  0  0  0
 14 30  1  0  0  0  0
 15 16  1  0  0  0  0
 16 17  2  0  0  0  0
 18 19  1  0  0  0  0
 18 31  1  0  0  0  0
 19 20  1  0  0  0  0
 20 32  1  0  0  0  0
 20 33  1  0  0  0  0
 20 34  1  0  0  0  0
M  END
>  <Energy>
47.2104

$$$$

 OpenBabel04232616053D

 27 29  0  0  0  0  0  0  0  0999 V2000
    1.0568   -0.0555    0.0608 N   0  0  0  0  0  0  0  0  0  0  0  0
    2.3178   -0.0555    0.0608 C   0  0  0  0  0  0  0  0  0  0  0  0
    3.8378   -0.0555    0.0608 C   0  0  0  0  0  0  0  0  0  0  0  0
    4.5274   -1.2138    0.1558 C   0  0  0  0  0  0  0  0  0  0  0  0
    3.9380   -2.4456    0.3501 O   0  0  0  0  0  0  0  0  0  0  0  0
    5.9626   -1.2241    0.0792 C   0  0  0  0  0  0  0  0  0  0  0  0
    6.5675    0.0080    0.0149 C   0  0  0  0  0  0  0  0  0  0  0  0
    5.9299    1.2178   -0.0222 N   0  0  0  0  0  0  0  0  0  0  0  0
    4.5550    1.2532   -0.0436 C   0  0  0  0  0  0  0  0  0  0  0  0
    3.9478    2.3148   -0.1239 O   0  0  0  0  0  0  0  0  0  0  0  0
    8.2419   -0.0216   -0.0310 S   0  0  0  0  0  0  0  0  0  0  0  0
    8.2253   -1.7386   -0.0322 C   0  0  0  0  0  0  0  0  0  0  0  0
    6.9443   -2.2831    0.0244 C   0  0  0  0  0  0  0  0  0  0  0  0
    6.7720   -3.7418    0.0014 C   0  0  0  0  0  0  0  0  0  0  0  0
    7.6263   -4.5809    0.7356 C   0  0  0  0  0  0  0  0  0  0  0  0
    7.4461   -5.9684    0.7326 C   0  0  0  0  0  0  0  0  0  0  0  0
    6.3975   -6.5352    0.0133 C   0  0  0  0  0  0  0  0  0  0  0  0
    5.5546   -5.7200   -0.7354 C   0  0  0  0  0  0  0  0  0  0  0  0
    5.7614   -4.3377   -0.7639 C   0  0  0  0  0  0  0  0  0  0  0  0
    2.9695   -2.3847    0.4163 H   0  0  0  0  0  0  0  0  0  0  0  0
    6.4529    2.0790   -0.0801 H   0  0  0  0  0  0  0  0  0  0  0  0
    9.1698   -2.2634   -0.0888 H   0  0  0  0  0  0  0  0  0  0  0  0
    8.4381   -4.1684    1.3294 H   0  0  0  0  0  0  0  0  0  0  0  0
    8.1191   -6.6043    1.3017 H   0  0  0  0  0  0  0  0  0  0  0  0
    6.2387   -7.6103    0.0336 H   0  0  0  0  0  0  0  0  0  0  0  0
    4.7316   -6.1549   -1.2960 H   0  0  0  0  0  0  0  0  0  0  0  0
    5.1040   -3.7309   -1.3805 H   0  0  0  0  0  0  0  0  0  0  0  0
  1  2  3  0  0  0  0
  2  3  1  0  0  0  0
  3  4  2  0  0  0  0
  3  9  1  0  0  0  0
  4  5  1  0  0  0  0
  4  6  1  0  0  0  0
  5 20  1  0  0  0  0
  6  7  2  0  0  0  0
  6 13  1  0  0  0  0
  7  8  1  0  0  0  0
  7 11  1  0  0  0  0
  8  9  1  0  0  0  0
  8 21  1  0  0  0  0
  9 10  2  0  0  0  0
 11 12  1  0  0  0  0
 12 13  2  0  0  0  0
 12 22  1  0  0  0  0
 13 14  1  0  0  0  0
 14 15  1  0  0  0  0
 14 19  2  0  0  0  0
 15 16  2  0  0  0  0
 15 23  1  0  0  0  0
 16 17  1  0  0  0  0
 16 24  1  0  0  0  0
 17 18  2  0  0  0  0
 17 25  1  0  0  0  0
 18 19  1  0  0  0  0
 18 26  1  0  0  0  0
 19 27  1  0  0  0  0
M  END
>  <Energy>
162.553

$$$$

 OpenBabel04232616053D

 24 26  0  0  0  0  0  0  0  0999 V2000
    1.0419    0.1161    0.2529 N   0  0  0  0  0  0  0  0  0  0  0  0
    2.4291    0.1103    0.0610 C   0  0  0  0  0  0  0  0  0  0  0  0
    3.1311   -1.1149    0.0864 C   0  0  0  0  0  0  0  0  0  0  0  0
    4.5329   -1.1683    0.0510 C   0  0  0  0  0  0  0  0  0  0  0  0
    5.2302    0.0239    0.0304 C   0  0  0  0  0  0  0  0  0  0  0  0
    4.5229    1.2362    0.0458 C   0  0  0  0  0  0  0  0  0  0  0  0
    3.1429    1.3107    0.0823 C   0  0  0  0  0  0  0  0  0  0  0  0
    5.5152    2.3334    0.0460 C   0  0  0  0  0  0  0  0  0  0  0  0
    5.2852    3.5233    0.0518 O   0  0  0  0  0  0  0  0  0  0  0  0
    6.8486    1.6914    0.0350 C   0  0  0  0  0  0  0  0  0  0  0  0
    8.0994    2.2784    0.0421 C   0  0  0  0  0  0  0  0  0  0  0  0
    9.2024    1.4219    0.0419 C   0  0  0  0  0  0  0  0  0  0  0  0
    9.0207    0.0252    0.0363 C   0  0  0  0  0  0  0  0  0  0  0  0
   10.5397   -1.1046    0.0414 Br  0  0  0  0  0  0  0  0  0  0  0  0
    7.7436   -0.5494    0.0291 C   0  0  0  0  0  0  0  0  0  0  0  0
    6.6505    0.2998    0.0268 C   0  0  0  0  0  0  0  0  0  0  0  0
    0.5702   -0.7226   -0.0706 H   0  0  0  0  0  0  0  0  0  0  0  0
    0.5811    0.9649   -0.0621 H   0  0  0  0  0  0  0  0  0  0  0  0
    2.5763   -2.0496    0.1426 H   0  0  0  0  0  0  0  0  0  0  0  0
    5.0421   -2.1262    0.0627 H   0  0  0  0  0  0  0  0  0  0  0  0
    2.6479    2.2742    0.1334 H   0  0  0  0  0  0  0  0  0  0  0  0
    8.2126    3.3574    0.0504 H   0  0  0  0  0  0  0  0  0  0  0  0
   10.2050    1.8442    0.0483 H   0  0  0  0  0  0  0  0  0  0  0  0
    7.6162   -1.6268    0.0295 H   0  0  0  0  0  0  0  0  0  0  0  0
  1  2  1  0  0  0  0
  1 17  1  0  0  0  0
  1 18  1  0  0  0  0
  2  3  1  0  0  0  0
  2  7  2  0  0  0  0
  3  4  2  0  0  0  0
  3 19  1  0  0  0  0
  4  5  1  0  0  0  0
  4 20  1  0  0  0  0
  5  6  2  0  0  0  0
  5 16  1  0  0  0  0
  6  7  1  0  0  0  0
  6  8  1  0  0  0  0
  7 21  1  0  0  0  0
  8  9  2  0  0  0  0
  8 10  1  0  0  0  0
 10 11  1  0  0  0  0
 10 16  2  0  0  0  0
 11 12  2  0  0  0  0
 11 22  1  0  0  0  0
 12 13  1  0  0  0  0
 12 23  1  0  0  0  0
 13 14  1  0  0  0  0
 13 15  2  0  0  0  0
 15 16  1  0  0  0  0
 15 24  1  0  0  0  0
M  END
>  <Energy>
53.1965

$$$$

 OpenBabel04232616053D

 29 31  0  0  0  0  0  0  0  0999 V2000
   -2.0773   -0.7945    1.5988 C   0  0  0  0  0  0  0  0  0  0  0  0
   -0.9841   -0.1676    0.8061 C   0  0  0  0  0  0  0  0  0  0  0  0
   -0.4102    0.9477    1.1304 N   0  0  0  0  0  0  0  0  0  0  0  0
    0.5260    1.1966    0.1408 N   0  0  0  0  0  0  0  0  0  0  0  0
    1.3215    2.3285    0.1160 C   0  0  0  0  0  0  0  0  0  0  0  0
    2.2073    2.6651   -0.7945 N   0  0  0  0  0  0  0  0  0  0  0  0
    2.7827    3.8893   -0.4822 C   0  0  0  0  0  0  0  0  0  0  0  0
    3.7605    4.5220   -1.3625 C   0  0  0  0  0  0  0  0  0  0  0  0
    3.7585    4.2153   -2.7303 C   0  0  0  0  0  0  0  0  0  0  0  0
    4.6410    4.8542   -3.6056 C   0  0  0  0  0  0  0  0  0  0  0  0
    5.5449    5.7972   -3.1209 C   0  0  0  0  0  0  0  0  0  0  0  0
    5.5787    6.0906   -1.7597 C   0  0  0  0  0  0  0  0  0  0  0  0
    4.6942    5.4544   -0.8840 C   0  0  0  0  0  0  0  0  0  0  0  0
    2.3055    4.4682    0.6774 C   0  0  0  0  0  0  0  0  0  0  0  0
    1.1379    3.4516    1.4044 S   0  0  0  0  0  0  0  0  0  0  0  0
    0.5721    0.2265   -0.8671 C   0  0  0  0  0  0  0  0  0  0  0  0
    1.2411    0.1345   -1.8811 O   0  0  0  0  0  0  0  0  0  0  0  0
   -0.4537   -0.7883   -0.4446 C   0  0  0  0  0  0  0  0  0  0  0  0
   -2.3603   -0.1473    2.4335 H   0  0  0  0  0  0  0  0  0  0  0  0
   -1.7397   -1.7580    1.9878 H   0  0  0  0  0  0  0  0  0  0  0  0
   -2.9475   -0.9497    0.9559 H   0  0  0  0  0  0  0  0  0  0  0  0
    3.0562    3.4819   -3.1240 H   0  0  0  0  0  0  0  0  0  0  0  0
    4.6167    4.6163   -4.6658 H   0  0  0  0  0  0  0  0  0  0  0  0
    6.2260    6.2991   -3.8032 H   0  0  0  0  0  0  0  0  0  0  0  0
    6.2921    6.8164   -1.3777 H   0  0  0  0  0  0  0  0  0  0  0  0
    4.7533    5.6955    0.1739 H   0  0  0  0  0  0  0  0  0  0  0  0
    2.5562    5.4210    1.1193 H   0  0  0  0  0  0  0  0  0  0  0  0
    0.0165   -1.7485   -0.2243 H   0  0  0  0  0  0  0  0  0  0  0  0
   -1.2444   -0.8802   -1.1912 H   0  0  0  0  0  0  0  0  0  0  0  0
  1  2  1  0  0  0  0
  1 19  1  0  0  0  0
  1 20  1  0  0  0  0
  1 21  1  0  0  0  0
  2  3  2  0  0  0  0
  2 18  1  0  0  0  0
  3  4  1  0  0  0  0
  4  5  1  0  0  0  0
  4 16  1  0  0  0  0
  5  6  2  0  0  0  0
  5 15  1  0  0  0  0
  6  7  1  0  0  0  0
  7  8  1  0  0  0  0
  7 14  2  0  0  0  0
  8  9  1  0  0  0  0
  8 13  2  0  0  0  0
  9 10  2  0  0  0  0
  9 22  1  0  0  0  0
 10 11  1  0  0  0  0
 10 23  1  0  0  0  0
 11 12  2  0  0  0  0
 11 24  1  0  0  0  0
 12 13  1  0  0  0  0
 12 25  1  0  0  0  0
 13 26  1  0  0  0  0
 14 15  1  0  0  0  0
 14 27  1  0  0  0  0
 16 17  2  0  0  0  0
 16 18  1  0  0  0  0
 18 28  1  0  0  0  0
 18 29  1  0  0  0  0
M  END
>  <Energy>
52.66

$$$$

 OpenBabel04232616053D

 20 20  0  0  0  0  0  0  0  0999 V2000
    2.5947    1.2638    3.1041 O   0  0  0  0  0  0  0  0  0  0  0  0
    2.2986    1.0722    1.9360 C   0  0  0  0  0  0  0  0  0  0  0  0
    0.8613    0.7655    1.6121 C   0  0  0  0  0  0  0  0  0  0  0  0
   -0.0424    1.6861    1.6723 N   0  0  0  0  0  0  0  0  0  0  0  0
   -1.2835    1.1115    1.3662 O   0  0  0  0  0  0  0  0  0  0  0  0
    3.1254    1.0322    0.8329 N   0  0  0  0  0  0  0  0  0  0  0  0
    4.5420    1.0951    0.8274 C   0  0  0  0  0  0  0  0  0  0  0  0
    5.3043    1.1503    2.0001 C   0  0  0  0  0  0  0  0  0  0  0  0
    6.7052    1.1703    1.9470 C   0  0  0  0  0  0  0  0  0  0  0  0
    7.5656    1.2152    3.4460 Cl  0  0  0  0  0  0  0  0  0  0  0  0
    7.3603    1.1402    0.7127 C   0  0  0  0  0  0  0  0  0  0  0  0
    9.0819    1.1516    0.5755 Cl  0  0  0  0  0  0  0  0  0  0  0  0
    6.6149    1.0909   -0.4658 C   0  0  0  0  0  0  0  0  0  0  0  0
    5.2184    1.0660   -0.4064 C   0  0  0  0  0  0  0  0  0  0  0  0
    4.3438    0.9841   -1.8970 Cl  0  0  0  0  0  0  0  0  0  0  0  0
    0.6614   -0.2834    1.3389 H   0  0  0  0  0  0  0  0  0  0  0  0
   -1.9111    1.8173    1.6161 H   0  0  0  0  0  0  0  0  0  0  0  0
    2.6828    0.9549   -0.0816 H   0  0  0  0  0  0  0  0  0  0  0  0
    4.8356    1.1672    2.9797 H   0  0  0  0  0  0  0  0  0  0  0  0
    7.1213    1.0646   -1.4279 H   0  0  0  0  0  0  0  0  0  0  0  0
  1  2  2  0  0  0  0
  2  3  1  0  0  0  0
  2  6  1  0  0  0  0
  3  4  2  0  0  0  0
  3 16  1  0  0  0  0
  4  5  1  0  0  0  0
  5 17  1  0  0  0  0
  6  7  1  0  0  0  0
  6 18  1  0  0  0  0
  7  8  1  0  0  0  0
  7 14  2  0  0  0  0
  8  9  2  0  0  0  0
  8 19  1  0  0  0  0
  9 10  1  0  0  0  0
  9 11  1  0  0  0  0
 11 12  1  0  0  0  0
 11 13  2  0  0  0  0
 13 14  1  0  0  0  0
 13 20  1  0  0  0  0
 14 15  1  0  0  0  0
M  END
>  <Energy>
59.4183

$$$$

 OpenBabel04232616053D

 35 37  0  0  0  0  0  0  0  0999 V2000
    1.0593    0.1396    0.0697 C   0  0  0  0  0  0  0  0  0  0  0  0
    2.5632    0.0857    0.0448 C   0  0  0  0  0  0  0  0  0  0  0  0
    3.2445    1.1958    0.0286 N   0  0  0  0  0  0  0  0  0  0  0  0
    4.6482    1.1797    0.0216 N   0  0  0  0  0  0  0  0  0  0  0  0
    5.3118    2.4921    0.1064 C   0  0  0  0  0  0  0  0  0  0  0  0
    4.9309    3.2283    1.4010 C   0  0  0  0  0  0  0  0  0  0  0  0
    5.6504    4.5708    1.5098 C   0  0  0  0  0  0  0  0  0  0  0  0
    5.3951    5.4441    0.2848 C   0  0  0  0  0  0  0  0  0  0  0  0
    5.7533    4.7180   -1.0106 C   0  0  0  0  0  0  0  0  0  0  0  0
    5.0378    3.3707   -1.1242 C   0  0  0  0  0  0  0  0  0  0  0  0
    5.4415    0.0101    0.0252 C   0  0  0  0  0  0  0  0  0  0  0  0
    6.6705    0.0139    0.0295 O   0  0  0  0  0  0  0  0  0  0  0  0
    4.6734   -1.2241    0.0377 C   0  0  0  0  0  0  0  0  0  0  0  0
    5.1652   -2.5141    0.0526 C   0  0  0  0  0  0  0  0  0  0  0  0
    6.4493   -2.9141    0.0471 N   0  0  0  0  0  0  0  0  0  0  0  0
    3.8961   -3.6643    0.0840 S   0  0  0  0  0  0  0  0  0  0  0  0
    2.6968   -2.4451    0.0769 C   0  0  0  0  0  0  0  0  0  0  0  0
    3.2529   -1.1858    0.0511 C   0  0  0  0  0  0  0  0  0  0  0  0
    0.7094    1.1751    0.0748 H   0  0  0  0  0  0  0  0  0  0  0  0
    0.6904   -0.3626    0.9691 H   0  0  0  0  0  0  0  0  0  0  0  0
    0.6579   -0.3678   -0.8123 H   0  0  0  0  0  0  0  0  0  0  0  0
    6.3954    2.3236    0.1415 H   0  0  0  0  0  0  0  0  0  0  0  0
    5.1786    2.6076    2.2702 H   0  0  0  0  0  0  0  0  0  0  0  0
    3.8474    3.3998    1.4366 H   0  0  0  0  0  0  0  0  0  0  0  0
    6.7286    4.3991    1.6173 H   0  0  0  0  0  0  0  0  0  0  0  0
    5.3191    5.0951    2.4132 H   0  0  0  0  0  0  0  0  0  0  0  0
    5.9788    6.3687    0.3645 H   0  0  0  0  0  0  0  0  0  0  0  0
    4.3379    5.7351    0.2586 H   0  0  0  0  0  0  0  0  0  0  0  0
    6.8380    4.5594   -1.0468 H   0  0  0  0  0  0  0  0  0  0  0  0
    5.4961    5.3500   -1.8684 H   0  0  0  0  0  0  0  0  0  0  0  0
    5.3719    2.8574   -2.0338 H   0  0  0  0  0  0  0  0  0  0  0  0
    3.9604    3.5434   -1.2393 H   0  0  0  0  0  0  0  0  0  0  0  0
    7.2124   -2.2374    0.0621 H   0  0  0  0  0  0  0  0  0  0  0  0
    6.7117   -3.8921    0.0946 H   0  0  0  0  0  0  0  0  0  0  0  0
    1.6527   -2.7246    0.0952 H   0  0  0  0  0  0  0  0  0  0  0  0
  1  2  1  0  0  0  0
  1 19  1  0  0  0  0
  1 20  1  0  0  0  0
  1 21  1  0  0  0  0
  2  3  2  0  0  0  0
  2 18  1  0  0  0  0
  3  4  1  0  0  0  0
  4  5  1  0  0  0  0
  4 11  1  0  0  0  0
  5  6  1  0  0  0  0
  5 10  1  0  0  0  0
  5 22  1  0  0  0  0
  6  7  1  0  0  0  0
  6 23  1  0  0  0  0
  6 24  1  0  0  0  0
  7  8  1  0  0  0  0
  7 25  1  0  0  0  0
  7 26  1  0  0  0  0
  8  9  1  0  0  0  0
  8 27  1  0  0  0  0
  8 28  1  0  0  0  0
  9 10  1  0  0  0  0
  9 29  1  0  0  0  0
  9 30  1  0  0  0  0
 10 31  1  0  0  0  0
 10 32  1  0  0  0  0
 11 12  2  0  0  0  0
 11 13  1  0  0  0  0
 13 14  2  0  0  0  0
 13 18  1  0  0  0  0
 14 15  1  0  0  0  0
 14 16  1  0  0  0  0
 15 33  1  0  0  0  0
 15 34  1  0  0  0  0
 16 17  1  0  0  0  0
 17 18  2  0  0  0  0
 17 35  1  0  0  0  0
M  END
>  <Energy>
60.4512

$$$$

 OpenBabel04232616053D

 30 32  0  0  0  0  0  0  0  0999 V2000
    1.1444   -0.4252    0.2195 C   0  0  0  0  0  0  0  0  0  0  0  0
    2.6223   -0.0681    0.1395 C   0  0  0  0  0  0  0  0  0  0  0  0
    3.0406    0.7376    1.2832 N   0  0  0  0  0  0  0  0  0  0  0  0
    3.5461    0.1114    2.4213 C   0  0  0  0  0  0  0  0  0  0  0  0
    3.8731    0.8020    3.5281 C   0  0  0  0  0  0  0  0  0  0  0  0
    3.6907    2.2198    3.5800 C   0  0  0  0  0  0  0  0  0  0  0  0
    3.1933    2.8300    2.4482 C   0  0  0  0  0  0  0  0  0  0  0  0
    3.0116    4.5029    2.6423 S   0  0  0  0  0  0  0  0  0  0  0  0
    3.5703    4.4243    4.2522 C   0  0  0  0  0  0  0  0  0  0  0  0
    3.6271    5.5536    4.9870 N   0  0  0  0  0  0  0  0  0  0  0  0
    4.0722    5.3711    6.2388 C   0  0  0  0  0  0  0  0  0  0  0  0
    4.4630    4.1607    6.7814 C   0  0  0  0  0  0  0  0  0  0  0  0
    4.3987    3.0060    5.9943 C   0  0  0  0  0  0  0  0  0  0  0  0
    4.7609    1.7562    6.4317 O   0  0  0  0  0  0  0  0  0  0  0  0
    5.2549    1.6506    7.7633 C   0  0  0  0  0  0  0  0  0  0  0  0
    3.9224    3.1372    4.6614 C   0  0  0  0  0  0  0  0  0  0  0  0
    2.8342    2.1369    1.2227 C   0  0  0  0  0  0  0  0  0  0  0  0
    2.3789    2.6900    0.2235 O   0  0  0  0  0  0  0  0  0  0  0  0
    0.8376   -0.9866   -0.6680 H   0  0  0  0  0  0  0  0  0  0  0  0
    0.5222    0.4735    0.2873 H   0  0  0  0  0  0  0  0  0  0  0  0
    0.9380   -1.0388    1.1025 H   0  0  0  0  0  0  0  0  0  0  0  0
    2.8079    0.4943   -0.7829 H   0  0  0  0  0  0  0  0  0  0  0  0
    3.2319   -0.9777    0.0875 H   0  0  0  0  0  0  0  0  0  0  0  0
    3.6638   -0.9683    2.3784 H   0  0  0  0  0  0  0  0  0  0  0  0
    4.2658    0.2781    4.3944 H   0  0  0  0  0  0  0  0  0  0  0  0
    4.1111    6.2778    6.8389 H   0  0  0  0  0  0  0  0  0  0  0  0
    4.8053    4.1507    7.8086 H   0  0  0  0  0  0  0  0  0  0  0  0
    5.5147    0.6036    7.9447 H   0  0  0  0  0  0  0  0  0  0  0  0
    4.4869    1.9335    8.4912 H   0  0  0  0  0  0  0  0  0  0  0  0
    6.1645    2.2461    7.8968 H   0  0  0  0  0  0  0  0  0  0  0  0
  1  2  1  0  0  0  0
  1 19  1  0  0  0  0
  1 20  1  0  0  0  0
  1 21  1  0  0  0  0
  2  3  1  0  0  0  0
  2 22  1  0  0  0  0
  2 23  1  0  0  0  0
  3  4  1  0  0  0  0
  3 17  1  0  0  0  0
  4  5  2  0  0  0  0
  4 24  1  0  0  0  0
  5  6  1  0  0  0  0
  5 25  1  0  0  0  0
  6  7  2  0  0  0  0
  6 16  1  0  0  0  0
  7  8  1  0  0  0  0
  7 17  1  0  0  0  0
  8  9  1  0  0  0  0
  9 10  1  0  0  0  0
  9 16  2  0  0  0  0
 10 11  2  0  0  0  0
 11 12  1  0  0  0  0
 11 26  1  0  0  0  0
 12 13  2  0  0  0  0
 12 27  1  0  0  0  0
 13 14  1  0  0  0  0
 13 16  1  0  0  0  0
 14 15  1  0  0  0  0
 15 28  1  0  0  0  0
 15 29  1  0  0  0  0
 15 30  1  0  0  0  0
 17 18  2  0  0  0  0
M  END
>  <Energy>
34.1723

$$$$

 OpenBabel04232616053D

 21 23  0  0  0  0  0  0  0  0999 V2000
    1.2779    0.0167    0.0033 N   0  0  0  0  0  0  0  0  0  0  0  0
    2.6083   -0.1187    0.0139 C   0  0  0  0  0  0  0  0  0  0  0  0
    3.2097   -1.2931    0.0168 N   0  0  0  0  0  0  0  0  0  0  0  0
    4.5454   -1.0604    0.0208 C   0  0  0  0  0  0  0  0  0  0  0  0
    4.9633    0.2433    0.0236 C   0  0  0  0  0  0  0  0  0  0  0  0
    3.6545    1.2828    0.0213 S   0  0  0  0  0  0  0  0  0  0  0  0
    6.4423    0.4109    0.0262 C   0  0  0  0  0  0  0  0  0  0  0  0
    6.8562   -1.0591    0.0234 C   0  0  0  0  0  0  0  0  0  0  0  0
    8.1249   -1.6103    0.0236 C   0  0  0  0  0  0  0  0  0  0  0  0
    8.2209   -3.0072    0.0219 C   0  0  0  0  0  0  0  0  0  0  0  0
    9.9341   -3.8140    0.0232 Br  0  0  0  0  0  0  0  0  0  0  0  0
    7.0766   -3.8314    0.0202 C   0  0  0  0  0  0  0  0  0  0  0  0
    5.7953   -3.2736    0.0193 C   0  0  0  0  0  0  0  0  0  0  0  0
    5.7057   -1.8984    0.0211 C   0  0  0  0  0  0  0  0  0  0  0  0
    0.6967   -0.8110    0.0225 H   0  0  0  0  0  0  0  0  0  0  0  0
    0.8236    0.9179    0.0275 H   0  0  0  0  0  0  0  0  0  0  0  0
    6.7958    0.9106    0.9319 H   0  0  0  0  0  0  0  0  0  0  0  0
    6.7990    0.9154   -0.8758 H   0  0  0  0  0  0  0  0  0  0  0  0
    9.0090   -0.9829    0.0251 H   0  0  0  0  0  0  0  0  0  0  0  0
    7.1814   -4.9137    0.0194 H   0  0  0  0  0  0  0  0  0  0  0  0
    4.9054   -3.8935    0.0178 H   0  0  0  0  0  0  0  0  0  0  0  0
  1  2  1  0  0  0  0
  1 15  1  0  0  0  0
  1 16  1  0  0  0  0
  2  3  2  0  0  0  0
  2  6  1  0  0  0  0
  3  4  1  0  0  0  0
  4  5  2  0  0  0  0
  4 14  1  0  0  0  0
  5  6  1  0  0  0  0
  5  7  1  0  0  0  0
  7  8  1  0  0  0  0
  7 17  1  0  0  0  0
  7 18  1  0  0  0  0
  8  9  1  0  0  0  0
  8 14  2  0  0  0  0
  9 10  2  0  0  0  0
  9 19  1  0  0  0  0
 10 11  1  0  0  0  0
 10 12  1  0  0  0  0
 12 13  2  0  0  0  0
 12 20  1  0  0  0  0
 13 14  1  0  0  0  0
 13 21  1  0  0  0  0
M  END
>  <Energy>
3.64824

$$$$

 OpenBabel04232616053D

 32 35  0  0  0  0  0  0  0  0999 V2000
    1.8769    0.6079   -1.3748 N   0  0  0  0  0  0  0  0  0  0  0  0
    2.9728   -0.2742   -1.3949 C   0  0  0  0  0  0  0  0  0  0  0  0
    2.7372   -1.6409   -1.7235 C   0  0  0  0  0  0  0  0  0  0  0  0
    3.7271   -2.6431   -1.6759 C   0  0  0  0  0  0  0  0  0  0  0  0
    4.9806   -2.1939   -1.2354 C   0  0  0  0  0  0  0  0  0  0  0  0
    6.1132   -2.8853   -1.0793 N   0  0  0  0  0  0  0  0  0  0  0  0
    6.9998   -1.9525   -0.6263 N   0  0  0  0  0  0  0  0  0  0  0  0
    8.3450   -2.3345   -0.3019 C   0  0  0  0  0  0  0  0  0  0  0  0
    8.6198   -3.7216   -0.3330 C   0  0  0  0  0  0  0  0  0  0  0  0
    9.8633   -4.2170    0.0327 C   0  0  0  0  0  0  0  0  0  0  0  0
   10.8593   -3.3372    0.4295 C   0  0  0  0  0  0  0  0  0  0  0  0
   10.6435   -1.9524    0.4362 C   0  0  0  0  0  0  0  0  0  0  0  0
   11.7113   -1.1194    0.8110 C   0  0  0  0  0  0  0  0  0  0  0  0
   11.5857    0.2652    0.8016 C   0  0  0  0  0  0  0  0  0  0  0  0
   10.3836    0.8336    0.4189 C   0  0  0  0  0  0  0  0  0  0  0  0
    9.3053    0.0160    0.0592 C   0  0  0  0  0  0  0  0  0  0  0  0
    9.3815   -1.4064    0.0596 C   0  0  0  0  0  0  0  0  0  0  0  0
    6.5059   -0.7018   -0.4676 N   0  0  0  0  0  0  0  0  0  0  0  0
    5.2251   -0.8144   -0.8449 C   0  0  0  0  0  0  0  0  0  0  0  0
    4.2150    0.1659   -0.8881 C   0  0  0  0  0  0  0  0  0  0  0  0
    1.1391    0.3649   -2.0302 H   0  0  0  0  0  0  0  0  0  0  0  0
    2.1350    1.5886   -1.4366 H   0  0  0  0  0  0  0  0  0  0  0  0
    1.7355   -1.9400   -2.0336 H   0  0  0  0  0  0  0  0  0  0  0  0
    3.5375   -3.6733   -1.9431 H   0  0  0  0  0  0  0  0  0  0  0  0
    7.8568   -4.4418   -0.6262 H   0  0  0  0  0  0  0  0  0  0  0  0
   10.0514   -5.2872    0.0154 H   0  0  0  0  0  0  0  0  0  0  0  0
   11.8238   -3.7477    0.7234 H   0  0  0  0  0  0  0  0  0  0  0  0
   12.6672   -1.5483    1.1067 H   0  0  0  0  0  0  0  0  0  0  0  0
   12.4267    0.8928    1.0823 H   0  0  0  0  0  0  0  0  0  0  0  0
   10.2744    1.9147    0.3924 H   0  0  0  0  0  0  0  0  0  0  0  0
    8.4004    0.5335   -0.2438 H   0  0  0  0  0  0  0  0  0  0  0  0
    4.3942    1.1807   -0.5610 H   0  0  0  0  0  0  0  0  0  0  0  0
  1  2  1  0  0  0  0
  1 21  1  0  0  0  0
  1 22  1  0  0  0  0
  2  3  1  0  0  0  0
  2 20  2  0  0  0  0
  3  4  2  0  0  0  0
  3 23  1  0  0  0  0
  4  5  1  0  0  0  0
  4 24  1  0  0  0  0
  5  6  2  0  0  0  0
  5 19  1  0  0  0  0
  6  7  1  0  0  0  0
  7  8  1  0  0  0  0
  7 18  1  0  0  0  0
  8  9  1  0  0  0  0
  8 17  2  0  0  0  0
  9 10  2  0  0  0  0
  9 25  1  0  0  0  0
 10 11  1  0  0  0  0
 10 26  1  0  0  0  0
 11 12  2  0  0  0  0
 11 27  1  0  0  0  0
 12 13  1  0  0  0  0
 12 17  1  0  0  0  0
 13 14  2  0  0  0  0
 13 28  1  0  0  0  0
 14 15  1  0  0  0  0
 14 29  1  0  0  0  0
 15 16  2  0  0  0  0
 15 30  1  0  0  0  0
 16 17  1  0  0  0  0
 16 31  1  0  0  0  0
 18 19  2  0  0  0  0
 19 20  1  0  0  0  0
 20 32  1  0  0  0  0
M  END
>  <Energy>
67.8336

$$$$

 OpenBabel04232616053D

 36 38  0  0  0  0  0  0  0  0999 V2000
   -1.7469   -2.1802   -1.0456 C   0  0  0  0  0  0  0  0  0  0  0  0
   -0.9537   -1.0085   -0.5256 C   0  0  0  0  0  0  0  0  0  0  0  0
   -1.5658    0.2602   -0.5274 C   0  0  0  0  0  0  0  0  0  0  0  0
   -0.8874    1.3859   -0.0654 C   0  0  0  0  0  0  0  0  0  0  0  0
    0.4200    1.2654    0.3878 C   0  0  0  0  0  0  0  0  0  0  0  0
    1.0462    0.0174    0.3785 C   0  0  0  0  0  0  0  0  0  0  0  0
    0.3725   -1.1413   -0.0543 C   0  0  0  0  0  0  0  0  0  0  0  0
    1.0649   -2.4420   -0.0253 C   0  0  0  0  0  0  0  0  0  0  0  0
    0.9781   -3.3925   -0.9385 N   0  0  0  0  0  0  0  0  0  0  0  0
    1.7679   -4.4471   -0.5557 N   0  0  0  0  0  0  0  0  0  0  0  0
    2.3438   -4.1545    0.5979 C   0  0  0  0  0  0  0  0  0  0  0  0
    3.2464   -5.0356    1.3681 C   0  0  0  0  0  0  0  0  0  0  0  0
    4.3074   -4.4759    2.1098 C   0  0  0  0  0  0  0  0  0  0  0  0
    5.1236   -5.2591    2.9271 C   0  0  0  0  0  0  0  0  0  0  0  0
    4.9162   -6.6296    2.9947 C   0  0  0  0  0  0  0  0  0  0  0  0
    3.9164   -7.2188    2.2221 C   0  0  0  0  0  0  0  0  0  0  0  0
    3.0822   -6.4379    1.3955 C   0  0  0  0  0  0  0  0  0  0  0  0
    2.0451   -7.1524    0.5653 C   0  0  0  0  0  0  0  0  0  0  0  0
    1.8943   -2.9012    0.9855 N   0  0  0  0  0  0  0  0  0  0  0  0
    2.1570   -2.2354    2.2485 N   0  0  0  0  0  0  0  0  0  0  0  0
   -2.7876   -1.9004   -1.2459 H   0  0  0  0  0  0  0  0  0  0  0  0
   -1.7706   -2.9895   -0.3092 H   0  0  0  0  0  0  0  0  0  0  0  0
   -1.3207   -2.5414   -1.9868 H   0  0  0  0  0  0  0  0  0  0  0  0
   -2.5836    0.3776   -0.8943 H   0  0  0  0  0  0  0  0  0  0  0  0
   -1.3761    2.3567   -0.0728 H   0  0  0  0  0  0  0  0  0  0  0  0
    0.9599    2.1421    0.7376 H   0  0  0  0  0  0  0  0  0  0  0  0
    2.0815   -0.0356    0.7083 H   0  0  0  0  0  0  0  0  0  0  0  0
    4.5165   -3.4082    2.0573 H   0  0  0  0  0  0  0  0  0  0  0  0
    5.9161   -4.7969    3.5066 H   0  0  0  0  0  0  0  0  0  0  0  0
    5.5443   -7.2461    3.6349 H   0  0  0  0  0  0  0  0  0  0  0  0
    3.7897   -8.2987    2.2636 H   0  0  0  0  0  0  0  0  0  0  0  0
    2.0727   -8.2309    0.7344 H   0  0  0  0  0  0  0  0  0  0  0  0
    2.2350   -6.9930   -0.4992 H   0  0  0  0  0  0  0  0  0  0  0  0
    1.0413   -6.8086    0.8246 H   0  0  0  0  0  0  0  0  0  0  0  0
    2.3346   -2.9175    2.9835 H   0  0  0  0  0  0  0  0  0  0  0  0
    1.3269   -1.7309    2.5597 H   0  0  0  0  0  0  0  0  0  0  0  0
  1  2  1  0  0  0  0
  1 21  1  0  0  0  0
  1 22  1  0  0  0  0
  1 23  1  0  0  0  0
  2  3  1  0  0  0  0
  2  7  2  0  0  0  0
  3  4  2  0  0  0  0
  3 24  1  0  0  0  0
  4  5  1  0  0  0  0
  4 25  1  0  0  0  0
  5  6  2  0  0  0  0
  5 26  1  0  0  0  0
  6  7  1  0  0  0  0
  6 27  1  0  0  0  0
  7  8  1  0  0  0  0
  8  9  2  0  0  0  0
  8 19  1  0  0  0  0
  9 10  1  0  0  0  0
 10 11  2  0  0  0  0
 11 12  1  0  0  0  0
 11 19  1  0  0  0  0
 12 13  1  0  0  0  0
 12 17  2  0  0  0  0
 13 14  2  0  0  0  0
 13 28  1  0  0  0  0
 14 15  1  0  0  0  0
 14 29  1  0  0  0  0
 15 16  2  0  0  0  0
 15 30  1  0  0  0  0
 16 17  1  0  0  0  0
 16 31  1  0  0  0  0
 17 18  1  0  0  0  0
 18 32  1  0  0  0  0
 18 33  1  0  0  0  0
 18 34  1  0  0  0  0
 19 20  1  0  0  0  0
 20 35  1  0  0  0  0
 20 36  1  0  0  0  0
M  END
>  <Energy>
84.5865

$$$$

 OpenBabel04232616053D

 19 20  0  0  0  0  0  0  0  0999 V2000
    1.2059   -2.6995    2.7023 N   0  0  0  0  0  0  0  0  0  0  0  0
    2.4441   -2.6560    2.4677 C   0  0  0  0  0  0  0  0  0  0  0  0
    3.9367   -2.6036    2.1850 C   0  0  0  0  0  0  0  0  0  0  0  0
    4.3341   -1.0233    1.3617 S   0  0  0  0  0  0  0  0  0  0  0  0
    6.0433   -1.1827    1.1907 C   0  0  0  0  0  0  0  0  0  0  0  0
    6.7122   -2.3099    1.1338 N   0  0  0  0  0  0  0  0  0  0  0  0
    8.0485   -1.9968    1.0275 N   0  0  0  0  0  0  0  0  0  0  0  0
    8.1639   -0.6830    1.0312 C   0  0  0  0  0  0  0  0  0  0  0  0
    9.2750    0.2062    0.9811 C   0  0  0  0  0  0  0  0  0  0  0  0
   10.8637   -0.4486    0.8835 Cl  0  0  0  0  0  0  0  0  0  0  0  0
    9.0754    1.5380    1.0247 C   0  0  0  0  0  0  0  0  0  0  0  0
    7.7362    2.0936    1.1117 C   0  0  0  0  0  0  0  0  0  0  0  0
    7.5426    3.7992    1.1694 Cl  0  0  0  0  0  0  0  0  0  0  0  0
    6.6790    1.2674    1.1572 C   0  0  0  0  0  0  0  0  0  0  0  0
    6.8994   -0.1090    1.1217 N   0  0  0  0  0  0  0  0  0  0  0  0
    4.2115   -3.4451    1.5416 H   0  0  0  0  0  0  0  0  0  0  0  0
    4.4864   -2.6776    3.1285 H   0  0  0  0  0  0  0  0  0  0  0  0
    9.9143    2.2288    0.9990 H   0  0  0  0  0  0  0  0  0  0  0  0
    5.6569    1.6187    1.2283 H   0  0  0  0  0  0  0  0  0  0  0  0
  1  2  3  0  0  0  0
  2  3  1  0  0  0  0
  3  4  1  0  0  0  0
  3 16  1  0  0  0  0
  3 17  1  0  0  0  0
  4  5  1  0  0  0  0
  5  6  2  0  0  0  0
  5 15  1  0  0  0  0
  6  7  1  0  0  0  0
  7  8  2  0  0  0  0
  8  9  1  0  0  0  0
  8 15  1  0  0  0  0
  9 10  1  0  0  0  0
  9 11  2  0  0  0  0
 11 12  1  0  0  0  0
 11 18  1  0  0  0  0
 12 13  1  0  0  0  0
 12 14  2  0  0  0  0
 14 15  1  0  0  0  0
 14 19  1  0  0  0  0
M  END
>  <Energy>
158.993

$$$$

 OpenBabel04232616053D

 35 38  0  0  0  0  0  0  0  0999 V2000
    1.1483   -0.0084   -0.0523 C   0  0  0  0  0  0  0  0  0  0  0  0
    2.6422   -0.1397   -0.0389 C   0  0  0  0  0  0  0  0  0  0  0  0
    3.2466   -1.3832   -0.1382 C   0  0  0  0  0  0  0  0  0  0  0  0
    4.6310   -1.4840    0.0119 C   0  0  0  0  0  0  0  0  0  0  0  0
    5.2563   -2.7443   -0.0523 C   0  0  0  0  0  0  0  0  0  0  0  0
    6.6090   -2.8219    0.1933 C   0  0  0  0  0  0  0  0  0  0  0  0
    7.3419   -1.7111    0.5124 C   0  0  0  0  0  0  0  0  0  0  0  0
    6.7723   -0.4593    0.5608 C   0  0  0  0  0  0  0  0  0  0  0  0
    5.3936   -0.3062    0.2562 C   0  0  0  0  0  0  0  0  0  0  0  0
    4.7069    0.9336    0.1961 C   0  0  0  0  0  0  0  0  0  0  0  0
    5.3771    2.2616    0.1951 C   0  0  0  0  0  0  0  0  0  0  0  0
    6.5833    2.4912   -0.4919 C   0  0  0  0  0  0  0  0  0  0  0  0
    7.2311    3.7320   -0.4526 C   0  0  0  0  0  0  0  0  0  0  0  0
    6.6872    4.7950    0.2642 C   0  0  0  0  0  0  0  0  0  0  0  0
    7.2771    6.0612    0.1969 N   0  0  0  0  0  0  0  0  0  0  0  0
    5.4293    4.6236    0.8405 C   0  0  0  0  0  0  0  0  0  0  0  0
    4.7954    3.3720    0.8284 C   0  0  0  0  0  0  0  0  0  0  0  0
    3.3499    1.0045    0.0878 N   0  0  0  0  0  0  0  0  0  0  0  0
    8.6455   -1.9976    0.7652 O   0  0  0  0  0  0  0  0  0  0  0  0
    8.6568   -3.4213    0.5352 C   0  0  0  0  0  0  0  0  0  0  0  0
    7.3618   -3.9537    0.1833 O   0  0  0  0  0  0  0  0  0  0  0  0
    0.6548   -0.9860   -0.0516 H   0  0  0  0  0  0  0  0  0  0  0  0
    0.8257    0.5428   -0.9394 H   0  0  0  0  0  0  0  0  0  0  0  0
    0.8187    0.5309    0.8424 H   0  0  0  0  0  0  0  0  0  0  0  0
    2.6385   -2.2723   -0.2828 H   0  0  0  0  0  0  0  0  0  0  0  0
    4.6980   -3.6476   -0.2777 H   0  0  0  0  0  0  0  0  0  0  0  0
    7.3922    0.3813    0.8522 H   0  0  0  0  0  0  0  0  0  0  0  0
    7.0383    1.7028   -1.0889 H   0  0  0  0  0  0  0  0  0  0  0  0
    8.1626    3.8567   -0.9976 H   0  0  0  0  0  0  0  0  0  0  0  0
    8.2812    6.0355    0.0654 H   0  0  0  0  0  0  0  0  0  0  0  0
    7.0053    6.6775    0.9576 H   0  0  0  0  0  0  0  0  0  0  0  0
    4.9240    5.4628    1.3115 H   0  0  0  0  0  0  0  0  0  0  0  0
    3.8221    3.2716    1.3065 H   0  0  0  0  0  0  0  0  0  0  0  0
    9.3600   -3.6356   -0.2779 H   0  0  0  0  0  0  0  0  0  0  0  0
    9.0065   -3.9219    1.4454 H   0  0  0  0  0  0  0  0  0  0  0  0
  1  2  1  0  0  0  0
  1 22  1  0  0  0  0
  1 23  1  0  0  0  0
  1 24  1  0  0  0  0
  2  3  1  0  0  0  0
  2 18  2  0  0  0  0
  3  4  2  0  0  0  0
  3 25  1  0  0  0  0
  4  5  1  0  0  0  0
  4  9  1  0  0  0  0
  5  6  2  0  0  0  0
  5 26  1  0  0  0  0
  6  7  1  0  0  0  0
  6 21  1  0  0  0  0
  7  8  2  0  0  0  0
  7 19  1  0  0  0  0
  8  9  1  0  0  0  0
  8 27  1  0  0  0  0
  9 10  2  0  0  0  0
 10 11  1  0  0  0  0
 10 18  1  0  0  0  0
 11 12  1  0  0  0  0
 11 17  2  0  0  0  0
 12 13  2  0  0  0  0
 12 28  1  0  0  0  0
 13 14  1  0  0  0  0
 13 29  1  0  0  0  0
 14 15  1  0  0  0  0
 14 16  2  0  0  0  0
 15 30  1  0  0  0  0
 15 31  1  0  0  0  0
 16 17  1  0  0  0  0
 16 32  1  0  0  0  0
 17 33  1  0  0  0  0
 19 20  1  0  0  0  0
 20 21  1  0  0  0  0
 20 34  1  0  0  0  0
 20 35  1  0  0  0  0
M  END
>  <Energy>
57.2754

$$$$

 OpenBabel04232616053D

 32 35  0  0  0  0  0  0  0  0999 V2000
    1.0880    0.1303    0.0610 C   0  0  0  0  0  0  0  0  0  0  0  0
    2.5630    0.1428   -0.0003 C   0  0  0  0  0  0  0  0  0  0  0  0
    3.3693   -0.8999   -0.0580 N   0  0  0  0  0  0  0  0  0  0  0  0
    4.6648   -0.4387   -0.0822 N   0  0  0  0  0  0  0  0  0  0  0  0
    4.6153    0.8753   -0.0389 C   0  0  0  0  0  0  0  0  0  0  0  0
    5.6677    1.8575    0.0215 C   0  0  0  0  0  0  0  0  0  0  0  0
    7.0182    1.4926    0.0251 C   0  0  0  0  0  0  0  0  0  0  0  0
    7.9998    2.4699    0.1708 C   0  0  0  0  0  0  0  0  0  0  0  0
    7.6324    3.8013    0.3483 C   0  0  0  0  0  0  0  0  0  0  0  0
    6.2814    4.1670    0.3528 C   0  0  0  0  0  0  0  0  0  0  0  0
    5.2874    3.2043    0.1397 C   0  0  0  0  0  0  0  0  0  0  0  0
    3.7999    3.5093    0.0767 C   0  0  0  0  0  0  0  0  0  0  0  0
    3.3234    4.9295    0.0649 C   0  0  0  0  0  0  0  0  0  0  0  0
    3.9203    5.9075   -0.7390 C   0  0  0  0  0  0  0  0  0  0  0  0
    3.4900    7.2349   -0.6638 C   0  0  0  0  0  0  0  0  0  0  0  0
    2.4269    7.5781    0.1701 C   0  0  0  0  0  0  0  0  0  0  0  0
    1.7790    6.5941    0.9146 C   0  0  0  0  0  0  0  0  0  0  0  0
    2.2246    5.2710    0.8624 C   0  0  0  0  0  0  0  0  0  0  0  0
    2.8709    2.5862    0.0418 N   0  0  0  0  0  0  0  0  0  0  0  0
    3.3115    1.2953    0.0042 N   0  0  0  0  0  0  0  0  0  0  0  0
    0.7137   -0.8962    0.0706 H   0  0  0  0  0  0  0  0  0  0  0  0
    0.6594    0.6397   -0.8090 H   0  0  0  0  0  0  0  0  0  0  0  0
    0.7319    0.6286    0.9682 H   0  0  0  0  0  0  0  0  0  0  0  0
    7.3034    0.4462   -0.0719 H   0  0  0  0  0  0  0  0  0  0  0  0
    9.0509    2.1880    0.1715 H   0  0  0  0  0  0  0  0  0  0  0  0
    8.3987    4.5595    0.4931 H   0  0  0  0  0  0  0  0  0  0  0  0
    6.0441    5.2087    0.5405 H   0  0  0  0  0  0  0  0  0  0  0  0
    4.7250    5.6570   -1.4251 H   0  0  0  0  0  0  0  0  0  0  0  0
    3.9824    8.0018   -1.2582 H   0  0  0  0  0  0  0  0  0  0  0  0
    2.0929    8.6115    0.2283 H   0  0  0  0  0  0  0  0  0  0  0  0
    0.9290    6.8557    1.5403 H   0  0  0  0  0  0  0  0  0  0  0  0
    1.7131    4.5112    1.4491 H   0  0  0  0  0  0  0  0  0  0  0  0
  1  2  1  0  0  0  0
  1 21  1  0  0  0  0
  1 22  1  0  0  0  0
  1 23  1  0  0  0  0
  2  3  2  0  0  0  0
  2 20  1  0  0  0  0
  3  4  1  0  0  0  0
  4  5  2  0  0  0  0
  5  6  1  0  0  0  0
  5 20  1  0  0  0  0
  6  7  1  0  0  0  0
  6 11  2  0  0  0  0
  7  8  2  0  0  0  0
  7 24  1  0  0  0  0
  8  9  1  0  0  0  0
  8 25  1  0  0  0  0
  9 10  2  0  0  0  0
  9 26  1  0  0  0  0
 10 11  1  0  0  0  0
 10 27  1  0  0  0  0
 11 12  1  0  0  0  0
 12 13  1  0  0  0  0
 12 19  2  0  0  0  0
 13 14  1  0  0  0  0
 13 18  2  0  0  0  0
 14 15  2  0  0  0  0
 14 28  1  0  0  0  0
 15 16  1  0  0  0  0
 15 29  1  0  0  0  0
 16 17  2  0  0  0  0
 16 30  1  0  0  0  0
 17 18  1  0  0  0  0
 17 31  1  0  0  0  0
 18 32  1  0  0  0  0
 19 20  1  0  0  0  0
M  END
>  <Energy>
91.3318

$$$$

 OpenBabel04232616053D

 32 35  0  0  0  0  0  0  0  0999 V2000
    1.0229    0.0859    0.1106 N   0  0  0  0  0  0  0  0  0  0  0  0
    2.3934    0.0687    0.0642 C   0  0  0  0  0  0  0  0  0  0  0  0
    2.9741    1.2408    0.0793 N   0  0  0  0  0  0  0  0  0  0  0  0
    4.3329    1.2201    0.0269 N   0  0  0  0  0  0  0  0  0  0  0  0
    5.1410    2.3189    0.0348 C   0  0  0  0  0  0  0  0  0  0  0  0
    6.4293    1.8326   -0.0321 C   0  0  0  0  0  0  0  0  0  0  0  0
    7.6309    2.6479   -0.0539 C   0  0  0  0  0  0  0  0  0  0  0  0
    7.6676    3.9074    0.5635 C   0  0  0  0  0  0  0  0  0  0  0  0
    8.8199    4.6955    0.5086 C   0  0  0  0  0  0  0  0  0  0  0  0
    9.9485    4.2323   -0.1638 C   0  0  0  0  0  0  0  0  0  0  0  0
    9.9307    2.9768   -0.7689 C   0  0  0  0  0  0  0  0  0  0  0  0
    8.7796    2.1844   -0.7086 C   0  0  0  0  0  0  0  0  0  0  0  0
    6.4247    0.4541   -0.1071 N   0  0  0  0  0  0  0  0  0  0  0  0
    5.1513    0.1141   -0.0497 C   0  0  0  0  0  0  0  0  0  0  0  0
    4.5320   -1.1935   -0.0566 C   0  0  0  0  0  0  0  0  0  0  0  0
    5.2715   -2.3771   -0.0992 C   0  0  0  0  0  0  0  0  0  0  0  0
    4.6116   -3.6081   -0.0909 C   0  0  0  0  0  0  0  0  0  0  0  0
    3.2171   -3.6563   -0.0375 C   0  0  0  0  0  0  0  0  0  0  0  0
    2.4725   -2.4747    0.0118 C   0  0  0  0  0  0  0  0  0  0  0  0
    3.1304   -1.2406   -0.0018 C   0  0  0  0  0  0  0  0  0  0  0  0
    0.6562    1.0222   -0.0370 H   0  0  0  0  0  0  0  0  0  0  0  0
    0.5308   -0.6067   -0.4384 H   0  0  0  0  0  0  0  0  0  0  0  0
    4.7284    3.3152    0.0770 H   0  0  0  0  0  0  0  0  0  0  0  0
    6.8029    4.2856    1.1027 H   0  0  0  0  0  0  0  0  0  0  0  0
    8.8338    5.6693    0.9909 H   0  0  0  0  0  0  0  0  0  0  0  0
   10.8427    4.8483   -0.2129 H   0  0  0  0  0  0  0  0  0  0  0  0
   10.8114    2.6122   -1.2910 H   0  0  0  0  0  0  0  0  0  0  0  0
    8.7767    1.2073   -1.1860 H   0  0  0  0  0  0  0  0  0  0  0  0
    6.3585   -2.3416   -0.1313 H   0  0  0  0  0  0  0  0  0  0  0  0
    5.1870   -4.5307   -0.1182 H   0  0  0  0  0  0  0  0  0  0  0  0
    2.7097   -4.6186   -0.0243 H   0  0  0  0  0  0  0  0  0  0  0  0
    1.3917   -2.5406    0.0761 H   0  0  0  0  0  0  0  0  0  0  0  0
  1  2  1  0  0  0  0
  1 21  1  0  0  0  0
  1 22  1  0  0  0  0
  2  3  2  0  0  0  0
  2 20  1  0  0  0  0
  3  4  1  0  0  0  0
  4  5  1  0  0  0  0
  4 14  1  0  0  0  0
  5  6  2  0  0  0  0
  5 23  1  0  0  0  0
  6  7  1  0  0  0  0
  6 13  1  0  0  0  0
  7  8  1  0  0  0  0
  7 12  2  0  0  0  0
  8  9  2  0  0  0  0
  8 24  1  0  0  0  0
  9 10  1  0  0  0  0
  9 25  1  0  0  0  0
 10 11  2  0  0  0  0
 10 26  1  0  0  0  0
 11 12  1  0  0  0  0
 11 27  1  0  0  0  0
 12 28  1  0  0  0  0
 13 14  2  0  0  0  0
 14 15  1  0  0  0  0
 15 16  1  0  0  0  0
 15 20  2  0  0  0  0
 16 17  2  0  0  0  0
 16 29  1  0  0  0  0
 17 18  1  0  0  0  0
 17 30  1  0  0  0  0
 18 19  2  0  0  0  0
 18 31  1  0  0  0  0
 19 20  1  0  0  0  0
 19 32  1  0  0  0  0
M  END
>  <Energy>
28.5721

$$$$

 OpenBabel04232616053D

 32 34  0  0  1  0  0  0  0  0999 V2000
    1.0765    0.2181    0.1989 C   0  0  0  0  0  0  0  0  0  0  0  0
    2.4707    0.0823   -0.1795 N   0  0  0  0  0  0  0  0  0  0  0  0
    3.1615    1.2148   -0.5670 C   0  0  0  0  0  0  0  0  0  0  0  0
    2.7893    2.3581   -0.3309 O   0  0  0  0  0  0  0  0  0  0  0  0
    4.3638    0.9862   -1.3981 C   0  0  0  0  0  0  0  0  0  0  0  0
    5.1076    2.1032   -1.8217 C   0  0  0  0  0  0  0  0  0  0  0  0
    6.1414    1.9389   -2.7335 C   0  0  0  0  0  0  0  0  0  0  0  0
    6.4401    0.6651   -3.1995 C   0  0  0  0  0  0  0  0  0  0  0  0
    5.7045   -0.4463   -2.7592 C   0  0  0  0  0  0  0  0  0  0  0  0
    4.6401   -0.3201   -1.8512 C   0  0  0  0  0  0  0  0  0  0  0  0
    3.8087   -1.3898   -1.4634 N   0  0  0  0  0  0  0  0  0  0  0  0
    4.1814   -2.7585   -1.8115 C   0  0  0  0  0  0  0  0  0  0  0  0
    3.1877   -1.1893   -0.1354 C   0  0  3  0  0  0  0  0  0  0  0  0
    2.3256   -2.3354    0.3808 C   0  0  0  0  0  0  0  0  0  0  0  0
    1.2176   -2.9322   -0.1998 C   0  0  0  0  0  0  0  0  0  0  0  0
    0.7063   -4.0163    0.5674 C   0  0  0  0  0  0  0  0  0  0  0  0
    1.4454   -4.2319    1.7075 C   0  0  0  0  0  0  0  0  0  0  0  0
    2.7326   -3.1177    1.8591 S   0  0  0  0  0  0  0  0  0  0  0  0
    0.7636    1.2662    0.2101 H   0  0  0  0  0  0  0  0  0  0  0  0
    0.9010   -0.2039    1.1892 H   0  0  0  0  0  0  0  0  0  0  0  0
    0.4663   -0.2858   -0.5567 H   0  0  0  0  0  0  0  0  0  0  0  0
    4.8446    3.0977   -1.4745 H   0  0  0  0  0  0  0  0  0  0  0  0
    6.6911    2.8028   -3.0965 H   0  0  0  0  0  0  0  0  0  0  0  0
    7.2355    0.5293   -3.9287 H   0  0  0  0  0  0  0  0  0  0  0  0
    5.9910   -1.4060   -3.1747 H   0  0  0  0  0  0  0  0  0  0  0  0
    4.6343   -2.8490   -2.8013 H   0  0  0  0  0  0  0  0  0  0  0  0
    3.2891   -3.3900   -1.8757 H   0  0  0  0  0  0  0  0  0  0  0  0
    4.8599   -3.1890   -1.0671 H   0  0  0  0  0  0  0  0  0  0  0  0
    4.0056   -1.0444    0.5883 H   0  0  0  0  0  0  0  0  0  0  0  0
    0.8036   -2.6023   -1.1458 H   0  0  0  0  0  0  0  0  0  0  0  0
   -0.1529   -4.6145    0.2903 H   0  0  0  0  0  0  0  0  0  0  0  0
    1.2917   -4.9932    2.4607 H   0  0  0  0  0  0  0  0  0  0  0  0
  1  2  1  0  0  0  0
  1 19  1  0  0  0  0
  1 20  1  0  0  0  0
  1 21  1  0  0  0  0
  2  3  1  0  0  0  0
  2 13  1  0  0  0  0
  3  4  2  0  0  0  0
  3  5  1  0  0  0  0
  5  6  1  0  0  0  0
  5 10  2  0  0  0  0
  6  7  2  0  0  0  0
  6 22  1  0  0  0  0
  7  8  1  0  0  0  0
  7 23  1  0  0  0  0
  8  9  2  0  0  0  0
  8 24  1  0  0  0  0
  9 10  1  0  0  0  0
  9 25  1  0  0  0  0
 10 11  1  0  0  0  0
 11 12  1  0  0  0  0
 11 13  1  0  0  0  0
 12 26  1  0  0  0  0
 12 27  1  0  0  0  0
 12 28  1  0  0  0  0
 13 14  1  0  0  0  0
 13 29  1  0  0  0  0
 14 15  2  0  0  0  0
 14 18  1  0  0  0  0
 15 16  1  0  0  0  0
 15 30  1  0  0  0  0
 16 17  2  0  0  0  0
 16 31  1  0  0  0  0
 17 18  1  0  0  0  0
 17 32  1  0  0  0  0
M  END
>  <Energy>
-4.40326

$$$$

 OpenBabel04232616053D

 15 15  0  0  0  0  0  0  0  0999 V2000
   -2.7105    0.8258   -0.0134 Cl  0  0  0  0  0  0  0  0  0  0  0  0
   -1.2228   -0.0337   -0.0036 C   0  0  0  0  0  0  0  0  0  0  0  0
   -1.2233   -1.4199   -0.0039 C   0  0  0  0  0  0  0  0  0  0  0  0
   -0.0099   -2.1193    0.0038 C   0  0  0  0  0  0  0  0  0  0  0  0
    1.2430   -1.4578    0.0111 C   0  0  0  0  0  0  0  0  0  0  0  0
    2.5618   -2.2395    0.0193 C   0  0  0  0  0  0  0  0  0  0  0  0
    2.3473   -4.0410   -0.0198 Cl  0  0  0  0  0  0  0  0  0  0  0  0
    3.5496   -1.8638   -1.4326 Cl  0  0  0  0  0  0  0  0  0  0  0  0
    3.4923   -1.9131    1.5199 Cl  0  0  0  0  0  0  0  0  0  0  0  0
    1.1981   -0.0413    0.0155 C   0  0  0  0  0  0  0  0  0  0  0  0
    2.6124    0.9599    0.0361 Cl  0  0  0  0  0  0  0  0  0  0  0  0
   -0.0195    0.6571    0.0062 C   0  0  0  0  0  0  0  0  0  0  0  0
   -2.1622   -1.9700   -0.0110 H   0  0  0  0  0  0  0  0  0  0  0  0
   -0.0868   -3.2053    0.0039 H   0  0  0  0  0  0  0  0  0  0  0  0
   -0.0260    1.7453    0.0065 H   0  0  0  0  0  0  0  0  0  0  0  0
  1  2  1  0  0  0  0
  2  3  1  0  0  0  0
  2 12  2  0  0  0  0
  3  4  2  0  0  0  0
  3 13  1  0  0  0  0
  4  5  1  0  0  0  0
  4 14  1  0  0  0  0
  5  6  1  0  0  0  0
  5 10  2  0  0  0  0
  6  7  1  0  0  0  0
  6  8  1  0  0  0  0
  6  9  1  0  0  0  0
 10 11  1  0  0  0  0
 10 12  1  0  0  0  0
 12 15  1  0  0  0  0
M  END
>  <Energy>
25.9151

$$$$

 OpenBabel04232616053D

 31 33  0  0  0  0  0  0  0  0999 V2000
    1.1510   -0.3277    0.4605 C   0  0  0  0  0  0  0  0  0  0  0  0
    2.4038    0.1384   -0.1221 N   0  0  0  0  0  0  0  0  0  0  0  0
    3.0970   -0.7784   -1.0242 C   0  0  0  0  0  0  0  0  0  0  0  0
    3.1179    1.1780    0.4716 C   0  0  0  0  0  0  0  0  0  0  0  0
    2.6822    1.8218    1.6418 C   0  0  0  0  0  0  0  0  0  0  0  0
    3.4078    2.8684    2.2339 C   0  0  0  0  0  0  0  0  0  0  0  0
    4.5962    3.3303    1.6650 C   0  0  0  0  0  0  0  0  0  0  0  0
    5.3258    4.4350    2.2802 C   0  0  0  0  0  0  0  0  0  0  0  0
    5.0701    5.0759    3.4101 N   0  0  0  0  0  0  0  0  0  0  0  0
    6.0460    6.0350    3.4582 C   0  0  0  0  0  0  0  0  0  0  0  0
    6.3173    7.0423    4.3894 C   0  0  0  0  0  0  0  0  0  0  0  0
    7.4046    7.8743    4.1086 C   0  0  0  0  0  0  0  0  0  0  0  0
    8.1501    7.6654    2.9506 C   0  0  0  0  0  0  0  0  0  0  0  0
    9.1791    8.4955    2.7217 F   0  0  0  0  0  0  0  0  0  0  0  0
    7.9314    6.7028    2.0289 N   0  0  0  0  0  0  0  0  0  0  0  0
    6.8739    5.9371    2.3457 C   0  0  0  0  0  0  0  0  0  0  0  0
    6.4155    4.9012    1.5898 O   0  0  0  0  0  0  0  0  0  0  0  0
    5.0390    2.7145    0.4923 C   0  0  0  0  0  0  0  0  0  0  0  0
    4.3119    1.6638   -0.0861 C   0  0  0  0  0  0  0  0  0  0  0  0
    0.7071   -1.1350   -0.1324 H   0  0  0  0  0  0  0  0  0  0  0  0
    0.4115    0.4807    0.4823 H   0  0  0  0  0  0  0  0  0  0  0  0
    1.3024   -0.7123    1.4749 H   0  0  0  0  0  0  0  0  0  0  0  0
    2.4690   -1.6333   -1.2961 H   0  0  0  0  0  0  0  0  0  0  0  0
    4.0040   -1.1798   -0.5584 H   0  0  0  0  0  0  0  0  0  0  0  0
    3.3597   -0.2756   -1.9608 H   0  0  0  0  0  0  0  0  0  0  0  0
    1.7639    1.5186    2.1360 H   0  0  0  0  0  0  0  0  0  0  0  0
    3.0262    3.3230    3.1472 H   0  0  0  0  0  0  0  0  0  0  0  0
    5.7083    7.1687    5.2760 H   0  0  0  0  0  0  0  0  0  0  0  0
    7.6744    8.6839    4.7789 H   0  0  0  0  0  0  0  0  0  0  0  0
    5.9536    3.0425    0.0027 H   0  0  0  0  0  0  0  0  0  0  0  0
    4.7052    1.2435   -1.0080 H   0  0  0  0  0  0  0  0  0  0  0  0
  1  2  1  0  0  0  0
  1 20  1  0  0  0  0
  1 21  1  0  0  0  0
  1 22  1  0  0  0  0
  2  3  1  0  0  0  0
  2  4  1  0  0  0  0
  3 23  1  0  0  0  0
  3 24  1  0  0  0  0
  3 25  1  0  0  0  0
  4  5  1  0  0  0  0
  4 19  2  0  0  0  0
  5  6  2  0  0  0  0
  5 26  1  0  0  0  0
  6  7  1  0  0  0  0
  6 27  1  0  0  0  0
  7  8  1  0  0  0  0
  7 18  2  0  0  0  0
  8  9  2  0  0  0  0
  8 17  1  0  0  0  0
  9 10  1  0  0  0  0
 10 11  1  0  0  0  0
 10 16  2  0  0  0  0
 11 12  2  0  0  0  0
 11 28  1  0  0  0  0
 12 13  1  0  0  0  0
 12 29  1  0  0  0  0
 13 14  1  0  0  0  0
 13 15  2  0  0  0  0
 15 16  1  0  0  0  0
 16 17  1  0  0  0  0
 18 19  1  0  0  0  0
 18 30  1  0  0  0  0
 19 31  1  0  0  0  0
M  END
>  <Energy>
38.4575

$$$$

 OpenBabel04232616053D

 22 23  0  0  0  0  0  0  0  0999 V2000
    0.8434    0.1834    0.0124 C   0  0  0  0  0  0  0  0  0  0  0  0
    2.2794   -0.0052   -0.0200 N   0  0  0  0  0  0  0  0  0  0  0  0
    3.1292    1.0528    0.1766 N   0  0  0  0  0  0  0  0  0  0  0  0
    4.3053    0.5152    0.1745 C   0  0  0  0  0  0  0  0  0  0  0  0
    4.3446   -0.8293   -0.0003 N   0  0  0  0  0  0  0  0  0  0  0  0
    5.5310   -1.6016   -0.0602 C   0  0  0  0  0  0  0  0  0  0  0  0
    5.6190   -2.7653   -0.8346 C   0  0  0  0  0  0  0  0  0  0  0  0
    6.8065   -3.5047   -0.9024 C   0  0  0  0  0  0  0  0  0  0  0  0
    7.9334   -3.0937   -0.1933 C   0  0  0  0  0  0  0  0  0  0  0  0
    9.3649   -4.0484   -0.3258 Cl  0  0  0  0  0  0  0  0  0  0  0  0
    7.8684   -1.9345    0.5814 C   0  0  0  0  0  0  0  0  0  0  0  0
    9.2144   -1.3618    1.5024 Cl  0  0  0  0  0  0  0  0  0  0  0  0
    6.6797   -1.1912    0.6371 C   0  0  0  0  0  0  0  0  0  0  0  0
    3.0076   -1.2103   -0.0938 C   0  0  0  0  0  0  0  0  0  0  0  0
    2.3204   -2.7309   -0.1628 S   0  0  0  0  0  0  0  0  0  0  0  0
    0.6069    1.2494   -0.0213 H   0  0  0  0  0  0  0  0  0  0  0  0
    0.4497   -0.2571    0.9322 H   0  0  0  0  0  0  0  0  0  0  0  0
    0.3944   -0.3197   -0.8484 H   0  0  0  0  0  0  0  0  0  0  0  0
    5.2398    1.0811    0.2771 H   0  0  0  0  0  0  0  0  0  0  0  0
    4.7887   -3.1040   -1.4483 H   0  0  0  0  0  0  0  0  0  0  0  0
    6.8414   -4.3976   -1.5234 H   0  0  0  0  0  0  0  0  0  0  0  0
    6.6579   -0.3101    1.2743 H   0  0  0  0  0  0  0  0  0  0  0  0
  1  2  1  0  0  0  0
  1 16  1  0  0  0  0
  1 17  1  0  0  0  0
  1 18  1  0  0  0  0
  2  3  1  0  0  0  0
  2 14  1  0  0  0  0
  3  4  2  0  0  0  0
  4  5  1  0  0  0  0
  4 19  1  0  0  0  0
  5  6  1  0  0  0  0
  5 14  1  0  0  0  0
  6  7  1  0  0  0  0
  6 13  2  0  0  0  0
  7  8  2  0  0  0  0
  7 20  1  0  0  0  0
  8  9  1  0  0  0  0
  8 21  1  0  0  0  0
  9 10  1  0  0  0  0
  9 11  2  0  0  0  0
 11 12  1  0  0  0  0
 11 13  1  0  0  0  0
 13 22  1  0  0  0  0
 14 15  2  0  0  0  0
M  END
>  <Energy>
51.2109

$$$$

 OpenBabel04232616053D

 30 33  0  0  0  0  0  0  0  0999 V2000
    1.0627    0.3206   -0.2293 N   0  0  0  0  0  0  0  0  0  0  0  0
    2.4287    0.1119   -0.1512 C   0  0  0  0  0  0  0  0  0  0  0  0
    3.2282    1.1905   -0.1280 N   0  0  0  0  0  0  0  0  0  0  0  0
    4.5548    0.9965   -0.0807 C   0  0  0  0  0  0  0  0  0  0  0  0
    5.2098   -0.1687   -0.0488 N   0  0  0  0  0  0  0  0  0  0  0  0
    4.3994   -1.2605   -0.0577 C   0  0  0  0  0  0  0  0  0  0  0  0
    3.0150   -1.1536   -0.0955 C   0  0  0  0  0  0  0  0  0  0  0  0
    2.2688   -2.6935   -0.0626 S   0  0  0  0  0  0  0  0  0  0  0  0
    3.7743   -3.5177   -0.0466 C   0  0  0  0  0  0  0  0  0  0  0  0
    3.9628   -4.9154   -0.0400 C   0  0  0  0  0  0  0  0  0  0  0  0
    5.2577   -5.4633   -0.0804 C   0  0  0  0  0  0  0  0  0  0  0  0
    5.4555   -6.9289   -0.1429 C   0  0  0  0  0  0  0  0  0  0  0  0
    6.5319   -7.5752    0.4803 C   0  0  0  0  0  0  0  0  0  0  0  0
    6.6825   -8.9600    0.3871 C   0  0  0  0  0  0  0  0  0  0  0  0
    5.7411   -9.6791   -0.3261 C   0  0  0  0  0  0  0  0  0  0  0  0
    4.6855   -9.1140   -0.9414 N   0  0  0  0  0  0  0  0  0  0  0  0
    4.5751   -7.7664   -0.8394 C   0  0  0  0  0  0  0  0  0  0  0  0
    6.3392   -4.5729   -0.0803 C   0  0  0  0  0  0  0  0  0  0  0  0
    6.1517   -3.1819   -0.0540 C   0  0  0  0  0  0  0  0  0  0  0  0
    4.8488   -2.6309   -0.0500 C   0  0  0  0  0  0  0  0  0  0  0  0
    0.8002    1.2609    0.0351 H   0  0  0  0  0  0  0  0  0  0  0  0
    0.4778   -0.4384    0.0935 H   0  0  0  0  0  0  0  0  0  0  0  0
    5.1666    1.8931   -0.0679 H   0  0  0  0  0  0  0  0  0  0  0  0
    3.0873   -5.5599   -0.0116 H   0  0  0  0  0  0  0  0  0  0  0  0
    7.2620   -7.0118    1.0559 H   0  0  0  0  0  0  0  0  0  0  0  0
    7.5163   -9.4641    0.8629 H   0  0  0  0  0  0  0  0  0  0  0  0
    5.8131  -10.7582   -0.4252 H   0  0  0  0  0  0  0  0  0  0  0  0
    3.7172   -7.3635   -1.3727 H   0  0  0  0  0  0  0  0  0  0  0  0
    7.3620   -4.9440   -0.1242 H   0  0  0  0  0  0  0  0  0  0  0  0
    7.0139   -2.5180   -0.0608 H   0  0  0  0  0  0  0  0  0  0  0  0
  1  2  1  0  0  0  0
  1 21  1  0  0  0  0
  1 22  1  0  0  0  0
  2  3  1  0  0  0  0
  2  7  2  0  0  0  0
  3  4  2  0  0  0  0
  4  5  1  0  0  0  0
  4 23  1  0  0  0  0
  5  6  2  0  0  0  0
  6  7  1  0  0  0  0
  6 20  1  0  0  0  0
  7  8  1  0  0  0  0
  8  9  1  0  0  0  0
  9 10  1  0  0  0  0
  9 20  2  0  0  0  0
 10 11  2  0  0  0  0
 10 24  1  0  0  0  0
 11 12  1  0  0  0  0
 11 18  1  0  0  0  0
 12 13  1  0  0  0  0
 12 17  2  0  0  0  0
 13 14  2  0  0  0  0
 13 25  1  0  0  0  0
 14 15  1  0  0  0  0
 14 26  1  0  0  0  0
 15 16  2  0  0  0  0
 15 27  1  0  0  0  0
 16 17  1  0  0  0  0
 17 28  1  0  0  0  0
 18 19  2  0  0  0  0
 18 29  1  0  0  0  0
 19 20  1  0  0  0  0
 19 30  1  0  0  0  0
M  END
>  <Energy>
12.9899

$$$$

 OpenBabel04232616053D

 26 28  0  0  0  0  0  0  0  0999 V2000
    1.0946   -0.0727   -0.1301 N   0  0  0  0  0  0  0  0  0  0  0  0
    2.4221   -0.1251   -0.0655 C   0  0  0  0  0  0  0  0  0  0  0  0
    3.1083    1.0426   -0.0597 N   0  0  0  0  0  0  0  0  0  0  0  0
    4.3591    0.6445   -0.0251 C   0  0  0  0  0  0  0  0  0  0  0  0
    5.5835    1.3660   -0.0383 C   0  0  0  0  0  0  0  0  0  0  0  0
    6.7507    0.6968   -0.0481 C   0  0  0  0  0  0  0  0  0  0  0  0
    6.7925   -0.7569   -0.0273 C   0  0  0  0  0  0  0  0  0  0  0  0
    5.6378   -1.4566    0.0136 C   0  0  0  0  0  0  0  0  0  0  0  0
    5.6780   -2.9301    0.0590 C   0  0  0  0  0  0  0  0  0  0  0  0
    5.6606   -3.6284   -1.1605 C   0  0  0  0  0  0  0  0  0  0  0  0
    5.7212   -5.0215   -1.1834 C   0  0  0  0  0  0  0  0  0  0  0  0
    5.7970   -5.7332    0.0118 C   0  0  0  0  0  0  0  0  0  0  0  0
    5.8091   -5.0551    1.2349 C   0  0  0  0  0  0  0  0  0  0  0  0
    5.9057   -6.0178    2.6698 Cl  0  0  0  0  0  0  0  0  0  0  0  0
    5.7518   -3.6524    1.2680 C   0  0  0  0  0  0  0  0  0  0  0  0
    5.7888   -2.8025    2.7836 Cl  0  0  0  0  0  0  0  0  0  0  0  0
    4.4174   -0.7531    0.0084 N   0  0  0  0  0  0  0  0  0  0  0  0
    3.1465   -1.2338    0.0050 N   0  0  0  0  0  0  0  0  0  0  0  0
    0.6574    0.8092    0.0965 H   0  0  0  0  0  0  0  0  0  0  0  0
    0.5798   -0.8955    0.1511 H   0  0  0  0  0  0  0  0  0  0  0  0
    5.5476    2.4498   -0.0464 H   0  0  0  0  0  0  0  0  0  0  0  0
    7.6961    1.2320   -0.0632 H   0  0  0  0  0  0  0  0  0  0  0  0
    7.7664   -1.2379   -0.0330 H   0  0  0  0  0  0  0  0  0  0  0  0
    5.5925   -3.0875   -2.1032 H   0  0  0  0  0  0  0  0  0  0  0  0
    5.7059   -5.5517   -2.1330 H   0  0  0  0  0  0  0  0  0  0  0  0
    5.8443   -6.8198   -0.0148 H   0  0  0  0  0  0  0  0  0  0  0  0
  1  2  1  0  0  0  0
  1 19  1  0  0  0  0
  1 20  1  0  0  0  0
  2  3  1  0  0  0  0
  2 18  2  0  0  0  0
  3  4  2  0  0  0  0
  4  5  1  0  0  0  0
  4 17  1  0  0  0  0
  5  6  2  0  0  0  0
  5 21  1  0  0  0  0
  6  7  1  0  0  0  0
  6 22  1  0  0  0  0
  7  8  2  0  0  0  0
  7 23  1  0  0  0  0
  8  9  1  0  0  0  0
  8 17  1  0  0  0  0
  9 10  1  0  0  0  0
  9 15  2  0  0  0  0
 10 11  2  0  0  0  0
 10 24  1  0  0  0  0
 11 12  1  0  0  0  0
 11 25  1  0  0  0  0
 12 13  2  0  0  0  0
 12 26  1  0  0  0  0
 13 14  1  0  0  0  0
 13 15  1  0  0  0  0
 15 16  1  0  0  0  0
 17 18  1  0  0  0  0
M  END
>  <Energy>
-22.0222

$$$$

 OpenBabel04232616053D

 35 38  0  0  0  0  0  0  0  0999 V2000
    0.7236    0.0257    0.0066 C   0  0  0  0  0  0  0  0  0  0  0  0
    2.2215    0.0177   -0.0325 C   0  0  0  0  0  0  0  0  0  0  0  0
    2.9540    1.2055   -0.0892 C   0  0  0  0  0  0  0  0  0  0  0  0
    4.3512    1.1766   -0.0937 C   0  0  0  0  0  0  0  0  0  0  0  0
    5.0482   -0.0422   -0.0346 C   0  0  0  0  0  0  0  0  0  0  0  0
    6.4477   -0.0830    0.0095 C   0  0  0  0  0  0  0  0  0  0  0  0
    7.0881   -1.3126    0.1135 C   0  0  0  0  0  0  0  0  0  0  0  0
    8.5352   -1.4734    0.3414 C   0  0  0  0  0  0  0  0  0  0  0  0
    9.2421   -0.6211    1.2290 C   0  0  0  0  0  0  0  0  0  0  0  0
   10.5568   -0.9022    1.6235 C   0  0  0  0  0  0  0  0  0  0  0  0
   11.1395   -2.0468    1.1300 C   0  0  0  0  0  0  0  0  0  0  0  0
   10.4911   -2.8562    0.2291 C   0  0  0  0  0  0  0  0  0  0  0  0
    9.2110   -2.5851   -0.2006 C   0  0  0  0  0  0  0  0  0  0  0  0
   11.2254   -3.9528   -0.1033 O   0  0  0  0  0  0  0  0  0  0  0  0
   12.2993   -3.8390    0.8518 C   0  0  0  0  0  0  0  0  0  0  0  0
   12.3546   -2.5439    1.4867 O   0  0  0  0  0  0  0  0  0  0  0  0
    6.4007   -2.4811    0.1223 N   0  0  0  0  0  0  0  0  0  0  0  0
    5.0597   -2.4448    0.0759 C   0  0  0  0  0  0  0  0  0  0  0  0
    4.4515   -3.7001    0.1308 N   0  0  0  0  0  0  0  0  0  0  0  0
    4.3221   -1.2525    0.0160 C   0  0  0  0  0  0  0  0  0  0  0  0
    2.9117   -1.1990    0.0234 C   0  0  0  0  0  0  0  0  0  0  0  0
    0.3221    1.0298   -0.1622 H   0  0  0  0  0  0  0  0  0  0  0  0
    0.3711   -0.3240    0.9826 H   0  0  0  0  0  0  0  0  0  0  0  0
    0.3227   -0.6286   -0.7745 H   0  0  0  0  0  0  0  0  0  0  0  0
    2.4431    2.1660   -0.1206 H   0  0  0  0  0  0  0  0  0  0  0  0
    4.8929    2.1198   -0.1293 H   0  0  0  0  0  0  0  0  0  0  0  0
    7.0257    0.8362   -0.0086 H   0  0  0  0  0  0  0  0  0  0  0  0
    8.7422    0.2328    1.6823 H   0  0  0  0  0  0  0  0  0  0  0  0
   11.0737   -0.2769    2.3424 H   0  0  0  0  0  0  0  0  0  0  0  0
    8.7103   -3.2670   -0.8818 H   0  0  0  0  0  0  0  0  0  0  0  0
   13.2512   -4.0303    0.3463 H   0  0  0  0  0  0  0  0  0  0  0  0
   12.1539   -4.6032    1.6272 H   0  0  0  0  0  0  0  0  0  0  0  0
    5.2074   -4.3803    0.1410 H   0  0  0  0  0  0  0  0  0  0  0  0
    3.8398   -3.8346   -0.6642 H   0  0  0  0  0  0  0  0  0  0  0  0
    2.3421   -2.1251    0.0953 H   0  0  0  0  0  0  0  0  0  0  0  0
  1  2  1  0  0  0  0
  1 22  1  0  0  0  0
  1 23  1  0  0  0  0
  1 24  1  0  0  0  0
  2  3  1  0  0  0  0
  2 21  2  0  0  0  0
  3  4  2  0  0  0  0
  3 25  1  0  0  0  0
  4  5  1  0  0  0  0
  4 26  1  0  0  0  0
  5  6  1  0  0  0  0
  5 20  2  0  0  0  0
  6  7  2  0  0  0  0
  6 27  1  0  0  0  0
  7  8  1  0  0  0  0
  7 17  1  0  0  0  0
  8  9  1  0  0  0  0
  8 13  2  0  0  0  0
  9 10  2  0  0  0  0
  9 28  1  0  0  0  0
 10 11  1  0  0  0  0
 10 29  1  0  0  0  0
 11 12  2  0  0  0  0
 11 16  1  0  0  0  0
 12 13  1  0  0  0  0
 12 14  1  0  0  0  0
 13 30  1  0  0  0  0
 14 15  1  0  0  0  0
 15 16  1  0  0  0  0
 15 31  1  0  0  0  0
 15 32  1  0  0  0  0
 17 18  2  0  0  0  0
 18 19  1  0  0  0  0
 18 20  1  0  0  0  0
 19 33  1  0  0  0  0
 19 34  1  0  0  0  0
 20 21  1  0  0  0  0
 21 35  1  0  0  0  0
M  END
>  <Energy>
23.9248

$$$$

 OpenBabel04232616053D

 27 29  0  0  0  0  0  0  0  0999 V2000
   -2.0270   -0.5028   -0.5662 Cl  0  0  0  0  0  0  0  0  0  0  0  0
   -0.3282   -0.3171   -0.3720 C   0  0  0  0  0  0  0  0  0  0  0  0
    0.2079   -0.1523    0.9032 C   0  0  0  0  0  0  0  0  0  0  0  0
    1.5904   -0.0106    1.0674 C   0  0  0  0  0  0  0  0  0  0  0  0
    2.4417   -0.0311   -0.0473 C   0  0  0  0  0  0  0  0  0  0  0  0
    3.9377    0.0698    0.0946 C   0  0  0  0  0  0  0  0  0  0  0  0
    4.6554   -0.4010   -0.8790 N   0  0  0  0  0  0  0  0  0  0  0  0
    6.0559   -0.4422   -0.8381 C   0  0  0  0  0  0  0  0  0  0  0  0
    6.6852   -1.1637   -1.8617 C   0  0  0  0  0  0  0  0  0  0  0  0
    8.0765   -1.2706   -1.9283 C   0  0  0  0  0  0  0  0  0  0  0  0
    8.8595   -0.6567   -0.9550 C   0  0  0  0  0  0  0  0  0  0  0  0
    8.2497    0.0721    0.0623 C   0  0  0  0  0  0  0  0  0  0  0  0
    6.8511    0.1937    0.1202 C   0  0  0  0  0  0  0  0  0  0  0  0
    6.1588    1.2326    1.3799 S   0  0  0  0  0  0  0  0  0  0  0  0
    4.4604    0.6403    1.3963 C   0  0  0  0  0  0  0  0  0  0  0  0
    1.8870   -0.2018   -1.3249 C   0  0  0  0  0  0  0  0  0  0  0  0
    0.5050   -0.3418   -1.4867 C   0  0  0  0  0  0  0  0  0  0  0  0
   -0.4418   -0.1445    1.7744 H   0  0  0  0  0  0  0  0  0  0  0  0
    1.9731    0.0890    2.0789 H   0  0  0  0  0  0  0  0  0  0  0  0
    6.0754   -1.6437   -2.6235 H   0  0  0  0  0  0  0  0  0  0  0  0
    8.5402   -1.8267   -2.7371 H   0  0  0  0  0  0  0  0  0  0  0  0
    9.9433   -0.7365   -0.9982 H   0  0  0  0  0  0  0  0  0  0  0  0
    8.8738    0.5591    0.8087 H   0  0  0  0  0  0  0  0  0  0  0  0
    3.8438    1.5009    1.6774 H   0  0  0  0  0  0  0  0  0  0  0  0
    4.3630   -0.1219    2.1761 H   0  0  0  0  0  0  0  0  0  0  0  0
    2.5286   -0.2336   -2.2038 H   0  0  0  0  0  0  0  0  0  0  0  0
    0.0912   -0.4781   -2.4831 H   0  0  0  0  0  0  0  0  0  0  0  0
  1  2  1  0  0  0  0
  2  3  1  0  0  0  0
  2 17  2  0  0  0  0
  3  4  2  0  0  0  0
  3 18  1  0  0  0  0
  4  5  1  0  0  0  0
  4 19  1  0  0  0  0
  5  6  1  0  0  0  0
  5 16  2  0  0  0  0
  6  7  2  0  0  0  0
  6 15  1  0  0  0  0
  7  8  1  0  0  0  0
  8  9  1  0  0  0  0
  8 13  2  0  0  0  0
  9 10  2  0  0  0  0
  9 20  1  0  0  0  0
 10 11  1  0  0  0  0
 10 21  1  0  0  0  0
 11 12  2  0  0  0  0
 11 22  1  0  0  0  0
 12 13  1  0  0  0  0
 12 23  1  0  0  0  0
 13 14  1  0  0  0  0
 14 15  1  0  0  0  0
 15 24  1  0  0  0  0
 15 25  1  0  0  0  0
 16 17  1  0  0  0  0
 16 26  1  0  0  0  0
 17 27  1  0  0  0  0
M  END
>  <Energy>
80.5663

$$$$

 OpenBabel04232616053D

 29 31  0  0  0  0  0  0  0  0999 V2000
    0.9852   -0.0789   -0.4308 O   0  0  0  0  0  0  0  0  0  0  0  0
    2.1836   -0.0299   -0.1734 C   0  0  0  0  0  0  0  0  0  0  0  0
    2.7983   -0.5014    0.9749 N   0  0  0  0  0  0  0  0  0  0  0  0
    2.1502   -1.1602    2.0423 C   0  0  0  0  0  0  0  0  0  0  0  0
    0.8598   -1.6974    1.9411 C   0  0  0  0  0  0  0  0  0  0  0  0
    0.2375   -2.2809    3.0490 C   0  0  0  0  0  0  0  0  0  0  0  0
    0.9107   -2.3353    4.2605 C   0  0  0  0  0  0  0  0  0  0  0  0
    0.3035   -2.8693    5.3286 F   0  0  0  0  0  0  0  0  0  0  0  0
    2.2032   -1.8380    4.3615 C   0  0  0  0  0  0  0  0  0  0  0  0
    2.8550   -1.8931    5.5317 F   0  0  0  0  0  0  0  0  0  0  0  0
    2.8334   -1.2626    3.2589 C   0  0  0  0  0  0  0  0  0  0  0  0
    3.0688    0.6668   -1.1412 C   0  0  0  0  0  0  0  0  0  0  0  0
    2.5508    1.7852   -1.8108 C   0  0  0  0  0  0  0  0  0  0  0  0
    3.3031    2.4751   -2.7651 C   0  0  0  0  0  0  0  0  0  0  0  0
    4.5849    1.9865   -3.0272 C   0  0  0  0  0  0  0  0  0  0  0  0
    5.5543    2.4058   -3.9012 N   0  0  0  0  0  0  0  0  0  0  0  0
    6.6735    1.6613   -3.8761 N   0  0  0  0  0  0  0  0  0  0  0  0
    6.4058    0.7274   -2.9607 C   0  0  0  0  0  0  0  0  0  0  0  0
    5.1235    0.8752   -2.3867 C   0  0  0  0  0  0  0  0  0  0  0  0
    4.3610    0.1932   -1.4206 C   0  0  0  0  0  0  0  0  0  0  0  0
    3.7554   -0.2100    1.1366 H   0  0  0  0  0  0  0  0  0  0  0  0
    0.3088   -1.6810    1.0047 H   0  0  0  0  0  0  0  0  0  0  0  0
   -0.7684   -2.6808    2.9671 H   0  0  0  0  0  0  0  0  0  0  0  0
    3.8384   -0.8739    3.3851 H   0  0  0  0  0  0  0  0  0  0  0  0
    1.5376    2.1228   -1.5912 H   0  0  0  0  0  0  0  0  0  0  0  0
    2.8957    3.3372   -3.2837 H   0  0  0  0  0  0  0  0  0  0  0  0
    5.5103    3.1882   -4.5447 H   0  0  0  0  0  0  0  0  0  0  0  0
    7.1541   -0.0251   -2.7480 H   0  0  0  0  0  0  0  0  0  0  0  0
    4.7560   -0.6982   -0.9447 H   0  0  0  0  0  0  0  0  0  0  0  0
  1  2  2  0  0  0  0
  2  3  1  0  0  0  0
  2 12  1  0  0  0  0
  3  4  1  0  0  0  0
  3 21  1  0  0  0  0
  4  5  1  0  0  0  0
  4 11  2  0  0  0  0
  5  6  2  0  0  0  0
  5 22  1  0  0  0  0
  6  7  1  0  0  0  0
  6 23  1  0  0  0  0
  7  8  1  0  0  0  0
  7  9  2  0  0  0  0
  9 10  1  0  0  0  0
  9 11  1  0  0  0  0
 11 24  1  0  0  0  0
 12 13  1  0  0  0  0
 12 20  2  0  0  0  0
 13 14  2  0  0  0  0
 13 25  1  0  0  0  0
 14 15  1  0  0  0  0
 14 26  1  0  0  0  0
 15 16  1  0  0  0  0
 15 19  2  0  0  0  0
 16 17  1  0  0  0  0
 16 27  1  0  0  0  0
 17 18  2  0  0  0  0
 18 19  1  0  0  0  0
 18 28  1  0  0  0  0
 19 20  1  0  0  0  0
 20 29  1  0  0  0  0
M  END
>  <Energy>
42.9505

$$$$

 OpenBabel04232616053D

 32 35  0  0  0  0  0  0  0  0999 V2000
   -1.8500    2.2828    0.0185 C   0  0  0  0  0  0  0  0  0  0  0  0
   -1.3752    0.8551    0.0265 C   0  0  0  0  0  0  0  0  0  0  0  0
   -2.3223   -0.1721    0.0075 C   0  0  0  0  0  0  0  0  0  0  0  0
   -1.8798   -1.4804    0.0013 C   0  0  0  0  0  0  0  0  0  0  0  0
   -0.5801   -1.8338    0.0090 N   0  0  0  0  0  0  0  0  0  0  0  0
    0.3382   -0.8551    0.0203 C   0  0  0  0  0  0  0  0  0  0  0  0
    1.6761   -1.2158    0.0052 C   0  0  0  0  0  0  0  0  0  0  0  0
    2.6961   -0.2605   -0.0056 C   0  0  0  0  0  0  0  0  0  0  0  0
    2.3919    1.1019    0.0112 C   0  0  0  0  0  0  0  0  0  0  0  0
    3.4730    2.0808   -0.0304 C   0  0  0  0  0  0  0  0  0  0  0  0
    4.7703    1.8673   -0.1700 N   0  0  0  0  0  0  0  0  0  0  0  0
    5.3105    3.1263   -0.1655 C   0  0  0  0  0  0  0  0  0  0  0  0
    6.6364    3.5575   -0.2871 C   0  0  0  0  0  0  0  0  0  0  0  0
    6.8884    4.9365   -0.2397 C   0  0  0  0  0  0  0  0  0  0  0  0
    5.8456    5.8586   -0.0760 C   0  0  0  0  0  0  0  0  0  0  0  0
    4.5134    5.4415    0.0409 C   0  0  0  0  0  0  0  0  0  0  0  0
    4.3074    4.0686   -0.0120 C   0  0  0  0  0  0  0  0  0  0  0  0
    3.1194    3.4038    0.0733 O   0  0  0  0  0  0  0  0  0  0  0  0
    1.0427    1.4787    0.0435 C   0  0  0  0  0  0  0  0  0  0  0  0
    0.0010    0.5187    0.0351 C   0  0  0  0  0  0  0  0  0  0  0  0
   -2.9434    2.3433    0.0041 H   0  0  0  0  0  0  0  0  0  0  0  0
   -1.4823    2.7998   -0.8739 H   0  0  0  0  0  0  0  0  0  0  0  0
   -1.5039    2.8057    0.9157 H   0  0  0  0  0  0  0  0  0  0  0  0
   -3.3867    0.0359   -0.0075 H   0  0  0  0  0  0  0  0  0  0  0  0
   -2.5823   -2.3086   -0.0148 H   0  0  0  0  0  0  0  0  0  0  0  0
    1.9360   -2.2716   -0.0105 H   0  0  0  0  0  0  0  0  0  0  0  0
    3.7330   -0.5920   -0.0334 H   0  0  0  0  0  0  0  0  0  0  0  0
    7.4387    2.8395   -0.4134 H   0  0  0  0  0  0  0  0  0  0  0  0
    7.9125    5.2933   -0.3310 H   0  0  0  0  0  0  0  0  0  0  0  0
    6.0759    6.9218   -0.0387 H   0  0  0  0  0  0  0  0  0  0  0  0
    3.6952    6.1391    0.1656 H   0  0  0  0  0  0  0  0  0  0  0  0
    0.7959    2.5382    0.0612 H   0  0  0  0  0  0  0  0  0  0  0  0
  1  2  1  0  0  0  0
  1 21  1  0  0  0  0
  1 22  1  0  0  0  0
  1 23  1  0  0  0  0
  2  3  1  0  0  0  0
  2 20  2  0  0  0  0
  3  4  2  0  0  0  0
  3 24  1  0  0  0  0
  4  5  1  0  0  0  0
  4 25  1  0  0  0  0
  5  6  2  0  0  0  0
  6  7  1  0  0  0  0
  6 20  1  0  0  0  0
  7  8  2  0  0  0  0
  7 26  1  0  0  0  0
  8  9  1  0  0  0  0
  8 27  1  0  0  0  0
  9 10  1  0  0  0  0
  9 19  2  0  0  0  0
 10 11  2  0  0  0  0
 10 18  1  0  0  0  0
 11 12  1  0  0  0  0
 12 13  1  0  0  0  0
 12 17  2  0  0  0  0
 13 14  2  0  0  0  0
 13 28  1  0  0  0  0
 14 15  1  0  0  0  0
 14 29  1  0  0  0  0
 15 16  2  0  0  0  0
 15 30  1  0  0  0  0
 16 17  1  0  0  0  0
 16 31  1  0  0  0  0
 17 18  1  0  0  0  0
 19 20  1  0  0  0  0
 19 32  1  0  0  0  0
M  END
>  <Energy>
61.2102

$$$$

 OpenBabel04232616053D

 29 32  0  0  0  0  0  0  0  0999 V2000
    1.2989    0.4150   -0.1631 N   0  0  0  0  0  0  0  0  0  0  0  0
    2.6285    0.2182   -0.1431 C   0  0  0  0  0  0  0  0  0  0  0  0
    3.3134   -1.3630   -0.1246 S   0  0  0  0  0  0  0  0  0  0  0  0
    4.9516   -0.7860   -0.0680 C   0  0  0  0  0  0  0  0  0  0  0  0
    6.0579   -1.7364    0.0124 C   0  0  0  0  0  0  0  0  0  0  0  0
    7.2071   -1.6106   -0.7451 C   0  0  0  0  0  0  0  0  0  0  0  0
    8.3203   -2.3585   -0.5789 N   0  0  0  0  0  0  0  0  0  0  0  0
    8.2429   -3.3084    0.3640 C   0  0  0  0  0  0  0  0  0  0  0  0
    7.1637   -3.5873    1.1087 N   0  0  0  0  0  0  0  0  0  0  0  0
    6.0898   -2.7899    0.9085 C   0  0  0  0  0  0  0  0  0  0  0  0
    4.9326    0.5855   -0.0910 C   0  0  0  0  0  0  0  0  0  0  0  0
    3.6265    1.1464   -0.1347 C   0  0  0  0  0  0  0  0  0  0  0  0
    3.7013    2.5946   -0.1315 C   0  0  0  0  0  0  0  0  0  0  0  0
    2.7917    3.4049   -0.1490 O   0  0  0  0  0  0  0  0  0  0  0  0
    5.1718    2.8776   -0.0963 C   0  0  0  0  0  0  0  0  0  0  0  0
    5.8035    4.1079   -0.1027 C   0  0  0  0  0  0  0  0  0  0  0  0
    7.2003    4.1084   -0.0739 C   0  0  0  0  0  0  0  0  0  0  0  0
    7.9256    2.9036   -0.0136 C   0  0  0  0  0  0  0  0  0  0  0  0
    7.2727    1.6665    0.0173 C   0  0  0  0  0  0  0  0  0  0  0  0
    5.8940    1.6587   -0.0519 C   0  0  0  0  0  0  0  0  0  0  0  0
    0.6448   -0.3540   -0.0632 H   0  0  0  0  0  0  0  0  0  0  0  0
    0.8996    1.3476   -0.0740 H   0  0  0  0  0  0  0  0  0  0  0  0
    7.2910   -0.8556   -1.5229 H   0  0  0  0  0  0  0  0  0  0  0  0
    9.1347   -3.8979    0.5463 H   0  0  0  0  0  0  0  0  0  0  0  0
    5.2371   -3.0266    1.5397 H   0  0  0  0  0  0  0  0  0  0  0  0
    5.2377    5.0309   -0.1281 H   0  0  0  0  0  0  0  0  0  0  0  0
    7.7395    5.0534   -0.0852 H   0  0  0  0  0  0  0  0  0  0  0  0
    9.0145    2.9350    0.0160 H   0  0  0  0  0  0  0  0  0  0  0  0
    7.8661    0.7648    0.0946 H   0  0  0  0  0  0  0  0  0  0  0  0
  1  2  1  0  0  0  0
  1 21  1  0  0  0  0
  1 22  1  0  0  0  0
  2  3  1  0  0  0  0
  2 12  2  0  0  0  0
  3  4  1  0  0  0  0
  4  5  1  0  0  0  0
  4 11  2  0  0  0  0
  5  6  1  0  0  0  0
  5 10  2  0  0  0  0
  6  7  2  0  0  0  0
  6 23  1  0  0  0  0
  7  8  1  0  0  0  0
  8  9  2  0  0  0  0
  8 24  1  0  0  0  0
  9 10  1  0  0  0  0
 10 25  1  0  0  0  0
 11 12  1  0  0  0  0
 11 20  1  0  0  0  0
 12 13  1  0  0  0  0
 13 14  2  0  0  0  0
 13 15  1  0  0  0  0
 15 16  1  0  0  0  0
 15 20  2  0  0  0  0
 16 17  2  0  0  0  0
 16 26  1  0  0  0  0
 17 18  1  0  0  0  0
 17 27  1  0  0  0  0
 18 19  2  0  0  0  0
 18 28  1  0  0  0  0
 19 20  1  0  0  0  0
 19 29  1  0  0  0  0
M  END
>  <Energy>
72.8291

$$$$

 OpenBabel04232616053D

 30 32  0  0  0  0  0  0  0  0999 V2000
    1.1887    0.4300    0.4030 C   0  0  0  0  0  0  0  0  0  0  0  0
    2.5557    0.1134    0.1601 O   0  0  0  0  0  0  0  0  0  0  0  0
    3.2187    0.9882   -0.6536 C   0  0  0  0  0  0  0  0  0  0  0  0
    2.9813    2.3549   -0.7176 C   0  0  0  0  0  0  0  0  0  0  0  0
    3.7333    3.1484   -1.5898 C   0  0  0  0  0  0  0  0  0  0  0  0
    4.7181    2.5942   -2.4318 C   0  0  0  0  0  0  0  0  0  0  0  0
    4.9466    1.2208   -2.3587 C   0  0  0  0  0  0  0  0  0  0  0  0
    4.2209    0.4336   -1.4444 C   0  0  0  0  0  0  0  0  0  0  0  0
    5.9281    0.4984   -3.1906 C   0  0  0  0  0  0  0  0  0  0  0  0
    6.4772   -0.5087   -2.7404 O   0  0  0  0  0  0  0  0  0  0  0  0
    6.1225    0.8078   -4.5098 N   0  0  0  0  0  0  0  0  0  0  0  0
    5.8061    1.9461   -5.2616 C   0  0  0  0  0  0  0  0  0  0  0  0
    5.8947    1.7953   -6.6558 C   0  0  0  0  0  0  0  0  0  0  0  0
    5.6977    2.8837   -7.5027 C   0  0  0  0  0  0  0  0  0  0  0  0
    5.7591    2.6679   -9.2055 Cl  0  0  0  0  0  0  0  0  0  0  0  0
    5.4577    4.1433   -6.9753 C   0  0  0  0  0  0  0  0  0  0  0  0
    5.3778    4.3018   -5.5910 C   0  0  0  0  0  0  0  0  0  0  0  0
    5.5181    3.2059   -4.7139 C   0  0  0  0  0  0  0  0  0  0  0  0
    5.3651    3.4551   -3.3371 N   0  0  0  0  0  0  0  0  0  0  0  0
    0.7220   -0.4436    0.8683 H   0  0  0  0  0  0  0  0  0  0  0  0
    0.6542    0.6364   -0.5313 H   0  0  0  0  0  0  0  0  0  0  0  0
    1.0970    1.2679    1.1006 H   0  0  0  0  0  0  0  0  0  0  0  0
    2.2299    2.8308   -0.0969 H   0  0  0  0  0  0  0  0  0  0  0  0
    3.5181    4.2146   -1.6267 H   0  0  0  0  0  0  0  0  0  0  0  0
    4.4176   -0.6346   -1.3740 H   0  0  0  0  0  0  0  0  0  0  0  0
    6.6064    0.0562   -4.9888 H   0  0  0  0  0  0  0  0  0  0  0  0
    6.1014    0.8194   -7.0901 H   0  0  0  0  0  0  0  0  0  0  0  0
    5.3248    5.0027   -7.6257 H   0  0  0  0  0  0  0  0  0  0  0  0
    5.1869    5.2991   -5.1955 H   0  0  0  0  0  0  0  0  0  0  0  0
    5.1833    4.4326   -3.1361 H   0  0  0  0  0  0  0  0  0  0  0  0
  1  2  1  0  0  0  0
  1 20  1  0  0  0  0
  1 21  1  0  0  0  0
  1 22  1  0  0  0  0
  2  3  1  0  0  0  0
  3  4  1  0  0  0  0
  3  8  2  0  0  0  0
  4  5  2  0  0  0  0
  4 23  1  0  0  0  0
  5  6  1  0  0  0  0
  5 24  1  0  0  0  0
  6  7  2  0  0  0  0
  6 19  1  0  0  0  0
  7  8  1  0  0  0  0
  7  9  1  0  0  0  0
  8 25  1  0  0  0  0
  9 10  2  0  0  0  0
  9 11  1  0  0  0  0
 11 12  1  0  0  0  0
 11 26  1  0  0  0  0
 12 13  1  0  0  0  0
 12 18  2  0  0  0  0
 13 14  2  0  0  0  0
 13 27  1  0  0  0  0
 14 15  1  0  0  0  0
 14 16  1  0  0  0  0
 16 17  2  0  0  0  0
 16 28  1  0  0  0  0
 17 18  1  0  0  0  0
 17 29  1  0  0  0  0
 18 19  1  0  0  0  0
 19 30  1  0  0  0  0
M  END
>  <Energy>
54.2229

$$$$

 OpenBabel04232616053D

 46 48  0  0  0  0  0  0  0  0999 V2000
    2.5992   -0.3016    0.0613 C   0  0  0  0  0  0  0  0  0  0  0  0
    1.1045   -0.2042    0.1359 C   0  0  0  0  0  0  0  0  0  0  0  0
    0.4416    0.9249   -0.3454 C   0  0  0  0  0  0  0  0  0  0  0  0
   -0.9555    0.9885   -0.3159 C   0  0  0  0  0  0  0  0  0  0  0  0
   -1.7361   -0.0758    0.1741 C   0  0  0  0  0  0  0  0  0  0  0  0
   -3.2138   -0.0443    0.0756 C   0  0  0  0  0  0  0  0  0  0  0  0
   -3.8431    0.5427   -1.0468 C   0  0  0  0  0  0  0  0  0  0  0  0
   -5.2304    0.5847   -1.1457 C   0  0  0  0  0  0  0  0  0  0  0  0
   -5.9355    0.0336   -0.1034 C   0  0  0  0  0  0  0  0  0  0  0  0
   -5.2551   -0.5545    0.9625 C   0  0  0  0  0  0  0  0  0  0  0  0
   -3.9207   -0.6222    1.0910 N   0  0  0  0  0  0  0  0  0  0  0  0
   -6.2264   -1.0577    1.8335 N   0  0  0  0  0  0  0  0  0  0  0  0
   -5.9674   -1.7773    3.0402 C   0  0  0  0  0  0  0  0  0  0  0  0
   -7.5027   -0.7908    1.3219 C   0  0  0  0  0  0  0  0  0  0  0  0
   -8.5744   -1.1153    1.8153 O   0  0  0  0  0  0  0  0  0  0  0  0
   -7.3113   -0.0844    0.1130 N   0  0  0  0  0  0  0  0  0  0  0  0
   -8.3691    0.3573   -0.7643 C   0  0  0  0  0  0  0  0  0  0  0  0
   -8.9138    1.7901   -0.5007 C   0  0  0  0  0  0  0  0  0  0  0  0
   -7.8579    2.8574   -0.8335 C   0  0  0  0  0  0  0  0  0  0  0  0
  -10.1398    2.0006   -1.4144 C   0  0  0  0  0  0  0  0  0  0  0  0
   -9.3655    1.9823    0.9567 C   0  0  0  0  0  0  0  0  0  0  0  0
   -1.0524   -1.1820    0.7024 C   0  0  0  0  0  0  0  0  0  0  0  0
    0.3478   -1.2489    0.6796 C   0  0  0  0  0  0  0  0  0  0  0  0
    3.0365    0.5942   -0.3919 H   0  0  0  0  0  0  0  0  0  0  0  0
    2.8901   -1.1598   -0.5533 H   0  0  0  0  0  0  0  0  0  0  0  0
    3.0243   -0.4120    1.0638 H   0  0  0  0  0  0  0  0  0  0  0  0
    1.0007    1.7610   -0.7579 H   0  0  0  0  0  0  0  0  0  0  0  0
   -1.4291    1.8923   -0.6941 H   0  0  0  0  0  0  0  0  0  0  0  0
   -3.2463    0.9520   -1.8582 H   0  0  0  0  0  0  0  0  0  0  0  0
   -5.7107    1.0263   -2.0078 H   0  0  0  0  0  0  0  0  0  0  0  0
   -4.8979   -1.8725    3.2381 H   0  0  0  0  0  0  0  0  0  0  0  0
   -6.4200   -2.7715    2.9598 H   0  0  0  0  0  0  0  0  0  0  0  0
   -6.4538   -1.2546    3.8708 H   0  0  0  0  0  0  0  0  0  0  0  0
   -9.1946   -0.3568   -0.6547 H   0  0  0  0  0  0  0  0  0  0  0  0
   -8.0223    0.2668   -1.8012 H   0  0  0  0  0  0  0  0  0  0  0  0
   -7.4104    2.6837   -1.8172 H   0  0  0  0  0  0  0  0  0  0  0  0
   -7.0552    2.8717   -0.0883 H   0  0  0  0  0  0  0  0  0  0  0  0
   -8.2985    3.8610   -0.8498 H   0  0  0  0  0  0  0  0  0  0  0  0
   -9.9264    1.6987   -2.4457 H   0  0  0  0  0  0  0  0  0  0  0  0
  -10.4527    3.0506   -1.4323 H   0  0  0  0  0  0  0  0  0  0  0  0
  -10.9950    1.4096   -1.0661 H   0  0  0  0  0  0  0  0  0  0  0  0
   -8.5284    1.8890    1.6563 H   0  0  0  0  0  0  0  0  0  0  0  0
  -10.1259    1.2456    1.2373 H   0  0  0  0  0  0  0  0  0  0  0  0
   -9.7994    2.9784    1.1034 H   0  0  0  0  0  0  0  0  0  0  0  0
   -1.6138   -2.0194    1.1142 H   0  0  0  0  0  0  0  0  0  0  0  0
    0.8440   -2.1338    1.0756 H   0  0  0  0  0  0  0  0  0  0  0  0
  1  2  1  0  0  0  0
  1 24  1  0  0  0  0
  1 25  1  0  0  0  0
  1 26  1  0  0  0  0
  2  3  1  0  0  0  0
  2 23  2  0  0  0  0
  3  4  2  0  0  0  0
  3 27  1  0  0  0  0
  4  5  1  0  0  0  0
  4 28  1  0  0  0  0
  5  6  1  0  0  0  0
  5 22  2  0  0  0  0
  6  7  1  0  0  0  0
  6 11  2  0  0  0  0
  7  8  2  0  0  0  0
  7 29  1  0  0  0  0
  8  9  1  0  0  0  0
  8 30  1  0  0  0  0
  9 10  2  0  0  0  0
  9 16  1  0  0  0  0
 10 11  1  0  0  0  0
 10 12  1  0  0  0  0
 12 13  1  0  0  0  0
 12 14  1  0  0  0  0
 13 31  1  0  0  0  0
 13 32  1  0  0  0  0
 13 33  1  0  0  0  0
 14 15  2  0  0  0  0
 14 16  1  0  0  0  0
 16 17  1  0  0  0  0
 17 18  1  0  0  0  0
 17 34  1  0  0  0  0
 17 35  1  0  0  0  0
 18 19  1  0  0  0  0
 18 20  1  0  0  0  0
 18 21  1  0  0  0  0
 19 36  1  0  0  0  0
 19 37  1  0  0  0  0
 19 38  1  0  0  0  0
 20 39  1  0  0  0  0
 20 40  1  0  0  0  0
 20 41  1  0  0  0  0
 21 42  1  0  0  0  0
 21 43  1  0  0  0  0
 21 44  1  0  0  0  0
 22 23  1  0  0  0  0
 22 45  1  0  0  0  0
 23 46  1  0  0  0  0
M  END
>  <Energy>
17.597

$$$$

 OpenBabel04232616053D

 29 31  0  0  0  0  0  0  0  0999 V2000
    0.9607   -0.1077   -0.1636 F   0  0  0  0  0  0  0  0  0  0  0  0
    2.2970   -0.1360   -0.0420 C   0  0  0  0  0  0  0  0  0  0  0  0
    2.9885    1.0763   -0.0245 C   0  0  0  0  0  0  0  0  0  0  0  0
    4.3763    1.0828    0.1174 C   0  0  0  0  0  0  0  0  0  0  0  0
    5.0653   -0.1265    0.2075 C   0  0  0  0  0  0  0  0  0  0  0  0
    4.3611   -1.3303    0.1820 C   0  0  0  0  0  0  0  0  0  0  0  0
    5.0520   -2.4771    0.2739 F   0  0  0  0  0  0  0  0  0  0  0  0
    2.9709   -1.3499    0.0822 C   0  0  0  0  0  0  0  0  0  0  0  0
    2.2533   -2.5851    0.1736 C   0  0  0  0  0  0  0  0  0  0  0  0
    1.6634   -3.6199    0.3142 C   0  0  0  0  0  0  0  0  0  0  0  0
    0.9634   -4.8543    0.4963 C   0  0  0  0  0  0  0  0  0  0  0  0
    1.6473   -6.0648    0.4223 C   0  0  0  0  0  0  0  0  0  0  0  0
    0.9484   -7.2700    0.5540 C   0  0  0  0  0  0  0  0  0  0  0  0
   -0.4272   -7.2988    0.7363 C   0  0  0  0  0  0  0  0  0  0  0  0
   -1.0571   -8.4824    0.7993 N   0  0  0  0  0  0  0  0  0  0  0  0
   -2.3994   -8.4656    0.9225 C   0  0  0  0  0  0  0  0  0  0  0  0
   -3.1324  -10.0166    0.9428 Cl  0  0  0  0  0  0  0  0  0  0  0  0
   -3.1677   -7.3212    1.0109 C   0  0  0  0  0  0  0  0  0  0  0  0
   -2.5079   -6.0989    0.9768 C   0  0  0  0  0  0  0  0  0  0  0  0
   -1.1153   -6.0669    0.8232 C   0  0  0  0  0  0  0  0  0  0  0  0
   -0.4130   -4.8528    0.7236 C   0  0  0  0  0  0  0  0  0  0  0  0
    2.4358    2.0078   -0.1065 H   0  0  0  0  0  0  0  0  0  0  0  0
    4.9179    2.0251    0.1607 H   0  0  0  0  0  0  0  0  0  0  0  0
    6.1465   -0.1431    0.3124 H   0  0  0  0  0  0  0  0  0  0  0  0
    2.7209   -6.0849    0.2494 H   0  0  0  0  0  0  0  0  0  0  0  0
    1.4899   -8.2111    0.4872 H   0  0  0  0  0  0  0  0  0  0  0  0
   -4.2469   -7.3729    1.0928 H   0  0  0  0  0  0  0  0  0  0  0  0
   -3.0824   -5.1783    1.0439 H   0  0  0  0  0  0  0  0  0  0  0  0
   -0.9437   -3.9057    0.7959 H   0  0  0  0  0  0  0  0  0  0  0  0
  1  2  1  0  0  0  0
  2  3  1  0  0  0  0
  2  8  2  0  0  0  0
  3  4  2  0  0  0  0
  3 22  1  0  0  0  0
  4  5  1  0  0  0  0
  4 23  1  0  0  0  0
  5  6  2  0  0  0  0
  5 24  1  0  0  0  0
  6  7  1  0  0  0  0
  6  8  1  0  0  0  0
  8  9  1  0  0  0  0
  9 10  3  0  0  0  0
 10 11  1  0  0  0  0
 11 12  1  0  0  0  0
 11 21  2  0  0  0  0
 12 13  2  0  0  0  0
 12 25  1  0  0  0  0
 13 14  1  0  0  0  0
 13 26  1  0  0  0  0
 14 15  1  0  0  0  0
 14 20  2  0  0  0  0
 15 16  2  0  0  0  0
 16 17  1  0  0  0  0
 16 18  1  0  0  0  0
 18 19  2  0  0  0  0
 18 27  1  0  0  0  0
 19 20  1  0  0  0  0
 19 28  1  0  0  0  0
 20 21  1  0  0  0  0
 21 29  1  0  0  0  0
M  END
>  <Energy>
41.667

$$$$

 OpenBabel04232616053D

 33 35  0  0  0  0  0  0  0  0999 V2000
    2.4404    0.2279   -0.1341 C   0  0  0  0  0  0  0  0  0  0  0  0
    0.9407    0.1797   -0.0973 C   0  0  0  0  0  0  0  0  0  0  0  0
    0.2455    0.2022    1.1190 C   0  0  0  0  0  0  0  0  0  0  0  0
   -1.1517    0.1722    1.1377 C   0  0  0  0  0  0  0  0  0  0  0  0
   -1.8582    0.1240   -0.0689 C   0  0  0  0  0  0  0  0  0  0  0  0
   -3.6419    0.0433   -0.0443 S   0  0  0  0  0  0  0  0  0  0  0  0
   -4.0737   -0.6116   -1.2662 O   0  0  0  0  0  0  0  0  0  0  0  0
   -3.9844   -0.5697    1.2313 O   0  0  0  0  0  0  0  0  0  0  0  0
   -4.1551    1.6951   -0.0446 C   0  0  0  0  0  0  0  0  0  0  0  0
   -4.9560    2.1265    0.9440 C   0  0  0  0  0  0  0  0  0  0  0  0
   -5.4003    3.5105    0.9684 C   0  0  0  0  0  0  0  0  0  0  0  0
   -6.2429    4.0079    1.9641 C   0  0  0  0  0  0  0  0  0  0  0  0
   -6.6106    5.3578    1.9582 C   0  0  0  0  0  0  0  0  0  0  0  0
   -6.1376    6.2143    0.9610 C   0  0  0  0  0  0  0  0  0  0  0  0
   -5.3056    5.7217   -0.0418 C   0  0  0  0  0  0  0  0  0  0  0  0
   -4.9532    4.3748   -0.0252 C   0  0  0  0  0  0  0  0  0  0  0  0
   -4.1292    3.9062   -1.0633 O   0  0  0  0  0  0  0  0  0  0  0  0
   -3.7474    2.5686   -1.1525 C   0  0  0  0  0  0  0  0  0  0  0  0
   -3.0940    2.1805   -2.1116 O   0  0  0  0  0  0  0  0  0  0  0  0
   -1.1742    0.0579   -1.2841 C   0  0  0  0  0  0  0  0  0  0  0  0
    0.2204    0.1039   -1.2966 C   0  0  0  0  0  0  0  0  0  0  0  0
    2.8669    0.2739    0.8731 H   0  0  0  0  0  0  0  0  0  0  0  0
    2.7744    1.1156   -0.6811 H   0  0  0  0  0  0  0  0  0  0  0  0
    2.8351   -0.6672   -0.6259 H   0  0  0  0  0  0  0  0  0  0  0  0
    0.7897    0.2350    2.0610 H   0  0  0  0  0  0  0  0  0  0  0  0
   -1.6713    0.1706    2.0932 H   0  0  0  0  0  0  0  0  0  0  0  0
   -5.2860    1.4757    1.7493 H   0  0  0  0  0  0  0  0  0  0  0  0
   -6.6207    3.3598    2.7515 H   0  0  0  0  0  0  0  0  0  0  0  0
   -7.2663    5.7442    2.7356 H   0  0  0  0  0  0  0  0  0  0  0  0
   -6.4213    7.2641    0.9653 H   0  0  0  0  0  0  0  0  0  0  0  0
   -4.9385    6.3783   -0.8253 H   0  0  0  0  0  0  0  0  0  0  0  0
   -1.7146   -0.0111   -2.2267 H   0  0  0  0  0  0  0  0  0  0  0  0
    0.7434    0.0774   -2.2506 H   0  0  0  0  0  0  0  0  0  0  0  0
  1  2  1  0  0  0  0
  1 22  1  0  0  0  0
  1 23  1  0  0  0  0
  1 24  1  0  0  0  0
  2  3  1  0  0  0  0
  2 21  2  0  0  0  0
  3  4  2  0  0  0  0
  3 25  1  0  0  0  0
  4  5  1  0  0  0  0
  4 26  1  0  0  0  0
  5  6  1  0  0  0  0
  5 20  2  0  0  0  0
  6  7  2  0  0  0  0
  6  8  2  0  0  0  0
  6  9  1  0  0  0  0
  9 10  2  0  0  0  0
  9 18  1  0  0  0  0
 10 11  1  0  0  0  0
 10 27  1  0  0  0  0
 11 12  1  0  0  0  0
 11 16  2  0  0  0  0
 12 13  2  0  0  0  0
 12 28  1  0  0  0  0
 13 14  1  0  0  0  0
 13 29  1  0  0  0  0
 14 15  2  0  0  0  0
 14 30  1  0  0  0  0
 15 16  1  0  0  0  0
 15 31  1  0  0  0  0
 16 17  1  0  0  0  0
 17 18  1  0  0  0  0
 18 19  2  0  0  0  0
 20 21  1  0  0  0  0
 20 32  1  0  0  0  0
 21 33  1  0  0  0  0
M  END
>  <Energy>
49.6925

$$$$

 OpenBabel04232616053D

 28 30  0  0  0  0  0  0  0  0999 V2000
    1.3382    0.2111    0.5127 O   0  0  0  0  0  0  0  0  0  0  0  0
    2.5282    0.1065    0.2527 C   0  0  0  0  0  0  0  0  0  0  0  0
    3.1948   -1.0934    0.2215 N   0  0  0  0  0  0  0  0  0  0  0  0
    4.4137   -0.8044   -0.0913 C   0  0  0  0  0  0  0  0  0  0  0  0
    5.5127   -1.7582   -0.2269 C   0  0  0  0  0  0  0  0  0  0  0  0
    6.6326   -1.4915   -1.0103 C   0  0  0  0  0  0  0  0  0  0  0  0
    6.7723   -0.3160   -1.6391 F   0  0  0  0  0  0  0  0  0  0  0  0
    7.6285   -2.4556   -1.1880 C   0  0  0  0  0  0  0  0  0  0  0  0
    7.5131   -3.7038   -0.5743 C   0  0  0  0  0  0  0  0  0  0  0  0
    6.4076   -3.9742    0.2279 C   0  0  0  0  0  0  0  0  0  0  0  0
    5.4198   -3.0049    0.3973 C   0  0  0  0  0  0  0  0  0  0  0  0
    4.3849   -3.3076    1.1943 F   0  0  0  0  0  0  0  0  0  0  0  0
    4.6761    0.5085   -0.2989 O   0  0  0  0  0  0  0  0  0  0  0  0
    3.4150    1.1179   -0.0541 N   0  0  0  0  0  0  0  0  0  0  0  0
    3.2685    2.5109   -0.0771 C   0  0  0  0  0  0  0  0  0  0  0  0
    2.0896    3.1156    0.3841 C   0  0  0  0  0  0  0  0  0  0  0  0
    1.9289    4.5037    0.3555 C   0  0  0  0  0  0  0  0  0  0  0  0
    2.9469    5.3040   -0.1495 C   0  0  0  0  0  0  0  0  0  0  0  0
    2.7421    7.0102   -0.2066 Cl  0  0  0  0  0  0  0  0  0  0  0  0
    4.1274    4.7260   -0.6112 C   0  0  0  0  0  0  0  0  0  0  0  0
    4.2930    3.3336   -0.5664 C   0  0  0  0  0  0  0  0  0  0  0  0
    8.4855   -2.2320   -1.8175 H   0  0  0  0  0  0  0  0  0  0  0  0
    8.2786   -4.4626   -0.7211 H   0  0  0  0  0  0  0  0  0  0  0  0
    6.2986   -4.9370    0.7205 H   0  0  0  0  0  0  0  0  0  0  0  0
    1.2720    2.5247    0.7905 H   0  0  0  0  0  0  0  0  0  0  0  0
    1.0073    4.9448    0.7269 H   0  0  0  0  0  0  0  0  0  0  0  0
    4.9211    5.3514   -1.0124 H   0  0  0  0  0  0  0  0  0  0  0  0
    5.2203    2.9067   -0.9405 H   0  0  0  0  0  0  0  0  0  0  0  0
  1  2  2  0  0  0  0
  2  3  1  0  0  0  0
  2 14  1  0  0  0  0
  3  4  2  0  0  0  0
  4  5  1  0  0  0  0
  4 13  1  0  0  0  0
  5  6  1  0  0  0  0
  5 11  2  0  0  0  0
  6  7  1  0  0  0  0
  6  8  2  0  0  0  0
  8  9  1  0  0  0  0
  8 22  1  0  0  0  0
  9 10  2  0  0  0  0
  9 23  1  0  0  0  0
 10 11  1  0  0  0  0
 10 24  1  0  0  0  0
 11 12  1  0  0  0  0
 13 14  1  0  0  0  0
 14 15  1  0  0  0  0
 15 16  1  0  0  0  0
 15 21  2  0  0  0  0
 16 17  2  0  0  0  0
 16 25  1  0  0  0  0
 17 18  1  0  0  0  0
 17 26  1  0  0  0  0
 18 19  1  0  0  0  0
 18 20  2  0  0  0  0
 20 21  1  0  0  0  0
 20 27  1  0  0  0  0
 21 28  1  0  0  0  0
M  END
>  <Energy>
33.4292

$$$$

 OpenBabel04232616053D

 39 41  0  0  1  0  0  0  0  0999 V2000
    0.9752   -0.0032    0.0660 C   0  0  0  0  0  0  0  0  0  0  0  0
    2.4776   -0.0392    0.0710 C   0  0  0  0  0  0  0  0  0  0  0  0
    3.2253    1.1490    0.0801 C   0  0  0  0  0  0  0  0  0  0  0  0
    4.6273    1.1220    0.0984 C   0  0  0  0  0  0  0  0  0  0  0  0
    5.5232    2.5854    0.1140 Cl  0  0  0  0  0  0  0  0  0  0  0  0
    5.2486   -0.1276    0.1134 C   0  0  0  0  0  0  0  0  0  0  0  0
    6.5886   -0.3763    0.1376 O   0  0  0  0  0  0  0  0  0  0  0  0
    6.7745   -1.7326    0.1970 C   0  0  0  0  0  0  0  0  0  0  0  0
    8.1202   -2.3127    0.2174 C   0  0  0  0  0  0  0  0  0  0  0  0
    8.3043   -3.4145   -0.3102 O   0  0  0  0  0  0  0  0  0  0  0  0
    9.2060   -1.6722    0.8621 N   0  0  0  0  0  0  0  0  0  0  0  0
    9.1446   -0.3761    1.5356 C   0  0  0  0  0  0  0  0  0  0  0  0
   10.5147   -2.3842    0.8666 C   0  0  3  0  0  0  0  0  0  0  0  0
   11.1086   -2.6145    2.2459 C   0  0  0  0  0  0  0  0  0  0  0  0
   12.0826   -1.4704    2.4349 C   0  0  0  0  0  0  0  0  0  0  0  0
   12.4501   -0.9879    1.1399 O   0  0  0  0  0  0  0  0  0  0  0  0
   11.6353   -1.6338    0.1485 C   0  0  0  0  0  0  0  0  0  0  0  0
    5.5290   -2.3614    0.1300 C   0  0  0  0  0  0  0  0  0  0  0  0
    5.2274   -3.8174    0.1030 C   0  0  0  0  0  0  0  0  0  0  0  0
    4.5476   -1.3230    0.1056 C   0  0  0  0  0  0  0  0  0  0  0  0
    3.1384   -1.2810    0.0767 C   0  0  0  0  0  0  0  0  0  0  0  0
    0.5947    1.0233    0.0623 H   0  0  0  0  0  0  0  0  0  0  0  0
    0.5841   -0.5021    0.9589 H   0  0  0  0  0  0  0  0  0  0  0  0
    0.5881   -0.5082   -0.8254 H   0  0  0  0  0  0  0  0  0  0  0  0
    2.7146    2.1085    0.0748 H   0  0  0  0  0  0  0  0  0  0  0  0
    8.1884    0.1278    1.4628 H   0  0  0  0  0  0  0  0  0  0  0  0
    9.9049    0.2839    1.1101 H   0  0  0  0  0  0  0  0  0  0  0  0
    9.3402   -0.5232    2.6006 H   0  0  0  0  0  0  0  0  0  0  0  0
   10.3880   -3.3551    0.3784 H   0  0  0  0  0  0  0  0  0  0  0  0
   11.6814   -3.5515    2.2345 H   0  0  0  0  0  0  0  0  0  0  0  0
   10.3793   -2.6933    3.0570 H   0  0  0  0  0  0  0  0  0  0  0  0
   12.9812   -1.7801    2.9778 H   0  0  0  0  0  0  0  0  0  0  0  0
   11.6331   -0.6395    2.9863 H   0  0  0  0  0  0  0  0  0  0  0  0
   12.2841   -2.3361   -0.3872 H   0  0  0  0  0  0  0  0  0  0  0  0
   11.2772   -0.8883   -0.5671 H   0  0  0  0  0  0  0  0  0  0  0  0
    6.1238   -4.4410    0.1065 H   0  0  0  0  0  0  0  0  0  0  0  0
    4.6510   -4.0648   -0.7944 H   0  0  0  0  0  0  0  0  0  0  0  0
    4.6287   -4.0921    0.9779 H   0  0  0  0  0  0  0  0  0  0  0  0
    2.5673   -2.2058    0.0686 H   0  0  0  0  0  0  0  0  0  0  0  0
  1  2  1  0  0  0  0
  1 22  1  0  0  0  0
  1 23  1  0  0  0  0
  1 24  1  0  0  0  0
  2  3  1  0  0  0  0
  2 21  2  0  0  0  0
  3  4  2  0  0  0  0
  3 25  1  0  0  0  0
  4  5  1  0  0  0  0
  4  6  1  0  0  0  0
  6  7  1  0  0  0  0
  6 20  2  0  0  0  0
  7  8  1  0  0  0  0
  8  9  1  0  0  0  0
  8 18  2  0  0  0  0
  9 10  2  0  0  0  0
  9 11  1  0  0  0  0
 11 12  1  0  0  0  0
 11 13  1  0  0  0  0
 12 26  1  0  0  0  0
 12 27  1  0  0  0  0
 12 28  1  0  0  0  0
 13 14  1  0  0  0  0
 13 17  1  0  0  0  0
 13 29  1  0  0  0  0
 14 15  1  0  0  0  0
 14 30  1  0  0  0  0
 14 31  1  0  0  0  0
 15 16  1  0  0  0  0
 15 32  1  0  0  0  0
 15 33  1  0  0  0  0
 16 17  1  0  0  0  0
 17 34  1  0  0  0  0
 17 35  1  0  0  0  0
 18 19  1  0  0  0  0
 18 20  1  0  0  0  0
 19 36  1  0  0  0  0
 19 37  1  0  0  0  0
 19 38  1  0  0  0  0
 20 21  1  0  0  0  0
 21 39  1  0  0  0  0
M  END
>  <Energy>
57.7325

$$$$

 OpenBabel04232616053D

 28 30  0  0  0  0  0  0  0  0999 V2000
    1.2769    0.5891   -0.7134 C   0  0  0  0  0  0  0  0  0  0  0  0
    2.3599    0.0150    0.0057 O   0  0  0  0  0  0  0  0  0  0  0  0
    3.0329   -1.0044   -0.6072 C   0  0  0  0  0  0  0  0  0  0  0  0
    2.7085   -1.5930   -1.8284 C   0  0  0  0  0  0  0  0  0  0  0  0
    3.4900   -2.6422   -2.3338 C   0  0  0  0  0  0  0  0  0  0  0  0
    4.6040   -3.1195   -1.6284 C   0  0  0  0  0  0  0  0  0  0  0  0
    5.3959   -4.2063   -2.1890 C   0  0  0  0  0  0  0  0  0  0  0  0
    5.5411   -4.3547   -3.5552 N   0  0  0  0  0  0  0  0  0  0  0  0
    6.3121   -5.4061   -3.7400 C   0  0  0  0  0  0  0  0  0  0  0  0
    6.7534   -5.9483   -4.9140 N   0  0  0  0  0  0  0  0  0  0  0  0
    7.5278   -6.9847   -4.8120 C   0  0  0  0  0  0  0  0  0  0  0  0
    7.9763   -7.6349   -3.5495 C   0  0  0  0  0  0  0  0  0  0  0  0
    7.5065   -7.0742   -2.4275 C   0  0  0  0  0  0  0  0  0  0  0  0
    6.6723   -5.9637   -2.5151 N   0  0  0  0  0  0  0  0  0  0  0  0
    6.0598   -5.2274   -1.5319 C   0  0  0  0  0  0  0  0  0  0  0  0
    6.0980   -5.6239    0.2968 Br  0  0  0  0  0  0  0  0  0  0  0  0
    4.9395   -2.4948   -0.4234 C   0  0  0  0  0  0  0  0  0  0  0  0
    4.1493   -1.4629    0.0907 C   0  0  0  0  0  0  0  0  0  0  0  0
    0.8719    1.4065   -0.1091 H   0  0  0  0  0  0  0  0  0  0  0  0
    0.4758   -0.1409   -0.8673 H   0  0  0  0  0  0  0  0  0  0  0  0
    1.6157    1.0136   -1.6642 H   0  0  0  0  0  0  0  0  0  0  0  0
    1.8590   -1.2627   -2.4168 H   0  0  0  0  0  0  0  0  0  0  0  0
    3.2248   -3.0837   -3.2938 H   0  0  0  0  0  0  0  0  0  0  0  0
    7.9088   -7.4535   -5.7340 H   0  0  0  0  0  0  0  0  0  0  0  0
    8.6322   -8.4924   -3.5837 H   0  0  0  0  0  0  0  0  0  0  0  0
    7.7541   -7.4461   -1.4422 H   0  0  0  0  0  0  0  0  0  0  0  0
    5.8275   -2.7783    0.1316 H   0  0  0  0  0  0  0  0  0  0  0  0
    4.4172   -1.0053    1.0401 H   0  0  0  0  0  0  0  0  0  0  0  0
  1  2  1  0  0  0  0
  1 19  1  0  0  0  0
  1 20  1  0  0  0  0
  1 21  1  0  0  0  0
  2  3  1  0  0  0  0
  3  4  1  0  0  0  0
  3 18  2  0  0  0  0
  4  5  2  0  0  0  0
  4 22  1  0  0  0  0
  5  6  1  0  0  0  0
  5 23  1  0  0  0  0
  6  7  1  0  0  0  0
  6 17  2  0  0  0  0
  7  8  1  0  0  0  0
  7 15  2  0  0  0  0
  8  9  2  0  0  0  0
  9 10  1  0  0  0  0
  9 14  1  0  0  0  0
 10 11  2  0  0  0  0
 11 12  1  0  0  0  0
 11 24  1  0  0  0  0
 12 13  2  0  0  0  0
 12 25  1  0  0  0  0
 13 14  1  0  0  0  0
 13 26  1  0  0  0  0
 14 15  1  0  0  0  0
 15 16  1  0  0  0  0
 17 18  1  0  0  0  0
 17 27  1  0  0  0  0
 18 28  1  0  0  0  0
M  END
>  <Energy>
57.5738

$$$$

 OpenBabel04232616053D

 41 44  0  0  0  0  0  0  0  0999 V2000
    1.1820    0.0444    0.3122 N   0  0  0  0  0  0  0  0  0  0  0  0
    2.5421   -0.0277    0.1551 C   0  0  0  0  0  0  0  0  0  0  0  0
    3.2510   -1.1659   -0.0137 C   0  0  0  0  0  0  0  0  0  0  0  0
    2.7309   -2.4741   -0.1302 C   0  0  0  0  0  0  0  0  0  0  0  0
    1.5668   -2.7845   -0.6798 N   0  0  0  0  0  0  0  0  0  0  0  0
    1.3756   -4.1553   -0.6952 C   0  0  0  0  0  0  0  0  0  0  0  0
    0.2749   -4.8278   -1.2625 C   0  0  0  0  0  0  0  0  0  0  0  0
    0.2033   -6.2234   -1.1967 C   0  0  0  0  0  0  0  0  0  0  0  0
    1.2105   -6.9512   -0.5708 C   0  0  0  0  0  0  0  0  0  0  0  0
    2.3153   -6.3047   -0.0071 C   0  0  0  0  0  0  0  0  0  0  0  0
    2.3799   -4.9046   -0.0869 C   0  0  0  0  0  0  0  0  0  0  0  0
    3.6000   -3.8386    0.4826 S   0  0  0  0  0  0  0  0  0  0  0  0
    4.6604   -0.7423   -0.1776 C   0  0  0  0  0  0  0  0  0  0  0  0
    5.6201   -1.4892   -0.3116 O   0  0  0  0  0  0  0  0  0  0  0  0
    4.7322    0.7681   -0.1910 C   0  0  0  0  0  0  0  0  0  0  0  0
    3.3395    1.1141    0.1147 N   0  0  0  0  0  0  0  0  0  0  0  0
    2.9759    2.4646    0.5460 C   0  0  0  0  0  0  0  0  0  0  0  0
    3.3227    3.4909   -0.5406 C   0  0  0  0  0  0  0  0  0  0  0  0
    2.9479    4.9058   -0.1038 C   0  0  0  0  0  0  0  0  0  0  0  0
    3.5955    5.2708    1.2288 C   0  0  0  0  0  0  0  0  0  0  0  0
    3.2680    4.2485    2.3167 C   0  0  0  0  0  0  0  0  0  0  0  0
    3.6352    2.8305    1.8833 C   0  0  0  0  0  0  0  0  0  0  0  0
    0.7220   -0.8106   -0.0133 H   0  0  0  0  0  0  0  0  0  0  0  0
    0.7989    0.8593   -0.1534 H   0  0  0  0  0  0  0  0  0  0  0  0
   -0.5069   -4.2556   -1.7519 H   0  0  0  0  0  0  0  0  0  0  0  0
   -0.6458   -6.7385   -1.6393 H   0  0  0  0  0  0  0  0  0  0  0  0
    1.1403   -8.0350   -0.5214 H   0  0  0  0  0  0  0  0  0  0  0  0
    3.1044   -6.8743    0.4759 H   0  0  0  0  0  0  0  0  0  0  0  0
    5.0062    1.1070   -1.1937 H   0  0  0  0  0  0  0  0  0  0  0  0
    5.4391    1.1147    0.5660 H   0  0  0  0  0  0  0  0  0  0  0  0
    1.8904    2.5160    0.6986 H   0  0  0  0  0  0  0  0  0  0  0  0
    2.7973    3.2434   -1.4709 H   0  0  0  0  0  0  0  0  0  0  0  0
    4.3954    3.4618   -0.7686 H   0  0  0  0  0  0  0  0  0  0  0  0
    1.8581    4.9840   -0.0139 H   0  0  0  0  0  0  0  0  0  0  0  0
    3.2577    5.6225   -0.8730 H   0  0  0  0  0  0  0  0  0  0  0  0
    3.2561    6.2639    1.5421 H   0  0  0  0  0  0  0  0  0  0  0  0
    4.6835    5.3315    1.1019 H   0  0  0  0  0  0  0  0  0  0  0  0
    2.1978    4.2953    2.5496 H   0  0  0  0  0  0  0  0  0  0  0  0
    3.8069    4.5060    3.2358 H   0  0  0  0  0  0  0  0  0  0  0  0
    3.3300    2.1189    2.6609 H   0  0  0  0  0  0  0  0  0  0  0  0
    4.7269    2.7642    1.8112 H   0  0  0  0  0  0  0  0  0  0  0  0
  1  2  1  0  0  0  0
  1 23  1  0  0  0  0
  1 24  1  0  0  0  0
  2  3  2  0  0  0  0
  2 16  1  0  0  0  0
  3  4  1  0  0  0  0
  3 13  1  0  0  0  0
  4  5  2  0  0  0  0
  4 12  1  0  0  0  0
  5  6  1  0  0  0  0
  6  7  1  0  0  0  0
  6 11  2  0  0  0  0
  7  8  2  0  0  0  0
  7 25  1  0  0  0  0
  8  9  1  0  0  0  0
  8 26  1  0  0  0  0
  9 10  2  0  0  0  0
  9 27  1  0  0  0  0
 10 11  1  0  0  0  0
 10 28  1  0  0  0  0
 11 12  1  0  0  0  0
 13 14  2  0  0  0  0
 13 15  1  0  0  0  0
 15 16  1  0  0  0  0
 15 29  1  0  0  0  0
 15 30  1  0  0  0  0
 16 17  1  0  0  0  0
 17 18  1  0  0  0  0
 17 22  1  0  0  0  0
 17 31  1  0  0  0  0
 18 19  1  0  0  0  0
 18 32  1  0  0  0  0
 18 33  1  0  0  0  0
 19 20  1  0  0  0  0
 19 34  1  0  0  0  0
 19 35  1  0  0  0  0
 20 21  1  0  0  0  0
 20 36  1  0  0  0  0
 20 37  1  0  0  0  0
 21 22  1  0  0  0  0
 21 38  1  0  0  0  0
 21 39  1  0  0  0  0
 22 40  1  0  0  0  0
 22 41  1  0  0  0  0
M  END
>  <Energy>
27.9983

$$$$

 OpenBabel04232616053D

 37 39  0  0  1  0  0  0  0  0999 V2000
    3.2255    1.2577   -0.7958 C   0  0  0  0  0  0  0  0  0  0  0  0
    2.6290    0.0940   -0.0428 C   0  0  0  0  0  0  0  0  0  0  0  0
    1.5753   -0.4321   -0.3997 O   0  0  0  0  0  0  0  0  0  0  0  0
    3.3539   -0.3230    1.0493 N   0  0  0  0  0  0  0  0  0  0  0  0
    4.4048    0.3817    1.5506 N   0  0  0  0  0  0  0  0  0  0  0  0
    4.6695   -0.2098    2.6709 C   0  0  0  0  0  0  0  0  0  0  0  0
    5.7429    0.1596    3.6028 C   0  0  0  0  0  0  0  0  0  0  0  0
    6.4914    1.3119    3.3335 C   0  0  0  0  0  0  0  0  0  0  0  0
    7.5394    1.6825    4.1764 C   0  0  0  0  0  0  0  0  0  0  0  0
    7.8520    0.9052    5.2963 C   0  0  0  0  0  0  0  0  0  0  0  0
    8.9920    1.2826    6.1958 C   0  0  0  0  0  0  0  0  0  0  0  0
    7.0977   -0.2458    5.5640 C   0  0  0  0  0  0  0  0  0  0  0  0
    6.0451   -0.6190    4.7230 C   0  0  0  0  0  0  0  0  0  0  0  0
    3.8943   -1.2678    3.0281 O   0  0  0  0  0  0  0  0  0  0  0  0
    2.9809   -1.4063    1.9320 C   0  0  3  0  0  0  0  0  0  0  0  0
    3.1205   -2.7772    1.2922 C   0  0  0  0  0  0  0  0  0  0  0  0
    1.9962   -3.3950    0.7171 C   0  0  0  0  0  0  0  0  0  0  0  0
    2.1013   -4.6387    0.0889 C   0  0  0  0  0  0  0  0  0  0  0  0
    3.3354   -5.2794    0.0304 C   0  0  0  0  0  0  0  0  0  0  0  0
    3.4708   -6.8102   -0.7437 Cl  0  0  0  0  0  0  0  0  0  0  0  0
    4.4640   -4.6843    0.5876 C   0  0  0  0  0  0  0  0  0  0  0  0
    4.3574   -3.4370    1.2101 C   0  0  0  0  0  0  0  0  0  0  0  0
    2.5452    1.5667   -1.5931 H   0  0  0  0  0  0  0  0  0  0  0  0
    4.1783    0.9581   -1.2420 H   0  0  0  0  0  0  0  0  0  0  0  0
    3.3774    2.1100   -0.1264 H   0  0  0  0  0  0  0  0  0  0  0  0
    6.2671    1.9269    2.4642 H   0  0  0  0  0  0  0  0  0  0  0  0
    8.1115    2.5796    3.9472 H   0  0  0  0  0  0  0  0  0  0  0  0
    9.4494    2.2285    5.8880 H   0  0  0  0  0  0  0  0  0  0  0  0
    9.7655    0.5085    6.1647 H   0  0  0  0  0  0  0  0  0  0  0  0
    8.6387    1.4009    7.2248 H   0  0  0  0  0  0  0  0  0  0  0  0
    7.3320   -0.8621    6.4300 H   0  0  0  0  0  0  0  0  0  0  0  0
    5.4795   -1.5193    4.9477 H   0  0  0  0  0  0  0  0  0  0  0  0
    1.9624   -1.2492    2.3065 H   0  0  0  0  0  0  0  0  0  0  0  0
    1.0268   -2.8951    0.7291 H   0  0  0  0  0  0  0  0  0  0  0  0
    1.2220   -5.0933   -0.3596 H   0  0  0  0  0  0  0  0  0  0  0  0
    5.4297   -5.1792    0.5341 H   0  0  0  0  0  0  0  0  0  0  0  0
    5.2542   -2.9814    1.6250 H   0  0  0  0  0  0  0  0  0  0  0  0
  1  2  1  0  0  0  0
  1 23  1  0  0  0  0
  1 24  1  0  0  0  0
  1 25  1  0  0  0  0
  2  3  2  0  0  0  0
  2  4  1  0  0  0  0
  4  5  1  0  0  0  0
  4 15  1  0  0  0  0
  5  6  2  0  0  0  0
  6  7  1  0  0  0  0
  6 14  1  0  0  0  0
  7  8  1  0  0  0  0
  7 13  2  0  0  0  0
  8  9  2  0  0  0  0
  8 26  1  0  0  0  0
  9 10  1  0  0  0  0
  9 27  1  0  0  0  0
 10 11  1  0  0  0  0
 10 12  2  0  0  0  0
 11 28  1  0  0  0  0
 11 29  1  0  0  0  0
 11 30  1  0  0  0  0
 12 13  1  0  0  0  0
 12 31  1  0  0  0  0
 13 32  1  0  0  0  0
 14 15  1  0  0  0  0
 15 16  1  0  0  0  0
 15 33  1  0  0  0  0
 16 17  1  0  0  0  0
 16 22  2  0  0  0  0
 17 18  2  0  0  0  0
 17 34  1  0  0  0  0
 18 19  1  0  0  0  0
 18 35  1  0  0  0  0
 19 20  1  0  0  0  0
 19 21  2  0  0  0  0
 21 22  1  0  0  0  0
 21 36  1  0  0  0  0
 22 37  1  0  0  0  0
M  END
>  <Energy>
72.6172

$$$$

 OpenBabel04232616053D

 49 51  0  0  1  0  0  0  0  0999 V2000
    1.3841   -0.8913    0.2851 O   0  0  0  0  0  0  0  0  0  0  0  0
    2.3564   -0.1488    0.1708 C   0  0  0  0  0  0  0  0  0  0  0  0
    2.8438    0.1319   -1.2124 C   0  0  0  0  0  0  0  0  0  0  0  0
    1.9070    0.2864   -2.2470 C   0  0  0  0  0  0  0  0  0  0  0  0
    2.3363    0.6021   -3.5408 C   0  0  0  0  0  0  0  0  0  0  0  0
    3.6924    0.7808   -3.8063 C   0  0  0  0  0  0  0  0  0  0  0  0
    4.6294    0.5713   -2.7982 C   0  0  0  0  0  0  0  0  0  0  0  0
    4.2026    0.1927   -1.5278 C   0  0  0  0  0  0  0  0  0  0  0  0
    2.9999    0.4215    1.2788 N   0  0  0  0  0  0  0  0  0  0  0  0
    4.1082    1.3770    1.2845 C   0  0  0  0  0  0  0  0  0  0  0  0
    5.3543    0.6916    1.8508 C   0  0  0  0  0  0  0  0  0  0  0  0
    5.0750    0.1683    3.2628 C   0  0  0  0  0  0  0  0  0  0  0  0
    3.8234   -0.7341    3.2812 C   0  0  3  0  0  0  0  0  0  0  0  0
    3.4260   -1.1206    4.7052 C   0  0  0  0  0  0  0  0  0  0  0  0
    3.7409   -0.4020    5.6540 O   0  0  0  0  0  0  0  0  0  0  0  0
    2.6234   -2.2518    4.8729 N   0  0  0  0  0  0  0  0  0  0  0  0
    1.9906   -2.4467    6.1773 C   0  0  0  0  0  0  0  0  0  0  0  0
    2.8325   -3.3204    7.1023 C   0  0  0  0  0  0  0  0  0  0  0  0
    2.7733   -4.8110    6.7757 C   0  0  0  0  0  0  0  0  0  0  0  0
    3.1657   -5.1727    5.3442 C   0  0  0  0  0  0  0  0  0  0  0  0
    2.1487   -4.6848    4.3131 C   0  0  0  0  0  0  0  0  0  0  0  0
    2.4058   -3.2574    3.8339 C   0  0  0  0  0  0  0  0  0  0  0  0
    2.6300   -0.0281    2.6225 C   0  0  0  0  0  0  0  0  0  0  0  0
    0.8437    0.1632   -2.0480 H   0  0  0  0  0  0  0  0  0  0  0  0
    1.6106    0.7179   -4.3424 H   0  0  0  0  0  0  0  0  0  0  0  0
    4.0263    1.0669   -4.7999 H   0  0  0  0  0  0  0  0  0  0  0  0
    5.6911    0.6952   -2.9966 H   0  0  0  0  0  0  0  0  0  0  0  0
    4.9534   -0.0395   -0.7852 H   0  0  0  0  0  0  0  0  0  0  0  0
    3.8191    2.2149    1.9305 H   0  0  0  0  0  0  0  0  0  0  0  0
    4.2912    1.8126    0.3032 H   0  0  0  0  0  0  0  0  0  0  0  0
    6.1998    1.3868    1.8626 H   0  0  0  0  0  0  0  0  0  0  0  0
    5.6458   -0.1597    1.2243 H   0  0  0  0  0  0  0  0  0  0  0  0
    4.9558    1.0212    3.9409 H   0  0  0  0  0  0  0  0  0  0  0  0
    5.9428   -0.4002    3.6201 H   0  0  0  0  0  0  0  0  0  0  0  0
    4.0906   -1.6151    2.6951 H   0  0  0  0  0  0  0  0  0  0  0  0
    0.9824   -2.8516    6.0333 H   0  0  0  0  0  0  0  0  0  0  0  0
    1.8572   -1.4684    6.6547 H   0  0  0  0  0  0  0  0  0  0  0  0
    2.4688   -3.1902    8.1292 H   0  0  0  0  0  0  0  0  0  0  0  0
    3.8766   -2.9852    7.0932 H   0  0  0  0  0  0  0  0  0  0  0  0
    1.7626   -5.1867    6.9804 H   0  0  0  0  0  0  0  0  0  0  0  0
    3.4418   -5.3401    7.4656 H   0  0  0  0  0  0  0  0  0  0  0  0
    3.2167   -6.2666    5.2809 H   0  0  0  0  0  0  0  0  0  0  0  0
    4.1705   -4.7987    5.1139 H   0  0  0  0  0  0  0  0  0  0  0  0
    1.1287   -4.7832    4.7016 H   0  0  0  0  0  0  0  0  0  0  0  0
    2.2012   -5.3389    3.4330 H   0  0  0  0  0  0  0  0  0  0  0  0
    1.5585   -2.9208    3.2267 H   0  0  0  0  0  0  0  0  0  0  0  0
    3.2800   -3.2984    3.1810 H   0  0  0  0  0  0  0  0  0  0  0  0
    2.3376    0.8597    3.2001 H   0  0  0  0  0  0  0  0  0  0  0  0
    1.7521   -0.6787    2.5936 H   0  0  0  0  0  0  0  0  0  0  0  0
  1  2  2  0  0  0  0
  2  3  1  0  0  0  0
  2  9  1  0  0  0  0
  3  4  1  0  0  0  0
  3  8  2  0  0  0  0
  4  5  2  0  0  0  0
  4 24  1  0  0  0  0
  5  6  1  0  0  0  0
  5 25  1  0  0  0  0
  6  7  2  0  0  0  0
  6 26  1  0  0  0  0
  7  8  1  0  0  0  0
  7 27  1  0  0  0  0
  8 28  1  0  0  0  0
  9 10  1  0  0  0  0
  9 23  1  0  0  0  0
 10 11  1  0  0  0  0
 10 29  1  0  0  0  0
 10 30  1  0  0  0  0
 11 12  1  0  0  0  0
 11 31  1  0  0  0  0
 11 32  1  0  0  0  0
 12 13  1  0  0  0  0
 12 33  1  0  0  0  0
 12 34  1  0  0  0  0
 13 14  1  0  0  0  0
 13 23  1  0  0  0  0
 13 35  1  0  0  0  0
 14 15  2  0  0  0  0
 14 16  1  0  0  0  0
 16 17  1  0  0  0  0
 16 22  1  0  0  0  0
 17 18  1  0  0  0  0
 17 36  1  0  0  0  0
 17 37  1  0  0  0  0
 18 19  1  0  0  0  0
 18 38  1  0  0  0  0
 18 39  1  0  0  0  0
 19 20  1  0  0  0  0
 19 40  1  0  0  0  0
 19 41  1  0  0  0  0
 20 21  1  0  0  0  0
 20 42  1  0  0  0  0
 20 43  1  0  0  0  0
 21 22  1  0  0  0  0
 21 44  1  0  0  0  0
 21 45  1  0  0  0  0
 22 46  1  0  0  0  0
 22 47  1  0  0  0  0
 23 48  1  0  0  0  0
 23 49  1  0  0  0  0
M  END
>  <Energy>
24.6093

$$$$

 OpenBabel04232616053D

 30 32  0  0  0  0  0  0  0  0999 V2000
    1.0822   -0.0094    0.0681 O   0  0  0  0  0  0  0  0  0  0  0  0
    2.3124    0.0102    0.0572 C   0  0  0  0  0  0  0  0  0  0  0  0
    2.9741   -0.6335    1.0699 N   0  0  0  0  0  0  0  0  0  0  0  0
    4.3218   -0.5924    1.2793 C   0  0  0  0  0  0  0  0  0  0  0  0
    5.1956    0.1252    0.6225 N   0  0  0  0  0  0  0  0  0  0  0  0
    6.4554   -0.1045    1.1414 C   0  0  0  0  0  0  0  0  0  0  0  0
    7.6435    0.5239    0.7209 C   0  0  0  0  0  0  0  0  0  0  0  0
    8.8611    0.1597    1.3016 C   0  0  0  0  0  0  0  0  0  0  0  0
    8.9053   -0.8210    2.2882 C   0  0  0  0  0  0  0  0  0  0  0  0
    7.7357   -1.4428    2.7401 C   0  0  0  0  0  0  0  0  0  0  0  0
    6.5152   -1.0592    2.1610 C   0  0  0  0  0  0  0  0  0  0  0  0
    4.9118   -1.5950    2.5164 S   0  0  0  0  0  0  0  0  0  0  0  0
    3.0920    0.5701   -0.9190 N   0  0  0  0  0  0  0  0  0  0  0  0
    2.7039    1.2980   -2.0615 C   0  0  0  0  0  0  0  0  0  0  0  0
    1.4178    1.8131   -2.2306 C   0  0  0  0  0  0  0  0  0  0  0  0
    1.0979    2.5633   -3.3675 C   0  0  0  0  0  0  0  0  0  0  0  0
    2.0567    2.7956   -4.3531 C   0  0  0  0  0  0  0  0  0  0  0  0
    3.3402    2.2802   -4.2028 C   0  0  0  0  0  0  0  0  0  0  0  0
    3.6661    1.5435   -3.0605 C   0  0  0  0  0  0  0  0  0  0  0  0
    5.2751    0.9144   -2.9338 Cl  0  0  0  0  0  0  0  0  0  0  0  0
    2.3994   -1.1440    1.7222 H   0  0  0  0  0  0  0  0  0  0  0  0
    7.6031    1.2835   -0.0542 H   0  0  0  0  0  0  0  0  0  0  0  0
    9.7778    0.6433    0.9718 H   0  0  0  0  0  0  0  0  0  0  0  0
    9.8635   -1.1056    2.7185 H   0  0  0  0  0  0  0  0  0  0  0  0
    7.7742   -2.2014    3.5157 H   0  0  0  0  0  0  0  0  0  0  0  0
    4.0917    0.3879   -0.8405 H   0  0  0  0  0  0  0  0  0  0  0  0
    0.6465    1.6688   -1.4789 H   0  0  0  0  0  0  0  0  0  0  0  0
    0.0969    2.9726   -3.4766 H   0  0  0  0  0  0  0  0  0  0  0  0
    1.8016    3.3778   -5.2347 H   0  0  0  0  0  0  0  0  0  0  0  0
    4.0851    2.4524   -4.9761 H   0  0  0  0  0  0  0  0  0  0  0  0
  1  2  2  0  0  0  0
  2  3  1  0  0  0  0
  2 13  1  0  0  0  0
  3  4  1  0  0  0  0
  3 21  1  0  0  0  0
  4  5  2  0  0  0  0
  4 12  1  0  0  0  0
  5  6  1  0  0  0  0
  6  7  1  0  0  0  0
  6 11  2  0  0  0  0
  7  8  2  0  0  0  0
  7 22  1  0  0  0  0
  8  9  1  0  0  0  0
  8 23  1  0  0  0  0
  9 10  2  0  0  0  0
  9 24  1  0  0  0  0
 10 11  1  0  0  0  0
 10 25  1  0  0  0  0
 11 12  1  0  0  0  0
 13 14  1  0  0  0  0
 13 26  1  0  0  0  0
 14 15  1  0  0  0  0
 14 19  2  0  0  0  0
 15 16  2  0  0  0  0
 15 27  1  0  0  0  0
 16 17  1  0  0  0  0
 16 28  1  0  0  0  0
 17 18  2  0  0  0  0
 17 29  1  0  0  0  0
 18 19  1  0  0  0  0
 18 30  1  0  0  0  0
 19 20  1  0  0  0  0
M  END
>  <Energy>
-45.026

$$$$

 OpenBabel04232616053D

 44 47  0  0  1  0  0  0  0  0999 V2000
    0.4843   -0.3616   -0.4028 C   0  0  0  0  0  0  0  0  0  0  0  0
    1.9523   -0.2185    0.0311 C   0  0  3  0  0  0  0  0  0  0  0  0
    2.5499    1.1000   -0.4900 C   0  0  0  0  0  0  0  0  0  0  0  0
    2.7475    1.0982   -2.0025 C   0  0  0  0  0  0  0  0  0  0  0  0
    3.5850   -0.1049   -2.4209 C   0  0  0  0  0  0  0  0  0  0  0  0
    2.9949   -1.4183   -1.9038 C   0  0  0  0  0  0  0  0  0  0  0  0
    2.7437   -1.3745   -0.4512 N   0  0  0  0  0  0  0  0  0  0  0  0
    3.5679   -2.0930    0.4382 C   0  0  0  0  0  0  0  0  0  0  0  0
    4.9089   -2.3696    0.1038 C   0  0  0  0  0  0  0  0  0  0  0  0
    5.7310   -3.1111    0.9537 C   0  0  0  0  0  0  0  0  0  0  0  0
    7.1260   -3.5038    0.6112 C   0  0  0  0  0  0  0  0  0  0  0  0
    7.8718   -4.3540    1.4364 C   0  0  0  0  0  0  0  0  0  0  0  0
    9.1658   -4.7218    1.0731 C   0  0  0  0  0  0  0  0  0  0  0  0
    9.6967   -4.2347   -0.1093 C   0  0  0  0  0  0  0  0  0  0  0  0
    8.9056   -3.3980   -0.8802 C   0  0  0  0  0  0  0  0  0  0  0  0
    7.6462   -3.0250   -0.5553 N   0  0  0  0  0  0  0  0  0  0  0  0
    5.2867   -3.5489    2.1536 N   0  0  0  0  0  0  0  0  0  0  0  0
    4.0230   -3.3131    2.5057 C   0  0  0  0  0  0  0  0  0  0  0  0
    3.6305   -3.8192    3.7380 C   0  0  0  0  0  0  0  0  0  0  0  0
    2.3270   -3.6934    4.2112 C   0  0  0  0  0  0  0  0  0  0  0  0
    1.3846   -3.0680    3.4177 C   0  0  0  0  0  0  0  0  0  0  0  0
    1.7648   -2.5594    2.1741 C   0  0  0  0  0  0  0  0  0  0  0  0
    3.0984   -2.6213    1.6893 C   0  0  0  0  0  0  0  0  0  0  0  0
   -0.1226    0.4379    0.0353 H   0  0  0  0  0  0  0  0  0  0  0  0
    0.0547   -1.3180   -0.0915 H   0  0  0  0  0  0  0  0  0  0  0  0
    0.3592   -0.3144   -1.4886 H   0  0  0  0  0  0  0  0  0  0  0  0
    1.9754   -0.1473    1.1240 H   0  0  0  0  0  0  0  0  0  0  0  0
    3.5217    1.2684   -0.0094 H   0  0  0  0  0  0  0  0  0  0  0  0
    1.9075    1.9425   -0.2042 H   0  0  0  0  0  0  0  0  0  0  0  0
    3.2402    2.0263   -2.3135 H   0  0  0  0  0  0  0  0  0  0  0  0
    1.7783    1.0771   -2.5157 H   0  0  0  0  0  0  0  0  0  0  0  0
    4.6056    0.0230   -2.0408 H   0  0  0  0  0  0  0  0  0  0  0  0
    3.6523   -0.1375   -3.5143 H   0  0  0  0  0  0  0  0  0  0  0  0
    3.6335   -2.2595   -2.1962 H   0  0  0  0  0  0  0  0  0  0  0  0
    2.0408   -1.6040   -2.4119 H   0  0  0  0  0  0  0  0  0  0  0  0
    5.3374   -2.0078   -0.8251 H   0  0  0  0  0  0  0  0  0  0  0  0
    7.4450   -4.7402    2.3592 H   0  0  0  0  0  0  0  0  0  0  0  0
    9.7436   -5.3850    1.7100 H   0  0  0  0  0  0  0  0  0  0  0  0
   10.6977   -4.4988   -0.4263 H   0  0  0  0  0  0  0  0  0  0  0  0
    9.2763   -2.9923   -1.8158 H   0  0  0  0  0  0  0  0  0  0  0  0
    4.3650   -4.3415    4.3478 H   0  0  0  0  0  0  0  0  0  0  0  0
    2.0539   -4.1010    5.1792 H   0  0  0  0  0  0  0  0  0  0  0  0
    0.3541   -2.9800    3.7508 H   0  0  0  0  0  0  0  0  0  0  0  0
    0.9847   -2.1227    1.5684 H   0  0  0  0  0  0  0  0  0  0  0  0
  1  2  1  0  0  0  0
  1 24  1  0  0  0  0
  1 25  1  0  0  0  0
  1 26  1  0  0  0  0
  2  3  1  0  0  0  0
  2  7  1  0  0  0  0
  2 27  1  0  0  0  0
  3  4  1  0  0  0  0
  3 28  1  0  0  0  0
  3 29  1  0  0  0  0
  4  5  1  0  0  0  0
  4 30  1  0  0  0  0
  4 31  1  0  0  0  0
  5  6  1  0  0  0  0
  5 32  1  0  0  0  0
  5 33  1  0  0  0  0
  6  7  1  0  0  0  0
  6 34  1  0  0  0  0
  6 35  1  0  0  0  0
  7  8  1  0  0  0  0
  8  9  1  0  0  0  0
  8 23  2  0  0  0  0
  9 10  2  0  0  0  0
  9 36  1  0  0  0  0
 10 11  1  0  0  0  0
 10 17  1  0  0  0  0
 11 12  1  0  0  0  0
 11 16  2  0  0  0  0
 12 13  2  0  0  0  0
 12 37  1  0  0  0  0
 13 14  1  0  0  0  0
 13 38  1  0  0  0  0
 14 15  2  0  0  0  0
 14 39  1  0  0  0  0
 15 16  1  0  0  0  0
 15 40  1  0  0  0  0
 17 18  2  0  0  0  0
 18 19  1  0  0  0  0
 18 23  1  0  0  0  0
 19 20  2  0  0  0  0
 19 41  1  0  0  0  0
 20 21  1  0  0  0  0
 20 42  1  0  0  0  0
 21 22  2  0  0  0  0
 21 43  1  0  0  0  0
 22 23  1  0  0  0  0
 22 44  1  0  0  0  0
M  END
>  <Energy>
91.7071

$$$$

 OpenBabel04232616053D

 34 36  0  0  0  0  0  0  0  0999 V2000
    1.0393    0.1994   -0.5841 C   0  0  0  0  0  0  0  0  0  0  0  0
    2.4633    0.2034   -0.6779 O   0  0  0  0  0  0  0  0  0  0  0  0
    3.0627    1.3247   -0.1882 C   0  0  0  0  0  0  0  0  0  0  0  0
    2.4511    2.2781    0.2869 O   0  0  0  0  0  0  0  0  0  0  0  0
    4.5194    1.2695   -0.2430 C   0  0  0  0  0  0  0  0  0  0  0  0
    5.3405    2.2361    0.3108 C   0  0  0  0  0  0  0  0  0  0  0  0
    6.6667    1.8636    0.1930 N   0  0  0  0  0  0  0  0  0  0  0  0
    7.7664    2.5229    0.8062 C   0  0  0  0  0  0  0  0  0  0  0  0
    8.8966    2.2404    0.4181 O   0  0  0  0  0  0  0  0  0  0  0  0
    7.6287    3.4516    1.9600 C   0  0  0  0  0  0  0  0  0  0  0  0
    6.7833    3.0696    3.0177 C   0  0  0  0  0  0  0  0  0  0  0  0
    6.6586    3.8700    4.1521 C   0  0  0  0  0  0  0  0  0  0  0  0
    7.4027    5.0405    4.2598 C   0  0  0  0  0  0  0  0  0  0  0  0
    8.2645    5.4150    3.2270 C   0  0  0  0  0  0  0  0  0  0  0  0
    8.3797    4.6284    2.0736 C   0  0  0  0  0  0  0  0  0  0  0  0
    9.4292    5.2058    0.8308 Cl  0  0  0  0  0  0  0  0  0  0  0  0
    6.7109    0.7042   -0.5852 C   0  0  0  0  0  0  0  0  0  0  0  0
    7.8054   -0.0553   -1.0455 C   0  0  0  0  0  0  0  0  0  0  0  0
    7.5622   -1.2357   -1.7504 C   0  0  0  0  0  0  0  0  0  0  0  0
    6.2649   -1.6601   -1.9943 C   0  0  0  0  0  0  0  0  0  0  0  0
    5.1786   -0.9053   -1.5426 C   0  0  0  0  0  0  0  0  0  0  0  0
    5.3901    0.2962   -0.8265 C   0  0  0  0  0  0  0  0  0  0  0  0
    0.6877   -0.8050   -0.8357 H   0  0  0  0  0  0  0  0  0  0  0  0
    0.6149    0.9075   -1.3020 H   0  0  0  0  0  0  0  0  0  0  0  0
    0.7086    0.4311    0.4335 H   0  0  0  0  0  0  0  0  0  0  0  0
    5.0632    3.1561    0.8106 H   0  0  0  0  0  0  0  0  0  0  0  0
    6.2227    2.1372    2.9790 H   0  0  0  0  0  0  0  0  0  0  0  0
    5.9909    3.5715    4.9579 H   0  0  0  0  0  0  0  0  0  0  0  0
    7.3181    5.6594    5.1503 H   0  0  0  0  0  0  0  0  0  0  0  0
    8.8489    6.3276    3.3295 H   0  0  0  0  0  0  0  0  0  0  0  0
    8.8302    0.2528   -0.8550 H   0  0  0  0  0  0  0  0  0  0  0  0
    8.4028   -1.8290   -2.1036 H   0  0  0  0  0  0  0  0  0  0  0  0
    6.0901   -2.5847   -2.5387 H   0  0  0  0  0  0  0  0  0  0  0  0
    4.1723   -1.2595   -1.7489 H   0  0  0  0  0  0  0  0  0  0  0  0
  1  2  1  0  0  0  0
  1 23  1  0  0  0  0
  1 24  1  0  0  0  0
  1 25  1  0  0  0  0
  2  3  1  0  0  0  0
  3  4  2  0  0  0  0
  3  5  1  0  0  0  0
  5  6  2  0  0  0  0
  5 22  1  0  0  0  0
  6  7  1  0  0  0  0
  6 26  1  0  0  0  0
  7  8  1  0  0  0  0
  7 17  1  0  0  0  0
  8  9  2  0  0  0  0
  8 10  1  0  0  0  0
 10 11  1  0  0  0  0
 10 15  2  0  0  0  0
 11 12  2  0  0  0  0
 11 27  1  0  0  0  0
 12 13  1  0  0  0  0
 12 28  1  0  0  0  0
 13 14  2  0  0  0  0
 13 29  1  0  0  0  0
 14 15  1  0  0  0  0
 14 30  1  0  0  0  0
 15 16  1  0  0  0  0
 17 18  1  0  0  0  0
 17 22  2  0  0  0  0
 18 19  2  0  0  0  0
 18 31  1  0  0  0  0
 19 20  1  0  0  0  0
 19 32  1  0  0  0  0
 20 21  2  0  0  0  0
 20 33  1  0  0  0  0
 21 22  1  0  0  0  0
 21 34  1  0  0  0  0
M  END
>  <Energy>
87.7924

$$$$

 OpenBabel04232616053D

 32 34  0  0  0  0  0  0  0  0999 V2000
    1.1747    0.0216    0.7293 O   0  0  0  0  0  0  0  0  0  0  0  0
    2.2479   -0.0019    0.1351 C   0  0  0  0  0  0  0  0  0  0  0  0
    2.7161   -1.0590   -0.6436 N   0  0  0  0  0  0  0  0  0  0  0  0
    2.0845   -2.2386   -1.0004 C   0  0  0  0  0  0  0  0  0  0  0  0
    0.5675   -2.7670   -0.5286 S   0  0  0  0  0  0  0  0  0  0  0  0
    2.7548   -3.0647   -1.8629 N   0  0  0  0  0  0  0  0  0  0  0  0
    3.9769   -2.8331   -2.4235 C   0  0  0  0  0  0  0  0  0  0  0  0
    4.7887   -1.8338   -2.1860 N   0  0  0  0  0  0  0  0  0  0  0  0
    5.9123   -1.9791   -2.9904 C   0  0  0  0  0  0  0  0  0  0  0  0
    7.0249   -1.1150   -3.0210 C   0  0  0  0  0  0  0  0  0  0  0  0
    8.0804   -1.3715   -3.9032 C   0  0  0  0  0  0  0  0  0  0  0  0
    8.0397   -2.4726   -4.7535 C   0  0  0  0  0  0  0  0  0  0  0  0
    6.9534   -3.3514   -4.7366 C   0  0  0  0  0  0  0  0  0  0  0  0
    5.9034   -3.0898   -3.8420 C   0  0  0  0  0  0  0  0  0  0  0  0
    4.4572   -3.9863   -3.5732 S   0  0  0  0  0  0  0  0  0  0  0  0
    3.1486    1.1825    0.2742 C   0  0  0  0  0  0  0  0  0  0  0  0
    2.9579    2.0133    1.3900 C   0  0  0  0  0  0  0  0  0  0  0  0
    3.7301    3.1622    1.5632 C   0  0  0  0  0  0  0  0  0  0  0  0
    4.6988    3.4943    0.6198 C   0  0  0  0  0  0  0  0  0  0  0  0
    4.8938    2.6795   -0.4966 C   0  0  0  0  0  0  0  0  0  0  0  0
    4.1196    1.5277   -0.6751 C   0  0  0  0  0  0  0  0  0  0  0  0
    3.6653   -0.9830   -0.9914 H   0  0  0  0  0  0  0  0  0  0  0  0
    2.2672   -3.9039   -2.1499 H   0  0  0  0  0  0  0  0  0  0  0  0
    7.0589   -0.2548   -2.3592 H   0  0  0  0  0  0  0  0  0  0  0  0
    8.9381   -0.7026   -3.9249 H   0  0  0  0  0  0  0  0  0  0  0  0
    8.8652   -2.6553   -5.4390 H   0  0  0  0  0  0  0  0  0  0  0  0
    6.9248   -4.2123   -5.3981 H   0  0  0  0  0  0  0  0  0  0  0  0
    2.1933    1.7710    2.1270 H   0  0  0  0  0  0  0  0  0  0  0  0
    3.5648    3.7999    2.4282 H   0  0  0  0  0  0  0  0  0  0  0  0
    5.2929    4.3961    0.7490 H   0  0  0  0  0  0  0  0  0  0  0  0
    5.6401    2.9545   -1.2385 H   0  0  0  0  0  0  0  0  0  0  0  0
    4.2707    0.9422   -1.5771 H   0  0  0  0  0  0  0  0  0  0  0  0
  1  2  2  0  0  0  0
  2  3  1  0  0  0  0
  2 16  1  0  0  0  0
  3  4  1  0  0  0  0
  3 22  1  0  0  0  0
  4  5  2  0  0  0  0
  4  6  1  0  0  0  0
  6  7  1  0  0  0  0
  6 23  1  0  0  0  0
  7  8  2  0  0  0  0
  7 15  1  0  0  0  0
  8  9  1  0  0  0  0
  9 10  1  0  0  0  0
  9 14  2  0  0  0  0
 10 11  2  0  0  0  0
 10 24  1  0  0  0  0
 11 12  1  0  0  0  0
 11 25  1  0  0  0  0
 12 13  2  0  0  0  0
 12 26  1  0  0  0  0
 13 14  1  0  0  0  0
 13 27  1  0  0  0  0
 14 15  1  0  0  0  0
 16 17  1  0  0  0  0
 16 21  2  0  0  0  0
 17 18  2  0  0  0  0
 17 28  1  0  0  0  0
 18 19  1  0  0  0  0
 18 29  1  0  0  0  0
 19 20  2  0  0  0  0
 19 30  1  0  0  0  0
 20 21  1  0  0  0  0
 20 31  1  0  0  0  0
 21 32  1  0  0  0  0
M  END
>  <Energy>
-31.7386

$$$$

 OpenBabel04232616053D

 36 39  0  0  0  0  0  0  0  0999 V2000
    0.1599    2.5728   -0.0706 C   0  0  0  0  0  0  0  0  0  0  0  0
    0.7082    1.1958    0.0228 C   0  0  0  0  0  0  0  0  0  0  0  0
    2.0434    0.8018    0.0499 C   0  0  0  0  0  0  0  0  0  0  0  0
    3.2891    1.5414   -0.0254 C   0  0  0  0  0  0  0  0  0  0  0  0
    3.4252    2.7611   -0.0333 O   0  0  0  0  0  0  0  0  0  0  0  0
    4.3526    0.6396   -0.0256 O   0  0  0  0  0  0  0  0  0  0  0  0
    5.2761    0.7588   -1.0875 C   0  0  0  0  0  0  0  0  0  0  0  0
    6.5993    0.4495   -0.7554 C   0  0  0  0  0  0  0  0  0  0  0  0
    7.5629    0.4138   -1.7542 C   0  0  0  0  0  0  0  0  0  0  0  0
    7.1965    0.6821   -3.0722 C   0  0  0  0  0  0  0  0  0  0  0  0
    5.8605    0.9766   -3.4034 C   0  0  0  0  0  0  0  0  0  0  0  0
    5.4803    1.2248   -4.7300 C   0  0  0  0  0  0  0  0  0  0  0  0
    4.1512    1.4856   -5.0380 C   0  0  0  0  0  0  0  0  0  0  0  0
    3.2378    1.4805   -4.0059 C   0  0  0  0  0  0  0  0  0  0  0  0
    3.5674    1.2405   -2.7203 N   0  0  0  0  0  0  0  0  0  0  0  0
    4.8633    1.0093   -2.4062 C   0  0  0  0  0  0  0  0  0  0  0  0
    2.1160   -0.5663    0.1119 O   0  0  0  0  0  0  0  0  0  0  0  0
    0.8541   -1.0518    0.1024 C   0  0  0  0  0  0  0  0  0  0  0  0
    0.5191   -2.4027    0.1229 C   0  0  0  0  0  0  0  0  0  0  0  0
   -0.8445   -2.7044    0.1145 C   0  0  0  0  0  0  0  0  0  0  0  0
   -1.8055   -1.6902    0.0871 C   0  0  0  0  0  0  0  0  0  0  0  0
   -1.4311   -0.3374    0.0581 C   0  0  0  0  0  0  0  0  0  0  0  0
   -0.0616   -0.0122    0.0642 C   0  0  0  0  0  0  0  0  0  0  0  0
    0.9420    3.3327   -0.1369 H   0  0  0  0  0  0  0  0  0  0  0  0
   -0.4533    2.7959    0.8085 H   0  0  0  0  0  0  0  0  0  0  0  0
   -0.4722    2.6681   -0.9602 H   0  0  0  0  0  0  0  0  0  0  0  0
    6.8646    0.2197    0.2731 H   0  0  0  0  0  0  0  0  0  0  0  0
    8.5923    0.1637   -1.5122 H   0  0  0  0  0  0  0  0  0  0  0  0
    7.9587    0.6423   -3.8481 H   0  0  0  0  0  0  0  0  0  0  0  0
    6.2162    1.2102   -5.5298 H   0  0  0  0  0  0  0  0  0  0  0  0
    3.8362    1.6819   -6.0562 H   0  0  0  0  0  0  0  0  0  0  0  0
    2.1842    1.6742   -4.1830 H   0  0  0  0  0  0  0  0  0  0  0  0
    1.2826   -3.1708    0.1392 H   0  0  0  0  0  0  0  0  0  0  0  0
   -1.1591   -3.7456    0.1294 H   0  0  0  0  0  0  0  0  0  0  0  0
   -2.8609   -1.9529    0.0842 H   0  0  0  0  0  0  0  0  0  0  0  0
   -2.1883    0.4400    0.0291 H   0  0  0  0  0  0  0  0  0  0  0  0
  1  2  1  0  0  0  0
  1 24  1  0  0  0  0
  1 25  1  0  0  0  0
  1 26  1  0  0  0  0
  2  3  2  0  0  0  0
  2 23  1  0  0  0  0
  3  4  1  0  0  0  0
  3 17  1  0  0  0  0
  4  5  2  0  0  0  0
  4  6  1  0  0  0  0
  6  7  1  0  0  0  0
  7  8  1  0  0  0  0
  7 16  2  0  0  0  0
  8  9  2  0  0  0  0
  8 27  1  0  0  0  0
  9 10  1  0  0  0  0
  9 28  1  0  0  0  0
 10 11  2  0  0  0  0
 10 29  1  0  0  0  0
 11 12  1  0  0  0  0
 11 16  1  0  0  0  0
 12 13  2  0  0  0  0
 12 30  1  0  0  0  0
 13 14  1  0  0  0  0
 13 31  1  0  0  0  0
 14 15  2  0  0  0  0
 14 32  1  0  0  0  0
 15 16  1  0  0  0  0
 17 18  1  0  0  0  0
 18 19  1  0  0  0  0
 18 23  2  0  0  0  0
 19 20  2  0  0  0  0
 19 33  1  0  0  0  0
 20 21  1  0  0  0  0
 20 34  1  0  0  0  0
 21 22  2  0  0  0  0
 21 35  1  0  0  0  0
 22 23  1  0  0  0  0
 22 36  1  0  0  0  0
M  END
>  <Energy>
98.2037

$$$$

 OpenBabel04232616053D

 34 36  0  0  0  0  0  0  0  0999 V2000
   -0.3223   -2.4274    1.3088 C   0  0  0  0  0  0  0  0  0  0  0  0
   -0.4286   -1.1957    0.5013 C   0  0  0  0  0  0  0  0  0  0  0  0
    0.2803   -0.7019   -0.5713 C   0  0  0  0  0  0  0  0  0  0  0  0
   -0.3388    0.5211   -0.9274 C   0  0  0  0  0  0  0  0  0  0  0  0
   -1.3927    0.7053   -0.0515 C   0  0  0  0  0  0  0  0  0  0  0  0
   -2.4495    1.7019    0.0556 C   0  0  0  0  0  0  0  0  0  0  0  0
   -3.3643    1.7067    1.1030 C   0  0  0  0  0  0  0  0  0  0  0  0
   -4.4779    2.5687    1.0816 C   0  0  0  0  0  0  0  0  0  0  0  0
   -5.4678    2.5053    2.2009 C   0  0  0  0  0  0  0  0  0  0  0  0
   -6.1420    3.6412    2.6889 C   0  0  0  0  0  0  0  0  0  0  0  0
   -7.0820    3.5571    3.7255 C   0  0  0  0  0  0  0  0  0  0  0  0
   -7.3305    2.3369    4.3391 C   0  0  0  0  0  0  0  0  0  0  0  0
   -8.4582    2.2373    5.6325 Cl  0  0  0  0  0  0  0  0  0  0  0  0
   -6.6602    1.1986    3.9124 C   0  0  0  0  0  0  0  0  0  0  0  0
   -5.7546    1.2824    2.8462 C   0  0  0  0  0  0  0  0  0  0  0  0
   -4.5833    3.4182   -0.0433 C   0  0  0  0  0  0  0  0  0  0  0  0
   -5.7084    4.2794   -0.2614 C   0  0  0  0  0  0  0  0  0  0  0  0
   -6.5887    5.0160   -0.4244 N   0  0  0  0  0  0  0  0  0  0  0  0
   -3.5686    3.4125   -1.0140 C   0  0  0  0  0  0  0  0  0  0  0  0
   -3.6081    4.2265   -2.1457 N   0  0  0  0  0  0  0  0  0  0  0  0
   -2.5254    2.5668   -0.9782 N   0  0  0  0  0  0  0  0  0  0  0  0
   -1.4364   -0.3401    0.8304 O   0  0  0  0  0  0  0  0  0  0  0  0
    0.4859   -3.0677    0.9428 H   0  0  0  0  0  0  0  0  0  0  0  0
   -1.2547   -2.9981    1.2614 H   0  0  0  0  0  0  0  0  0  0  0  0
   -0.1182   -2.1841    2.3565 H   0  0  0  0  0  0  0  0  0  0  0  0
    1.1253   -1.1761   -1.0517 H   0  0  0  0  0  0  0  0  0  0  0  0
   -0.0770    1.1816   -1.7415 H   0  0  0  0  0  0  0  0  0  0  0  0
   -3.2110    1.0128    1.9266 H   0  0  0  0  0  0  0  0  0  0  0  0
   -5.9547    4.6327    2.2819 H   0  0  0  0  0  0  0  0  0  0  0  0
   -7.6071    4.4530    4.0465 H   0  0  0  0  0  0  0  0  0  0  0  0
   -6.8368    0.2415    4.3950 H   0  0  0  0  0  0  0  0  0  0  0  0
   -5.2759    0.3573    2.5283 H   0  0  0  0  0  0  0  0  0  0  0  0
   -3.7893    5.2057   -1.9486 H   0  0  0  0  0  0  0  0  0  0  0  0
   -2.7444    4.0920   -2.6669 H   0  0  0  0  0  0  0  0  0  0  0  0
  1  2  1  0  0  0  0
  1 23  1  0  0  0  0
  1 24  1  0  0  0  0
  1 25  1  0  0  0  0
  2  3  2  0  0  0  0
  2 22  1  0  0  0  0
  3  4  1  0  0  0  0
  3 26  1  0  0  0  0
  4  5  2  0  0  0  0
  4 27  1  0  0  0  0
  5  6  1  0  0  0  0
  5 22  1  0  0  0  0
  6  7  1  0  0  0  0
  6 21  2  0  0  0  0
  7  8  2  0  0  0  0
  7 28  1  0  0  0  0
  8  9  1  0  0  0  0
  8 16  1  0  0  0  0
  9 10  1  0  0  0  0
  9 15  2  0  0  0  0
 10 11  2  0  0  0  0
 10 29  1  0  0  0  0
 11 12  1  0  0  0  0
 11 30  1  0  0  0  0
 12 13  1  0  0  0  0
 12 14  2  0  0  0  0
 14 15  1  0  0  0  0
 14 31  1  0  0  0  0
 15 32  1  0  0  0  0
 16 17  1  0  0  0  0
 16 19  2  0  0  0  0
 17 18  3  0  0  0  0
 19 20  1  0  0  0  0
 19 21  1  0  0  0  0
 20 33  1  0  0  0  0
 20 34  1  0  0  0  0
M  END
>  <Energy>
23.8032

$$$$

 OpenBabel04232616053D

 41 44  0  0  0  0  0  0  0  0999 V2000
    1.1641   -0.0531   -0.3863 C   0  0  0  0  0  0  0  0  0  0  0  0
    2.5519   -0.0378   -0.0719 O   0  0  0  0  0  0  0  0  0  0  0  0
    2.9464   -0.9454    0.8916 C   0  0  0  0  0  0  0  0  0  0  0  0
    2.3787   -2.2235    0.9665 C   0  0  0  0  0  0  0  0  0  0  0  0
    2.7689   -3.0952    1.9729 C   0  0  0  0  0  0  0  0  0  0  0  0
    3.7665   -2.7135    2.8648 C   0  0  0  0  0  0  0  0  0  0  0  0
    4.4420   -1.4791    2.7231 C   0  0  0  0  0  0  0  0  0  0  0  0
    3.9835   -0.5480    1.7549 C   0  0  0  0  0  0  0  0  0  0  0  0
    4.4919    0.6914    1.6568 N   0  0  0  0  0  0  0  0  0  0  0  0
    5.4698    1.1081    2.4820 C   0  0  0  0  0  0  0  0  0  0  0  0
    6.0519    0.2441    3.4140 C   0  0  0  0  0  0  0  0  0  0  0  0
    7.0922    0.4325    4.3667 C   0  0  0  0  0  0  0  0  0  0  0  0
    7.8595    1.6716    4.6543 C   0  0  0  0  0  0  0  0  0  0  0  0
    7.2880   -0.7875    4.9639 C   0  0  0  0  0  0  0  0  0  0  0  0
    6.3995   -1.7178    4.4611 N   0  0  0  0  0  0  0  0  0  0  0  0
    6.4591   -3.1062    4.8102 C   0  0  0  0  0  0  0  0  0  0  0  0
    6.4108   -4.0529    3.7698 C   0  0  0  0  0  0  0  0  0  0  0  0
    6.4075   -5.4204    4.0506 C   0  0  0  0  0  0  0  0  0  0  0  0
    6.5023   -5.8450    5.3657 C   0  0  0  0  0  0  0  0  0  0  0  0
    6.4837   -7.1558    5.6419 F   0  0  0  0  0  0  0  0  0  0  0  0
    6.6193   -4.9288    6.4045 C   0  0  0  0  0  0  0  0  0  0  0  0
    6.5963   -3.5429    6.1513 C   0  0  0  0  0  0  0  0  0  0  0  0
    6.7027   -2.6313    7.3474 C   0  0  0  0  0  0  0  0  0  0  0  0
    5.5802   -1.0779    3.5119 C   0  0  0  0  0  0  0  0  0  0  0  0
    0.9156    0.9043   -0.8545 H   0  0  0  0  0  0  0  0  0  0  0  0
    0.5397   -0.1578    0.5085 H   0  0  0  0  0  0  0  0  0  0  0  0
    0.9446   -0.8444   -1.1097 H   0  0  0  0  0  0  0  0  0  0  0  0
    1.6260   -2.5485    0.2546 H   0  0  0  0  0  0  0  0  0  0  0  0
    2.3008   -4.0719    2.0601 H   0  0  0  0  0  0  0  0  0  0  0  0
    3.9973   -3.3967    3.6733 H   0  0  0  0  0  0  0  0  0  0  0  0
    5.7821    2.1372    2.3593 H   0  0  0  0  0  0  0  0  0  0  0  0
    7.5209    2.5147    4.0429 H   0  0  0  0  0  0  0  0  0  0  0  0
    8.9242    1.5165    4.4560 H   0  0  0  0  0  0  0  0  0  0  0  0
    7.7429    1.9531    5.7077 H   0  0  0  0  0  0  0  0  0  0  0  0
    8.0576   -1.0799    5.6639 H   0  0  0  0  0  0  0  0  0  0  0  0
    6.3746   -3.7400    2.7270 H   0  0  0  0  0  0  0  0  0  0  0  0
    6.3307   -6.1520    3.2530 H   0  0  0  0  0  0  0  0  0  0  0  0
    6.7090   -5.3111    7.4183 H   0  0  0  0  0  0  0  0  0  0  0  0
    6.4699   -3.1679    8.2749 H   0  0  0  0  0  0  0  0  0  0  0  0
    5.9868   -1.8054    7.2799 H   0  0  0  0  0  0  0  0  0  0  0  0
    7.7191   -2.2479    7.4460 H   0  0  0  0  0  0  0  0  0  0  0  0
  1  2  1  0  0  0  0
  1 25  1  0  0  0  0
  1 26  1  0  0  0  0
  1 27  1  0  0  0  0
  2  3  1  0  0  0  0
  3  4  1  0  0  0  0
  3  8  2  0  0  0  0
  4  5  2  0  0  0  0
  4 28  1  0  0  0  0
  5  6  1  0  0  0  0
  5 29  1  0  0  0  0
  6  7  2  0  0  0  0
  6 30  1  0  0  0  0
  7  8  1  0  0  0  0
  7 24  1  0  0  0  0
  8  9  1  0  0  0  0
  9 10  2  0  0  0  0
 10 11  1  0  0  0  0
 10 31  1  0  0  0  0
 11 12  1  0  0  0  0
 11 24  2  0  0  0  0
 12 13  1  0  0  0  0
 12 14  2  0  0  0  0
 13 32  1  0  0  0  0
 13 33  1  0  0  0  0
 13 34  1  0  0  0  0
 14 15  1  0  0  0  0
 14 35  1  0  0  0  0
 15 16  1  0  0  0  0
 15 24  1  0  0  0  0
 16 17  1  0  0  0  0
 16 22  2  0  0  0  0
 17 18  2  0  0  0  0
 17 36  1  0  0  0  0
 18 19  1  0  0  0  0
 18 37  1  0  0  0  0
 19 20  1  0  0  0  0
 19 21  2  0  0  0  0
 21 22  1  0  0  0  0
 21 38  1  0  0  0  0
 22 23  1  0  0  0  0
 23 39  1  0  0  0  0
 23 40  1  0  0  0  0
 23 41  1  0  0  0  0
M  END
>  <Energy>
128.13

$$$$

 OpenBabel04232616053D

 29 31  0  0  0  0  0  0  0  0999 V2000
    2.5380   -4.7609   -0.3042 C   0  0  0  0  0  0  0  0  0  0  0  0
    2.8406   -3.4189    0.1355 N   0  0  0  0  0  0  0  0  0  0  0  0
    3.3020   -2.5705   -0.8594 C   0  0  0  0  0  0  0  0  0  0  0  0
    4.1512   -1.6175   -0.4518 N   0  0  0  0  0  0  0  0  0  0  0  0
    4.5992   -0.7617   -1.3851 C   0  0  0  0  0  0  0  0  0  0  0  0
    4.2367   -0.8282   -2.7045 C   0  0  0  0  0  0  0  0  0  0  0  0
    3.3676   -1.8432   -3.0320 C   0  0  0  0  0  0  0  0  0  0  0  0
    2.8934   -2.0181   -4.3997 C   0  0  0  0  0  0  0  0  0  0  0  0
    2.7214   -0.9673   -5.2822 C   0  0  0  0  0  0  0  0  0  0  0  0
    2.2706   -1.4716   -6.4711 N   0  0  0  0  0  0  0  0  0  0  0  0
    2.1321   -2.8364   -6.3876 C   0  0  0  0  0  0  0  0  0  0  0  0
    1.7048   -3.7534   -7.3556 C   0  0  0  0  0  0  0  0  0  0  0  0
    1.6483   -5.1008   -6.9909 C   0  0  0  0  0  0  0  0  0  0  0  0
    2.0074   -5.5044   -5.7077 C   0  0  0  0  0  0  0  0  0  0  0  0
    1.9110   -7.3382   -5.2483 Br  0  0  0  0  0  0  0  0  0  0  0  0
    2.4377   -4.5800   -4.7509 C   0  0  0  0  0  0  0  0  0  0  0  0
    2.5021   -3.2114   -5.0935 C   0  0  0  0  0  0  0  0  0  0  0  0
    2.9031   -2.7245   -2.1260 N   0  0  0  0  0  0  0  0  0  0  0  0
    2.1929   -5.3496    0.5516 H   0  0  0  0  0  0  0  0  0  0  0  0
    3.4244   -5.2561   -0.7154 H   0  0  0  0  0  0  0  0  0  0  0  0
    1.7356   -4.7752   -1.0501 H   0  0  0  0  0  0  0  0  0  0  0  0
    3.4977   -3.3405    0.9033 H   0  0  0  0  0  0  0  0  0  0  0  0
    5.2782    0.0047   -1.0271 H   0  0  0  0  0  0  0  0  0  0  0  0
    4.6247   -0.1255   -3.4298 H   0  0  0  0  0  0  0  0  0  0  0  0
    2.8674    0.0983   -5.1658 H   0  0  0  0  0  0  0  0  0  0  0  0
    2.0589   -0.9234   -7.2933 H   0  0  0  0  0  0  0  0  0  0  0  0
    1.4234   -3.4346   -8.3538 H   0  0  0  0  0  0  0  0  0  0  0  0
    1.3165   -5.8317   -7.7244 H   0  0  0  0  0  0  0  0  0  0  0  0
    2.7162   -4.9008   -3.7517 H   0  0  0  0  0  0  0  0  0  0  0  0
  1  2  1  0  0  0  0
  1 19  1  0  0  0  0
  1 20  1  0  0  0  0
  1 21  1  0  0  0  0
  2  3  1  0  0  0  0
  2 22  1  0  0  0  0
  3  4  1  0  0  0  0
  3 18  2  0  0  0  0
  4  5  2  0  0  0  0
  5  6  1  0  0  0  0
  5 23  1  0  0  0  0
  6  7  2  0  0  0  0
  6 24  1  0  0  0  0
  7  8  1  0  0  0  0
  7 18  1  0  0  0  0
  8  9  2  0  0  0  0
  8 17  1  0  0  0  0
  9 10  1  0  0  0  0
  9 25  1  0  0  0  0
 10 11  1  0  0  0  0
 10 26  1  0  0  0  0
 11 12  1  0  0  0  0
 11 17  2  0  0  0  0
 12 13  2  0  0  0  0
 12 27  1  0  0  0  0
 13 14  1  0  0  0  0
 13 28  1  0  0  0  0
 14 15  1  0  0  0  0
 14 16  2  0  0  0  0
 16 17  1  0  0  0  0
 16 29  1  0  0  0  0
M  END
>  <Energy>
-73.5172

$$$$

 OpenBabel04232616053D

 32 34  0  0  0  0  0  0  0  0999 V2000
   -2.4819   -2.2775   -2.3579 O   0  0  0  0  0  0  0  0  0  0  0  0
   -1.5742   -2.0079   -1.5946 C   0  0  0  0  0  0  0  0  0  0  0  0
   -0.4732   -2.7709   -1.3266 O   0  0  0  0  0  0  0  0  0  0  0  0
    0.4032   -2.1422   -0.3658 C   0  0  0  0  0  0  0  0  0  0  0  0
   -0.2815   -0.8707   -0.0639 C   0  0  0  0  0  0  0  0  0  0  0  0
    0.0803    0.1607    0.7793 C   0  0  0  0  0  0  0  0  0  0  0  0
   -0.7652    1.2741    0.8569 C   0  0  0  0  0  0  0  0  0  0  0  0
   -1.9532    1.3457    0.0997 C   0  0  0  0  0  0  0  0  0  0  0  0
   -2.8281    2.4484    0.1961 N   0  0  0  0  0  0  0  0  0  0  0  0
   -2.4925    3.8012    0.2782 C   0  0  0  0  0  0  0  0  0  0  0  0
   -1.0199    4.4741   -0.1601 S   0  0  0  0  0  0  0  0  0  0  0  0
   -3.5819    4.5059    0.7867 N   0  0  0  0  0  0  0  0  0  0  0  0
   -3.8854    5.8745    0.6294 C   0  0  0  0  0  0  0  0  0  0  0  0
   -4.5257    6.5379    1.6819 C   0  0  0  0  0  0  0  0  0  0  0  0
   -4.8813    7.8834    1.5562 C   0  0  0  0  0  0  0  0  0  0  0  0
   -4.6342    8.5603    0.3633 C   0  0  0  0  0  0  0  0  0  0  0  0
   -4.0303    7.8895   -0.6976 C   0  0  0  0  0  0  0  0  0  0  0  0
   -3.7729    8.7100   -2.1889 Cl  0  0  0  0  0  0  0  0  0  0  0  0
   -3.6531    6.5534   -0.5700 C   0  0  0  0  0  0  0  0  0  0  0  0
   -2.3223    0.2729   -0.7127 C   0  0  0  0  0  0  0  0  0  0  0  0
   -1.4550   -0.8029   -0.7873 C   0  0  0  0  0  0  0  0  0  0  0  0
    1.3818   -1.9880   -0.8278 H   0  0  0  0  0  0  0  0  0  0  0  0
    0.4830   -2.7888    0.5129 H   0  0  0  0  0  0  0  0  0  0  0  0
    0.9900    0.1214    1.3691 H   0  0  0  0  0  0  0  0  0  0  0  0
   -0.4982    2.0770    1.5422 H   0  0  0  0  0  0  0  0  0  0  0  0
   -3.7625    2.3054   -0.1707 H   0  0  0  0  0  0  0  0  0  0  0  0
   -4.0194    4.0402    1.5735 H   0  0  0  0  0  0  0  0  0  0  0  0
   -4.7249    6.0291    2.6216 H   0  0  0  0  0  0  0  0  0  0  0  0
   -5.3517    8.4028    2.3873 H   0  0  0  0  0  0  0  0  0  0  0  0
   -4.9212    9.6041    0.2619 H   0  0  0  0  0  0  0  0  0  0  0  0
   -3.2191    6.0435   -1.4250 H   0  0  0  0  0  0  0  0  0  0  0  0
   -3.2309    0.2806   -1.3072 H   0  0  0  0  0  0  0  0  0  0  0  0
  1  2  2  0  0  0  0
  2  3  1  0  0  0  0
  2 21  1  0  0  0  0
  3  4  1  0  0  0  0
  4  5  1  0  0  0  0
  4 22  1  0  0  0  0
  4 23  1  0  0  0  0
  5  6  1  0  0  0  0
  5 21  2  0  0  0  0
  6  7  2  0  0  0  0
  6 24  1  0  0  0  0
  7  8  1  0  0  0  0
  7 25  1  0  0  0  0
  8  9  1  0  0  0  0
  8 20  2  0  0  0  0
  9 10  1  0  0  0  0
  9 26  1  0  0  0  0
 10 11  2  0  0  0  0
 10 12  1  0  0  0  0
 12 13  1  0  0  0  0
 12 27  1  0  0  0  0
 13 14  1  0  0  0  0
 13 19  2  0  0  0  0
 14 15  2  0  0  0  0
 14 28  1  0  0  0  0
 15 16  1  0  0  0  0
 15 29  1  0  0  0  0
 16 17  2  0  0  0  0
 16 30  1  0  0  0  0
 17 18  1  0  0  0  0
 17 19  1  0  0  0  0
 19 31  1  0  0  0  0
 20 21  1  0  0  0  0
 20 32  1  0  0  0  0
M  END
>  <Energy>
10.5724

$$$$

 OpenBabel04232616053D

 38 40  0  0  0  0  0  0  0  0999 V2000
   -2.5170    0.4478   -0.0272 C   0  0  0  0  0  0  0  0  0  0  0  0
   -1.0641    0.2123    0.3847 C   0  0  0  0  0  0  0  0  0  0  0  0
   -0.5198   -1.0453   -0.2954 C   0  0  0  0  0  0  0  0  0  0  0  0
    0.9539   -1.2712    0.0303 C   0  0  0  0  0  0  0  0  0  0  0  0
    1.7535   -0.0846   -0.2790 N   0  0  0  0  0  0  0  0  0  0  0  0
    2.9316   -0.0639   -1.0412 C   0  0  0  0  0  0  0  0  0  0  0  0
    3.4597    0.9980   -1.3767 O   0  0  0  0  0  0  0  0  0  0  0  0
    3.5233   -1.3317   -1.4967 C   0  0  0  0  0  0  0  0  0  0  0  0
    4.2231   -1.5446   -2.7159 C   0  0  0  0  0  0  0  0  0  0  0  0
    4.4979   -2.8924   -2.7405 C   0  0  0  0  0  0  0  0  0  0  0  0
    5.0827   -3.8176   -3.7041 C   0  0  0  0  0  0  0  0  0  0  0  0
    5.6861   -3.3428   -4.8786 C   0  0  0  0  0  0  0  0  0  0  0  0
    6.2277   -4.2310   -5.8155 C   0  0  0  0  0  0  0  0  0  0  0  0
    6.1675   -5.6034   -5.5878 C   0  0  0  0  0  0  0  0  0  0  0  0
    6.8298   -6.6943   -6.7402 Cl  0  0  0  0  0  0  0  0  0  0  0  0
    5.5707   -6.0959   -4.4318 C   0  0  0  0  0  0  0  0  0  0  0  0
    5.0323   -5.2068   -3.4964 C   0  0  0  0  0  0  0  0  0  0  0  0
    4.0877   -3.4320   -1.5588 O   0  0  0  0  0  0  0  0  0  0  0  0
    3.5202   -2.4584   -0.7653 N   0  0  0  0  0  0  0  0  0  0  0  0
    1.2882    1.1565    0.3385 C   0  0  0  0  0  0  0  0  0  0  0  0
   -0.1867    1.4218    0.0318 C   0  0  0  0  0  0  0  0  0  0  0  0
   -3.1340   -0.4226    0.2217 H   0  0  0  0  0  0  0  0  0  0  0  0
   -2.6007    0.6218   -1.1047 H   0  0  0  0  0  0  0  0  0  0  0  0
   -2.9328    1.3156    0.4923 H   0  0  0  0  0  0  0  0  0  0  0  0
   -1.0354    0.0628    1.4720 H   0  0  0  0  0  0  0  0  0  0  0  0
   -0.6316   -0.9533   -1.3840 H   0  0  0  0  0  0  0  0  0  0  0  0
   -1.0983   -1.9245    0.0124 H   0  0  0  0  0  0  0  0  0  0  0  0
    1.2643   -2.1440   -0.5394 H   0  0  0  0  0  0  0  0  0  0  0  0
    1.0878   -1.4907    1.0963 H   0  0  0  0  0  0  0  0  0  0  0  0
    4.4256   -0.8122   -3.4833 H   0  0  0  0  0  0  0  0  0  0  0  0
    5.7452   -2.2759   -5.0824 H   0  0  0  0  0  0  0  0  0  0  0  0
    6.6924   -3.8442   -6.7188 H   0  0  0  0  0  0  0  0  0  0  0  0
    5.5167   -7.1661   -4.2499 H   0  0  0  0  0  0  0  0  0  0  0  0
    4.5632   -5.6178   -2.6038 H   0  0  0  0  0  0  0  0  0  0  0  0
    1.8867    2.0137    0.0171 H   0  0  0  0  0  0  0  0  0  0  0  0
    1.4335    1.0512    1.4209 H   0  0  0  0  0  0  0  0  0  0  0  0
   -0.2930    1.6556   -1.0351 H   0  0  0  0  0  0  0  0  0  0  0  0
   -0.5226    2.3034    0.5897 H   0  0  0  0  0  0  0  0  0  0  0  0
  1  2  1  0  0  0  0
  1 22  1  0  0  0  0
  1 23  1  0  0  0  0
  1 24  1  0  0  0  0
  2  3  1  0  0  0  0
  2 21  1  0  0  0  0
  2 25  1  0  0  0  0
  3  4  1  0  0  0  0
  3 26  1  0  0  0  0
  3 27  1  0  0  0  0
  4  5  1  0  0  0  0
  4 28  1  0  0  0  0
  4 29  1  0  0  0  0
  5  6  1  0  0  0  0
  5 20  1  0  0  0  0
  6  7  2  0  0  0  0
  6  8  1  0  0  0  0
  8  9  1  0  0  0  0
  8 19  2  0  0  0  0
  9 10  2  0  0  0  0
  9 30  1  0  0  0  0
 10 11  1  0  0  0  0
 10 18  1  0  0  0  0
 11 12  1  0  0  0  0
 11 17  2  0  0  0  0
 12 13  2  0  0  0  0
 12 31  1  0  0  0  0
 13 14  1  0  0  0  0
 13 32  1  0  0  0  0
 14 15  1  0  0  0  0
 14 16  2  0  0  0  0
 16 17  1  0  0  0  0
 16 33  1  0  0  0  0
 17 34  1  0  0  0  0
 18 19  1  0  0  0  0
 20 21  1  0  0  0  0
 20 35  1  0  0  0  0
 20 36  1  0  0  0  0
 21 37  1  0  0  0  0
 21 38  1  0  0  0  0
M  END
>  <Energy>
42.0117

$$$$

 OpenBabel04232616053D

 29 32  0  0  0  0  0  0  0  0999 V2000
    1.5956    2.2404    0.1998 O   0  0  0  0  0  0  0  0  0  0  0  0
    1.2650    1.0740    0.0935 C   0  0  0  0  0  0  0  0  0  0  0  0
   -0.1449    0.6779    0.0648 C   0  0  0  0  0  0  0  0  0  0  0  0
   -1.2951    1.4421    0.1285 C   0  0  0  0  0  0  0  0  0  0  0  0
   -2.5197    0.7658    0.0810 C   0  0  0  0  0  0  0  0  0  0  0  0
   -2.5665   -0.6396   -0.0211 C   0  0  0  0  0  0  0  0  0  0  0  0
   -1.3901   -1.3895   -0.0951 C   0  0  0  0  0  0  0  0  0  0  0  0
   -0.1947   -0.6957   -0.0616 C   0  0  0  0  0  0  0  0  0  0  0  0
    1.1764   -1.1883   -0.1416 C   0  0  0  0  0  0  0  0  0  0  0  0
    1.4140   -2.3814   -0.2114 O   0  0  0  0  0  0  0  0  0  0  0  0
    1.9859   -0.0847   -0.0635 N   0  0  0  0  0  0  0  0  0  0  0  0
    3.3639   -0.0924   -0.0913 C   0  0  0  0  0  0  0  0  0  0  0  0
    4.1570    0.8646    0.3417 N   0  0  0  0  0  0  0  0  0  0  0  0
    5.4878    0.5197    0.1522 C   0  0  0  0  0  0  0  0  0  0  0  0
    6.6025    1.3902    0.6526 C   0  0  0  0  0  0  0  0  0  0  0  0
    6.3981    2.5321    1.3995 C   0  0  0  0  0  0  0  0  0  0  0  0
    7.6246    3.1521    1.7847 C   0  0  0  0  0  0  0  0  0  0  0  0
    8.7199    2.4713    1.3026 C   0  0  0  0  0  0  0  0  0  0  0  0
    8.2679    1.0877    0.4067 S   0  0  0  0  0  0  0  0  0  0  0  0
    5.6852   -0.6765   -0.5042 C   0  0  0  0  0  0  0  0  0  0  0  0
    4.1807   -1.4280   -0.8022 S   0  0  0  0  0  0  0  0  0  0  0  0
   -1.2482    2.5239    0.2069 H   0  0  0  0  0  0  0  0  0  0  0  0
   -3.4502    1.3293    0.1255 H   0  0  0  0  0  0  0  0  0  0  0  0
   -3.5305   -1.1450   -0.0459 H   0  0  0  0  0  0  0  0  0  0  0  0
   -1.4094   -2.4722   -0.1758 H   0  0  0  0  0  0  0  0  0  0  0  0
    5.4140    2.8964    1.6729 H   0  0  0  0  0  0  0  0  0  0  0  0
    7.6968    4.0508    2.3859 H   0  0  0  0  0  0  0  0  0  0  0  0
    9.7652    2.7153    1.4366 H   0  0  0  0  0  0  0  0  0  0  0  0
    6.6105   -1.1566   -0.7870 H   0  0  0  0  0  0  0  0  0  0  0  0
  1  2  2  0  0  0  0
  2  3  1  0  0  0  0
  2 11  1  0  0  0  0
  3  4  1  0  0  0  0
  3  8  2  0  0  0  0
  4  5  2  0  0  0  0
  4 22  1  0  0  0  0
  5  6  1  0  0  0  0
  5 23  1  0  0  0  0
  6  7  2  0  0  0  0
  6 24  1  0  0  0  0
  7  8  1  0  0  0  0
  7 25  1  0  0  0  0
  8  9  1  0  0  0  0
  9 10  2  0  0  0  0
  9 11  1  0  0  0  0
 11 12  1  0  0  0  0
 12 13  2  0  0  0  0
 12 21  1  0  0  0  0
 13 14  1  0  0  0  0
 14 15  1  0  0  0  0
 14 20  2  0  0  0  0
 15 16  2  0  0  0  0
 15 19  1  0  0  0  0
 16 17  1  0  0  0  0
 16 26  1  0  0  0  0
 17 18  2  0  0  0  0
 17 27  1  0  0  0  0
 18 19  1  0  0  0  0
 18 28  1  0  0  0  0
 20 21  1  0  0  0  0
 20 29  1  0  0  0  0
M  END
>  <Energy>
15.3268

$$$$

 OpenBabel04232616053D

 39 42  0  0  0  0  0  0  0  0999 V2000
    0.3475    1.3710   -2.7191 C   0  0  0  0  0  0  0  0  0  0  0  0
    0.0404    0.7970   -1.3683 C   0  0  0  0  0  0  0  0  0  0  0  0
    0.3831    1.4765   -0.2025 C   0  0  0  0  0  0  0  0  0  0  0  0
    0.1282    0.9031    1.0429 C   0  0  0  0  0  0  0  0  0  0  0  0
   -0.4636   -0.3685    1.1564 C   0  0  0  0  0  0  0  0  0  0  0  0
   -0.6545   -0.9231    2.5415 C   0  0  0  0  0  0  0  0  0  0  0  0
   -0.8505   -1.0525   -0.0163 C   0  0  0  0  0  0  0  0  0  0  0  0
   -1.4974   -2.4244   -0.0226 C   0  0  0  0  0  0  0  0  0  0  0  0
   -2.9551   -2.4124   -0.0504 N   0  0  0  0  0  0  0  0  0  0  0  0
   -3.6565   -2.6198    1.1345 C   0  0  0  0  0  0  0  0  0  0  0  0
   -4.9293   -2.8468    1.2807 N   0  0  0  0  0  0  0  0  0  0  0  0
   -5.6171   -2.8717    0.0654 C   0  0  0  0  0  0  0  0  0  0  0  0
   -5.0141   -2.6318   -1.1341 C   0  0  0  0  0  0  0  0  0  0  0  0
   -5.9129   -2.7113   -2.1514 O   0  0  0  0  0  0  0  0  0  0  0  0
   -7.1088   -3.0441   -1.5674 C   0  0  0  0  0  0  0  0  0  0  0  0
   -8.3131   -3.2383   -2.2435 C   0  0  0  0  0  0  0  0  0  0  0  0
   -9.4135   -3.6234   -1.4687 C   0  0  0  0  0  0  0  0  0  0  0  0
   -9.2996   -3.8044   -0.0872 C   0  0  0  0  0  0  0  0  0  0  0  0
   -8.0819   -3.5837    0.5725 C   0  0  0  0  0  0  0  0  0  0  0  0
   -6.9657   -3.1854   -0.1845 C   0  0  0  0  0  0  0  0  0  0  0  0
   -3.6091   -2.4085   -1.2929 C   0  0  0  0  0  0  0  0  0  0  0  0
   -3.0357   -2.2952   -2.3705 O   0  0  0  0  0  0  0  0  0  0  0  0
   -0.5818   -0.4530   -1.2649 C   0  0  0  0  0  0  0  0  0  0  0  0
    0.7855    2.3713   -2.6401 H   0  0  0  0  0  0  0  0  0  0  0  0
   -0.5675    1.4512   -3.3145 H   0  0  0  0  0  0  0  0  0  0  0  0
    1.0645    0.7309   -3.2439 H   0  0  0  0  0  0  0  0  0  0  0  0
    0.8589    2.4531   -0.2509 H   0  0  0  0  0  0  0  0  0  0  0  0
    0.4151    1.4571    1.9354 H   0  0  0  0  0  0  0  0  0  0  0  0
   -0.0420   -0.3810    3.2721 H   0  0  0  0  0  0  0  0  0  0  0  0
   -0.3396   -1.9688    2.5975 H   0  0  0  0  0  0  0  0  0  0  0  0
   -1.6993   -0.8290    2.8477 H   0  0  0  0  0  0  0  0  0  0  0  0
   -1.1614   -3.0033    0.8445 H   0  0  0  0  0  0  0  0  0  0  0  0
   -1.1329   -2.9855   -0.8932 H   0  0  0  0  0  0  0  0  0  0  0  0
   -3.0261   -2.5826    2.0364 H   0  0  0  0  0  0  0  0  0  0  0  0
   -8.3855   -3.1046   -3.3162 H   0  0  0  0  0  0  0  0  0  0  0  0
  -10.3741   -3.7918   -1.9529 H   0  0  0  0  0  0  0  0  0  0  0  0
  -10.1679   -4.1215    0.4871 H   0  0  0  0  0  0  0  0  0  0  0  0
   -7.9962   -3.7297    1.6453 H   0  0  0  0  0  0  0  0  0  0  0  0
   -0.8469   -0.9789   -2.1834 H   0  0  0  0  0  0  0  0  0  0  0  0
  1  2  1  0  0  0  0
  1 24  1  0  0  0  0
  1 25  1  0  0  0  0
  1 26  1  0  0  0  0
  2  3  1  0  0  0  0
  2 23  2  0  0  0  0
  3  4  2  0  0  0  0
  3 27  1  0  0  0  0
  4  5  1  0  0  0  0
  4 28  1  0  0  0  0
  5  6  1  0  0  0  0
  5  7  2  0  0  0  0
  6 29  1  0  0  0  0
  6 30  1  0  0  0  0
  6 31  1  0  0  0  0
  7  8  1  0  0  0  0
  7 23  1  0  0  0  0
  8  9  1  0  0  0  0
  8 32  1  0  0  0  0
  8 33  1  0  0  0  0
  9 10  1  0  0  0  0
  9 21  1  0  0  0  0
 10 11  2  0  0  0  0
 10 34  1  0  0  0  0
 11 12  1  0  0  0  0
 12 13  2  0  0  0  0
 12 20  1  0  0  0  0
 13 14  1  0  0  0  0
 13 21  1  0  0  0  0
 14 15  1  0  0  0  0
 15 16  1  0  0  0  0
 15 20  2  0  0  0  0
 16 17  2  0  0  0  0
 16 35  1  0  0  0  0
 17 18  1  0  0  0  0
 17 36  1  0  0  0  0
 18 19  2  0  0  0  0
 18 37  1  0  0  0  0
 19 20  1  0  0  0  0
 19 38  1  0  0  0  0
 21 22  2  0  0  0  0
 23 39  1  0  0  0  0
M  END
>  <Energy>
19.8644

$$$$

 OpenBabel04232616053D

 31 33  0  0  0  0  0  0  0  0999 V2000
    0.9390    0.0022   -0.1867 N   0  0  0  0  0  0  0  0  0  0  0  0
    2.2974    0.0048   -0.1180 C   0  0  0  0  0  0  0  0  0  0  0  0
    3.1500    1.0772   -0.1381 C   0  0  0  0  0  0  0  0  0  0  0  0
    4.4463    0.5571    0.1060 C   0  0  0  0  0  0  0  0  0  0  0  0
    5.6995    1.3182    0.1576 C   0  0  0  0  0  0  0  0  0  0  0  0
    6.8072    0.8447    0.8756 C   0  0  0  0  0  0  0  0  0  0  0  0
    7.9907    1.5938    0.9372 C   0  0  0  0  0  0  0  0  0  0  0  0
    8.0745    2.8153    0.2751 C   0  0  0  0  0  0  0  0  0  0  0  0
    9.5215    3.7414    0.3604 Cl  0  0  0  0  0  0  0  0  0  0  0  0
    6.9920    3.2931   -0.4576 C   0  0  0  0  0  0  0  0  0  0  0  0
    5.8115    2.5464   -0.5168 C   0  0  0  0  0  0  0  0  0  0  0  0
    4.3914   -0.7654    0.3319 N   0  0  0  0  0  0  0  0  0  0  0  0
    3.1059   -1.1210    0.0563 N   0  0  0  0  0  0  0  0  0  0  0  0
    2.7251   -2.4913    0.0091 C   0  0  0  0  0  0  0  0  0  0  0  0
    1.6416   -2.9057   -0.7817 C   0  0  0  0  0  0  0  0  0  0  0  0
    1.2395   -4.2417   -0.7799 C   0  0  0  0  0  0  0  0  0  0  0  0
    1.9122   -5.1682    0.0149 C   0  0  0  0  0  0  0  0  0  0  0  0
    3.0084   -4.7617    0.7777 C   0  0  0  0  0  0  0  0  0  0  0  0
    3.8174   -5.9103    1.7726 Cl  0  0  0  0  0  0  0  0  0  0  0  0
    3.4360   -3.4341    0.7622 C   0  0  0  0  0  0  0  0  0  0  0  0
    0.4444    0.8821   -0.0556 H   0  0  0  0  0  0  0  0  0  0  0  0
    0.4217   -0.7746    0.2214 H   0  0  0  0  0  0  0  0  0  0  0  0
    2.8686    2.1126   -0.2692 H   0  0  0  0  0  0  0  0  0  0  0  0
    6.7533   -0.1089    1.3983 H   0  0  0  0  0  0  0  0  0  0  0  0
    8.8357    1.2151    1.5058 H   0  0  0  0  0  0  0  0  0  0  0  0
    7.0575    4.2409   -0.9850 H   0  0  0  0  0  0  0  0  0  0  0  0
    4.9861    2.9350   -1.1087 H   0  0  0  0  0  0  0  0  0  0  0  0
    1.1264   -2.2106   -1.4428 H   0  0  0  0  0  0  0  0  0  0  0  0
    0.4052   -4.5596   -1.4014 H   0  0  0  0  0  0  0  0  0  0  0  0
    1.5839   -6.2032    0.0301 H   0  0  0  0  0  0  0  0  0  0  0  0
    4.2856   -3.1324    1.3712 H   0  0  0  0  0  0  0  0  0  0  0  0
  1  2  1  0  0  0  0
  1 21  1  0  0  0  0
  1 22  1  0  0  0  0
  2  3  2  0  0  0  0
  2 13  1  0  0  0  0
  3  4  1  0  0  0  0
  3 23  1  0  0  0  0
  4  5  1  0  0  0  0
  4 12  2  0  0  0  0
  5  6  1  0  0  0  0
  5 11  2  0  0  0  0
  6  7  2  0  0  0  0
  6 24  1  0  0  0  0
  7  8  1  0  0  0  0
  7 25  1  0  0  0  0
  8  9  1  0  0  0  0
  8 10  2  0  0  0  0
 10 11  1  0  0  0  0
 10 26  1  0  0  0  0
 11 27  1  0  0  0  0
 12 13  1  0  0  0  0
 13 14  1  0  0  0  0
 14 15  1  0  0  0  0
 14 20  2  0  0  0  0
 15 16  2  0  0  0  0
 15 28  1  0  0  0  0
 16 17  1  0  0  0  0
 16 29  1  0  0  0  0
 17 18  2  0  0  0  0
 17 30  1  0  0  0  0
 18 19  1  0  0  0  0
 18 20  1  0  0  0  0
 20 31  1  0  0  0  0
M  END
>  <Energy>
94.1159

$$$$

 OpenBabel04232616053D

 28 29  0  0  0  0  0  0  0  0999 V2000
    0.9903   -0.0317   -0.0670 C   0  0  0  0  0  0  0  0  0  0  0  0
    2.4719    0.0361   -0.0694 C   0  0  0  0  0  0  0  0  0  0  0  0
    3.2901    1.1818   -0.0861 C   0  0  0  0  0  0  0  0  0  0  0  0
    4.5914    0.7179   -0.0802 C   0  0  0  0  0  0  0  0  0  0  0  0
    5.8518    1.5007   -0.0740 C   0  0  0  0  0  0  0  0  0  0  0  0
    4.4926   -0.6691   -0.0319 N   0  0  0  0  0  0  0  0  0  0  0  0
    5.8618   -1.7518   -0.0614 S   0  0  0  0  0  0  0  0  0  0  0  0
    6.9224   -1.0650    0.6566 O   0  0  0  0  0  0  0  0  0  0  0  0
    5.4001   -3.0529    0.3854 O   0  0  0  0  0  0  0  0  0  0  0  0
    6.3439   -1.8808   -1.7618 C   0  0  0  0  0  0  0  0  0  0  0  0
    7.6284   -1.4232   -2.1100 C   0  0  0  0  0  0  0  0  0  0  0  0
    8.0961   -1.5758   -3.4139 C   0  0  0  0  0  0  0  0  0  0  0  0
    9.6688   -1.0209   -3.8301 Cl  0  0  0  0  0  0  0  0  0  0  0  0
    7.3015   -2.1857   -4.3783 C   0  0  0  0  0  0  0  0  0  0  0  0
    6.0289   -2.6449   -4.0330 C   0  0  0  0  0  0  0  0  0  0  0  0
    5.5434   -2.5006   -2.7250 C   0  0  0  0  0  0  0  0  0  0  0  0
    3.9743   -3.1421   -2.4287 Cl  0  0  0  0  0  0  0  0  0  0  0  0
    3.1944   -1.0850   -0.0594 N   0  0  0  0  0  0  0  0  0  0  0  0
    0.5495    0.9706   -0.0667 H   0  0  0  0  0  0  0  0  0  0  0  0
    0.6310   -0.5591    0.8227 H   0  0  0  0  0  0  0  0  0  0  0  0
    0.6281   -0.5606   -0.9545 H   0  0  0  0  0  0  0  0  0  0  0  0
    2.9727    2.2164   -0.0944 H   0  0  0  0  0  0  0  0  0  0  0  0
    5.6363    2.5723   -0.1554 H   0  0  0  0  0  0  0  0  0  0  0  0
    6.4904    1.2321   -0.9198 H   0  0  0  0  0  0  0  0  0  0  0  0
    6.4013    1.3602    0.8613 H   0  0  0  0  0  0  0  0  0  0  0  0
    8.2789   -0.9658   -1.3664 H   0  0  0  0  0  0  0  0  0  0  0  0
    7.6669   -2.3187   -5.3942 H   0  0  0  0  0  0  0  0  0  0  0  0
    5.4211   -3.1341   -4.7926 H   0  0  0  0  0  0  0  0  0  0  0  0
  1  2  1  0  0  0  0
  1 19  1  0  0  0  0
  1 20  1  0  0  0  0
  1 21  1  0  0  0  0
  2  3  1  0  0  0  0
  2 18  2  0  0  0  0
  3  4  2  0  0  0  0
  3 22  1  0  0  0  0
  4  5  1  0  0  0  0
  4  6  1  0  0  0  0
  5 23  1  0  0  0  0
  5 24  1  0  0  0  0
  5 25  1  0  0  0  0
  6  7  1  0  0  0  0
  6 18  1  0  0  0  0
  7  8  2  0  0  0  0
  7  9  2  0  0  0  0
  7 10  1  0  0  0  0
 10 11  1  0  0  0  0
 10 16  2  0  0  0  0
 11 12  2  0  0  0  0
 11 26  1  0  0  0  0
 12 13  1  0  0  0  0
 12 14  1  0  0  0  0
 14 15  2  0  0  0  0
 14 27  1  0  0  0  0
 15 16  1  0  0  0  0
 15 28  1  0  0  0  0
 16 17  1  0  0  0  0
M  END
>  <Energy>
127.807

$$$$

 OpenBabel04232616053D

 30 31  0  0  0  0  0  0  0  0999 V2000
    2.7948   -1.1730   -0.4976 O   0  0  0  0  0  0  0  0  0  0  0  0
    2.3646   -0.0551   -0.2413 C   0  0  0  0  0  0  0  0  0  0  0  0
    1.0253    0.3033   -0.3057 N   0  0  0  0  0  0  0  0  0  0  0  0
   -0.0479   -0.5290   -0.7078 C   0  0  0  0  0  0  0  0  0  0  0  0
    0.0661   -1.9024   -0.9072 C   0  0  0  0  0  0  0  0  0  0  0  0
   -1.0437   -2.6056   -1.3490 C   0  0  0  0  0  0  0  0  0  0  0  0
   -2.2441   -2.0415   -1.5918 N   0  0  0  0  0  0  0  0  0  0  0  0
   -2.3387   -0.7149   -1.3743 C   0  0  0  0  0  0  0  0  0  0  0  0
   -1.2864    0.0733   -0.9316 C   0  0  0  0  0  0  0  0  0  0  0  0
    3.1573    1.0237    0.1217 N   0  0  0  0  0  0  0  0  0  0  0  0
    4.5698    1.0747    0.1083 C   0  0  0  0  0  0  0  0  0  0  0  0
    5.3785    0.0592   -0.4099 C   0  0  0  0  0  0  0  0  0  0  0  0
    6.7691    0.1849   -0.4090 C   0  0  0  0  0  0  0  0  0  0  0  0
    7.3629    1.3306    0.1021 C   0  0  0  0  0  0  0  0  0  0  0  0
    8.6979    1.4214    0.0791 F   0  0  0  0  0  0  0  0  0  0  0  0
    6.5903    2.3642    0.6198 C   0  0  0  0  0  0  0  0  0  0  0  0
    7.2264    3.6109    1.1559 C   0  0  0  0  0  0  0  0  0  0  0  0
    8.5845    3.6032    1.1981 F   0  0  0  0  0  0  0  0  0  0  0  0
    6.8826    4.7101    0.4255 F   0  0  0  0  0  0  0  0  0  0  0  0
    6.8191    3.8818    2.4293 F   0  0  0  0  0  0  0  0  0  0  0  0
    5.1863    2.2271    0.6163 C   0  0  0  0  0  0  0  0  0  0  0  0
    0.8140    1.2838   -0.2079 H   0  0  0  0  0  0  0  0  0  0  0  0
    0.9827   -2.4511   -0.7336 H   0  0  0  0  0  0  0  0  0  0  0  0
   -0.9865   -3.6763   -1.5266 H   0  0  0  0  0  0  0  0  0  0  0  0
   -3.3146   -0.2844   -1.5797 H   0  0  0  0  0  0  0  0  0  0  0  0
   -1.4449    1.1357   -0.7893 H   0  0  0  0  0  0  0  0  0  0  0  0
    2.6809    1.8187    0.5215 H   0  0  0  0  0  0  0  0  0  0  0  0
    4.9620   -0.8487   -0.8360 H   0  0  0  0  0  0  0  0  0  0  0  0
    7.3904   -0.6106   -0.8130 H   0  0  0  0  0  0  0  0  0  0  0  0
    4.5830    3.0410    1.0169 H   0  0  0  0  0  0  0  0  0  0  0  0
  1  2  2  0  0  0  0
  2  3  1  0  0  0  0
  2 10  1  0  0  0  0
  3  4  1  0  0  0  0
  3 22  1  0  0  0  0
  4  5  1  0  0  0  0
  4  9  2  0  0  0  0
  5  6  2  0  0  0  0
  5 23  1  0  0  0  0
  6  7  1  0  0  0  0
  6 24  1  0  0  0  0
  7  8  2  0  0  0  0
  8  9  1  0  0  0  0
  8 25  1  0  0  0  0
  9 26  1  0  0  0  0
 10 11  1  0  0  0  0
 10 27  1  0  0  0  0
 11 12  1  0  0  0  0
 11 21  2  0  0  0  0
 12 13  2  0  0  0  0
 12 28  1  0  0  0  0
 13 14  1  0  0  0  0
 13 29  1  0  0  0  0
 14 15  1  0  0  0  0
 14 16  2  0  0  0  0
 16 17  1  0  0  0  0
 16 21  1  0  0  0  0
 17 18  1  0  0  0  0
 17 19  1  0  0  0  0
 17 20  1  0  0  0  0
 21 30  1  0  0  0  0
M  END
>  <Energy>
-37.9496

$$$$

 OpenBabel04232616053D

 30 31  0  0  0  0  0  0  0  0999 V2000
    4.0518    0.8353   -0.9873 N   0  0  0  0  0  0  0  0  0  0  0  0
    2.8106    0.1098   -0.1220 S   0  0  0  0  0  0  0  0  0  0  0  0
    1.5899    0.7712   -0.5210 O   0  0  0  0  0  0  0  0  0  0  0  0
    3.0167   -1.3106   -0.2744 O   0  0  0  0  0  0  0  0  0  0  0  0
    3.1940    0.5819    1.5398 C   0  0  0  0  0  0  0  0  0  0  0  0
    3.1805    1.9267    1.8988 C   0  0  0  0  0  0  0  0  0  0  0  0
    3.5053    2.2953    3.2093 C   0  0  0  0  0  0  0  0  0  0  0  0
    3.8531    1.3340    4.1810 C   0  0  0  0  0  0  0  0  0  0  0  0
    4.2141    1.7203    5.5668 C   0  0  0  0  0  0  0  0  0  0  0  0
    3.8976    0.8961    6.6644 C   0  0  0  0  0  0  0  0  0  0  0  0
    4.2647    1.2371    7.9727 C   0  0  0  0  0  0  0  0  0  0  0  0
    4.9512    2.4284    8.2267 C   0  0  0  0  0  0  0  0  0  0  0  0
    5.3711    2.8309    9.6070 C   0  0  0  0  0  0  0  0  0  0  0  0
    5.0391    1.9061   10.5544 F   0  0  0  0  0  0  0  0  0  0  0  0
    6.7166    3.0024    9.7248 F   0  0  0  0  0  0  0  0  0  0  0  0
    4.7986    3.9950   10.0194 F   0  0  0  0  0  0  0  0  0  0  0  0
    5.2502    3.2574    7.1522 C   0  0  0  0  0  0  0  0  0  0  0  0
    5.8982    4.4115    7.3598 F   0  0  0  0  0  0  0  0  0  0  0  0
    4.8977    2.9151    5.8452 C   0  0  0  0  0  0  0  0  0  0  0  0
    3.8533   -0.0167    3.7792 C   0  0  0  0  0  0  0  0  0  0  0  0
    3.5209   -0.3966    2.4766 C   0  0  0  0  0  0  0  0  0  0  0  0
    3.6556    1.4308   -1.7158 H   0  0  0  0  0  0  0  0  0  0  0  0
    4.6914    0.1236   -1.3420 H   0  0  0  0  0  0  0  0  0  0  0  0
    2.9233    2.6927    1.1688 H   0  0  0  0  0  0  0  0  0  0  0  0
    3.4756    3.3530    3.4643 H   0  0  0  0  0  0  0  0  0  0  0  0
    3.3485   -0.0329    6.5168 H   0  0  0  0  0  0  0  0  0  0  0  0
    4.0091    0.5626    8.7892 H   0  0  0  0  0  0  0  0  0  0  0  0
    5.1867    3.5978    5.0506 H   0  0  0  0  0  0  0  0  0  0  0  0
    4.1330   -0.8027    4.4790 H   0  0  0  0  0  0  0  0  0  0  0  0
    3.5291   -1.4496    2.2059 H   0  0  0  0  0  0  0  0  0  0  0  0
  1  2  1  0  0  0  0
  1 22  1  0  0  0  0
  1 23  1  0  0  0  0
  2  3  2  0  0  0  0
  2  4  2  0  0  0  0
  2  5  1  0  0  0  0
  5  6  1  0  0  0  0
  5 21  2  0  0  0  0
  6  7  2  0  0  0  0
  6 24  1  0  0  0  0
  7  8  1  0  0  0  0
  7 25  1  0  0  0  0
  8  9  1  0  0  0  0
  8 20  2  0  0  0  0
  9 10  1  0  0  0  0
  9 19  2  0  0  0  0
 10 11  2  0  0  0  0
 10 26  1  0  0  0  0
 11 12  1  0  0  0  0
 11 27  1  0  0  0  0
 12 13  1  0  0  0  0
 12 17  2  0  0  0  0
 13 14  1  0  0  0  0
 13 15  1  0  0  0  0
 13 16  1  0  0  0  0
 17 18  1  0  0  0  0
 17 19  1  0  0  0  0
 19 28  1  0  0  0  0
 20 21  1  0  0  0  0
 20 29  1  0  0  0  0
 21 30  1  0  0  0  0
M  END
>  <Energy>
-34.776

$$$$

 OpenBabel04232616053D

 31 32  0  0  0  0  0  0  0  0999 V2000
    3.4267   -0.7546   -1.1391 C   0  0  0  0  0  0  0  0  0  0  0  0
    2.6629    0.0656   -0.0921 C   0  0  0  0  0  0  0  0  0  0  0  0
    1.1533   -0.0933   -0.2857 C   0  0  0  0  0  0  0  0  0  0  0  0
    3.0516   -0.3418    1.3112 C   0  0  0  0  0  0  0  0  0  0  0  0
    2.9785   -1.6826    1.5662 N   0  0  0  0  0  0  0  0  0  0  0  0
    3.3656   -2.1374    2.7700 C   0  0  0  0  0  0  0  0  0  0  0  0
    3.3103   -3.4992    3.0360 C   0  0  0  0  0  0  0  0  0  0  0  0
    3.7440   -4.0096    4.2603 C   0  0  0  0  0  0  0  0  0  0  0  0
    3.6395   -5.7162    4.5034 Cl  0  0  0  0  0  0  0  0  0  0  0  0
    4.2428   -3.1425    5.2306 C   0  0  0  0  0  0  0  0  0  0  0  0
    4.8324   -3.6944    6.7557 Cl  0  0  0  0  0  0  0  0  0  0  0  0
    4.2760   -1.7685    4.9767 C   0  0  0  0  0  0  0  0  0  0  0  0
    3.8323   -1.2530    3.7651 C   0  0  0  0  0  0  0  0  0  0  0  0
    3.8512    0.0714    3.5611 N   0  0  0  0  0  0  0  0  0  0  0  0
    3.4613    0.5088    2.3245 C   0  0  0  0  0  0  0  0  0  0  0  0
    3.4801    2.2830    2.2187 S   0  0  0  0  0  0  0  0  0  0  0  0
    2.8096    2.8129    3.7769 C   0  0  0  0  0  0  0  0  0  0  0  0
    4.8653    2.7046    2.1385 O   0  0  0  0  0  0  0  0  0  0  0  0
    2.5157    2.7136    1.2220 O   0  0  0  0  0  0  0  0  0  0  0  0
    3.1464   -0.4432   -2.1513 H   0  0  0  0  0  0  0  0  0  0  0  0
    3.2249   -1.8279   -1.0529 H   0  0  0  0  0  0  0  0  0  0  0  0
    4.5071   -0.6073   -1.0300 H   0  0  0  0  0  0  0  0  0  0  0  0
    2.9369    1.1010   -0.2945 H   0  0  0  0  0  0  0  0  0  0  0  0
    0.8492   -1.1454   -0.2339 H   0  0  0  0  0  0  0  0  0  0  0  0
    0.8456    0.2936   -1.2631 H   0  0  0  0  0  0  0  0  0  0  0  0
    0.5937    0.4510    0.4831 H   0  0  0  0  0  0  0  0  0  0  0  0
    2.9286   -4.1657    2.2673 H   0  0  0  0  0  0  0  0  0  0  0  0
    4.6629   -1.0847    5.7287 H   0  0  0  0  0  0  0  0  0  0  0  0
    3.4380    2.4652    4.5945 H   0  0  0  0  0  0  0  0  0  0  0  0
    1.7934    2.4195    3.8653 H   0  0  0  0  0  0  0  0  0  0  0  0
    2.7775    3.9043    3.7712 H   0  0  0  0  0  0  0  0  0  0  0  0
  1  2  1  0  0  0  0
  1 20  1  0  0  0  0
  1 21  1  0  0  0  0
  1 22  1  0  0  0  0
  2  3  1  0  0  0  0
  2  4  1  0  0  0  0
  2 23  1  0  0  0  0
  3 24  1  0  0  0  0
  3 25  1  0  0  0  0
  3 26  1  0  0  0  0
  4  5  1  0  0  0  0
  4 15  2  0  0  0  0
  5  6  2  0  0  0  0
  6  7  1  0  0  0  0
  6 13  1  0  0  0  0
  7  8  2  0  0  0  0
  7 27  1  0  0  0  0
  8  9  1  0  0  0  0
  8 10  1  0  0  0  0
 10 11  1  0  0  0  0
 10 12  2  0  0  0  0
 12 13  1  0  0  0  0
 12 28  1  0  0  0  0
 13 14  2  0  0  0  0
 14 15  1  0  0  0  0
 15 16  1  0  0  0  0
 16 17  1  0  0  0  0
 16 18  2  0  0  0  0
 16 19  2  0  0  0  0
 17 29  1  0  0  0  0
 17 30  1  0  0  0  0
 17 31  1  0  0  0  0
M  END
>  <Energy>
117.529

$$$$

 OpenBabel04232616053D

 35 38  0  0  0  0  0  0  0  0999 V2000
    1.4680   -0.4678   -1.6608 C   0  0  0  0  0  0  0  0  0  0  0  0
    0.3546   -0.3381   -0.7008 C   0  0  0  0  0  0  0  0  0  0  0  0
   -0.0667   -1.0917    0.3721 C   0  0  0  0  0  0  0  0  0  0  0  0
   -1.2103   -0.4377    0.8901 C   0  0  0  0  0  0  0  0  0  0  0  0
   -1.4343    0.6728    0.0968 C   0  0  0  0  0  0  0  0  0  0  0  0
   -2.4569    1.7106    0.0930 C   0  0  0  0  0  0  0  0  0  0  0  0
   -3.3567    1.6458    1.0972 N   0  0  0  0  0  0  0  0  0  0  0  0
   -4.3707    2.5271    1.1090 C   0  0  0  0  0  0  0  0  0  0  0  0
   -5.2915    2.4171    2.1400 N   0  0  0  0  0  0  0  0  0  0  0  0
   -4.4615    3.4871    0.0897 C   0  0  0  0  0  0  0  0  0  0  0  0
   -5.3981    4.5359   -0.2003 C   0  0  0  0  0  0  0  0  0  0  0  0
   -5.1068    5.2321   -1.3633 C   0  0  0  0  0  0  0  0  0  0  0  0
   -5.8641    6.3250   -2.0015 C   0  0  0  0  0  0  0  0  0  0  0  0
   -5.2359    7.3121   -2.7796 C   0  0  0  0  0  0  0  0  0  0  0  0
   -5.9754    8.3302   -3.3882 C   0  0  0  0  0  0  0  0  0  0  0  0
   -7.3550    8.3864   -3.2218 C   0  0  0  0  0  0  0  0  0  0  0  0
   -7.9977    7.4239   -2.4471 C   0  0  0  0  0  0  0  0  0  0  0  0
   -7.2578    6.4029   -1.8436 C   0  0  0  0  0  0  0  0  0  0  0  0
   -3.6724    4.6150   -2.0830 S   0  0  0  0  0  0  0  0  0  0  0  0
   -3.4689    3.4429   -0.8712 C   0  0  0  0  0  0  0  0  0  0  0  0
   -2.4388    2.5868   -0.9187 N   0  0  0  0  0  0  0  0  0  0  0  0
   -0.4677    0.7346   -0.8730 O   0  0  0  0  0  0  0  0  0  0  0  0
    2.0748   -1.3514   -1.4393 H   0  0  0  0  0  0  0  0  0  0  0  0
    2.1180    0.4112   -1.6160 H   0  0  0  0  0  0  0  0  0  0  0  0
    1.0857   -0.5649   -2.6815 H   0  0  0  0  0  0  0  0  0  0  0  0
    0.3913   -2.0021    0.7324 H   0  0  0  0  0  0  0  0  0  0  0  0
   -1.8201   -0.7389    1.7314 H   0  0  0  0  0  0  0  0  0  0  0  0
   -4.9312    1.8604    2.9066 H   0  0  0  0  0  0  0  0  0  0  0  0
   -5.7965    3.2561    2.3857 H   0  0  0  0  0  0  0  0  0  0  0  0
   -6.2588    4.7534    0.4197 H   0  0  0  0  0  0  0  0  0  0  0  0
   -4.1580    7.3067   -2.9253 H   0  0  0  0  0  0  0  0  0  0  0  0
   -5.4684    9.0779   -3.9939 H   0  0  0  0  0  0  0  0  0  0  0  0
   -7.9295    9.1775   -3.6967 H   0  0  0  0  0  0  0  0  0  0  0  0
   -9.0762    7.4625   -2.3183 H   0  0  0  0  0  0  0  0  0  0  0  0
   -7.7933    5.6562   -1.2608 H   0  0  0  0  0  0  0  0  0  0  0  0
  1  2  1  0  0  0  0
  1 23  1  0  0  0  0
  1 24  1  0  0  0  0
  1 25  1  0  0  0  0
  2  3  2  0  0  0  0
  2 22  1  0  0  0  0
  3  4  1  0  0  0  0
  3 26  1  0  0  0  0
  4  5  2  0  0  0  0
  4 27  1  0  0  0  0
  5  6  1  0  0  0  0
  5 22  1  0  0  0  0
  6  7  1  0  0  0  0
  6 21  2  0  0  0  0
  7  8  2  0  0  0  0
  8  9  1  0  0  0  0
  8 10  1  0  0  0  0
  9 28  1  0  0  0  0
  9 29  1  0  0  0  0
 10 11  1  0  0  0  0
 10 20  2  0  0  0  0
 11 12  2  0  0  0  0
 11 30  1  0  0  0  0
 12 13  1  0  0  0  0
 12 19  1  0  0  0  0
 13 14  1  0  0  0  0
 13 18  2  0  0  0  0
 14 15  2  0  0  0  0
 14 31  1  0  0  0  0
 15 16  1  0  0  0  0
 15 32  1  0  0  0  0
 16 17  2  0  0  0  0
 16 33  1  0  0  0  0
 17 18  1  0  0  0  0
 17 34  1  0  0  0  0
 18 35  1  0  0  0  0
 19 20  1  0  0  0  0
 20 21  1  0  0  0  0
M  END
>  <Energy>
3.31433

$$$$

 OpenBabel04232616053D

 33 36  0  0  0  0  0  0  0  0999 V2000
   -1.9184    0.1504   -0.8985 Cl  0  0  0  0  0  0  0  0  0  0  0  0
   -0.2398    0.0379   -0.4805 C   0  0  0  0  0  0  0  0  0  0  0  0
    0.4735    1.2446   -0.4588 C   0  0  0  0  0  0  0  0  0  0  0  0
    1.8064    1.2676   -0.0577 C   0  0  0  0  0  0  0  0  0  0  0  0
    2.4392    0.0813    0.2931 C   0  0  0  0  0  0  0  0  0  0  0  0
    1.7418   -1.1292    0.2344 C   0  0  0  0  0  0  0  0  0  0  0  0
    0.3783   -1.1829   -0.1267 C   0  0  0  0  0  0  0  0  0  0  0  0
   -0.3338   -2.4870   -0.0977 C   0  0  0  0  0  0  0  0  0  0  0  0
   -0.9827   -2.9454   -1.2634 C   0  0  0  0  0  0  0  0  0  0  0  0
   -1.6385   -4.1803   -1.3107 C   0  0  0  0  0  0  0  0  0  0  0  0
   -1.6361   -5.0121   -0.1991 C   0  0  0  0  0  0  0  0  0  0  0  0
   -0.9869   -4.6058    0.9613 C   0  0  0  0  0  0  0  0  0  0  0  0
   -0.3524   -3.3491    1.0285 C   0  0  0  0  0  0  0  0  0  0  0  0
    0.3355   -3.0500    2.3203 C   0  0  0  0  0  0  0  0  0  0  0  0
    0.0342   -1.7237    2.9569 C   0  0  0  0  0  0  0  0  0  0  0  0
    0.7097   -1.4583    4.0840 C   0  0  0  0  0  0  0  0  0  0  0  0
    1.5722   -2.4086    4.6146 N   0  0  0  0  0  0  0  0  0  0  0  0
    2.3202   -2.3458    5.7426 N   0  0  0  0  0  0  0  0  0  0  0  0
    2.8906   -3.5520    5.7565 C   0  0  0  0  0  0  0  0  0  0  0  0
    2.5812   -4.3716    4.7160 N   0  0  0  0  0  0  0  0  0  0  0  0
    1.7552   -3.6476    3.9944 C   0  0  0  0  0  0  0  0  0  0  0  0
    1.1309   -3.9550    2.8194 N   0  0  0  0  0  0  0  0  0  0  0  0
   -0.0136    2.1757   -0.7399 H   0  0  0  0  0  0  0  0  0  0  0  0
    2.3482    2.2095   -0.0182 H   0  0  0  0  0  0  0  0  0  0  0  0
    3.4781    0.0923    0.6153 H   0  0  0  0  0  0  0  0  0  0  0  0
    2.2756   -2.0420    0.5002 H   0  0  0  0  0  0  0  0  0  0  0  0
   -0.9769   -2.3391   -2.1678 H   0  0  0  0  0  0  0  0  0  0  0  0
   -2.1387   -4.4937   -2.2246 H   0  0  0  0  0  0  0  0  0  0  0  0
   -2.1251   -5.9820   -0.2392 H   0  0  0  0  0  0  0  0  0  0  0  0
   -0.9645   -5.2757    1.8200 H   0  0  0  0  0  0  0  0  0  0  0  0
   -0.6698   -1.0330    2.5122 H   0  0  0  0  0  0  0  0  0  0  0  0
    0.6213   -0.5334    4.6359 H   0  0  0  0  0  0  0  0  0  0  0  0
    3.5587   -3.8442    6.5563 H   0  0  0  0  0  0  0  0  0  0  0  0
  1  2  1  0  0  0  0
  2  3  1  0  0  0  0
  2  7  2  0  0  0  0
  3  4  2  0  0  0  0
  3 23  1  0  0  0  0
  4  5  1  0  0  0  0
  4 24  1  0  0  0  0
  5  6  2  0  0  0  0
  5 25  1  0  0  0  0
  6  7  1  0  0  0  0
  6 26  1  0  0  0  0
  7  8  1  0  0  0  0
  8  9  1  0  0  0  0
  8 13  2  0  0  0  0
  9 10  2  0  0  0  0
  9 27  1  0  0  0  0
 10 11  1  0  0  0  0
 10 28  1  0  0  0  0
 11 12  2  0  0  0  0
 11 29  1  0  0  0  0
 12 13  1  0  0  0  0
 12 30  1  0  0  0  0
 13 14  1  0  0  0  0
 14 15  1  0  0  0  0
 14 22  2  0  0  0  0
 15 16  2  0  0  0  0
 15 31  1  0  0  0  0
 16 17  1  0  0  0  0
 16 32  1  0  0  0  0
 17 18  1  0  0  0  0
 17 21  1  0  0  0  0
 18 19  2  0  0  0  0
 19 20  1  0  0  0  0
 19 33  1  0  0  0  0
 20 21  2  0  0  0  0
 21 22  1  0  0  0  0
M  END
>  <Energy>
103.254

$$$$

 OpenBabel04232616053D

 41 44  0  0  0  0  0  0  0  0999 V2000
    7.3068   -1.6780   -3.5785 N   0  0  0  0  0  0  0  0  0  0  0  0
    6.9320   -0.7091   -3.0464 C   0  0  0  0  0  0  0  0  0  0  0  0
    6.4846    0.4795   -2.3927 C   0  0  0  0  0  0  0  0  0  0  0  0
    6.9295    0.9256   -1.1787 C   0  0  0  0  0  0  0  0  0  0  0  0
    6.2505    2.0935   -0.8655 N   0  0  0  0  0  0  0  0  0  0  0  0
    6.5396    2.7878    0.3920 C   0  0  0  0  0  0  0  0  0  0  0  0
    5.9430    4.1560    0.6398 C   0  0  0  0  0  0  0  0  0  0  0  0
    4.9775    4.2674    1.4022 O   0  0  0  0  0  0  0  0  0  0  0  0
    6.5381    5.2705    0.0740 N   0  0  0  0  0  0  0  0  0  0  0  0
    6.1146    6.6161    0.5181 C   0  0  0  0  0  0  0  0  0  0  0  0
    6.5404    7.7382   -0.4551 C   0  0  0  0  0  0  0  0  0  0  0  0
    8.0471    7.6546   -0.5625 C   0  0  0  0  0  0  0  0  0  0  0  0
    8.8797    8.7578   -0.3888 C   0  0  0  0  0  0  0  0  0  0  0  0
   10.2351    8.5487   -0.1364 C   0  0  0  0  0  0  0  0  0  0  0  0
   10.7504    7.2505   -0.0723 C   0  0  0  0  0  0  0  0  0  0  0  0
    9.9375    6.1535   -0.3554 C   0  0  0  0  0  0  0  0  0  0  0  0
    8.5898    6.3561   -0.6408 C   0  0  0  0  0  0  0  0  0  0  0  0
    7.6286    5.2271   -0.9014 C   0  0  0  0  0  0  0  0  0  0  0  0
    5.3333    2.3713   -1.8620 C   0  0  0  0  0  0  0  0  0  0  0  0
    4.3677    3.3832   -2.0087 C   0  0  0  0  0  0  0  0  0  0  0  0
    3.5806    3.4024   -3.1672 C   0  0  0  0  0  0  0  0  0  0  0  0
    3.7376    2.4440   -4.1593 C   0  0  0  0  0  0  0  0  0  0  0  0
    4.6818    1.4267   -4.0106 C   0  0  0  0  0  0  0  0  0  0  0  0
    5.4851    1.3793   -2.8470 C   0  0  0  0  0  0  0  0  0  0  0  0
    7.6617    0.5181   -0.5003 H   0  0  0  0  0  0  0  0  0  0  0  0
    7.6302    2.8393    0.4940 H   0  0  0  0  0  0  0  0  0  0  0  0
    6.1918    2.1175    1.1882 H   0  0  0  0  0  0  0  0  0  0  0  0
    6.6084    6.7772    1.4899 H   0  0  0  0  0  0  0  0  0  0  0  0
    5.0365    6.6376    0.7056 H   0  0  0  0  0  0  0  0  0  0  0  0
    6.0789    7.5982   -1.4392 H   0  0  0  0  0  0  0  0  0  0  0  0
    6.2309    8.7126   -0.0619 H   0  0  0  0  0  0  0  0  0  0  0  0
    8.4761    9.7667   -0.3731 H   0  0  0  0  0  0  0  0  0  0  0  0
   10.8841    9.3968    0.0659 H   0  0  0  0  0  0  0  0  0  0  0  0
   11.7872    7.0941    0.2139 H   0  0  0  0  0  0  0  0  0  0  0  0
   10.3464    5.1487   -0.2962 H   0  0  0  0  0  0  0  0  0  0  0  0
    8.1400    4.2642   -0.9301 H   0  0  0  0  0  0  0  0  0  0  0  0
    7.1711    5.3661   -1.8897 H   0  0  0  0  0  0  0  0  0  0  0  0
    4.1984    4.1394   -1.2506 H   0  0  0  0  0  0  0  0  0  0  0  0
    2.8268    4.1764   -3.2870 H   0  0  0  0  0  0  0  0  0  0  0  0
    3.1157    2.4734   -5.0507 H   0  0  0  0  0  0  0  0  0  0  0  0
    4.7850    0.6701   -4.7834 H   0  0  0  0  0  0  0  0  0  0  0  0
  1  2  3  0  0  0  0
  2  3  1  0  0  0  0
  3  4  2  0  0  0  0
  3 24  1  0  0  0  0
  4  5  1  0  0  0  0
  4 25  1  0  0  0  0
  5  6  1  0  0  0  0
  5 19  1  0  0  0  0
  6  7  1  0  0  0  0
  6 26  1  0  0  0  0
  6 27  1  0  0  0  0
  7  8  2  0  0  0  0
  7  9  1  0  0  0  0
  9 10  1  0  0  0  0
  9 18  1  0  0  0  0
 10 11  1  0  0  0  0
 10 28  1  0  0  0  0
 10 29  1  0  0  0  0
 11 12  1  0  0  0  0
 11 30  1  0  0  0  0
 11 31  1  0  0  0  0
 12 13  1  0  0  0  0
 12 17  2  0  0  0  0
 13 14  2  0  0  0  0
 13 32  1  0  0  0  0
 14 15  1  0  0  0  0
 14 33  1  0  0  0  0
 15 16  2  0  0  0  0
 15 34  1  0  0  0  0
 16 17  1  0  0  0  0
 16 35  1  0  0  0  0
 17 18  1  0  0  0  0
 18 36  1  0  0  0  0
 18 37  1  0  0  0  0
 19 20  1  0  0  0  0
 19 24  2  0  0  0  0
 20 21  2  0  0  0  0
 20 38  1  0  0  0  0
 21 22  1  0  0  0  0
 21 39  1  0  0  0  0
 22 23  2  0  0  0  0
 22 40  1  0  0  0  0
 23 24  1  0  0  0  0
 23 41  1  0  0  0  0
M  END
>  <Energy>
80.0722

$$$$

 OpenBabel04232616053D

 47 50  0  0  1  0  0  0  0  0999 V2000
   -2.1095   -0.1607    0.6876 C   0  0  0  0  0  0  0  0  0  0  0  0
   -0.6884   -0.1480    0.4273 N   0  0  0  0  0  0  0  0  0  0  0  0
   -0.0215    1.0201    0.5359 N   0  0  0  0  0  0  0  0  0  0  0  0
    1.2404    0.7444    0.1746 C   0  0  0  0  0  0  0  0  0  0  0  0
    2.2567    1.7909   -0.0117 C   0  0  0  0  0  0  0  0  0  0  0  0
    1.9109    3.1481    0.0836 C   0  0  0  0  0  0  0  0  0  0  0  0
    2.8493    4.1487   -0.1901 C   0  0  0  0  0  0  0  0  0  0  0  0
    4.1484    3.8072   -0.5589 C   0  0  0  0  0  0  0  0  0  0  0  0
    4.5128    2.4668   -0.6446 C   0  0  0  0  0  0  0  0  0  0  0  0
    3.5748    1.4665   -0.3700 C   0  0  0  0  0  0  0  0  0  0  0  0
    1.3717   -0.6447   -0.0893 C   0  0  0  0  0  0  0  0  0  0  0  0
    0.0953   -1.1710   -0.0436 C   0  0  0  0  0  0  0  0  0  0  0  0
   -0.3678   -2.4761   -0.5804 C   0  0  3  0  0  0  0  0  0  0  0  0
   -0.9081   -2.3373   -1.9936 C   0  0  0  0  0  0  0  0  0  0  0  0
   -2.0550   -3.1799   -2.0714 O   0  0  0  0  0  0  0  0  0  0  0  0
   -2.1970   -3.7895   -0.7728 C   0  0  0  0  0  0  0  0  0  0  0  0
   -1.6413   -5.2185   -0.9469 C   0  0  0  0  0  0  0  0  0  0  0  0
   -1.5970   -6.1213    0.2761 C   0  0  0  0  0  0  0  0  0  0  0  0
   -2.9404   -6.3286    0.9656 C   0  0  0  0  0  0  0  0  0  0  0  0
   -3.3564   -5.1126    1.7811 C   0  0  0  0  0  0  0  0  0  0  0  0
   -4.1015   -4.0329    1.0054 C   0  0  0  0  0  0  0  0  0  0  0  0
   -3.6905   -3.7746   -0.4414 C   0  0  0  0  0  0  0  0  0  0  0  0
   -1.4535   -3.0115    0.1747 O   0  0  0  0  0  0  0  0  0  0  0  0
   -2.4236    0.8259    1.0402 H   0  0  0  0  0  0  0  0  0  0  0  0
   -2.3162   -0.9031    1.4622 H   0  0  0  0  0  0  0  0  0  0  0  0
   -2.6324   -0.4014   -0.2401 H   0  0  0  0  0  0  0  0  0  0  0  0
    0.8952    3.4352    0.3495 H   0  0  0  0  0  0  0  0  0  0  0  0
    2.5586    5.1943   -0.1270 H   0  0  0  0  0  0  0  0  0  0  0  0
    4.8742    4.5846   -0.7829 H   0  0  0  0  0  0  0  0  0  0  0  0
    5.5245    2.1957   -0.9360 H   0  0  0  0  0  0  0  0  0  0  0  0
    3.8932    0.4322   -0.4593 H   0  0  0  0  0  0  0  0  0  0  0  0
    2.2530   -1.1684   -0.4284 H   0  0  0  0  0  0  0  0  0  0  0  0
    0.4528   -3.2027   -0.5453 H   0  0  0  0  0  0  0  0  0  0  0  0
   -0.1681   -2.6441   -2.7399 H   0  0  0  0  0  0  0  0  0  0  0  0
   -1.2257   -1.3189   -2.2408 H   0  0  0  0  0  0  0  0  0  0  0  0
   -0.6166   -5.1612   -1.3387 H   0  0  0  0  0  0  0  0  0  0  0  0
   -2.2097   -5.7227   -1.7411 H   0  0  0  0  0  0  0  0  0  0  0  0
   -0.8569   -5.7437    0.9916 H   0  0  0  0  0  0  0  0  0  0  0  0
   -1.2283   -7.1022   -0.0503 H   0  0  0  0  0  0  0  0  0  0  0  0
   -2.8288   -7.1756    1.6543 H   0  0  0  0  0  0  0  0  0  0  0  0
   -3.7170   -6.6148    0.2464 H   0  0  0  0  0  0  0  0  0  0  0  0
   -2.4781   -4.6725    2.2693 H   0  0  0  0  0  0  0  0  0  0  0  0
   -4.0097   -5.4461    2.5980 H   0  0  0  0  0  0  0  0  0  0  0  0
   -4.0274   -3.0967    1.5734 H   0  0  0  0  0  0  0  0  0  0  0  0
   -5.1701   -4.2857    1.0015 H   0  0  0  0  0  0  0  0  0  0  0  0
   -4.1011   -2.7927   -0.7167 H   0  0  0  0  0  0  0  0  0  0  0  0
   -4.2119   -4.4804   -1.1017 H   0  0  0  0  0  0  0  0  0  0  0  0
  1  2  1  0  0  0  0
  1 24  1  0  0  0  0
  1 25  1  0  0  0  0
  1 26  1  0  0  0  0
  2  3  1  0  0  0  0
  2 12  1  0  0  0  0
  3  4  2  0  0  0  0
  4  5  1  0  0  0  0
  4 11  1  0  0  0  0
  5  6  1  0  0  0  0
  5 10  2  0  0  0  0
  6  7  2  0  0  0  0
  6 27  1  0  0  0  0
  7  8  1  0  0  0  0
  7 28  1  0  0  0  0
  8  9  2  0  0  0  0
  8 29  1  0  0  0  0
  9 10  1  0  0  0  0
  9 30  1  0  0  0  0
 10 31  1  0  0  0  0
 11 12  2  0  0  0  0
 11 32  1  0  0  0  0
 12 13  1  0  0  0  0
 13 14  1  0  0  0  0
 13 23  1  0  0  0  0
 13 33  1  0  0  0  0
 14 15  1  0  0  0  0
 14 34  1  0  0  0  0
 14 35  1  0  0  0  0
 15 16  1  0  0  0  0
 16 17  1  0  0  0  0
 16 22  1  0  0  0  0
 16 23  1  0  0  0  0
 17 18  1  0  0  0  0
 17 36  1  0  0  0  0
 17 37  1  0  0  0  0
 18 19  1  0  0  0  0
 18 38  1  0  0  0  0
 18 39  1  0  0  0  0
 19 20  1  0  0  0  0
 19 40  1  0  0  0  0
 19 41  1  0  0  0  0
 20 21  1  0  0  0  0
 20 42  1  0  0  0  0
 20 43  1  0  0  0  0
 21 22  1  0  0  0  0
 21 44  1  0  0  0  0
 21 45  1  0  0  0  0
 22 46  1  0  0  0  0
 22 47  1  0  0  0  0
M  END
>  <Energy>
61.9291

$$$$

 OpenBabel04232616053D

 41 44  0  0  0  0  0  0  0  0999 V2000
    3.0744   -2.8134    0.4601 C   0  0  0  0  0  0  0  0  0  0  0  0
    2.7612   -1.4231   -0.0599 C   0  0  0  0  0  0  0  0  0  0  0  0
    3.1165   -0.3163    0.8415 N   0  0  0  0  0  0  0  0  0  0  0  0
    2.1826    0.6718    0.8742 N   0  0  0  0  0  0  0  0  0  0  0  0
    2.4829    1.8603    0.4758 C   0  0  0  0  0  0  0  0  0  0  0  0
    1.3441    2.8573    0.4272 C   0  0  0  0  0  0  0  0  0  0  0  0
    3.7785    2.3664   -0.0427 C   0  0  0  0  0  0  0  0  0  0  0  0
    5.0028    1.9050    0.2732 C   0  0  0  0  0  0  0  0  0  0  0  0
    6.0728    2.7139   -0.3433 C   0  0  0  0  0  0  0  0  0  0  0  0
    6.5158    3.8974    0.2630 C   0  0  0  0  0  0  0  0  0  0  0  0
    7.4759    4.6895   -0.3658 C   0  0  0  0  0  0  0  0  0  0  0  0
    7.9848    4.3137   -1.6105 C   0  0  0  0  0  0  0  0  0  0  0  0
    7.5415    3.1427   -2.2238 C   0  0  0  0  0  0  0  0  0  0  0  0
    6.5889    2.3420   -1.5924 C   0  0  0  0  0  0  0  0  0  0  0  0
    5.2765    0.7597    1.0582 N   0  0  0  0  0  0  0  0  0  0  0  0
    4.3774   -0.2712    1.3685 C   0  0  0  0  0  0  0  0  0  0  0  0
    4.9407   -1.2206    2.0804 N   0  0  0  0  0  0  0  0  0  0  0  0
    6.2368   -0.8526    2.2493 C   0  0  0  0  0  0  0  0  0  0  0  0
    7.2548   -1.5373    2.9353 C   0  0  0  0  0  0  0  0  0  0  0  0
    8.5443   -1.0019    2.9558 C   0  0  0  0  0  0  0  0  0  0  0  0
    8.8132    0.1963    2.3030 C   0  0  0  0  0  0  0  0  0  0  0  0
    7.8059    0.8946    1.6232 C   0  0  0  0  0  0  0  0  0  0  0  0
    6.5069    0.3513    1.6051 C   0  0  0  0  0  0  0  0  0  0  0  0
    2.5910   -3.5613   -0.1772 H   0  0  0  0  0  0  0  0  0  0  0  0
    2.7179   -2.9526    1.4847 H   0  0  0  0  0  0  0  0  0  0  0  0
    4.1492   -3.0165    0.4296 H   0  0  0  0  0  0  0  0  0  0  0  0
    1.6833   -1.3827   -0.2659 H   0  0  0  0  0  0  0  0  0  0  0  0
    3.2628   -1.2651   -1.0226 H   0  0  0  0  0  0  0  0  0  0  0  0
    0.4833    2.4927    0.9943 H   0  0  0  0  0  0  0  0  0  0  0  0
    1.0417    2.9942   -0.6166 H   0  0  0  0  0  0  0  0  0  0  0  0
    1.6614    3.8191    0.8389 H   0  0  0  0  0  0  0  0  0  0  0  0
    3.6700    3.2446   -0.6758 H   0  0  0  0  0  0  0  0  0  0  0  0
    6.1221    4.2024    1.2306 H   0  0  0  0  0  0  0  0  0  0  0  0
    7.8256    5.6021    0.1097 H   0  0  0  0  0  0  0  0  0  0  0  0
    8.7260    4.9374   -2.1046 H   0  0  0  0  0  0  0  0  0  0  0  0
    7.9314    2.8568   -3.1977 H   0  0  0  0  0  0  0  0  0  0  0  0
    6.2434    1.4360   -2.0863 H   0  0  0  0  0  0  0  0  0  0  0  0
    7.0314   -2.4740    3.4340 H   0  0  0  0  0  0  0  0  0  0  0  0
    9.3378   -1.5274    3.4806 H   0  0  0  0  0  0  0  0  0  0  0  0
    9.8234    0.6009    2.3203 H   0  0  0  0  0  0  0  0  0  0  0  0
    8.0580    1.8248    1.1302 H   0  0  0  0  0  0  0  0  0  0  0  0
  1  2  1  0  0  0  0
  1 24  1  0  0  0  0
  1 25  1  0  0  0  0
  1 26  1  0  0  0  0
  2  3  1  0  0  0  0
  2 27  1  0  0  0  0
  2 28  1  0  0  0  0
  3  4  1  0  0  0  0
  3 16  1  0  0  0  0
  4  5  2  0  0  0  0
  5  6  1  0  0  0  0
  5  7  1  0  0  0  0
  6 29  1  0  0  0  0
  6 30  1  0  0  0  0
  6 31  1  0  0  0  0
  7  8  2  0  0  0  0
  7 32  1  0  0  0  0
  8  9  1  0  0  0  0
  8 15  1  0  0  0  0
  9 10  1  0  0  0  0
  9 14  2  0  0  0  0
 10 11  2  0  0  0  0
 10 33  1  0  0  0  0
 11 12  1  0  0  0  0
 11 34  1  0  0  0  0
 12 13  2  0  0  0  0
 12 35  1  0  0  0  0
 13 14  1  0  0  0  0
 13 36  1  0  0  0  0
 14 37  1  0  0  0  0
 15 16  1  0  0  0  0
 15 23  1  0  0  0  0
 16 17  2  0  0  0  0
 17 18  1  0  0  0  0
 18 19  1  0  0  0  0
 18 23  2  0  0  0  0
 19 20  2  0  0  0  0
 19 38  1  0  0  0  0
 20 21  1  0  0  0  0
 20 39  1  0  0  0  0
 21 22  2  0  0  0  0
 21 40  1  0  0  0  0
 22 23  1  0  0  0  0
 22 41  1  0  0  0  0
M  END
>  <Energy>
106.072

$$$$

 OpenBabel04232616053D

 36 39  0  0  0  0  0  0  0  0999 V2000
    1.0358    0.3043   -0.1710 O   0  0  0  0  0  0  0  0  0  0  0  0
    2.2493    0.2162   -0.0496 C   0  0  0  0  0  0  0  0  0  0  0  0
    3.0904    1.4141    0.0665 C   0  0  0  0  0  0  0  0  0  0  0  0
    4.4099    1.3025    0.2081 C   0  0  0  0  0  0  0  0  0  0  0  0
    5.0812   -0.0165    0.2490 C   0  0  0  0  0  0  0  0  0  0  0  0
    6.3725   -0.0275    0.3194 N   0  0  0  0  0  0  0  0  0  0  0  0
    6.9930   -1.2526    0.2878 C   0  0  0  0  0  0  0  0  0  0  0  0
    8.4905   -1.2208    0.2556 C   0  0  0  0  0  0  0  0  0  0  0  0
    9.1828   -0.0011    0.2413 C   0  0  0  0  0  0  0  0  0  0  0  0
   10.5778    0.0186    0.1675 C   0  0  0  0  0  0  0  0  0  0  0  0
   11.2903   -1.1779    0.1094 C   0  0  0  0  0  0  0  0  0  0  0  0
   10.6116   -2.3956    0.1325 C   0  0  0  0  0  0  0  0  0  0  0  0
    9.2165   -2.4191    0.2066 C   0  0  0  0  0  0  0  0  0  0  0  0
    6.3710   -2.3920    0.2530 N   0  0  0  0  0  0  0  0  0  0  0  0
    4.9953   -2.4217    0.2471 N   0  0  0  0  0  0  0  0  0  0  0  0
    4.4581   -3.7465    0.1326 C   0  0  0  0  0  0  0  0  0  0  0  0
    3.2607   -4.1363    0.7557 C   0  0  0  0  0  0  0  0  0  0  0  0
    2.7129   -5.4078    0.5492 C   0  0  0  0  0  0  0  0  0  0  0  0
    3.3769   -6.3336   -0.2500 C   0  0  0  0  0  0  0  0  0  0  0  0
    4.5998   -5.9982   -0.8213 C   0  0  0  0  0  0  0  0  0  0  0  0
    5.1347   -4.7214   -0.6264 C   0  0  0  0  0  0  0  0  0  0  0  0
    4.2399   -1.2508    0.1759 C   0  0  0  0  0  0  0  0  0  0  0  0
    2.9187   -1.0935   -0.0049 C   0  0  0  0  0  0  0  0  0  0  0  0
    2.5881    2.3717    0.0197 H   0  0  0  0  0  0  0  0  0  0  0  0
    5.0487    2.1773    0.2731 H   0  0  0  0  0  0  0  0  0  0  0  0
    8.6439    0.9422    0.2786 H   0  0  0  0  0  0  0  0  0  0  0  0
   11.1064    0.9684    0.1494 H   0  0  0  0  0  0  0  0  0  0  0  0
   12.3755   -1.1613    0.0443 H   0  0  0  0  0  0  0  0  0  0  0  0
   11.1679   -3.3289    0.0878 H   0  0  0  0  0  0  0  0  0  0  0  0
    8.7023   -3.3774    0.2190 H   0  0  0  0  0  0  0  0  0  0  0  0
    2.7406   -3.4602    1.4285 H   0  0  0  0  0  0  0  0  0  0  0  0
    1.7679   -5.6736    1.0165 H   0  0  0  0  0  0  0  0  0  0  0  0
    2.9487   -7.3183   -0.4172 H   0  0  0  0  0  0  0  0  0  0  0  0
    5.1366   -6.7220   -1.4286 H   0  0  0  0  0  0  0  0  0  0  0  0
    6.0828   -4.4756   -1.0994 H   0  0  0  0  0  0  0  0  0  0  0  0
    2.2394   -1.9245   -0.1345 H   0  0  0  0  0  0  0  0  0  0  0  0
  1  2  2  0  0  0  0
  2  3  1  0  0  0  0
  2 23  1  0  0  0  0
  3  4  2  0  0  0  0
  3 24  1  0  0  0  0
  4  5  1  0  0  0  0
  4 25  1  0  0  0  0
  5  6  2  0  0  0  0
  5 22  1  0  0  0  0
  6  7  1  0  0  0  0
  7  8  1  0  0  0  0
  7 14  2  0  0  0  0
  8  9  1  0  0  0  0
  8 13  2  0  0  0  0
  9 10  2  0  0  0  0
  9 26  1  0  0  0  0
 10 11  1  0  0  0  0
 10 27  1  0  0  0  0
 11 12  2  0  0  0  0
 11 28  1  0  0  0  0
 12 13  1  0  0  0  0
 12 29  1  0  0  0  0
 13 30  1  0  0  0  0
 14 15  1  0  0  0  0
 15 16  1  0  0  0  0
 15 22  1  0  0  0  0
 16 17  1  0  0  0  0
 16 21  2  0  0  0  0
 17 18  2  0  0  0  0
 17 31  1  0  0  0  0
 18 19  1  0  0  0  0
 18 32  1  0  0  0  0
 19 20  2  0  0  0  0
 19 33  1  0  0  0  0
 20 21  1  0  0  0  0
 20 34  1  0  0  0  0
 21 35  1  0  0  0  0
 22 23  2  0  0  0  0
 23 36  1  0  0  0  0
M  END
>  <Energy>
71.6059

$$$$

 OpenBabel04232616053D

 40 43  0  0  0  0  0  0  0  0999 V2000
    1.1738   -0.5067   -0.0898 C   0  0  0  0  0  0  0  0  0  0  0  0
    2.6471   -0.2299   -0.1520 C   0  0  0  0  0  0  0  0  0  0  0  0
    3.1341    1.0580    0.0643 C   0  0  0  0  0  0  0  0  0  0  0  0
    4.5040    1.2963    0.0229 C   0  0  0  0  0  0  0  0  0  0  0  0
    5.3985    0.2480   -0.2329 C   0  0  0  0  0  0  0  0  0  0  0  0
    6.7724    0.5014   -0.2715 C   0  0  0  0  0  0  0  0  0  0  0  0
    7.6213   -0.5750   -0.5435 C   0  0  0  0  0  0  0  0  0  0  0  0
    9.0115   -0.7495   -0.6642 C   0  0  0  0  0  0  0  0  0  0  0  0
    9.2374   -2.0821   -0.9728 C   0  0  0  0  0  0  0  0  0  0  0  0
   10.5451   -2.7130   -1.1552 C   0  0  0  0  0  0  0  0  0  0  0  0
   11.5077   -2.1087   -0.6741 O   0  0  0  0  0  0  0  0  0  0  0  0
   10.7105   -3.8890   -1.9372 N   0  0  0  0  0  0  0  0  0  0  0  0
    9.5811   -4.5768   -2.5640 C   0  0  0  0  0  0  0  0  0  0  0  0
   12.0417   -4.3126   -2.3521 C   0  0  0  0  0  0  0  0  0  0  0  0
   13.1907   -4.0335   -1.5943 C   0  0  0  0  0  0  0  0  0  0  0  0
   14.4743   -4.3708   -2.0429 C   0  0  0  0  0  0  0  0  0  0  0  0
   14.6407   -5.0263   -3.2550 C   0  0  0  0  0  0  0  0  0  0  0  0
   13.5209   -5.3562   -4.0086 C   0  0  0  0  0  0  0  0  0  0  0  0
   12.2389   -5.0062   -3.5615 C   0  0  0  0  0  0  0  0  0  0  0  0
    8.0357   -2.7367   -1.0204 O   0  0  0  0  0  0  0  0  0  0  0  0
    7.0496   -1.8217   -0.7540 C   0  0  0  0  0  0  0  0  0  0  0  0
    5.7399   -2.1211   -0.7172 N   0  0  0  0  0  0  0  0  0  0  0  0
    4.9360   -1.0717   -0.4541 C   0  0  0  0  0  0  0  0  0  0  0  0
    3.5587   -1.2768   -0.3956 C   0  0  0  0  0  0  0  0  0  0  0  0
    0.5943    0.4223   -0.1077 H   0  0  0  0  0  0  0  0  0  0  0  0
    0.9286   -1.0450    0.8311 H   0  0  0  0  0  0  0  0  0  0  0  0
    0.8611   -1.1034   -0.9529 H   0  0  0  0  0  0  0  0  0  0  0  0
    2.4543    1.8836    0.2645 H   0  0  0  0  0  0  0  0  0  0  0  0
    4.8666    2.3082    0.1902 H   0  0  0  0  0  0  0  0  0  0  0  0
    7.1770    1.4947   -0.1018 H   0  0  0  0  0  0  0  0  0  0  0  0
    9.7862   -0.0020   -0.5481 H   0  0  0  0  0  0  0  0  0  0  0  0
    8.7104   -4.6035   -1.9126 H   0  0  0  0  0  0  0  0  0  0  0  0
    9.8226   -5.6292   -2.7478 H   0  0  0  0  0  0  0  0  0  0  0  0
    9.3289   -4.0727   -3.5017 H   0  0  0  0  0  0  0  0  0  0  0  0
   13.1299   -3.5588   -0.6195 H   0  0  0  0  0  0  0  0  0  0  0  0
   15.3394   -4.1125   -1.4372 H   0  0  0  0  0  0  0  0  0  0  0  0
   15.6368   -5.2786   -3.6079 H   0  0  0  0  0  0  0  0  0  0  0  0
   13.6416   -5.8724   -4.9576 H   0  0  0  0  0  0  0  0  0  0  0  0
   11.4106   -5.2534   -4.2175 H   0  0  0  0  0  0  0  0  0  0  0  0
    3.1816   -2.2850   -0.5488 H   0  0  0  0  0  0  0  0  0  0  0  0
  1  2  1  0  0  0  0
  1 25  1  0  0  0  0
  1 26  1  0  0  0  0
  1 27  1  0  0  0  0
  2  3  1  0  0  0  0
  2 24  2  0  0  0  0
  3  4  2  0  0  0  0
  3 28  1  0  0  0  0
  4  5  1  0  0  0  0
  4 29  1  0  0  0  0
  5  6  1  0  0  0  0
  5 23  2  0  0  0  0
  6  7  2  0  0  0  0
  6 30  1  0  0  0  0
  7  8  1  0  0  0  0
  7 21  1  0  0  0  0
  8  9  2  0  0  0  0
  8 31  1  0  0  0  0
  9 10  1  0  0  0  0
  9 20  1  0  0  0  0
 10 11  2  0  0  0  0
 10 12  1  0  0  0  0
 12 13  1  0  0  0  0
 12 14  1  0  0  0  0
 13 32  1  0  0  0  0
 13 33  1  0  0  0  0
 13 34  1  0  0  0  0
 14 15  1  0  0  0  0
 14 19  2  0  0  0  0
 15 16  2  0  0  0  0
 15 35  1  0  0  0  0
 16 17  1  0  0  0  0
 16 36  1  0  0  0  0
 17 18  2  0  0  0  0
 17 37  1  0  0  0  0
 18 19  1  0  0  0  0
 18 38  1  0  0  0  0
 19 39  1  0  0  0  0
 20 21  1  0  0  0  0
 21 22  2  0  0  0  0
 22 23  1  0  0  0  0
 23 24  1  0  0  0  0
 24 40  1  0  0  0  0
M  END
>  <Energy>
75.0591

$$$$

 OpenBabel04232616053D

 28 30  0  0  0  0  0  0  0  0999 V2000
    0.9935   -0.0544   -0.1122 O   0  5  0  0  0  0  0  0  0  0  0  0
    2.2339    0.1068   -0.0486 N   0  3  0  0  0  0  0  0  0  0  0  0
    3.0215   -1.0859   -0.0219 O   0  0  0  0  0  0  0  0  0  0  0  0
    4.3535   -0.7140    0.0389 N   0  0  0  0  0  0  0  0  0  0  0  0
    4.3875    0.6272    0.0613 C   0  0  0  0  0  0  0  0  0  0  0  0
    5.6749    1.3242    0.1257 C   0  0  0  0  0  0  0  0  0  0  0  0
    6.7796    0.8213   -0.5806 C   0  0  0  0  0  0  0  0  0  0  0  0
    7.9949    1.5131   -0.5929 C   0  0  0  0  0  0  0  0  0  0  0  0
    8.1144    2.7137    0.1018 C   0  0  0  0  0  0  0  0  0  0  0  0
    9.5936    3.5888    0.0523 Cl  0  0  0  0  0  0  0  0  0  0  0  0
    7.0394    3.2115    0.8336 C   0  0  0  0  0  0  0  0  0  0  0  0
    5.8295    2.5098    0.8599 C   0  0  0  0  0  0  0  0  0  0  0  0
    3.0626    1.1647   -0.0041 C   0  0  0  0  0  0  0  0  0  0  0  0
    2.5649    2.5319   -0.0426 C   0  0  0  0  0  0  0  0  0  0  0  0
    3.2213    3.5041   -0.8126 C   0  0  0  0  0  0  0  0  0  0  0  0
    2.8150    4.8415   -0.7708 C   0  0  0  0  0  0  0  0  0  0  0  0
    1.7267    5.2104    0.0143 C   0  0  0  0  0  0  0  0  0  0  0  0
    1.2428    6.8584    0.0858 Cl  0  0  0  0  0  0  0  0  0  0  0  0
    1.0350    4.2509    0.7485 C   0  0  0  0  0  0  0  0  0  0  0  0
    1.4550    2.9169    0.7242 C   0  0  0  0  0  0  0  0  0  0  0  0
    6.7005   -0.1106   -1.1391 H   0  0  0  0  0  0  0  0  0  0  0  0
    8.8368    1.1129   -1.1522 H   0  0  0  0  0  0  0  0  0  0  0  0
    7.1326    4.1457    1.3821 H   0  0  0  0  0  0  0  0  0  0  0  0
    5.0120    2.9144    1.4529 H   0  0  0  0  0  0  0  0  0  0  0  0
    4.0707    3.2446   -1.4422 H   0  0  0  0  0  0  0  0  0  0  0  0
    3.3570    5.5877   -1.3465 H   0  0  0  0  0  0  0  0  0  0  0  0
    0.1749    4.5334    1.3508 H   0  0  0  0  0  0  0  0  0  0  0  0
    0.9021    2.1936    1.3226 H   0  0  0  0  0  0  0  0  0  0  0  0
  1  2  1  0  0  0  0
  2  3  1  0  0  0  0
  2 13  2  0  0  0  0
  3  4  1  0  0  0  0
  4  5  2  0  0  0  0
  5  6  1  0  0  0  0
  5 13  1  0  0  0  0
  6  7  1  0  0  0  0
  6 12  2  0  0  0  0
  7  8  2  0  0  0  0
  7 21  1  0  0  0  0
  8  9  1  0  0  0  0
  8 22  1  0  0  0  0
  9 10  1  0  0  0  0
  9 11  2  0  0  0  0
 11 12  1  0  0  0  0
 11 23  1  0  0  0  0
 12 24  1  0  0  0  0
 13 14  1  0  0  0  0
 14 15  1  0  0  0  0
 14 20  2  0  0  0  0
 15 16  2  0  0  0  0
 15 25  1  0  0  0  0
 16 17  1  0  0  0  0
 16 26  1  0  0  0  0
 17 18  1  0  0  0  0
 17 19  2  0  0  0  0
 19 20  1  0  0  0  0
 19 27  1  0  0  0  0
 20 28  1  0  0  0  0
M  CHG  2   1  -1   2   1
M  END
>  <Energy>
59.9037

$$$$

 OpenBabel04232616053D

 44 47  0  0  0  0  0  0  0  0999 V2000
    2.8966   -0.9190   -0.0433 C   0  0  0  0  0  0  0  0  0  0  0  0
    1.5492   -0.2456   -0.0492 C   0  0  0  0  0  0  0  0  0  0  0  0
    0.3917   -1.0496   -0.0193 C   0  0  0  0  0  0  0  0  0  0  0  0
   -0.8747   -0.4475   -0.0362 C   0  0  0  0  0  0  0  0  0  0  0  0
   -2.1245   -1.0213   -0.0086 N   0  0  0  0  0  0  0  0  0  0  0  0
   -2.9832   -0.0206   -0.0361 C   0  0  0  0  0  0  0  0  0  0  0  0
   -4.4003   -0.0079   -0.0010 C   0  0  0  0  0  0  0  0  0  0  0  0
   -5.0944   -1.1575    0.0790 C   0  0  0  0  0  0  0  0  0  0  0  0
   -6.5099   -1.1220    0.1574 C   0  0  0  0  0  0  0  0  0  0  0  0
   -7.3432   -0.0993    0.1455 N   0  0  0  0  0  0  0  0  0  0  0  0
   -8.6001   -0.6341    0.2956 C   0  0  0  0  0  0  0  0  0  0  0  0
   -9.8440    0.0085    0.3592 C   0  0  0  0  0  0  0  0  0  0  0  0
  -11.0202   -0.7514    0.5300 C   0  0  0  0  0  0  0  0  0  0  0  0
  -12.3355   -0.0197    0.5799 C   0  0  0  0  0  0  0  0  0  0  0  0
  -10.9387   -2.1568    0.6443 C   0  0  0  0  0  0  0  0  0  0  0  0
  -12.1581   -3.0206    0.8578 C   0  0  0  0  0  0  0  0  0  0  0  0
   -9.6856   -2.8090    0.5724 C   0  0  0  0  0  0  0  0  0  0  0  0
   -8.5474   -2.0156    0.3975 C   0  0  0  0  0  0  0  0  0  0  0  0
   -7.2067   -2.3046    0.2891 N   0  0  0  0  0  0  0  0  0  0  0  0
   -2.3145    1.1834   -0.0946 N   0  0  0  0  0  0  0  0  0  0  0  0
   -0.9619    0.9361   -0.0856 C   0  0  0  0  0  0  0  0  0  0  0  0
    0.1581    1.7724   -0.1112 C   0  0  0  0  0  0  0  0  0  0  0  0
    1.4315    1.1626   -0.0890 C   0  0  0  0  0  0  0  0  0  0  0  0
    2.6605    2.0364   -0.1019 C   0  0  0  0  0  0  0  0  0  0  0  0
    2.8003   -2.0094   -0.0076 H   0  0  0  0  0  0  0  0  0  0  0  0
    3.4756   -0.6109    0.8328 H   0  0  0  0  0  0  0  0  0  0  0  0
    3.4499   -0.6688   -0.9544 H   0  0  0  0  0  0  0  0  0  0  0  0
    0.4555   -2.1321    0.0183 H   0  0  0  0  0  0  0  0  0  0  0  0
   -4.9287    0.9422   -0.0203 H   0  0  0  0  0  0  0  0  0  0  0  0
   -4.5715   -2.1107    0.1004 H   0  0  0  0  0  0  0  0  0  0  0  0
   -9.8766    1.0897    0.2775 H   0  0  0  0  0  0  0  0  0  0  0  0
  -12.1994    1.0614    0.4672 H   0  0  0  0  0  0  0  0  0  0  0  0
  -12.8319   -0.1883    1.5408 H   0  0  0  0  0  0  0  0  0  0  0  0
  -12.9854   -0.3520   -0.2361 H   0  0  0  0  0  0  0  0  0  0  0  0
  -13.0907   -2.4505    0.8752 H   0  0  0  0  0  0  0  0  0  0  0  0
  -12.0801   -3.5450    1.8161 H   0  0  0  0  0  0  0  0  0  0  0  0
  -12.2435   -3.7569    0.0520 H   0  0  0  0  0  0  0  0  0  0  0  0
   -9.6124   -3.8887    0.6560 H   0  0  0  0  0  0  0  0  0  0  0  0
   -6.8000   -3.2275    0.3193 H   0  0  0  0  0  0  0  0  0  0  0  0
   -2.7443    2.0953   -0.1272 H   0  0  0  0  0  0  0  0  0  0  0  0
    0.0530    2.8531   -0.1442 H   0  0  0  0  0  0  0  0  0  0  0  0
    2.4021    3.0995   -0.1467 H   0  0  0  0  0  0  0  0  0  0  0  0
    3.2810    1.8119   -0.9758 H   0  0  0  0  0  0  0  0  0  0  0  0
    3.2474    1.8789    0.8095 H   0  0  0  0  0  0  0  0  0  0  0  0
  1  2  1  0  0  0  0
  1 25  1  0  0  0  0
  1 26  1  0  0  0  0
  1 27  1  0  0  0  0
  2  3  1  0  0  0  0
  2 23  2  0  0  0  0
  3  4  2  0  0  0  0
  3 28  1  0  0  0  0
  4  5  1  0  0  0  0
  4 21  1  0  0  0  0
  5  6  2  0  0  0  0
  6  7  1  0  0  0  0
  6 20  1  0  0  0  0
  7  8  2  0  0  0  0
  7 29  1  0  0  0  0
  8  9  1  0  0  0  0
  8 30  1  0  0  0  0
  9 10  2  0  0  0  0
  9 19  1  0  0  0  0
 10 11  1  0  0  0  0
 11 12  1  0  0  0  0
 11 18  2  0  0  0  0
 12 13  2  0  0  0  0
 12 31  1  0  0  0  0
 13 14  1  0  0  0  0
 13 15  1  0  0  0  0
 14 32  1  0  0  0  0
 14 33  1  0  0  0  0
 14 34  1  0  0  0  0
 15 16  1  0  0  0  0
 15 17  2  0  0  0  0
 16 35  1  0  0  0  0
 16 36  1  0  0  0  0
 16 37  1  0  0  0  0
 17 18  1  0  0  0  0
 17 38  1  0  0  0  0
 18 19  1  0  0  0  0
 19 39  1  0  0  0  0
 20 21  1  0  0  0  0
 20 40  1  0  0  0  0
 21 22  2  0  0  0  0
 22 23  1  0  0  0  0
 22 41  1  0  0  0  0
 23 24  1  0  0  0  0
 24 42  1  0  0  0  0
 24 43  1  0  0  0  0
 24 44  1  0  0  0  0
M  END
>  <Energy>
17.7914

$$$$

 OpenBabel04232616053D

 35 38  0  0  0  0  0  0  0  0999 V2000
    1.1340   -0.0238    0.2675 N   0  0  0  0  0  0  0  0  0  0  0  0
    2.5091   -0.0059    0.1726 C   0  0  0  0  0  0  0  0  0  0  0  0
    3.2689   -1.1105   -0.0018 C   0  0  0  0  0  0  0  0  0  0  0  0
    2.7829   -2.4284   -0.1445 C   0  0  0  0  0  0  0  0  0  0  0  0
    1.6184   -2.7440   -0.6905 N   0  0  0  0  0  0  0  0  0  0  0  0
    1.4165   -4.1109   -0.6758 C   0  0  0  0  0  0  0  0  0  0  0  0
    0.2965   -4.7807   -1.2078 C   0  0  0  0  0  0  0  0  0  0  0  0
    0.2160   -6.1722   -1.1195 C   0  0  0  0  0  0  0  0  0  0  0  0
    1.2308   -6.8982   -0.5050 C   0  0  0  0  0  0  0  0  0  0  0  0
    2.3519   -6.2549    0.0299 C   0  0  0  0  0  0  0  0  0  0  0  0
    2.4279   -4.8552   -0.0734 C   0  0  0  0  0  0  0  0  0  0  0  0
    3.6638   -3.7873    0.4597 S   0  0  0  0  0  0  0  0  0  0  0  0
    4.6570   -0.6254   -0.1624 C   0  0  0  0  0  0  0  0  0  0  0  0
    5.6375   -1.3332   -0.3458 O   0  0  0  0  0  0  0  0  0  0  0  0
    4.6769    0.8896   -0.1204 C   0  0  0  0  0  0  0  0  0  0  0  0
    3.2679    1.1676    0.1709 N   0  0  0  0  0  0  0  0  0  0  0  0
    2.8735    2.4703    0.5150 C   0  0  0  0  0  0  0  0  0  0  0  0
    3.5212    3.5986   -0.0150 C   0  0  0  0  0  0  0  0  0  0  0  0
    3.0889    4.8981    0.2795 C   0  0  0  0  0  0  0  0  0  0  0  0
    2.0026    5.1004    1.1245 C   0  0  0  0  0  0  0  0  0  0  0  0
    1.3634    4.0048    1.6893 C   0  0  0  0  0  0  0  0  0  0  0  0
    1.8014    2.7106    1.3914 C   0  0  0  0  0  0  0  0  0  0  0  0
    0.7361   -0.8905   -0.1069 H   0  0  0  0  0  0  0  0  0  0  0  0
    0.7340    0.7942   -0.1883 H   0  0  0  0  0  0  0  0  0  0  0  0
   -0.4937   -4.2087   -1.6829 H   0  0  0  0  0  0  0  0  0  0  0  0
   -0.6481   -6.6874   -1.5340 H   0  0  0  0  0  0  0  0  0  0  0  0
    1.1546   -7.9835   -0.4401 H   0  0  0  0  0  0  0  0  0  0  0  0
    3.1441   -6.8235    0.5077 H   0  0  0  0  0  0  0  0  0  0  0  0
    4.9696    1.2671   -1.1049 H   0  0  0  0  0  0  0  0  0  0  0  0
    5.3448    1.2323    0.6748 H   0  0  0  0  0  0  0  0  0  0  0  0
    4.3567    3.4901   -0.7009 H   0  0  0  0  0  0  0  0  0  0  0  0
    3.5971    5.7509   -0.1634 H   0  0  0  0  0  0  0  0  0  0  0  0
    1.6585    6.1072    1.3440 H   0  0  0  0  0  0  0  0  0  0  0  0
    0.5234    4.1478    2.3638 H   0  0  0  0  0  0  0  0  0  0  0  0
    1.2965    1.8801    1.8801 H   0  0  0  0  0  0  0  0  0  0  0  0
  1  2  1  0  0  0  0
  1 23  1  0  0  0  0
  1 24  1  0  0  0  0
  2  3  2  0  0  0  0
  2 16  1  0  0  0  0
  3  4  1  0  0  0  0
  3 13  1  0  0  0  0
  4  5  2  0  0  0  0
  4 12  1  0  0  0  0
  5  6  1  0  0  0  0
  6  7  1  0  0  0  0
  6 11  2  0  0  0  0
  7  8  2  0  0  0  0
  7 25  1  0  0  0  0
  8  9  1  0  0  0  0
  8 26  1  0  0  0  0
  9 10  2  0  0  0  0
  9 27  1  0  0  0  0
 10 11  1  0  0  0  0
 10 28  1  0  0  0  0
 11 12  1  0  0  0  0
 13 14  2  0  0  0  0
 13 15  1  0  0  0  0
 15 16  1  0  0  0  0
 15 29  1  0  0  0  0
 15 30  1  0  0  0  0
 16 17  1  0  0  0  0
 17 18  1  0  0  0  0
 17 22  2  0  0  0  0
 18 19  2  0  0  0  0
 18 31  1  0  0  0  0
 19 20  1  0  0  0  0
 19 32  1  0  0  0  0
 20 21  2  0  0  0  0
 20 33  1  0  0  0  0
 21 22  1  0  0  0  0
 21 34  1  0  0  0  0
 22 35  1  0  0  0  0
M  END
>  <Energy>
45.7257

$$$$

 OpenBabel04232616053D

 38 40  0  0  0  0  0  0  0  0999 V2000
    2.1545    0.2888    0.4295 C   0  0  0  0  0  0  0  0  0  0  0  0
    0.6575    0.1815    0.4131 C   0  0  0  0  0  0  0  0  0  0  0  0
   -0.1390    1.1357    1.0567 C   0  0  0  0  0  0  0  0  0  0  0  0
   -1.5315    1.0890    0.9441 C   0  0  0  0  0  0  0  0  0  0  0  0
   -2.1472    0.0862    0.1866 C   0  0  0  0  0  0  0  0  0  0  0  0
   -3.5732    0.1897   -0.1426 C   0  0  0  0  0  0  0  0  0  0  0  0
   -3.9923    0.8017   -1.2693 C   0  0  0  0  0  0  0  0  0  0  0  0
   -3.1938    1.4354   -2.3585 C   0  0  0  0  0  0  0  0  0  0  0  0
   -5.7388    0.7675   -1.3775 S   0  0  0  0  0  0  0  0  0  0  0  0
   -5.8745   -0.2163    0.1163 C   0  0  0  0  0  0  0  0  0  0  0  0
   -6.9666   -0.7181    0.5973 N   0  0  0  0  0  0  0  0  0  0  0  0
   -8.1376   -0.6224   -0.1146 C   0  0  0  0  0  0  0  0  0  0  0  0
   -8.2439   -0.8031   -1.3246 O   0  0  0  0  0  0  0  0  0  0  0  0
   -9.3017   -0.4047    0.7273 C   0  0  0  0  0  0  0  0  0  0  0  0
  -10.6263   -0.2003    0.3662 C   0  0  0  0  0  0  0  0  0  0  0  0
  -11.3749   -0.1233    1.5643 C   0  0  0  0  0  0  0  0  0  0  0  0
  -10.4682   -0.2754    2.5868 C   0  0  0  0  0  0  0  0  0  0  0  0
   -9.2108   -0.4313    2.0974 O   0  0  0  0  0  0  0  0  0  0  0  0
   -4.5929   -0.3350    0.6643 N   0  0  0  0  0  0  0  0  0  0  0  0
   -4.3569   -1.0899    1.8820 C   0  0  0  0  0  0  0  0  0  0  0  0
   -1.3545   -0.9045   -0.4074 C   0  0  0  0  0  0  0  0  0  0  0  0
    0.0388   -0.8557   -0.2947 C   0  0  0  0  0  0  0  0  0  0  0  0
    2.4890    1.1558    1.0088 H   0  0  0  0  0  0  0  0  0  0  0  0
    2.5299    0.4107   -0.5927 H   0  0  0  0  0  0  0  0  0  0  0  0
    2.5991   -0.6075    0.8715 H   0  0  0  0  0  0  0  0  0  0  0  0
    0.3198    1.9482    1.6159 H   0  0  0  0  0  0  0  0  0  0  0  0
   -2.1295    1.8727    1.4042 H   0  0  0  0  0  0  0  0  0  0  0  0
   -2.1153    1.3405   -2.2043 H   0  0  0  0  0  0  0  0  0  0  0  0
   -3.4210    2.5036   -2.4295 H   0  0  0  0  0  0  0  0  0  0  0  0
   -3.4226    0.9664   -3.3216 H   0  0  0  0  0  0  0  0  0  0  0  0
  -10.9908   -0.1379   -0.6494 H   0  0  0  0  0  0  0  0  0  0  0  0
  -12.4426    0.0122    1.6666 H   0  0  0  0  0  0  0  0  0  0  0  0
  -10.5586   -0.3021    3.6642 H   0  0  0  0  0  0  0  0  0  0  0  0
   -5.2868   -1.3354    2.4054 H   0  0  0  0  0  0  0  0  0  0  0  0
   -3.7428   -0.5130    2.5821 H   0  0  0  0  0  0  0  0  0  0  0  0
   -3.8429   -2.0305    1.6576 H   0  0  0  0  0  0  0  0  0  0  0  0
   -1.8125   -1.6856   -1.0111 H   0  0  0  0  0  0  0  0  0  0  0  0
    0.6404   -1.6067   -0.8035 H   0  0  0  0  0  0  0  0  0  0  0  0
  1  2  1  0  0  0  0
  1 23  1  0  0  0  0
  1 24  1  0  0  0  0
  1 25  1  0  0  0  0
  2  3  1  0  0  0  0
  2 22  2  0  0  0  0
  3  4  2  0  0  0  0
  3 26  1  0  0  0  0
  4  5  1  0  0  0  0
  4 27  1  0  0  0  0
  5  6  1  0  0  0  0
  5 21  2  0  0  0  0
  6  7  2  0  0  0  0
  6 19  1  0  0  0  0
  7  8  1  0  0  0  0
  7  9  1  0  0  0  0
  8 28  1  0  0  0  0
  8 29  1  0  0  0  0
  8 30  1  0  0  0  0
  9 10  1  0  0  0  0
 10 11  2  0  0  0  0
 10 19  1  0  0  0  0
 11 12  1  0  0  0  0
 12 13  2  0  0  0  0
 12 14  1  0  0  0  0
 14 15  2  0  0  0  0
 14 18  1  0  0  0  0
 15 16  1  0  0  0  0
 15 31  1  0  0  0  0
 16 17  2  0  0  0  0
 16 32  1  0  0  0  0
 17 18  1  0  0  0  0
 17 33  1  0  0  0  0
 19 20  1  0  0  0  0
 20 34  1  0  0  0  0
 20 35  1  0  0  0  0
 20 36  1  0  0  0  0
 21 22  1  0  0  0  0
 21 37  1  0  0  0  0
 22 38  1  0  0  0  0
M  END
>  <Energy>
32.0109

$$$$

 OpenBabel04232616053D

 36 39  0  0  0  0  0  0  0  0999 V2000
    0.9600    0.1304   -0.1188 O   0  0  0  0  0  0  0  0  0  0  0  0
    2.1768    0.0576   -0.0037 C   0  0  0  0  0  0  0  0  0  0  0  0
    3.0705    1.1330    0.1280 N   0  0  0  0  0  0  0  0  0  0  0  0
    2.6566    2.5133    0.0028 C   0  0  0  0  0  0  0  0  0  0  0  0
    2.6916    2.9842   -1.4355 C   0  0  0  0  0  0  0  0  0  0  0  0
    1.5918    2.7687   -2.2797 C   0  0  0  0  0  0  0  0  0  0  0  0
    1.6524    3.1203   -3.6299 C   0  0  0  0  0  0  0  0  0  0  0  0
    2.8133    3.6850   -4.1533 C   0  0  0  0  0  0  0  0  0  0  0  0
    3.9063    3.9197   -3.3232 C   0  0  0  0  0  0  0  0  0  0  0  0
    3.8432    3.5794   -1.9712 C   0  0  0  0  0  0  0  0  0  0  0  0
    4.3974    0.6808    0.1844 C   0  0  0  0  0  0  0  0  0  0  0  0
    5.5618    1.4209    0.3081 C   0  0  0  0  0  0  0  0  0  0  0  0
    6.7848    0.7407    0.2828 C   0  0  0  0  0  0  0  0  0  0  0  0
    6.8216   -0.6549    0.1411 C   0  0  0  0  0  0  0  0  0  0  0  0
    8.3414   -1.4608    0.0812 Cl  0  0  0  0  0  0  0  0  0  0  0  0
    5.6451   -1.3971    0.0503 C   0  0  0  0  0  0  0  0  0  0  0  0
    4.4374   -0.7120    0.0838 C   0  0  0  0  0  0  0  0  0  0  0  0
    3.0395   -1.2634    0.0301 C   0  0  0  0  0  0  0  0  0  0  0  0
    2.8541   -2.0836   -1.1221 O   0  0  0  0  0  0  0  0  0  0  0  0
    2.4850   -3.3644   -0.6121 C   0  0  0  0  0  0  0  0  0  0  0  0
    1.9545   -3.0819    0.7673 C   0  0  0  0  0  0  0  0  0  0  0  0
    2.7894   -2.0203    1.2185 O   0  0  0  0  0  0  0  0  0  0  0  0
    3.2806    3.1501    0.6400 H   0  0  0  0  0  0  0  0  0  0  0  0
    1.6328    2.6091    0.3843 H   0  0  0  0  0  0  0  0  0  0  0  0
    0.6847    2.3057   -1.8928 H   0  0  0  0  0  0  0  0  0  0  0  0
    0.7976    2.9378   -4.2761 H   0  0  0  0  0  0  0  0  0  0  0  0
    2.8684    3.9361   -5.2091 H   0  0  0  0  0  0  0  0  0  0  0  0
    4.8139    4.3575   -3.7304 H   0  0  0  0  0  0  0  0  0  0  0  0
    4.7098    3.7695   -1.3460 H   0  0  0  0  0  0  0  0  0  0  0  0
    5.5508    2.4973    0.4295 H   0  0  0  0  0  0  0  0  0  0  0  0
    7.7122    1.3020    0.3705 H   0  0  0  0  0  0  0  0  0  0  0  0
    5.6669   -2.4773   -0.0495 H   0  0  0  0  0  0  0  0  0  0  0  0
    3.3889   -3.9813   -0.5704 H   0  0  0  0  0  0  0  0  0  0  0  0
    1.7539   -3.8466   -1.2658 H   0  0  0  0  0  0  0  0  0  0  0  0
    2.0210   -3.9396    1.4409 H   0  0  0  0  0  0  0  0  0  0  0  0
    0.9197   -2.7230    0.7402 H   0  0  0  0  0  0  0  0  0  0  0  0
  1  2  2  0  0  0  0
  2  3  1  0  0  0  0
  2 18  1  0  0  0  0
  3  4  1  0  0  0  0
  3 11  1  0  0  0  0
  4  5  1  0  0  0  0
  4 23  1  0  0  0  0
  4 24  1  0  0  0  0
  5  6  1  0  0  0  0
  5 10  2  0  0  0  0
  6  7  2  0  0  0  0
  6 25  1  0  0  0  0
  7  8  1  0  0  0  0
  7 26  1  0  0  0  0
  8  9  2  0  0  0  0
  8 27  1  0  0  0  0
  9 10  1  0  0  0  0
  9 28  1  0  0  0  0
 10 29  1  0  0  0  0
 11 12  1  0  0  0  0
 11 17  2  0  0  0  0
 12 13  2  0  0  0  0
 12 30  1  0  0  0  0
 13 14  1  0  0  0  0
 13 31  1  0  0  0  0
 14 15  1  0  0  0  0
 14 16  2  0  0  0  0
 16 17  1  0  0  0  0
 16 32  1  0  0  0  0
 17 18  1  0  0  0  0
 18 19  1  0  0  0  0
 18 22  1  0  0  0  0
 19 20  1  0  0  0  0
 20 21  1  0  0  0  0
 20 33  1  0  0  0  0
 20 34  1  0  0  0  0
 21 22  1  0  0  0  0
 21 35  1  0  0  0  0
 21 36  1  0  0  0  0
M  END
>  <Energy>
98.3787

$$$$

 OpenBabel04232616053D

 39 41  0  0  0  0  0  0  0  0999 V2000
   -3.3459    0.3156    0.1401 O   0  0  0  0  0  0  0  0  0  0  0  0
   -2.1608    0.0116    0.1356 C   0  0  0  0  0  0  0  0  0  0  0  0
   -1.7430   -1.3968    0.0085 C   0  0  0  0  0  0  0  0  0  0  0  0
   -0.4596   -1.7716    0.0092 C   0  0  0  0  0  0  0  0  0  0  0  0
    0.5845   -0.7650    0.1382 C   0  0  0  0  0  0  0  0  0  0  0  0
    1.9484   -1.0901    0.1565 C   0  0  0  0  0  0  0  0  0  0  0  0
    2.9149   -0.0777    0.2467 C   0  0  0  0  0  0  0  0  0  0  0  0
    4.2825   -0.4309    0.2977 N   0  0  0  0  0  0  0  0  0  0  0  0
    5.3505    0.3043   -0.1531 C   0  0  0  0  0  0  0  0  0  0  0  0
    5.3693    1.3863   -1.4280 S   0  0  0  0  0  0  0  0  0  0  0  0
    6.5376    0.0883    0.4918 N   0  0  0  0  0  0  0  0  0  0  0  0
    6.7154   -0.3416    1.8841 C   0  0  0  0  0  0  0  0  0  0  0  0
    6.1222    0.7018    2.8455 C   0  0  0  0  0  0  0  0  0  0  0  0
    6.4425    0.4015    4.3057 C   0  0  0  0  0  0  0  0  0  0  0  0
    7.9435    0.2673    4.5238 C   0  0  0  0  0  0  0  0  0  0  0  0
    8.5241   -0.8218    3.6295 C   0  0  0  0  0  0  0  0  0  0  0  0
    8.2128   -0.5672    2.1566 C   0  0  0  0  0  0  0  0  0  0  0  0
    2.5026    1.2567    0.3750 C   0  0  0  0  0  0  0  0  0  0  0  0
    1.1481    1.5860    0.3713 C   0  0  0  0  0  0  0  0  0  0  0  0
    0.2069    0.5722    0.2463 C   0  0  0  0  0  0  0  0  0  0  0  0
   -1.1485    0.9543    0.2471 O   0  0  0  0  0  0  0  0  0  0  0  0
   -2.5497   -2.1133   -0.0850 H   0  0  0  0  0  0  0  0  0  0  0  0
   -0.1825   -2.8150   -0.0899 H   0  0  0  0  0  0  0  0  0  0  0  0
    2.2560   -2.1287    0.0674 H   0  0  0  0  0  0  0  0  0  0  0  0
    4.4979   -1.4071    0.4560 H   0  0  0  0  0  0  0  0  0  0  0  0
    7.2655    0.6951    0.1269 H   0  0  0  0  0  0  0  0  0  0  0  0
    6.1812   -1.2902    2.0150 H   0  0  0  0  0  0  0  0  0  0  0  0
    5.0340    0.7516    2.7252 H   0  0  0  0  0  0  0  0  0  0  0  0
    6.5049    1.6988    2.5904 H   0  0  0  0  0  0  0  0  0  0  0  0
    5.9420   -0.5262    4.6092 H   0  0  0  0  0  0  0  0  0  0  0  0
    6.0465    1.2019    4.9406 H   0  0  0  0  0  0  0  0  0  0  0  0
    8.1470    0.0341    5.5748 H   0  0  0  0  0  0  0  0  0  0  0  0
    8.4343    1.2247    4.3075 H   0  0  0  0  0  0  0  0  0  0  0  0
    8.1180   -1.7956    3.9278 H   0  0  0  0  0  0  0  0  0  0  0  0
    9.6099   -0.8711    3.7720 H   0  0  0  0  0  0  0  0  0  0  0  0
    8.5763   -1.4099    1.5556 H   0  0  0  0  0  0  0  0  0  0  0  0
    8.7844    0.3107    1.8266 H   0  0  0  0  0  0  0  0  0  0  0  0
    3.2261    2.0544    0.5170 H   0  0  0  0  0  0  0  0  0  0  0  0
    0.8364    2.6209    0.4736 H   0  0  0  0  0  0  0  0  0  0  0  0
  1  2  2  0  0  0  0
  2  3  1  0  0  0  0
  2 21  1  0  0  0  0
  3  4  2  0  0  0  0
  3 22  1  0  0  0  0
  4  5  1  0  0  0  0
  4 23  1  0  0  0  0
  5  6  1  0  0  0  0
  5 20  2  0  0  0  0
  6  7  2  0  0  0  0
  6 24  1  0  0  0  0
  7  8  1  0  0  0  0
  7 18  1  0  0  0  0
  8  9  1  0  0  0  0
  8 25  1  0  0  0  0
  9 10  2  0  0  0  0
  9 11  1  0  0  0  0
 11 12  1  0  0  0  0
 11 26  1  0  0  0  0
 12 13  1  0  0  0  0
 12 17  1  0  0  0  0
 12 27  1  0  0  0  0
 13 14  1  0  0  0  0
 13 28  1  0  0  0  0
 13 29  1  0  0  0  0
 14 15  1  0  0  0  0
 14 30  1  0  0  0  0
 14 31  1  0  0  0  0
 15 16  1  0  0  0  0
 15 32  1  0  0  0  0
 15 33  1  0  0  0  0
 16 17  1  0  0  0  0
 16 34  1  0  0  0  0
 16 35  1  0  0  0  0
 17 36  1  0  0  0  0
 17 37  1  0  0  0  0
 18 19  2  0  0  0  0
 18 38  1  0  0  0  0
 19 20  1  0  0  0  0
 19 39  1  0  0  0  0
 20 21  1  0  0  0  0
M  END
>  <Energy>
-10.7522

$$$$

 OpenBabel04232616053D

 36 39  0  0  0  0  0  0  0  0999 V2000
   -0.3826   -2.5203   -1.0750 C   0  0  0  0  0  0  0  0  0  0  0  0
   -1.0113   -1.1830   -0.8202 C   0  0  0  0  0  0  0  0  0  0  0  0
   -2.3689   -1.0569   -0.4990 C   0  0  0  0  0  0  0  0  0  0  0  0
   -2.9431    0.2057   -0.2732 C   0  0  0  0  0  0  0  0  0  0  0  0
   -2.1702    1.3668   -0.3659 C   0  0  0  0  0  0  0  0  0  0  0  0
   -2.6783    2.7309   -0.1559 C   0  0  0  0  0  0  0  0  0  0  0  0
   -1.8799    3.7707    0.0661 N   0  0  0  0  0  0  0  0  0  0  0  0
   -2.6205    4.9179    0.0649 N   0  0  0  0  0  0  0  0  0  0  0  0
   -3.8601    4.5616   -0.1311 C   0  0  0  0  0  0  0  0  0  0  0  0
   -3.9954    3.1933   -0.2013 N   0  0  0  0  0  0  0  0  0  0  0  0
   -5.1539    2.4571   -0.3627 N   0  0  0  0  0  0  0  0  0  0  0  0
   -6.2911    3.0795   -0.1831 C   0  0  0  0  0  0  0  0  0  0  0  0
   -7.5668    2.3054   -0.3709 C   0  0  0  0  0  0  0  0  0  0  0  0
   -8.7381    2.6534    0.3205 C   0  0  0  0  0  0  0  0  0  0  0  0
   -9.9275    1.9582    0.0923 C   0  0  0  0  0  0  0  0  0  0  0  0
   -9.9521    0.9008   -0.8133 C   0  0  0  0  0  0  0  0  0  0  0  0
   -8.7861    0.5309   -1.4839 C   0  0  0  0  0  0  0  0  0  0  0  0
   -7.5946    1.2273   -1.2623 C   0  0  0  0  0  0  0  0  0  0  0  0
   -6.4613    4.5233    0.2800 C   0  0  0  0  0  0  0  0  0  0  0  0
   -5.1953    5.6134   -0.3685 S   0  0  0  0  0  0  0  0  0  0  0  0
   -0.8047    1.2223   -0.6778 C   0  0  0  0  0  0  0  0  0  0  0  0
   -0.2329   -0.0310   -0.9048 C   0  0  0  0  0  0  0  0  0  0  0  0
   -1.1045   -3.3351   -0.9636 H   0  0  0  0  0  0  0  0  0  0  0  0
    0.4343   -2.6939   -0.3666 H   0  0  0  0  0  0  0  0  0  0  0  0
    0.0161   -2.5598   -2.0944 H   0  0  0  0  0  0  0  0  0  0  0  0
   -2.9952   -1.9429   -0.4197 H   0  0  0  0  0  0  0  0  0  0  0  0
   -3.9974    0.2509   -0.0160 H   0  0  0  0  0  0  0  0  0  0  0  0
   -8.7555    3.4593    1.0489 H   0  0  0  0  0  0  0  0  0  0  0  0
  -10.8346    2.2419    0.6216 H   0  0  0  0  0  0  0  0  0  0  0  0
  -10.8799    0.3627   -0.9941 H   0  0  0  0  0  0  0  0  0  0  0  0
   -8.8079   -0.2993   -2.1868 H   0  0  0  0  0  0  0  0  0  0  0  0
   -6.6984    0.9325   -1.8036 H   0  0  0  0  0  0  0  0  0  0  0  0
   -7.4200    4.9306   -0.0521 H   0  0  0  0  0  0  0  0  0  0  0  0
   -6.4325    4.5404    1.3741 H   0  0  0  0  0  0  0  0  0  0  0  0
   -0.1669    2.1026   -0.7516 H   0  0  0  0  0  0  0  0  0  0  0  0
    0.8265   -0.0941   -1.1482 H   0  0  0  0  0  0  0  0  0  0  0  0
  1  2  1  0  0  0  0
  1 23  1  0  0  0  0
  1 24  1  0  0  0  0
  1 25  1  0  0  0  0
  2  3  1  0  0  0  0
  2 22  2  0  0  0  0
  3  4  2  0  0  0  0
  3 26  1  0  0  0  0
  4  5  1  0  0  0  0
  4 27  1  0  0  0  0
  5  6  1  0  0  0  0
  5 21  2  0  0  0  0
  6  7  2  0  0  0  0
  6 10  1  0  0  0  0
  7  8  1  0  0  0  0
  8  9  2  0  0  0  0
  9 10  1  0  0  0  0
  9 20  1  0  0  0  0
 10 11  1  0  0  0  0
 11 12  2  0  0  0  0
 12 13  1  0  0  0  0
 12 19  1  0  0  0  0
 13 14  1  0  0  0  0
 13 18  2  0  0  0  0
 14 15  2  0  0  0  0
 14 28  1  0  0  0  0
 15 16  1  0  0  0  0
 15 29  1  0  0  0  0
 16 17  2  0  0  0  0
 16 30  1  0  0  0  0
 17 18  1  0  0  0  0
 17 31  1  0  0  0  0
 18 32  1  0  0  0  0
 19 20  1  0  0  0  0
 19 33  1  0  0  0  0
 19 34  1  0  0  0  0
 21 22  1  0  0  0  0
 21 35  1  0  0  0  0
 22 36  1  0  0  0  0
M  END
>  <Energy>
124.895

$$$$

 OpenBabel04232616053D

 41 43  0  0  0  0  0  0  0  0999 V2000
    0.9285    0.3216    0.3987 C   0  0  0  0  0  0  0  0  0  0  0  0
    2.4304    0.1387    0.1331 C   0  0  0  0  0  0  0  0  0  0  0  0
    3.1830    0.4121    1.4499 C   0  0  0  0  0  0  0  0  0  0  0  0
    2.8703    1.1556   -0.9108 C   0  0  0  0  0  0  0  0  0  0  0  0
    3.3531    2.2455   -0.6139 O   0  0  0  0  0  0  0  0  0  0  0  0
    2.6191    0.7952   -2.3282 C   0  0  0  0  0  0  0  0  0  0  0  0
    1.9081    1.5819   -3.1636 C   0  0  0  0  0  0  0  0  0  0  0  0
    1.3850    2.8942   -2.8010 C   0  0  0  0  0  0  0  0  0  0  0  0
    0.5446    3.5828   -3.5802 C   0  0  0  0  0  0  0  0  0  0  0  0
    0.1538    3.0107   -4.8573 C   0  0  0  0  0  0  0  0  0  0  0  0
   -0.7344    3.6647   -5.7149 C   0  0  0  0  0  0  0  0  0  0  0  0
   -1.0706    3.0884   -6.9417 C   0  0  0  0  0  0  0  0  0  0  0  0
   -0.5211    1.8601   -7.3148 C   0  0  0  0  0  0  0  0  0  0  0  0
    0.3640    1.2039   -6.4592 C   0  0  0  0  0  0  0  0  0  0  0  0
    0.6961    1.7805   -5.2339 C   0  0  0  0  0  0  0  0  0  0  0  0
    1.5669    1.0862   -4.4261 O   0  0  0  0  0  0  0  0  0  0  0  0
    2.9235   -0.6014   -2.7382 C   0  0  0  0  0  0  0  0  0  0  0  0
    3.4918   -0.8439   -3.7998 O   0  0  0  0  0  0  0  0  0  0  0  0
    2.4443   -1.6902   -1.7862 C   0  0  0  0  0  0  0  0  0  0  0  0
    0.9406   -1.9149   -2.0106 C   0  0  0  0  0  0  0  0  0  0  0  0
    3.1744   -3.0106   -2.0965 C   0  0  0  0  0  0  0  0  0  0  0  0
    2.7075   -1.3028   -0.3211 C   0  0  0  0  0  0  0  0  0  0  0  0
    3.0475   -2.1591    0.5009 O   0  0  0  0  0  0  0  0  0  0  0  0
    0.7349    1.2339    0.9745 H   0  0  0  0  0  0  0  0  0  0  0  0
    0.5162   -0.5263    0.9567 H   0  0  0  0  0  0  0  0  0  0  0  0
    0.3510    0.4227   -0.5245 H   0  0  0  0  0  0  0  0  0  0  0  0
    2.9860    1.4250    1.8221 H   0  0  0  0  0  0  0  0  0  0  0  0
    4.2665    0.3170    1.3158 H   0  0  0  0  0  0  0  0  0  0  0  0
    2.8803   -0.2864    2.2386 H   0  0  0  0  0  0  0  0  0  0  0  0
    1.6701    3.3433   -1.8534 H   0  0  0  0  0  0  0  0  0  0  0  0
    0.1580    4.5515   -3.2839 H   0  0  0  0  0  0  0  0  0  0  0  0
   -1.1670    4.6223   -5.4383 H   0  0  0  0  0  0  0  0  0  0  0  0
   -1.7582    3.6001   -7.6094 H   0  0  0  0  0  0  0  0  0  0  0  0
   -0.7803    1.4161   -8.2727 H   0  0  0  0  0  0  0  0  0  0  0  0
    0.7969    0.2499   -6.7473 H   0  0  0  0  0  0  0  0  0  0  0  0
    0.7578   -2.5101   -2.9125 H   0  0  0  0  0  0  0  0  0  0  0  0
    0.3953   -0.9779   -2.1584 H   0  0  0  0  0  0  0  0  0  0  0  0
    0.4826   -2.4353   -1.1625 H   0  0  0  0  0  0  0  0  0  0  0  0
    3.0046   -3.3307   -3.1316 H   0  0  0  0  0  0  0  0  0  0  0  0
    2.8264   -3.8214   -1.4452 H   0  0  0  0  0  0  0  0  0  0  0  0
    4.2565   -2.9111   -1.9559 H   0  0  0  0  0  0  0  0  0  0  0  0
  1  2  1  0  0  0  0
  1 24  1  0  0  0  0
  1 25  1  0  0  0  0
  1 26  1  0  0  0  0
  2  3  1  0  0  0  0
  2  4  1  0  0  0  0
  2 22  1  0  0  0  0
  3 27  1  0  0  0  0
  3 28  1  0  0  0  0
  3 29  1  0  0  0  0
  4  5  2  0  0  0  0
  4  6  1  0  0  0  0
  6  7  2  0  0  0  0
  6 17  1  0  0  0  0
  7  8  1  0  0  0  0
  7 16  1  0  0  0  0
  8  9  2  0  0  0  0
  8 30  1  0  0  0  0
  9 10  1  0  0  0  0
  9 31  1  0  0  0  0
 10 11  1  0  0  0  0
 10 15  2  0  0  0  0
 11 12  2  0  0  0  0
 11 32  1  0  0  0  0
 12 13  1  0  0  0  0
 12 33  1  0  0  0  0
 13 14  2  0  0  0  0
 13 34  1  0  0  0  0
 14 15  1  0  0  0  0
 14 35  1  0  0  0  0
 15 16  1  0  0  0  0
 17 18  2  0  0  0  0
 17 19  1  0  0  0  0
 19 20  1  0  0  0  0
 19 21  1  0  0  0  0
 19 22  1  0  0  0  0
 20 36  1  0  0  0  0
 20 37  1  0  0  0  0
 20 38  1  0  0  0  0
 21 39  1  0  0  0  0
 21 40  1  0  0  0  0
 21 41  1  0  0  0  0
 22 23  2  0  0  0  0
M  END
>  <Energy>
42.3615

$$$$

 OpenBabel04232616053D

 50 53  0  0  1  0  0  0  0  0999 V2000
   -0.0805   -1.6910   -4.1351 C   0  0  0  0  0  0  0  0  0  0  0  0
   -0.7262   -1.3764   -2.7879 C   0  0  1  0  0  0  0  0  0  0  0  0
   -0.7413    0.1324   -2.5183 C   0  0  0  0  0  0  0  0  0  0  0  0
   -1.3849    0.4546   -1.1679 C   0  0  0  0  0  0  0  0  0  0  0  0
   -2.8001   -0.1296   -1.0441 C   0  0  2  0  0  0  0  0  0  0  0  0
   -3.3454    0.0665    0.3743 C   0  0  0  0  0  0  0  0  0  0  0  0
   -3.2745   -0.8309    1.2169 O   0  0  0  0  0  0  0  0  0  0  0  0
   -3.8940    1.2874    0.6973 N   0  0  0  0  0  0  0  0  0  0  0  0
   -4.1178    2.4332   -0.1646 C   0  0  0  0  0  0  0  0  0  0  0  0
   -4.3557    3.5780    0.7984 C   0  0  2  0  0  0  0  0  0  0  0  0
   -3.0803    4.2007    1.3714 C   0  0  0  0  0  0  0  0  0  0  0  0
   -3.5437    4.6791    2.6689 N   0  0  0  0  0  0  0  0  0  0  0  0
   -2.6336    5.3023    3.5029 C   0  0  0  0  0  0  0  0  0  0  0  0
   -3.0306    5.7906    4.7516 C   0  0  0  0  0  0  0  0  0  0  0  0
   -2.1164    6.4495    5.5722 C   0  0  0  0  0  0  0  0  0  0  0  0
   -0.8137    6.6157    5.1345 C   0  0  0  0  0  0  0  0  0  0  0  0
   -0.4905    6.1206    3.8844 C   0  0  0  0  0  0  0  0  0  0  0  0
   -1.3658    5.4850    3.0722 N   0  0  0  0  0  0  0  0  0  0  0  0
   -4.5270    3.7507    3.2259 C   0  0  0  0  0  0  0  0  0  0  0  0
   -5.0079    2.9268    2.0259 C   0  0  2  0  0  0  0  0  0  0  0  0
   -4.4942    1.4868    2.0088 C   0  0  0  0  0  0  0  0  0  0  0  0
   -2.8048   -1.6310   -1.3833 C   0  0  0  0  0  0  0  0  0  0  0  0
   -2.1500   -1.9374   -2.7255 C   0  0  0  0  0  0  0  0  0  0  0  0
    0.9456   -1.3103   -4.1727 H   0  0  0  0  0  0  0  0  0  0  0  0
   -0.6407   -1.2419   -4.9618 H   0  0  0  0  0  0  0  0  0  0  0  0
   -0.0412   -2.7732   -4.3009 H   0  0  0  0  0  0  0  0  0  0  0  0
   -0.1247   -1.8617   -2.0074 H   0  0  0  0  0  0  0  0  0  0  0  0
   -1.2910    0.6495   -3.3154 H   0  0  0  0  0  0  0  0  0  0  0  0
    0.2823    0.5251   -2.5336 H   0  0  0  0  0  0  0  0  0  0  0  0
   -1.3988    1.5415   -1.0346 H   0  0  0  0  0  0  0  0  0  0  0  0
   -0.7497    0.0631   -0.3629 H   0  0  0  0  0  0  0  0  0  0  0  0
   -3.4673    0.3743   -1.7539 H   0  0  0  0  0  0  0  0  0  0  0  0
   -5.0219    2.2232   -0.7480 H   0  0  0  0  0  0  0  0  0  0  0  0
   -3.2908    2.6088   -0.8533 H   0  0  0  0  0  0  0  0  0  0  0  0
   -4.9917    4.3594    0.3667 H   0  0  0  0  0  0  0  0  0  0  0  0
   -2.7219    5.0121    0.7288 H   0  0  0  0  0  0  0  0  0  0  0  0
   -2.2801    3.4581    1.4874 H   0  0  0  0  0  0  0  0  0  0  0  0
   -4.0574    5.6879    5.0821 H   0  0  0  0  0  0  0  0  0  0  0  0
   -2.4303    6.8348    6.5382 H   0  0  0  0  0  0  0  0  0  0  0  0
   -0.0740    7.1224    5.7427 H   0  0  0  0  0  0  0  0  0  0  0  0
    0.5132    6.2264    3.4834 H   0  0  0  0  0  0  0  0  0  0  0  0
   -5.3651    4.3065    3.6597 H   0  0  0  0  0  0  0  0  0  0  0  0
   -4.0927    3.1137    4.0060 H   0  0  0  0  0  0  0  0  0  0  0  0
   -6.1015    2.9329    1.9525 H   0  0  0  0  0  0  0  0  0  0  0  0
   -5.3255    0.7802    2.1198 H   0  0  0  0  0  0  0  0  0  0  0  0
   -3.7535    1.2628    2.7830 H   0  0  0  0  0  0  0  0  0  0  0  0
   -3.8376   -2.0008   -1.3886 H   0  0  0  0  0  0  0  0  0  0  0  0
   -2.2788   -2.1983   -0.6044 H   0  0  0  0  0  0  0  0  0  0  0  0
   -2.7596   -1.5156   -3.5344 H   0  0  0  0  0  0  0  0  0  0  0  0
   -2.1310   -3.0238   -2.8739 H   0  0  0  0  0  0  0  0  0  0  0  0
  1  2  1  0  0  0  0
  1 24  1  0  0  0  0
  1 25  1  0  0  0  0
  1 26  1  0  0  0  0
  2  3  1  0  0  0  0
  2 23  1  0  0  0  0
  2 27  1  1  0  0  0
  3  4  1  0  0  0  0
  3 28  1  0  0  0  0
  3 29  1  0  0  0  0
  4  5  1  0  0  0  0
  4 30  1  0  0  0  0
  4 31  1  0  0  0  0
  5 22  1  0  0  0  0
  5  6  1  0  0  0  0
  5 32  1  6  0  0  0
  6  7  2  0  0  0  0
  6  8  1  0  0  0  0
  8  9  1  0  0  0  0
  8 21  1  0  0  0  0
  9 10  1  0  0  0  0
  9 33  1  0  0  0  0
  9 34  1  0  0  0  0
 10 11  1  0  0  0  0
 10 20  1  0  0  0  0
 10 35  1  6  0  0  0
 11 12  1  0  0  0  0
 11 36  1  0  0  0  0
 11 37  1  0  0  0  0
 12 13  1  0  0  0  0
 12 19  1  0  0  0  0
 13 14  1  0  0  0  0
 13 18  2  0  0  0  0
 14 15  2  0  0  0  0
 14 38  1  0  0  0  0
 15 16  1  0  0  0  0
 15 39  1  0  0  0  0
 16 17  2  0  0  0  0
 16 40  1  0  0  0  0
 17 18  1  0  0  0  0
 17 41  1  0  0  0  0
 19 20  1  0  0  0  0
 19 42  1  0  0  0  0
 19 43  1  0  0  0  0
 20 21  1  0  0  0  0
 20 44  1  6  0  0  0
 21 45  1  0  0  0  0
 21 46  1  0  0  0  0
 22 23  1  0  0  0  0
 22 47  1  0  0  0  0
 22 48  1  0  0  0  0
 23 49  1  0  0  0  0
 23 50  1  0  0  0  0
M  END
>  <Energy>
-8.74949

$$$$

 OpenBabel04232616053D

 36 38  0  0  0  0  0  0  0  0999 V2000
    1.8533    4.6356   -1.7305 F   0  0  0  0  0  0  0  0  0  0  0  0
    1.8434    4.7106   -0.3709 C   0  0  0  0  0  0  0  0  0  0  0  0
    2.3126    5.9516   -0.0619 F   0  0  0  0  0  0  0  0  0  0  0  0
    0.5315    4.7087   -0.0044 F   0  0  0  0  0  0  0  0  0  0  0  0
    2.6294    3.6150    0.3055 C   0  0  0  0  0  0  0  0  0  0  0  0
    3.2103    2.5744   -0.4279 C   0  0  0  0  0  0  0  0  0  0  0  0
    3.9549    1.5915    0.2205 C   0  0  0  0  0  0  0  0  0  0  0  0
    4.1278    1.6419    1.6066 C   0  0  0  0  0  0  0  0  0  0  0  0
    3.5537    2.6647    2.3815 C   0  0  0  0  0  0  0  0  0  0  0  0
    3.7653    2.7255    3.8381 C   0  0  0  0  0  0  0  0  0  0  0  0
    2.8357    3.2268    4.7343 C   0  0  0  0  0  0  0  0  0  0  0  0
    3.1525    3.2903    6.0935 C   0  0  0  0  0  0  0  0  0  0  0  0
    4.3844    2.8473    6.5609 C   0  0  0  0  0  0  0  0  0  0  0  0
    4.7132    2.8924    7.8961 N   0  0  0  0  0  0  0  0  0  0  0  0
    4.2218    3.9233    8.8146 C   0  0  0  0  0  0  0  0  0  0  0  0
    5.3991    4.6777    9.4558 C   0  0  0  0  0  0  0  0  0  0  0  0
    6.3359    3.7799   10.0687 O   0  0  0  0  0  0  0  0  0  0  0  0
    6.8860    2.8937    9.0790 C   0  0  0  0  0  0  0  0  0  0  0  0
    5.7933    2.0440    8.4166 C   0  0  0  0  0  0  0  0  0  0  0  0
    5.2453    2.3317    5.6615 N   0  0  0  0  0  0  0  0  0  0  0  0
    4.9487    2.2755    4.3021 N   0  0  0  0  0  0  0  0  0  0  0  0
    2.7983    3.6412    1.7031 C   0  0  0  0  0  0  0  0  0  0  0  0
    3.0967    2.5303   -1.5100 H   0  0  0  0  0  0  0  0  0  0  0  0
    4.4138    0.7884   -0.3518 H   0  0  0  0  0  0  0  0  0  0  0  0
    4.7261    0.8678    2.0871 H   0  0  0  0  0  0  0  0  0  0  0  0
    1.8556    3.5545    4.4038 H   0  0  0  0  0  0  0  0  0  0  0  0
    2.3983    3.6569    6.7807 H   0  0  0  0  0  0  0  0  0  0  0  0
    3.6367    3.4273    9.5977 H   0  0  0  0  0  0  0  0  0  0  0  0
    3.5733    4.6593    8.3289 H   0  0  0  0  0  0  0  0  0  0  0  0
    5.0256    5.3507   10.2342 H   0  0  0  0  0  0  0  0  0  0  0  0
    5.9260    5.2891    8.7132 H   0  0  0  0  0  0  0  0  0  0  0  0
    7.6043    2.2417    9.5857 H   0  0  0  0  0  0  0  0  0  0  0  0
    7.4355    3.4845    8.3363 H   0  0  0  0  0  0  0  0  0  0  0  0
    5.3500    1.3869    9.1755 H   0  0  0  0  0  0  0  0  0  0  0  0
    6.2429    1.3924    7.6599 H   0  0  0  0  0  0  0  0  0  0  0  0
    2.3526    4.4668    2.2587 H   0  0  0  0  0  0  0  0  0  0  0  0
  1  2  1  0  0  0  0
  2  3  1  0  0  0  0
  2  4  1  0  0  0  0
  2  5  1  0  0  0  0
  5  6  1  0  0  0  0
  5 22  2  0  0  0  0
  6  7  2  0  0  0  0
  6 23  1  0  0  0  0
  7  8  1  0  0  0  0
  7 24  1  0  0  0  0
  8  9  2  0  0  0  0
  8 25  1  0  0  0  0
  9 10  1  0  0  0  0
  9 22  1  0  0  0  0
 10 11  1  0  0  0  0
 10 21  2  0  0  0  0
 11 12  2  0  0  0  0
 11 26  1  0  0  0  0
 12 13  1  0  0  0  0
 12 27  1  0  0  0  0
 13 14  1  0  0  0  0
 13 20  2  0  0  0  0
 14 15  1  0  0  0  0
 14 19  1  0  0  0  0
 15 16  1  0  0  0  0
 15 28  1  0  0  0  0
 15 29  1  0  0  0  0
 16 17  1  0  0  0  0
 16 30  1  0  0  0  0
 16 31  1  0  0  0  0
 17 18  1  0  0  0  0
 18 19  1  0  0  0  0
 18 32  1  0  0  0  0
 18 33  1  0  0  0  0
 19 34  1  0  0  0  0
 19 35  1  0  0  0  0
 20 21  1  0  0  0  0
 22 36  1  0  0  0  0
M  END
>  <Energy>
130.575

$$$$

 OpenBabel04232616053D

 32 34  0  0  0  0  0  0  0  0999 V2000
    1.2722    0.3648    0.1166 O   0  0  0  0  0  0  0  0  0  0  0  0
    2.4989    0.2764    0.0703 C   0  0  0  0  0  0  0  0  0  0  0  0
    3.2057   -0.6473    0.9686 C   0  0  0  0  0  0  0  0  0  0  0  0
    2.7041   -1.8665    1.5017 C   0  0  0  0  0  0  0  0  0  0  0  0
    3.7183   -2.3574    2.2892 C   0  0  0  0  0  0  0  0  0  0  0  0
    3.9439   -3.5398    3.1130 C   0  0  0  0  0  0  0  0  0  0  0  0
    4.6524   -3.3879    4.3221 C   0  0  0  0  0  0  0  0  0  0  0  0
    4.9186   -4.4814    5.1498 C   0  0  0  0  0  0  0  0  0  0  0  0
    4.4781   -5.7464    4.7799 C   0  0  0  0  0  0  0  0  0  0  0  0
    4.8116   -7.0960    5.7920 Cl  0  0  0  0  0  0  0  0  0  0  0  0
    3.7763   -5.9270    3.5916 C   0  0  0  0  0  0  0  0  0  0  0  0
    3.5104   -4.8308    2.7603 C   0  0  0  0  0  0  0  0  0  0  0  0
    2.6800   -5.1678    1.2792 Cl  0  0  0  0  0  0  0  0  0  0  0  0
    4.7528   -1.4710    2.2577 O   0  0  0  0  0  0  0  0  0  0  0  0
    4.4381   -0.4069    1.4454 N   0  0  0  0  0  0  0  0  0  0  0  0
    3.2457    1.0056   -0.8494 N   0  0  0  0  0  0  0  0  0  0  0  0
    2.6164    1.9401   -1.7631 C   0  0  0  0  0  0  0  0  0  0  0  0
    3.5121    1.9161   -2.9913 C   0  0  0  0  0  0  0  0  0  0  0  0
    4.8980    1.6954   -2.4016 C   0  0  0  0  0  0  0  0  0  0  0  0
    4.6425    0.7865   -1.2050 C   0  0  0  0  0  0  0  0  0  0  0  0
    1.7363   -2.3077    1.3122 H   0  0  0  0  0  0  0  0  0  0  0  0
    5.0064   -2.4044    4.6314 H   0  0  0  0  0  0  0  0  0  0  0  0
    5.4714   -4.3350    6.0747 H   0  0  0  0  0  0  0  0  0  0  0  0
    3.4452   -6.9226    3.3062 H   0  0  0  0  0  0  0  0  0  0  0  0
    2.6340    2.9260   -1.2847 H   0  0  0  0  0  0  0  0  0  0  0  0
    1.5807    1.6720   -1.9883 H   0  0  0  0  0  0  0  0  0  0  0  0
    3.4436    2.8331   -3.5829 H   0  0  0  0  0  0  0  0  0  0  0  0
    3.2439    1.0692   -3.6339 H   0  0  0  0  0  0  0  0  0  0  0  0
    5.3167    2.6503   -2.0632 H   0  0  0  0  0  0  0  0  0  0  0  0
    5.5984    1.2532   -3.1163 H   0  0  0  0  0  0  0  0  0  0  0  0
    5.3013    1.0521   -0.3745 H   0  0  0  0  0  0  0  0  0  0  0  0
    4.7782   -0.2693   -1.4627 H   0  0  0  0  0  0  0  0  0  0  0  0
  1  2  2  0  0  0  0
  2  3  1  0  0  0  0
  2 16  1  0  0  0  0
  3  4  1  0  0  0  0
  3 15  2  0  0  0  0
  4  5  2  0  0  0  0
  4 21  1  0  0  0  0
  5  6  1  0  0  0  0
  5 14  1  0  0  0  0
  6  7  1  0  0  0  0
  6 12  2  0  0  0  0
  7  8  2  0  0  0  0
  7 22  1  0  0  0  0
  8  9  1  0  0  0  0
  8 23  1  0  0  0  0
  9 10  1  0  0  0  0
  9 11  2  0  0  0  0
 11 12  1  0  0  0  0
 11 24  1  0  0  0  0
 12 13  1  0  0  0  0
 14 15  1  0  0  0  0
 16 17  1  0  0  0  0
 16 20  1  0  0  0  0
 17 18  1  0  0  0  0
 17 25  1  0  0  0  0
 17 26  1  0  0  0  0
 18 19  1  0  0  0  0
 18 27  1  0  0  0  0
 18 28  1  0  0  0  0
 19 20  1  0  0  0  0
 19 29  1  0  0  0  0
 19 30  1  0  0  0  0
 20 31  1  0  0  0  0
 20 32  1  0  0  0  0
M  END
>  <Energy>
38.3071

$$$$

 OpenBabel04232616053D

 40 43  0  0  0  0  0  0  0  0999 V2000
    0.9699    0.0660   -0.1501 C   0  0  0  0  0  0  0  0  0  0  0  0
    2.4677    0.0371   -0.0202 C   0  0  0  0  0  0  0  0  0  0  0  0
    3.1815    1.2464   -0.0024 C   0  0  0  0  0  0  0  0  0  0  0  0
    4.5573    1.2878    0.1850 C   0  0  0  0  0  0  0  0  0  0  0  0
    5.1851    2.4755    0.2198 N   0  0  0  0  0  0  0  0  0  0  0  0
    6.5347    2.4812    0.4696 C   0  0  0  0  0  0  0  0  0  0  0  0
    7.1537    3.8240    0.4285 C   0  0  0  0  0  0  0  0  0  0  0  0
    6.4796    4.9484    0.9104 C   0  0  0  0  0  0  0  0  0  0  0  0
    7.0889    6.1997    0.8378 C   0  0  0  0  0  0  0  0  0  0  0  0
    8.3602    6.3013    0.2910 C   0  0  0  0  0  0  0  0  0  0  0  0
    8.9592    5.1484   -0.1837 C   0  0  0  0  0  0  0  0  0  0  0  0
    8.3789    3.9277   -0.1542 N   0  0  0  0  0  0  0  0  0  0  0  0
    7.2231    1.2855    0.7067 C   0  0  0  0  0  0  0  0  0  0  0  0
    8.6197    1.1939    1.1809 C   0  0  0  0  0  0  0  0  0  0  0  0
    9.4724    0.1719    0.7585 C   0  0  0  0  0  0  0  0  0  0  0  0
   10.7640    0.0978    1.2765 C   0  0  0  0  0  0  0  0  0  0  0  0
   11.1804    1.0484    2.1997 C   0  0  0  0  0  0  0  0  0  0  0  0
   10.2763    2.0209    2.5838 C   0  0  0  0  0  0  0  0  0  0  0  0
    9.0094    2.0978    2.1222 N   0  0  0  0  0  0  0  0  0  0  0  0
    6.5836    0.0751    0.6042 N   0  0  0  0  0  0  0  0  0  0  0  0
    5.2623    0.0831    0.3558 C   0  0  0  0  0  0  0  0  0  0  0  0
    4.5659   -1.1185    0.3007 C   0  0  0  0  0  0  0  0  0  0  0  0
    3.1738   -1.1666    0.1212 C   0  0  0  0  0  0  0  0  0  0  0  0
    2.4742   -2.4976    0.1300 C   0  0  0  0  0  0  0  0  0  0  0  0
    0.5983    1.0858   -0.2963 H   0  0  0  0  0  0  0  0  0  0  0  0
    0.5077   -0.3265    0.7616 H   0  0  0  0  0  0  0  0  0  0  0  0
    0.6449   -0.5281   -1.0095 H   0  0  0  0  0  0  0  0  0  0  0  0
    2.6537    2.1912   -0.1150 H   0  0  0  0  0  0  0  0  0  0  0  0
    5.4862    4.8514    1.3390 H   0  0  0  0  0  0  0  0  0  0  0  0
    6.5740    7.0805    1.2078 H   0  0  0  0  0  0  0  0  0  0  0  0
    8.8708    7.2558    0.2334 H   0  0  0  0  0  0  0  0  0  0  0  0
    9.9557    5.1726   -0.6135 H   0  0  0  0  0  0  0  0  0  0  0  0
    9.1293   -0.5666    0.0401 H   0  0  0  0  0  0  0  0  0  0  0  0
   11.4350   -0.6952    0.9615 H   0  0  0  0  0  0  0  0  0  0  0  0
   12.1815    1.0278    2.6134 H   0  0  0  0  0  0  0  0  0  0  0  0
   10.5513    2.7915    3.2986 H   0  0  0  0  0  0  0  0  0  0  0  0
    5.1303   -2.0402    0.4274 H   0  0  0  0  0  0  0  0  0  0  0  0
    3.1884   -3.3268    0.1723 H   0  0  0  0  0  0  0  0  0  0  0  0
    1.8800   -2.6262   -0.7800 H   0  0  0  0  0  0  0  0  0  0  0  0
    1.8223   -2.5737    1.0060 H   0  0  0  0  0  0  0  0  0  0  0  0
  1  2  1  0  0  0  0
  1 25  1  0  0  0  0
  1 26  1  0  0  0  0
  1 27  1  0  0  0  0
  2  3  1  0  0  0  0
  2 23  2  0  0  0  0
  3  4  2  0  0  0  0
  3 28  1  0  0  0  0
  4  5  1  0  0  0  0
  4 21  1  0  0  0  0
  5  6  2  0  0  0  0
  6  7  1  0  0  0  0
  6 13  1  0  0  0  0
  7  8  1  0  0  0  0
  7 12  2  0  0  0  0
  8  9  2  0  0  0  0
  8 29  1  0  0  0  0
  9 10  1  0  0  0  0
  9 30  1  0  0  0  0
 10 11  2  0  0  0  0
 10 31  1  0  0  0  0
 11 12  1  0  0  0  0
 11 32  1  0  0  0  0
 13 14  1  0  0  0  0
 13 20  2  0  0  0  0
 14 15  1  0  0  0  0
 14 19  2  0  0  0  0
 15 16  2  0  0  0  0
 15 33  1  0  0  0  0
 16 17  1  0  0  0  0
 16 34  1  0  0  0  0
 17 18  2  0  0  0  0
 17 35  1  0  0  0  0
 18 19  1  0  0  0  0
 18 36  1  0  0  0  0
 20 21  1  0  0  0  0
 21 22  2  0  0  0  0
 22 23  1  0  0  0  0
 22 37  1  0  0  0  0
 23 24  1  0  0  0  0
 24 38  1  0  0  0  0
 24 39  1  0  0  0  0
 24 40  1  0  0  0  0
M  END
>  <Energy>
165.695

$$$$

 OpenBabel04232616053D

 35 37  0  0  1  0  0  0  0  0999 V2000
    2.9903    1.3002   -0.1316 N   0  0  0  0  0  0  0  0  0  0  0  0
    2.4677    0.0545    0.0426 C   0  0  0  0  0  0  0  0  0  0  0  0
    1.3495   -0.2259   -0.3722 O   0  0  0  0  0  0  0  0  0  0  0  0
    3.3144   -0.8109    0.7104 N   0  0  0  0  0  0  0  0  0  0  0  0
    4.4946   -0.3903    1.2787 N   0  0  0  0  0  0  0  0  0  0  0  0
    4.9461   -1.3900    1.9782 C   0  0  0  0  0  0  0  0  0  0  0  0
    6.1834   -1.3132    2.7892 C   0  0  0  0  0  0  0  0  0  0  0  0
    6.8793   -0.0994    2.8518 C   0  0  0  0  0  0  0  0  0  0  0  0
    8.0378    0.0084    3.6223 C   0  0  0  0  0  0  0  0  0  0  0  0
    8.5067   -1.0950    4.3331 C   0  0  0  0  0  0  0  0  0  0  0  0
    7.8189   -2.3064    4.2746 C   0  0  0  0  0  0  0  0  0  0  0  0
    6.6582   -2.4185    3.5045 C   0  0  0  0  0  0  0  0  0  0  0  0
    4.1119   -2.6457    1.9276 C   0  0  0  0  0  0  0  0  0  0  0  0
    2.9708   -2.1915    1.0219 C   0  0  3  0  0  0  0  0  0  0  0  0
    2.8398   -3.0538   -0.2207 C   0  0  0  0  0  0  0  0  0  0  0  0
    1.6607   -3.7807   -0.4500 C   0  0  0  0  0  0  0  0  0  0  0  0
    1.5169   -4.5558   -1.6021 C   0  0  0  0  0  0  0  0  0  0  0  0
    2.5511   -4.6108   -2.5337 C   0  0  0  0  0  0  0  0  0  0  0  0
    2.3704   -5.5595   -3.9578 Cl  0  0  0  0  0  0  0  0  0  0  0  0
    3.7285   -3.8983   -2.3240 C   0  0  0  0  0  0  0  0  0  0  0  0
    3.8720   -3.1211   -1.1734 C   0  0  0  0  0  0  0  0  0  0  0  0
    2.5117    1.9101   -0.7757 H   0  0  0  0  0  0  0  0  0  0  0  0
    3.9956    1.3530   -0.0381 H   0  0  0  0  0  0  0  0  0  0  0  0
    6.5215    0.7726    2.3080 H   0  0  0  0  0  0  0  0  0  0  0  0
    8.5721    0.9541    3.6694 H   0  0  0  0  0  0  0  0  0  0  0  0
    9.4081   -1.0095    4.9354 H   0  0  0  0  0  0  0  0  0  0  0  0
    8.1863   -3.1643    4.8323 H   0  0  0  0  0  0  0  0  0  0  0  0
    6.1448   -3.3747    3.4830 H   0  0  0  0  0  0  0  0  0  0  0  0
    3.7511   -2.9025    2.9279 H   0  0  0  0  0  0  0  0  0  0  0  0
    4.6991   -3.4768    1.5244 H   0  0  0  0  0  0  0  0  0  0  0  0
    2.0236   -2.1819    1.5765 H   0  0  0  0  0  0  0  0  0  0  0  0
    0.8334   -3.7265    0.2564 H   0  0  0  0  0  0  0  0  0  0  0  0
    0.5922   -5.1006   -1.7732 H   0  0  0  0  0  0  0  0  0  0  0  0
    4.5314   -3.9314   -3.0545 H   0  0  0  0  0  0  0  0  0  0  0  0
    4.7873   -2.5489   -1.0327 H   0  0  0  0  0  0  0  0  0  0  0  0
  1  2  1  0  0  0  0
  1 22  1  0  0  0  0
  1 23  1  0  0  0  0
  2  3  2  0  0  0  0
  2  4  1  0  0  0  0
  4  5  1  0  0  0  0
  4 14  1  0  0  0  0
  5  6  2  0  0  0  0
  6  7  1  0  0  0  0
  6 13  1  0  0  0  0
  7  8  1  0  0  0  0
  7 12  2  0  0  0  0
  8  9  2  0  0  0  0
  8 24  1  0  0  0  0
  9 10  1  0  0  0  0
  9 25  1  0  0  0  0
 10 11  2  0  0  0  0
 10 26  1  0  0  0  0
 11 12  1  0  0  0  0
 11 27  1  0  0  0  0
 12 28  1  0  0  0  0
 13 14  1  0  0  0  0
 13 29  1  0  0  0  0
 13 30  1  0  0  0  0
 14 15  1  0  0  0  0
 14 31  1  0  0  0  0
 15 16  1  0  0  0  0
 15 21  2  0  0  0  0
 16 17  2  0  0  0  0
 16 32  1  0  0  0  0
 17 18  1  0  0  0  0
 17 33  1  0  0  0  0
 18 19  1  0  0  0  0
 18 20  2  0  0  0  0
 20 21  1  0  0  0  0
 20 34  1  0  0  0  0
 21 35  1  0  0  0  0
M  END
>  <Energy>
19.3518

$$$$

 OpenBabel04232616053D

 31 35  0  0  0  0  0  0  0  0999 V2000
    1.1821    0.1674   -0.0987 O   0  0  0  0  0  0  0  0  0  0  0  0
    2.4080    0.1329   -0.0668 C   0  0  0  0  0  0  0  0  0  0  0  0
    3.1460   -1.1656   -0.0744 C   0  0  0  0  0  0  0  0  0  0  0  0
    2.3475   -2.2705   -0.0808 N   0  0  0  0  0  0  0  0  0  0  0  0
    2.9405   -3.4721   -0.0756 C   0  0  0  0  0  0  0  0  0  0  0  0
    4.3064   -3.6254   -0.0586 C   0  0  0  0  0  0  0  0  0  0  0  0
    5.1086   -2.4795   -0.0522 C   0  0  0  0  0  0  0  0  0  0  0  0
    6.8126   -2.8085   -0.0091 Cl  0  0  0  0  0  0  0  0  0  0  0  0
    4.5441   -1.1866   -0.0667 C   0  0  0  0  0  0  0  0  0  0  0  0
    5.2723    0.0959   -0.0677 C   0  0  0  0  0  0  0  0  0  0  0  0
    6.6149    0.0465   -0.1347 N   0  0  0  0  0  0  0  0  0  0  0  0
    7.3404    1.1696   -0.1213 C   0  0  0  0  0  0  0  0  0  0  0  0
    8.7174    1.0386   -0.2226 C   0  0  0  0  0  0  0  0  0  0  0  0
    9.5646    2.1449   -0.2106 C   0  0  0  0  0  0  0  0  0  0  0  0
    9.0243    3.4133   -0.0727 C   0  0  0  0  0  0  0  0  0  0  0  0
    7.6402    3.5669    0.0244 C   0  0  0  0  0  0  0  0  0  0  0  0
    6.7650    2.4503   -0.0199 C   0  0  0  0  0  0  0  0  0  0  0  0
    5.3375    2.5196    0.0130 C   0  0  0  0  0  0  0  0  0  0  0  0
    4.5981    3.7235    0.0502 C   0  0  0  0  0  0  0  0  0  0  0  0
    3.2132    3.6853    0.0395 C   0  0  0  0  0  0  0  0  0  0  0  0
    2.5059    2.5452    0.0089 N   0  0  0  0  0  0  0  0  0  0  0  0
    3.2081    1.3848   -0.0170 C   0  0  0  0  0  0  0  0  0  0  0  0
    4.5999    1.3158   -0.0195 C   0  0  0  0  0  0  0  0  0  0  0  0
    2.2718   -4.3279   -0.0820 H   0  0  0  0  0  0  0  0  0  0  0  0
    4.7406   -4.6203   -0.0496 H   0  0  0  0  0  0  0  0  0  0  0  0
    9.1430    0.0420   -0.3225 H   0  0  0  0  0  0  0  0  0  0  0  0
   10.6383    2.0072   -0.3062 H   0  0  0  0  0  0  0  0  0  0  0  0
    9.6754    4.2836   -0.0476 H   0  0  0  0  0  0  0  0  0  0  0  0
    7.2557    4.5774    0.1329 H   0  0  0  0  0  0  0  0  0  0  0  0
    5.0806    4.6948    0.0687 H   0  0  0  0  0  0  0  0  0  0  0  0
    2.6240    4.5988    0.0475 H   0  0  0  0  0  0  0  0  0  0  0  0
  1  2  2  0  0  0  0
  2  3  1  0  0  0  0
  2 22  1  0  0  0  0
  3  4  1  0  0  0  0
  3  9  2  0  0  0  0
  4  5  2  0  0  0  0
  5  6  1  0  0  0  0
  5 24  1  0  0  0  0
  6  7  2  0  0  0  0
  6 25  1  0  0  0  0
  7  8  1  0  0  0  0
  7  9  1  0  0  0  0
  9 10  1  0  0  0  0
 10 11  1  0  0  0  0
 10 23  2  0  0  0  0
 11 12  2  0  0  0  0
 12 13  1  0  0  0  0
 12 17  1  0  0  0  0
 13 14  2  0  0  0  0
 13 26  1  0  0  0  0
 14 15  1  0  0  0  0
 14 27  1  0  0  0  0
 15 16  2  0  0  0  0
 15 28  1  0  0  0  0
 16 17  1  0  0  0  0
 16 29  1  0  0  0  0
 17 18  2  0  0  0  0
 18 19  1  0  0  0  0
 18 23  1  0  0  0  0
 19 20  2  0  0  0  0
 19 30  1  0  0  0  0
 20 21  1  0  0  0  0
 20 31  1  0  0  0  0
 21 22  2  0  0  0  0
 22 23  1  0  0  0  0
M  END
>  <Energy>
104.419

$$$$

 OpenBabel04232616053D

 35 38  0  0  0  0  0  0  0  0999 V2000
    2.4874    2.3187   -1.4783 O   0  0  0  0  0  0  0  0  0  0  0  0
    1.3709    1.8153   -1.4266 C   0  0  0  0  0  0  0  0  0  0  0  0
    0.6839    1.4583   -2.5525 N   0  0  0  0  0  0  0  0  0  0  0  0
   -0.5778    0.9188   -2.5964 C   0  0  0  0  0  0  0  0  0  0  0  0
   -1.1420    0.6579   -3.6524 O   0  0  0  0  0  0  0  0  0  0  0  0
   -1.2241    0.6724   -1.2936 C   0  0  0  0  0  0  0  0  0  0  0  0
   -2.4963    0.0987   -1.2188 C   0  0  0  0  0  0  0  0  0  0  0  0
   -3.0829   -0.1263    0.0293 C   0  0  0  0  0  0  0  0  0  0  0  0
   -4.6677   -0.9340    0.1382 S   0  0  0  0  0  0  0  0  0  0  0  0
   -5.8210    0.4298    0.1285 C   0  0  0  0  0  0  0  0  0  0  0  0
   -5.8627    1.3616   -0.9106 C   0  0  0  0  0  0  0  0  0  0  0  0
   -6.8227    2.3798   -0.9116 C   0  0  0  0  0  0  0  0  0  0  0  0
   -7.7718    2.4754    0.1177 C   0  0  0  0  0  0  0  0  0  0  0  0
   -8.7490    3.4854    0.1263 C   0  0  0  0  0  0  0  0  0  0  0  0
   -9.6973    3.5533    1.1486 C   0  0  0  0  0  0  0  0  0  0  0  0
   -9.6818    2.6128    2.1739 C   0  0  0  0  0  0  0  0  0  0  0  0
   -8.7148    1.6058    2.1814 C   0  0  0  0  0  0  0  0  0  0  0  0
   -7.7505    1.5251    1.1623 C   0  0  0  0  0  0  0  0  0  0  0  0
   -6.7726    0.5136    1.1532 C   0  0  0  0  0  0  0  0  0  0  0  0
   -2.3733    0.2055    1.1923 C   0  0  0  0  0  0  0  0  0  0  0  0
   -1.0976    0.7795    1.1130 C   0  0  0  0  0  0  0  0  0  0  0  0
   -0.5266    1.0142   -0.1357 C   0  0  0  0  0  0  0  0  0  0  0  0
    0.7462    1.5821   -0.2344 N   0  0  0  0  0  0  0  0  0  0  0  0
    1.1404    1.6314   -3.4351 H   0  0  0  0  0  0  0  0  0  0  0  0
   -3.0163   -0.1801   -2.1330 H   0  0  0  0  0  0  0  0  0  0  0  0
   -5.1680    1.3007   -1.7438 H   0  0  0  0  0  0  0  0  0  0  0  0
   -6.8335    3.0909   -1.7353 H   0  0  0  0  0  0  0  0  0  0  0  0
   -8.7814    4.2270   -0.6690 H   0  0  0  0  0  0  0  0  0  0  0  0
  -10.4493    4.3382    1.1411 H   0  0  0  0  0  0  0  0  0  0  0  0
  -10.4230    2.6605    2.9676 H   0  0  0  0  0  0  0  0  0  0  0  0
   -8.7229    0.8778    2.9896 H   0  0  0  0  0  0  0  0  0  0  0  0
   -6.7656   -0.2272    1.9505 H   0  0  0  0  0  0  0  0  0  0  0  0
   -2.8025    0.0040    2.1722 H   0  0  0  0  0  0  0  0  0  0  0  0
   -0.5644    1.0227    2.0283 H   0  0  0  0  0  0  0  0  0  0  0  0
    1.2648    1.8453    0.5936 H   0  0  0  0  0  0  0  0  0  0  0  0
  1  2  2  0  0  0  0
  2  3  1  0  0  0  0
  2 23  1  0  0  0  0
  3  4  1  0  0  0  0
  3 24  1  0  0  0  0
  4  5  2  0  0  0  0
  4  6  1  0  0  0  0
  6  7  1  0  0  0  0
  6 22  2  0  0  0  0
  7  8  2  0  0  0  0
  7 25  1  0  0  0  0
  8  9  1  0  0  0  0
  8 20  1  0  0  0  0
  9 10  1  0  0  0  0
 10 11  1  0  0  0  0
 10 19  2  0  0  0  0
 11 12  2  0  0  0  0
 11 26  1  0  0  0  0
 12 13  1  0  0  0  0
 12 27  1  0  0  0  0
 13 14  1  0  0  0  0
 13 18  2  0  0  0  0
 14 15  2  0  0  0  0
 14 28  1  0  0  0  0
 15 16  1  0  0  0  0
 15 29  1  0  0  0  0
 16 17  2  0  0  0  0
 16 30  1  0  0  0  0
 17 18  1  0  0  0  0
 17 31  1  0  0  0  0
 18 19  1  0  0  0  0
 19 32  1  0  0  0  0
 20 21  2  0  0  0  0
 20 33  1  0  0  0  0
 21 22  1  0  0  0  0
 21 34  1  0  0  0  0
 22 23  1  0  0  0  0
 23 35  1  0  0  0  0
M  END
>  <Energy>
-47.6785

$$$$

 OpenBabel04232616053D

 33 37  0  0  0  0  0  0  0  0999 V2000
    1.0319   -0.0358   -0.4640 O   0  0  0  0  0  0  0  0  0  0  0  0
    2.2465   -0.0269   -0.2959 C   0  0  0  0  0  0  0  0  0  0  0  0
    3.0167   -1.2763   -0.1433 C   0  0  0  0  0  0  0  0  0  0  0  0
    2.3446   -2.4867    0.0384 C   0  0  0  0  0  0  0  0  0  0  0  0
    3.0869   -3.6137    0.3574 C   0  0  0  0  0  0  0  0  0  0  0  0
    2.4498   -4.7603    0.6296 F   0  0  0  0  0  0  0  0  0  0  0  0
    4.4748   -3.5466    0.4422 C   0  0  0  0  0  0  0  0  0  0  0  0
    5.1765   -4.6342    0.7883 F   0  0  0  0  0  0  0  0  0  0  0  0
    5.1459   -2.3471    0.2134 C   0  0  0  0  0  0  0  0  0  0  0  0
    4.4194   -1.1868   -0.0563 C   0  0  0  0  0  0  0  0  0  0  0  0
    5.1115    0.0392   -0.1285 N   0  0  0  0  0  0  0  0  0  0  0  0
    4.3876    1.1084   -0.1464 C   0  0  0  0  0  0  0  0  0  0  0  0
    2.9989    1.1078   -0.1897 N   0  0  0  0  0  0  0  0  0  0  0  0
    2.4462    2.4406   -0.1214 C   0  0  0  0  0  0  0  0  0  0  0  0
    3.6644    3.2895   -0.0663 C   0  0  0  0  0  0  0  0  0  0  0  0
    3.8003    4.6554    0.0244 C   0  0  0  0  0  0  0  0  0  0  0  0
    5.1005    5.1802    0.0585 C   0  0  0  0  0  0  0  0  0  0  0  0
    5.3096    6.5663    0.1281 C   0  0  0  0  0  0  0  0  0  0  0  0
    6.6028    7.0817    0.1480 C   0  0  0  0  0  0  0  0  0  0  0  0
    7.6907    6.2161    0.1080 C   0  0  0  0  0  0  0  0  0  0  0  0
    7.4856    4.8338    0.0448 C   0  0  0  0  0  0  0  0  0  0  0  0
    6.2116    4.2851    0.0143 C   0  0  0  0  0  0  0  0  0  0  0  0
    6.0740    2.9479   -0.0588 N   0  0  0  0  0  0  0  0  0  0  0  0
    4.8084    2.5098   -0.1016 C   0  0  0  0  0  0  0  0  0  0  0  0
    1.2613   -2.5433   -0.0078 H   0  0  0  0  0  0  0  0  0  0  0  0
    6.2275   -2.3089    0.2992 H   0  0  0  0  0  0  0  0  0  0  0  0
    1.8459    2.5223    0.7904 H   0  0  0  0  0  0  0  0  0  0  0  0
    1.8294    2.6339   -1.0041 H   0  0  0  0  0  0  0  0  0  0  0  0
    2.9278    5.2998    0.0685 H   0  0  0  0  0  0  0  0  0  0  0  0
    4.4673    7.2541    0.1608 H   0  0  0  0  0  0  0  0  0  0  0  0
    6.7611    8.1565    0.1919 H   0  0  0  0  0  0  0  0  0  0  0  0
    8.7033    6.6117    0.1239 H   0  0  0  0  0  0  0  0  0  0  0  0
    8.3451    4.1674    0.0141 H   0  0  0  0  0  0  0  0  0  0  0  0
  1  2  2  0  0  0  0
  2  3  1  0  0  0  0
  2 13  1  0  0  0  0
  3  4  1  0  0  0  0
  3 10  2  0  0  0  0
  4  5  2  0  0  0  0
  4 25  1  0  0  0  0
  5  6  1  0  0  0  0
  5  7  1  0  0  0  0
  7  8  1  0  0  0  0
  7  9  2  0  0  0  0
  9 10  1  0  0  0  0
  9 26  1  0  0  0  0
 10 11  1  0  0  0  0
 11 12  2  0  0  0  0
 12 13  1  0  0  0  0
 12 24  1  0  0  0  0
 13 14  1  0  0  0  0
 14 15  1  0  0  0  0
 14 27  1  0  0  0  0
 14 28  1  0  0  0  0
 15 16  1  0  0  0  0
 15 24  2  0  0  0  0
 16 17  2  0  0  0  0
 16 29  1  0  0  0  0
 17 18  1  0  0  0  0
 17 22  1  0  0  0  0
 18 19  2  0  0  0  0
 18 30  1  0  0  0  0
 19 20  1  0  0  0  0
 19 31  1  0  0  0  0
 20 21  2  0  0  0  0
 20 32  1  0  0  0  0
 21 22  1  0  0  0  0
 21 33  1  0  0  0  0
 22 23  2  0  0  0  0
 23 24  1  0  0  0  0
M  END
>  <Energy>
42.4061

$$$$

 OpenBabel04232616053D

 33 36  0  0  0  0  0  0  0  0999 V2000
   -2.0674    0.0196   -0.1890 Cl  0  0  0  0  0  0  0  0  0  0  0  0
   -0.3491    0.0190   -0.1123 C   0  0  0  0  0  0  0  0  0  0  0  0
    0.3153   -1.0187    0.5387 C   0  0  0  0  0  0  0  0  0  0  0  0
    1.7123   -1.0232    0.5941 C   0  0  0  0  0  0  0  0  0  0  0  0
    2.4465    0.0111   -0.0019 C   0  0  0  0  0  0  0  0  0  0  0  0
    3.9069   -0.0075    0.0361 C   0  0  0  0  0  0  0  0  0  0  0  0
    4.6872    0.6065    1.1536 C   0  0  0  0  0  0  0  0  0  0  0  0
    5.9807    0.6061    1.2807 N   0  0  0  0  0  0  0  0  0  0  0  0
    6.6894   -0.0164    0.2828 C   0  0  0  0  0  0  0  0  0  0  0  0
    8.0438   -0.2351    0.0879 C   0  0  0  0  0  0  0  0  0  0  0  0
    9.1161    0.1661    0.9855 C   0  0  0  0  0  0  0  0  0  0  0  0
    8.9177    0.2646    2.3643 C   0  0  0  0  0  0  0  0  0  0  0  0
    9.9866    0.6217    3.1672 C   0  0  0  0  0  0  0  0  0  0  0  0
   11.2252    0.8831    2.6992 N   0  0  0  0  0  0  0  0  0  0  0  0
   11.3971    0.7856    1.3649 C   0  0  0  0  0  0  0  0  0  0  0  0
   10.3911    0.4333    0.4799 C   0  0  0  0  0  0  0  0  0  0  0  0
    8.1130   -0.9126   -1.1488 C   0  0  0  0  0  0  0  0  0  0  0  0
    6.9202   -1.1268   -1.7021 N   0  0  0  0  0  0  0  0  0  0  0  0
    6.0425   -0.5899   -0.8215 N   0  0  0  0  0  0  0  0  0  0  0  0
    4.6556   -0.5779   -0.9214 C   0  0  0  0  0  0  0  0  0  0  0  0
    1.7685    1.0506   -0.6506 C   0  0  0  0  0  0  0  0  0  0  0  0
    0.3715    1.0545   -0.7048 C   0  0  0  0  0  0  0  0  0  0  0  0
   -0.2468   -1.8270    0.9999 H   0  0  0  0  0  0  0  0  0  0  0  0
    2.2183   -1.8430    1.1008 H   0  0  0  0  0  0  0  0  0  0  0  0
    4.0853    1.1036    1.9338 H   0  0  0  0  0  0  0  0  0  0  0  0
    7.9545    0.0627    2.8195 H   0  0  0  0  0  0  0  0  0  0  0  0
    9.8697    0.7047    4.2442 H   0  0  0  0  0  0  0  0  0  0  0  0
   12.4006    1.0055    1.0113 H   0  0  0  0  0  0  0  0  0  0  0  0
   10.6115    0.3825   -0.5808 H   0  0  0  0  0  0  0  0  0  0  0  0
    8.9934   -1.2700   -1.6682 H   0  0  0  0  0  0  0  0  0  0  0  0
    4.2483   -1.0602   -1.8006 H   0  0  0  0  0  0  0  0  0  0  0  0
    2.3189    1.8625   -1.1222 H   0  0  0  0  0  0  0  0  0  0  0  0
   -0.1470    1.8636   -1.2130 H   0  0  0  0  0  0  0  0  0  0  0  0
  1  2  1  0  0  0  0
  2  3  1  0  0  0  0
  2 22  2  0  0  0  0
  3  4  2  0  0  0  0
  3 23  1  0  0  0  0
  4  5  1  0  0  0  0
  4 24  1  0  0  0  0
  5  6  1  0  0  0  0
  5 21  2  0  0  0  0
  6  7  1  0  0  0  0
  6 20  2  0  0  0  0
  7  8  2  0  0  0  0
  7 25  1  0  0  0  0
  8  9  1  0  0  0  0
  9 10  2  0  0  0  0
  9 19  1  0  0  0  0
 10 11  1  0  0  0  0
 10 17  1  0  0  0  0
 11 12  1  0  0  0  0
 11 16  2  0  0  0  0
 12 13  2  0  0  0  0
 12 26  1  0  0  0  0
 13 14  1  0  0  0  0
 13 27  1  0  0  0  0
 14 15  2  0  0  0  0
 15 16  1  0  0  0  0
 15 28  1  0  0  0  0
 16 29  1  0  0  0  0
 17 18  2  0  0  0  0
 17 30  1  0  0  0  0
 18 19  1  0  0  0  0
 19 20  1  0  0  0  0
 20 31  1  0  0  0  0
 21 22  1  0  0  0  0
 21 32  1  0  0  0  0
 22 33  1  0  0  0  0
M  END
>  <Energy>
78.6163

$$$$

 OpenBabel04232616053D

 21 22  0  0  0  0  0  0  0  0999 V2000
    0.9071   -0.1175    0.0887 O   0  0  0  0  0  0  0  0  0  0  0  0
    2.3424   -0.1767   -0.0767 S   0  0  0  0  0  0  0  0  0  0  0  0
    2.9862   -0.2276   -1.3697 O   0  0  0  0  0  0  0  0  0  0  0  0
    2.9649   -1.2821    0.9079 N   0  0  0  0  0  0  0  0  0  0  0  0
    3.8950   -0.9818    1.7391 C   0  0  0  0  0  0  0  0  0  0  0  0
    4.5162    0.2148    2.0494 N   0  0  0  0  0  0  0  0  0  0  0  0
    5.7245    0.1850    2.8889 C   0  0  0  0  0  0  0  0  0  0  0  0
    5.4011    0.2490    4.3768 C   0  0  0  0  0  0  0  0  0  0  0  0
    4.7328   -0.8817    4.7365 F   0  0  0  0  0  0  0  0  0  0  0  0
    3.9434    1.3614    1.5574 C   0  0  0  0  0  0  0  0  0  0  0  0
    4.2065    2.6862    1.8626 C   0  0  0  0  0  0  0  0  0  0  0  0
    5.3240    3.3882    2.9720 Cl  0  0  0  0  0  0  0  0  0  0  0  0
    3.2392    3.7930    1.0025 S   0  0  0  0  0  0  0  0  0  0  0  0
    2.4559    2.5362    0.1876 C   0  0  0  0  0  0  0  0  0  0  0  0
    1.2700    2.9458   -0.9875 Cl  0  0  0  0  0  0  0  0  0  0  0  0
    2.9013    1.3034    0.5815 C   0  0  0  0  0  0  0  0  0  0  0  0
    4.2988   -1.8191    2.3365 H   0  0  0  0  0  0  0  0  0  0  0  0
    6.4285    0.9685    2.5960 H   0  0  0  0  0  0  0  0  0  0  0  0
    6.2583   -0.7558    2.6988 H   0  0  0  0  0  0  0  0  0  0  0  0
    4.7746    1.1032    4.6418 H   0  0  0  0  0  0  0  0  0  0  0  0
    6.3228    0.2878    4.9650 H   0  0  0  0  0  0  0  0  0  0  0  0
  1  2  2  0  0  0  0
  2  3  2  0  0  0  0
  2  4  1  0  0  0  0
  2 16  1  0  0  0  0
  4  5  2  0  0  0  0
  5  6  1  0  0  0  0
  5 17  1  0  0  0  0
  6  7  1  0  0  0  0
  6 10  1  0  0  0  0
  7  8  1  0  0  0  0
  7 18  1  0  0  0  0
  7 19  1  0  0  0  0
  8  9  1  0  0  0  0
  8 20  1  0  0  0  0
  8 21  1  0  0  0  0
 10 11  2  0  0  0  0
 10 16  1  0  0  0  0
 11 12  1  0  0  0  0
 11 13  1  0  0  0  0
 13 14  1  0  0  0  0
 14 15  1  0  0  0  0
 14 16  2  0  0  0  0
M  END
>  <Energy>
-45.6584

$$$$

 OpenBabel04232616053D

 26 28  0  0  1  0  0  0  0  0999 V2000
    1.4454   -0.8221    0.3134 O   0  0  0  0  0  0  0  0  0  0  0  0
    2.5192   -0.3103    0.0535 C   0  0  0  0  0  0  0  0  0  0  0  0
    3.2233   -0.4642   -1.0896 N   0  0  0  0  0  0  0  0  0  0  0  0
    4.2738    0.4007   -1.1291 C   0  0  0  0  0  0  0  0  0  0  0  0
    5.0216    0.5402   -2.0863 O   0  0  0  0  0  0  0  0  0  0  0  0
    4.3243    1.1869    0.2060 C   0  0  3  0  0  0  0  0  0  0  0  0
    5.6389    0.8137    0.8993 C   0  0  0  0  0  0  0  0  0  0  0  0
    5.8337    1.5594    2.2035 C   0  0  0  0  0  0  0  0  0  0  0  0
    6.0754    3.3244    1.8944 S   0  0  0  0  0  0  0  0  0  0  0  0
    4.7639    3.6611    0.7328 C   0  0  0  0  0  0  0  0  0  0  0  0
    4.4514    5.0185    0.5422 C   0  0  0  0  0  0  0  0  0  0  0  0
    3.4368    5.4139   -0.3325 C   0  0  0  0  0  0  0  0  0  0  0  0
    3.1108    7.1025   -0.4849 Cl  0  0  0  0  0  0  0  0  0  0  0  0
    2.7215    4.4480   -1.0339 C   0  0  0  0  0  0  0  0  0  0  0  0
    1.4437    4.8426   -2.1265 Cl  0  0  0  0  0  0  0  0  0  0  0  0
    3.0300    3.0964   -0.8537 C   0  0  0  0  0  0  0  0  0  0  0  0
    4.0600    2.6749    0.0211 C   0  0  0  0  0  0  0  0  0  0  0  0
    3.1859    0.5709    0.8681 N   0  0  0  0  0  0  0  0  0  0  0  0
    2.9213   -1.0317   -1.8634 H   0  0  0  0  0  0  0  0  0  0  0  0
    6.4939    1.0023    0.2331 H   0  0  0  0  0  0  0  0  0  0  0  0
    5.6591   -0.2650    1.1070 H   0  0  0  0  0  0  0  0  0  0  0  0
    6.7250    1.1839    2.7179 H   0  0  0  0  0  0  0  0  0  0  0  0
    4.9838    1.4184    2.8800 H   0  0  0  0  0  0  0  0  0  0  0  0
    5.0021    5.7826    1.0895 H   0  0  0  0  0  0  0  0  0  0  0  0
    2.4452    2.3632   -1.4082 H   0  0  0  0  0  0  0  0  0  0  0  0
    2.7394    0.9169    1.7083 H   0  0  0  0  0  0  0  0  0  0  0  0
  1  2  2  0  0  0  0
  2  3  1  0  0  0  0
  2 18  1  0  0  0  0
  3  4  1  0  0  0  0
  3 19  1  0  0  0  0
  4  5  2  0  0  0  0
  4  6  1  0  0  0  0
  6  7  1  0  0  0  0
  6 17  1  0  0  0  0
  6 18  1  0  0  0  0
  7  8  1  0  0  0  0
  7 20  1  0  0  0  0
  7 21  1  0  0  0  0
  8  9  1  0  0  0  0
  8 22  1  0  0  0  0
  8 23  1  0  0  0  0
  9 10  1  0  0  0  0
 10 11  1  0  0  0  0
 10 17  2  0  0  0  0
 11 12  2  0  0  0  0
 11 24  1  0  0  0  0
 12 13  1  0  0  0  0
 12 14  1  0  0  0  0
 14 15  1  0  0  0  0
 14 16  2  0  0  0  0
 16 17  1  0  0  0  0
 16 25  1  0  0  0  0
 18 26  1  0  0  0  0
M  END
>  <Energy>
-50.2358

$$$$

 OpenBabel04232616053D

 35 38  0  0  0  0  0  0  0  0999 V2000
    4.0418   -5.9129   -5.2915 C   0  0  0  0  0  0  0  0  0  0  0  0
    4.4466   -4.5778   -5.5755 O   0  0  0  0  0  0  0  0  0  0  0  0
    5.4734   -4.4435   -6.4795 C   0  0  0  0  0  0  0  0  0  0  0  0
    5.7161   -5.3706   -7.5063 C   0  0  0  0  0  0  0  0  0  0  0  0
    6.7578   -5.1872   -8.4075 C   0  0  0  0  0  0  0  0  0  0  0  0
    7.5768   -4.0635   -8.3299 C   0  0  0  0  0  0  0  0  0  0  0  0
    7.3187   -3.1147   -7.3239 C   0  0  0  0  0  0  0  0  0  0  0  0
    6.2962   -3.2865   -6.3960 C   0  0  0  0  0  0  0  0  0  0  0  0
    6.3531   -2.1613   -5.5077 C   0  0  0  0  0  0  0  0  0  0  0  0
    5.5782   -1.8200   -4.3741 C   0  0  0  0  0  0  0  0  0  0  0  0
    5.8476   -0.6621   -3.6518 C   0  0  0  0  0  0  0  0  0  0  0  0
    6.8870    0.1721   -4.0469 C   0  0  0  0  0  0  0  0  0  0  0  0
    7.6930   -0.1296   -5.1640 C   0  0  0  0  0  0  0  0  0  0  0  0
    7.4077   -1.3136   -5.9058 C   0  0  0  0  0  0  0  0  0  0  0  0
    7.9348   -1.8996   -7.0567 N   0  0  0  0  0  0  0  0  0  0  0  0
    8.9512   -1.3687   -7.9375 C   0  0  0  0  0  0  0  0  0  0  0  0
    8.8062    0.8010   -5.4605 C   0  0  0  0  0  0  0  0  0  0  0  0
    9.8178    0.4780   -6.0697 O   0  0  0  0  0  0  0  0  0  0  0  0
    8.7014    2.1836   -4.9447 C   0  0  0  0  0  0  0  0  0  0  0  0
    7.9232    2.4657   -3.8987 C   0  0  0  0  0  0  0  0  0  0  0  0
    7.1086    1.4133   -3.2708 C   0  0  0  0  0  0  0  0  0  0  0  0
    6.6094    1.5967   -2.1679 O   0  0  0  0  0  0  0  0  0  0  0  0
    3.3396   -5.8794   -4.4532 H   0  0  0  0  0  0  0  0  0  0  0  0
    4.8949   -6.5319   -4.9923 H   0  0  0  0  0  0  0  0  0  0  0  0
    3.5113   -6.3569   -6.1399 H   0  0  0  0  0  0  0  0  0  0  0  0
    5.0907   -6.2484   -7.6327 H   0  0  0  0  0  0  0  0  0  0  0  0
    6.9302   -5.9234   -9.1901 H   0  0  0  0  0  0  0  0  0  0  0  0
    8.3846   -3.9346   -9.0437 H   0  0  0  0  0  0  0  0  0  0  0  0
    4.7621   -2.4685   -4.0625 H   0  0  0  0  0  0  0  0  0  0  0  0
    5.2384   -0.4185   -2.7831 H   0  0  0  0  0  0  0  0  0  0  0  0
    8.9113   -0.2827   -7.9581 H   0  0  0  0  0  0  0  0  0  0  0  0
    8.7454   -1.6923   -8.9623 H   0  0  0  0  0  0  0  0  0  0  0  0
    9.9197   -1.7569   -7.6138 H   0  0  0  0  0  0  0  0  0  0  0  0
    9.3390    2.9265   -5.4051 H   0  0  0  0  0  0  0  0  0  0  0  0
    7.8851    3.4512   -3.4510 H   0  0  0  0  0  0  0  0  0  0  0  0
  1  2  1  0  0  0  0
  1 23  1  0  0  0  0
  1 24  1  0  0  0  0
  1 25  1  0  0  0  0
  2  3  1  0  0  0  0
  3  4  1  0  0  0  0
  3  8  2  0  0  0  0
  4  5  2  0  0  0  0
  4 26  1  0  0  0  0
  5  6  1  0  0  0  0
  5 27  1  0  0  0  0
  6  7  2  0  0  0  0
  6 28  1  0  0  0  0
  7  8  1  0  0  0  0
  7 15  1  0  0  0  0
  8  9  1  0  0  0  0
  9 10  1  0  0  0  0
  9 14  2  0  0  0  0
 10 11  2  0  0  0  0
 10 29  1  0  0  0  0
 11 12  1  0  0  0  0
 11 30  1  0  0  0  0
 12 13  2  0  0  0  0
 12 21  1  0  0  0  0
 13 14  1  0  0  0  0
 13 17  1  0  0  0  0
 14 15  1  0  0  0  0
 15 16  1  0  0  0  0
 16 31  1  0  0  0  0
 16 32  1  0  0  0  0
 16 33  1  0  0  0  0
 17 18  2  0  0  0  0
 17 19  1  0  0  0  0
 19 20  2  0  0  0  0
 19 34  1  0  0  0  0
 20 21  1  0  0  0  0
 20 35  1  0  0  0  0
 21 22  2  0  0  0  0
M  END
>  <Energy>
72.2606

$$$$

 OpenBabel04232616053D

 21 22  0  0  1  0  0  0  0  0999 V2000
    1.1291   -0.0633    0.2224 C   0  0  0  0  0  0  0  0  0  0  0  0
    2.6393   -0.0060   -0.0042 C   0  0  3  0  0  0  0  0  0  0  0  0
    3.0007    0.0632   -1.4866 C   0  0  0  0  0  0  0  0  0  0  0  0
    2.6932   -0.8683   -2.4735 C   0  0  0  0  0  0  0  0  0  0  0  0
    3.2080   -0.5157   -3.7568 C   0  0  0  0  0  0  0  0  0  0  0  0
    3.8801    0.6745   -3.7064 C   0  0  0  0  0  0  0  0  0  0  0  0
    4.6594    1.4692   -5.0117 Cl  0  0  0  0  0  0  0  0  0  0  0  0
    3.9059    1.3654   -2.1675 S   0  0  0  0  0  0  0  0  0  0  0  0
    3.3185   -1.2695    0.5664 C   0  0  0  0  0  0  0  0  0  0  0  0
    2.9709   -2.4214    0.3200 O   0  0  0  0  0  0  0  0  0  0  0  0
    4.3650   -0.8769    1.3545 N   0  0  0  0  0  0  0  0  0  0  0  0
    5.3530   -1.9511    2.1798 Cl  0  0  0  0  0  0  0  0  0  0  0  0
    4.3327    0.4729    1.5845 C   0  0  0  0  0  0  0  0  0  0  0  0
    5.0273    1.0993    2.3731 O   0  0  0  0  0  0  0  0  0  0  0  0
    3.3105    0.9962    0.7940 N   0  0  0  0  0  0  0  0  0  0  0  0
    2.7600    2.5785    0.9892 Cl  0  0  0  0  0  0  0  0  0  0  0  0
    0.6767   -0.9321   -0.2702 H   0  0  0  0  0  0  0  0  0  0  0  0
    0.6307    0.8300   -0.1709 H   0  0  0  0  0  0  0  0  0  0  0  0
    0.8907   -0.1368    1.2894 H   0  0  0  0  0  0  0  0  0  0  0  0
    2.1355   -1.7798   -2.2820 H   0  0  0  0  0  0  0  0  0  0  0  0
    3.0913   -1.1084   -4.6554 H   0  0  0  0  0  0  0  0  0  0  0  0
  1  2  1  0  0  0  0
  1 17  1  0  0  0  0
  1 18  1  0  0  0  0
  1 19  1  0  0  0  0
  2  3  1  0  0  0  0
  2  9  1  0  0  0  0
  2 15  1  0  0  0  0
  3  4  2  0  0  0  0
  3  8  1  0  0  0  0
  4  5  1  0  0  0  0
  4 20  1  0  0  0  0
  5  6  2  0  0  0  0
  5 21  1  0  0  0  0
  6  7  1  0  0  0  0
  6  8  1  0  0  0  0
  9 10  2  0  0  0  0
  9 11  1  0  0  0  0
 11 12  1  0  0  0  0
 11 13  1  0  0  0  0
 13 14  2  0  0  0  0
 13 15  1  0  0  0  0
 15 16  1  0  0  0  0
M  END
>  <Energy>
17.4618

$$$$

 OpenBabel04232616053D

 44 46  0  0  1  0  0  0  0  0999 V2000
   11.2269   -7.0875  -14.5983 C   0  0  0  0  0  0  0  0  0  0  0  0
    9.9164   -7.8471  -14.6769 C   0  0  0  0  0  0  0  0  0  0  0  0
    9.0872   -7.4109  -13.5966 O   0  0  0  0  0  0  0  0  0  0  0  0
    9.2765   -8.0548  -12.4123 C   0  0  0  0  0  0  0  0  0  0  0  0
    9.9004   -9.0862  -12.2523 O   0  0  0  0  0  0  0  0  0  0  0  0
    8.6347   -7.2542  -11.3200 C   0  0  0  0  0  0  0  0  0  0  0  0
    8.0187   -6.0260  -11.5933 N   0  0  0  0  0  0  0  0  0  0  0  0
    7.7424   -5.5480  -10.4178 C   0  0  0  0  0  0  0  0  0  0  0  0
    7.3414   -4.1760  -10.0855 C   0  0  0  0  0  0  0  0  0  0  0  0
    6.9904   -4.0159   -8.8056 C   0  0  0  0  0  0  0  0  0  0  0  0
    6.8175   -5.0566   -7.8974 N   0  0  0  0  0  0  0  0  0  0  0  0
    7.5323   -6.2503   -8.1046 C   0  0  0  0  0  0  0  0  0  0  0  0
    7.9580   -7.0199   -6.8880 C   0  0  0  0  0  0  0  0  0  0  0  0
    7.9989   -6.5282   -9.3328 C   0  0  0  0  0  0  0  0  0  0  0  0
    8.7538   -7.5546  -10.0059 C   0  0  0  0  0  0  0  0  0  0  0  0
    9.6231   -8.5667   -9.3598 C   0  0  0  0  0  0  0  0  0  0  0  0
    5.3952   -4.9097   -7.4434 C   0  0  3  0  0  0  0  0  0  0  0  0
    5.1522   -5.1514   -5.9696 C   0  0  0  0  0  0  0  0  0  0  0  0
    5.1638   -3.4079   -7.7784 C   0  0  0  0  0  0  0  0  0  0  0  0
    3.8645   -3.0097   -8.4104 C   0  0  0  0  0  0  0  0  0  0  0  0
    6.3089   -2.8570   -8.2565 C   0  0  0  0  0  0  0  0  0  0  0  0
    7.2265   -2.1679   -7.2580 C   0  0  0  0  0  0  0  0  0  0  0  0
   11.8833   -7.3460  -15.4353 H   0  0  0  0  0  0  0  0  0  0  0  0
   11.7479   -7.3050  -13.6598 H   0  0  0  0  0  0  0  0  0  0  0  0
   11.0415   -6.0081  -14.6103 H   0  0  0  0  0  0  0  0  0  0  0  0
   10.0718   -8.9310  -14.6623 H   0  0  0  0  0  0  0  0  0  0  0  0
    9.3968   -7.6024  -15.6088 H   0  0  0  0  0  0  0  0  0  0  0  0
    7.2713   -3.4248  -10.8537 H   0  0  0  0  0  0  0  0  0  0  0  0
    7.4445   -6.6890   -5.9821 H   0  0  0  0  0  0  0  0  0  0  0  0
    9.0246   -6.8370   -6.7088 H   0  0  0  0  0  0  0  0  0  0  0  0
    7.7961   -8.0960   -6.9992 H   0  0  0  0  0  0  0  0  0  0  0  0
    9.9161   -8.2640   -8.3502 H   0  0  0  0  0  0  0  0  0  0  0  0
   10.5648   -8.6761   -9.9084 H   0  0  0  0  0  0  0  0  0  0  0  0
    9.1289   -9.5444   -9.3036 H   0  0  0  0  0  0  0  0  0  0  0  0
    4.7390   -5.5395   -8.0609 H   0  0  0  0  0  0  0  0  0  0  0  0
    5.8554   -4.5984   -5.3384 H   0  0  0  0  0  0  0  0  0  0  0  0
    5.2355   -6.2134   -5.7241 H   0  0  0  0  0  0  0  0  0  0  0  0
    4.1386   -4.8348   -5.6937 H   0  0  0  0  0  0  0  0  0  0  0  0
    3.8199   -3.3606   -9.4496 H   0  0  0  0  0  0  0  0  0  0  0  0
    3.7537   -1.9197   -8.4164 H   0  0  0  0  0  0  0  0  0  0  0  0
    3.0176   -3.4336   -7.8667 H   0  0  0  0  0  0  0  0  0  0  0  0
    6.8321   -1.1898   -6.9712 H   0  0  0  0  0  0  0  0  0  0  0  0
    8.2333   -2.0274   -7.6682 H   0  0  0  0  0  0  0  0  0  0  0  0
    7.3380   -2.7657   -6.3401 H   0  0  0  0  0  0  0  0  0  0  0  0
  1  2  1  0  0  0  0
  1 23  1  0  0  0  0
  1 24  1  0  0  0  0
  1 25  1  0  0  0  0
  2  3  1  0  0  0  0
  2 26  1  0  0  0  0
  2 27  1  0  0  0  0
  3  4  1  0  0  0  0
  4  5  2  0  0  0  0
  4  6  1  0  0  0  0
  6  7  1  0  0  0  0
  6 15  2  0  0  0  0
  7  8  2  0  0  0  0
  8  9  1  0  0  0  0
  8 14  1  0  0  0  0
  9 10  2  0  0  0  0
  9 28  1  0  0  0  0
 10 11  1  0  0  0  0
 10 21  1  0  0  0  0
 11 12  1  0  0  0  0
 11 17  1  0  0  0  0
 12 13  1  0  0  0  0
 12 14  2  0  0  0  0
 13 29  1  0  0  0  0
 13 30  1  0  0  0  0
 13 31  1  0  0  0  0
 14 15  1  0  0  0  0
 15 16  1  0  0  0  0
 16 32  1  0  0  0  0
 16 33  1  0  0  0  0
 16 34  1  0  0  0  0
 17 18  1  0  0  0  0
 17 19  1  0  0  0  0
 17 35  1  0  0  0  0
 18 36  1  0  0  0  0
 18 37  1  0  0  0  0
 18 38  1  0  0  0  0
 19 20  1  0  0  0  0
 19 21  2  3  0  0  0
 20 39  1  0  0  0  0
 20 40  1  0  0  0  0
 20 41  1  0  0  0  0
 21 22  1  0  0  0  0
 22 42  1  0  0  0  0
 22 43  1  0  0  0  0
 22 44  1  0  0  0  0
M  END
>  <Energy>
154.522

$$$$

 OpenBabel04232616053D

 31 34  0  0  0  0  0  0  0  0999 V2000
    1.1509   -0.4892   -0.3470 Cl  0  0  0  0  0  0  0  0  0  0  0  0
    2.8680   -0.3858   -0.1792 C   0  0  0  0  0  0  0  0  0  0  0  0
    3.6526   -1.1216   -1.0644 C   0  0  0  0  0  0  0  0  0  0  0  0
    5.0408   -1.0835   -0.9666 C   0  0  0  0  0  0  0  0  0  0  0  0
    5.6480   -0.3195    0.0299 C   0  0  0  0  0  0  0  0  0  0  0  0
    4.8794    0.4404    0.9237 C   0  0  0  0  0  0  0  0  0  0  0  0
    3.4679    0.4244    0.7996 C   0  0  0  0  0  0  0  0  0  0  0  0
    2.6411    1.3157    1.7011 C   0  0  0  0  0  0  0  0  0  0  0  0
    3.4771    2.3718    2.3080 N   0  0  0  0  0  0  0  0  0  0  0  0
    4.6387    1.7460    2.9298 C   0  0  0  0  0  0  0  0  0  0  0  0
    5.5355    1.2683    1.8837 N   0  0  0  0  0  0  0  0  0  0  0  0
    6.1704    2.4376    1.2380 C   0  0  0  0  0  0  0  0  0  0  0  0
    5.1303    3.4458    0.8013 C   0  0  0  0  0  0  0  0  0  0  0  0
    5.4183    4.4248   -0.1614 C   0  0  0  0  0  0  0  0  0  0  0  0
    7.0016    4.6071   -0.8300 Cl  0  0  0  0  0  0  0  0  0  0  0  0
    4.4168    5.2795   -0.6242 C   0  0  0  0  0  0  0  0  0  0  0  0
    3.1261    5.1857   -0.1104 C   0  0  0  0  0  0  0  0  0  0  0  0
    2.8387    4.2486    0.8815 C   0  0  0  0  0  0  0  0  0  0  0  0
    3.8264    3.3705    1.3506 C   0  0  0  0  0  0  0  0  0  0  0  0
    3.1870   -1.7234   -1.8418 H   0  0  0  0  0  0  0  0  0  0  0  0
    5.6531   -1.6439   -1.6682 H   0  0  0  0  0  0  0  0  0  0  0  0
    6.7337   -0.3048    0.1026 H   0  0  0  0  0  0  0  0  0  0  0  0
    2.2136    0.6993    2.5022 H   0  0  0  0  0  0  0  0  0  0  0  0
    1.7969    1.7629    1.1637 H   0  0  0  0  0  0  0  0  0  0  0  0
    4.3379    0.9145    3.5827 H   0  0  0  0  0  0  0  0  0  0  0  0
    5.1489    2.4595    3.5913 H   0  0  0  0  0  0  0  0  0  0  0  0
    6.7978    2.1130    0.4000 H   0  0  0  0  0  0  0  0  0  0  0  0
    6.8395    2.9194    1.9646 H   0  0  0  0  0  0  0  0  0  0  0  0
    4.6348    6.0148   -1.3944 H   0  0  0  0  0  0  0  0  0  0  0  0
    2.3421    5.8396   -0.4830 H   0  0  0  0  0  0  0  0  0  0  0  0
    1.8299    4.1918    1.2829 H   0  0  0  0  0  0  0  0  0  0  0  0
  1  2  1  0  0  0  0
  2  3  1  0  0  0  0
  2  7  2  0  0  0  0
  3  4  2  0  0  0  0
  3 20  1  0  0  0  0
  4  5  1  0  0  0  0
  4 21  1  0  0  0  0
  5  6  2  0  0  0  0
  5 22  1  0  0  0  0
  6  7  1  0  0  0  0
  6 11  1  0  0  0  0
  7  8  1  0  0  0  0
  8  9  1  0  0  0  0
  8 23  1  0  0  0  0
  8 24  1  0  0  0  0
  9 10  1  0  0  0  0
  9 19  1  0  0  0  0
 10 11  1  0  0  0  0
 10 25  1  0  0  0  0
 10 26  1  0  0  0  0
 11 12  1  0  0  0  0
 12 13  1  0  0  0  0
 12 27  1  0  0  0  0
 12 28  1  0  0  0  0
 13 14  1  0  0  0  0
 13 19  2  0  0  0  0
 14 15  1  0  0  0  0
 14 16  2  0  0  0  0
 16 17  1  0  0  0  0
 16 29  1  0  0  0  0
 17 18  2  0  0  0  0
 17 30  1  0  0  0  0
 18 19  1  0  0  0  0
 18 31  1  0  0  0  0
M  END
>  <Energy>
-28.1169

$$$$

 OpenBabel04232616053D

 35 39  0  0  0  0  0  0  0  0999 V2000
    0.2453   -1.2012   -0.3852 C   0  0  0  0  0  0  0  0  0  0  0  0
    0.0541    0.1727   -0.3046 C   0  0  0  0  0  0  0  0  0  0  0  0
   -1.2285    0.7026   -0.4633 C   0  0  0  0  0  0  0  0  0  0  0  0
   -2.3326   -0.1325   -0.7097 C   0  0  0  0  0  0  0  0  0  0  0  0
   -3.6639    0.4696   -0.7423 C   0  0  0  0  0  0  0  0  0  0  0  0
   -4.0249    1.6236   -0.2123 N   0  0  0  0  0  0  0  0  0  0  0  0
   -5.3771    1.6544   -0.3826 C   0  0  0  0  0  0  0  0  0  0  0  0
   -6.3107    2.5963    0.0574 C   0  0  0  0  0  0  0  0  0  0  0  0
   -7.6599    2.3662   -0.2216 C   0  0  0  0  0  0  0  0  0  0  0  0
   -8.0858    1.2305   -0.9360 C   0  0  0  0  0  0  0  0  0  0  0  0
   -9.4518    0.9961   -1.1542 C   0  0  0  0  0  0  0  0  0  0  0  0
   -9.8725   -0.1274   -1.8755 C   0  0  0  0  0  0  0  0  0  0  0  0
   -8.9334   -1.0271   -2.3888 C   0  0  0  0  0  0  0  0  0  0  0  0
   -7.5694   -0.8360   -2.1546 C   0  0  0  0  0  0  0  0  0  0  0  0
   -7.1455    0.2857   -1.4189 C   0  0  0  0  0  0  0  0  0  0  0  0
   -5.7987    0.5368   -1.0862 C   0  0  0  0  0  0  0  0  0  0  0  0
   -4.6872   -0.2391   -1.3228 O   0  0  0  0  0  0  0  0  0  0  0  0
  -10.4311    1.9425   -0.5147 C   0  0  0  0  0  0  0  0  0  0  0  0
   -9.7891    3.3245   -0.4201 C   0  0  0  0  0  0  0  0  0  0  0  0
   -8.5391    3.3013    0.2806 O   0  0  0  0  0  0  0  0  0  0  0  0
   -2.1212   -1.5113   -0.8143 C   0  0  0  0  0  0  0  0  0  0  0  0
   -0.8375   -2.0442   -0.6452 C   0  0  0  0  0  0  0  0  0  0  0  0
    1.2392   -1.6203   -0.2379 H   0  0  0  0  0  0  0  0  0  0  0  0
    0.8900    0.8346   -0.0975 H   0  0  0  0  0  0  0  0  0  0  0  0
   -1.3712    1.7779   -0.3706 H   0  0  0  0  0  0  0  0  0  0  0  0
   -5.9931    3.4677    0.6175 H   0  0  0  0  0  0  0  0  0  0  0  0
  -10.9324   -0.3103   -2.0378 H   0  0  0  0  0  0  0  0  0  0  0  0
   -9.2703   -1.8904   -2.9582 H   0  0  0  0  0  0  0  0  0  0  0  0
   -6.8481   -1.5524   -2.5401 H   0  0  0  0  0  0  0  0  0  0  0  0
  -10.6626    1.5663    0.4890 H   0  0  0  0  0  0  0  0  0  0  0  0
  -11.3603    2.0030   -1.0909 H   0  0  0  0  0  0  0  0  0  0  0  0
  -10.4545    3.9992    0.1292 H   0  0  0  0  0  0  0  0  0  0  0  0
   -9.6299    3.7642   -1.4132 H   0  0  0  0  0  0  0  0  0  0  0  0
   -2.9554   -2.1873   -0.9873 H   0  0  0  0  0  0  0  0  0  0  0  0
   -0.6843   -3.1189   -0.6972 H   0  0  0  0  0  0  0  0  0  0  0  0
  1  2  1  0  0  0  0
  1 22  2  0  0  0  0
  1 23  1  0  0  0  0
  2  3  2  0  0  0  0
  2 24  1  0  0  0  0
  3  4  1  0  0  0  0
  3 25  1  0  0  0  0
  4  5  1  0  0  0  0
  4 21  2  0  0  0  0
  5  6  2  0  0  0  0
  5 17  1  0  0  0  0
  6  7  1  0  0  0  0
  7  8  1  0  0  0  0
  7 16  2  0  0  0  0
  8  9  2  0  0  0  0
  8 26  1  0  0  0  0
  9 10  1  0  0  0  0
  9 20  1  0  0  0  0
 10 11  1  0  0  0  0
 10 15  2  0  0  0  0
 11 12  2  0  0  0  0
 11 18  1  0  0  0  0
 12 13  1  0  0  0  0
 12 27  1  0  0  0  0
 13 14  2  0  0  0  0
 13 28  1  0  0  0  0
 14 15  1  0  0  0  0
 14 29  1  0  0  0  0
 15 16  1  0  0  0  0
 16 17  1  0  0  0  0
 18 19  1  0  0  0  0
 18 30  1  0  0  0  0
 18 31  1  0  0  0  0
 19 20  1  0  0  0  0
 19 32  1  0  0  0  0
 19 33  1  0  0  0  0
 21 22  1  0  0  0  0
 21 34  1  0  0  0  0
 22 35  1  0  0  0  0
M  END
>  <Energy>
75.4972

$$$$

 OpenBabel04232616053D

 36 38  0  0  0  0  0  0  0  0999 V2000
    0.8095    0.2241    0.6688 C   0  0  0  0  0  0  0  0  0  0  0  0
    2.6342   -0.0614    0.2535 Si  0  0  0  0  0  0  0  0  0  0  0  0
    3.5761   -0.5161    1.8177 C   0  0  0  0  0  0  0  0  0  0  0  0
    2.6406   -1.5287   -0.9108 C   0  0  0  0  0  0  0  0  0  0  0  0
    3.4066    1.5880   -0.4424 C   0  0  0  0  0  0  0  0  0  0  0  0
    2.8302    2.7977    0.0000 C   0  0  0  0  0  0  0  0  0  0  0  0
    3.3393    4.0350   -0.4050 C   0  0  0  0  0  0  0  0  0  0  0  0
    4.4399    4.0889   -1.2572 C   0  0  0  0  0  0  0  0  0  0  0  0
    5.0467    2.9148   -1.7170 C   0  0  0  0  0  0  0  0  0  0  0  0
    4.5309    1.6787   -1.3122 C   0  0  0  0  0  0  0  0  0  0  0  0
    5.3487    0.2574   -1.9318 S   0  0  0  0  0  0  0  0  0  0  0  0
    4.4643   -0.3514   -2.9030 O   0  0  0  0  0  0  0  0  0  0  0  0
    5.8785   -0.4710   -0.7946 O   0  0  0  0  0  0  0  0  0  0  0  0
    6.7198    0.7936   -2.8416 C   0  0  0  0  0  0  0  0  0  0  0  0
    7.5694   -0.1709   -3.3959 C   0  0  0  0  0  0  0  0  0  0  0  0
    8.6177    0.2334   -4.2075 C   0  0  0  0  0  0  0  0  0  0  0  0
    8.8078    1.5931   -4.4529 C   0  0  0  0  0  0  0  0  0  0  0  0
    7.9548    2.5420   -3.8732 C   0  0  0  0  0  0  0  0  0  0  0  0
    6.8946    2.1451   -3.0530 C   0  0  0  0  0  0  0  0  0  0  0  0
    6.1140    3.1473   -2.5517 O   0  0  0  0  0  0  0  0  0  0  0  0
    0.3510   -0.7194    0.9813 H   0  0  0  0  0  0  0  0  0  0  0  0
    0.2746    0.5853   -0.2149 H   0  0  0  0  0  0  0  0  0  0  0  0
    0.6901    0.9481    1.4781 H   0  0  0  0  0  0  0  0  0  0  0  0
    3.2389   -1.4853    2.1967 H   0  0  0  0  0  0  0  0  0  0  0  0
    3.4227    0.2339    2.5983 H   0  0  0  0  0  0  0  0  0  0  0  0
    4.6492   -0.5869    1.6186 H   0  0  0  0  0  0  0  0  0  0  0  0
    2.0358   -2.3388   -0.4910 H   0  0  0  0  0  0  0  0  0  0  0  0
    3.6427   -1.9367   -1.0582 H   0  0  0  0  0  0  0  0  0  0  0  0
    2.2097   -1.2650   -1.8808 H   0  0  0  0  0  0  0  0  0  0  0  0
    1.9767    2.8077    0.6778 H   0  0  0  0  0  0  0  0  0  0  0  0
    2.8791    4.9545   -0.0509 H   0  0  0  0  0  0  0  0  0  0  0  0
    4.8275    5.0586   -1.5620 H   0  0  0  0  0  0  0  0  0  0  0  0
    7.3933   -1.2290   -3.2058 H   0  0  0  0  0  0  0  0  0  0  0  0
    9.2737   -0.5075   -4.6580 H   0  0  0  0  0  0  0  0  0  0  0  0
    9.6176    1.9138   -5.1029 H   0  0  0  0  0  0  0  0  0  0  0  0
    8.1173    3.5982   -4.0784 H   0  0  0  0  0  0  0  0  0  0  0  0
  1  2  1  0  0  0  0
  1 21  1  0  0  0  0
  1 22  1  0  0  0  0
  1 23  1  0  0  0  0
  2  3  1  0  0  0  0
  2  4  1  0  0  0  0
  2  5  1  0  0  0  0
  3 24  1  0  0  0  0
  3 25  1  0  0  0  0
  3 26  1  0  0  0  0
  4 27  1  0  0  0  0
  4 28  1  0  0  0  0
  4 29  1  0  0  0  0
  5  6  1  0  0  0  0
  5 10  2  0  0  0  0
  6  7  2  0  0  0  0
  6 30  1  0  0  0  0
  7  8  1  0  0  0  0
  7 31  1  0  0  0  0
  8  9  2  0  0  0  0
  8 32  1  0  0  0  0
  9 10  1  0  0  0  0
  9 20  1  0  0  0  0
 10 11  1  0  0  0  0
 11 12  2  0  0  0  0
 11 13  2  0  0  0  0
 11 14  1  0  0  0  0
 14 15  1  0  0  0  0
 14 19  2  0  0  0  0
 15 16  2  0  0  0  0
 15 33  1  0  0  0  0
 16 17  1  0  0  0  0
 16 34  1  0  0  0  0
 17 18  2  0  0  0  0
 17 35  1  0  0  0  0
 18 19  1  0  0  0  0
 18 36  1  0  0  0  0
 19 20  1  0  0  0  0
M  END
>  <Energy>
70.7052

$$$$

 OpenBabel04232616053D

 35 39  0  0  0  0  0  0  0  0999 V2000
    1.0415    0.9591    0.0402 O   0  0  0  0  0  0  0  0  0  0  0  0
    2.2548    0.7848    0.0616 C   0  0  0  0  0  0  0  0  0  0  0  0
    2.7954   -0.5884    0.0692 C   0  0  0  0  0  0  0  0  0  0  0  0
    1.9392   -1.6931    0.0496 C   0  0  0  0  0  0  0  0  0  0  0  0
    2.4819   -2.9729    0.0567 C   0  0  0  0  0  0  0  0  0  0  0  0
    3.8600   -3.0964    0.0824 C   0  0  0  0  0  0  0  0  0  0  0  0
    4.7083   -2.0434    0.1010 N   0  0  0  0  0  0  0  0  0  0  0  0
    4.1734   -0.7912    0.0953 C   0  0  0  0  0  0  0  0  0  0  0  0
    5.0946    0.3612    0.1203 C   0  0  0  0  0  0  0  0  0  0  0  0
    6.4272    0.1064    0.1496 N   0  0  0  0  0  0  0  0  0  0  0  0
    7.2661    1.1569    0.1800 C   0  0  0  0  0  0  0  0  0  0  0  0
    6.8454    2.4760    0.1814 C   0  0  0  0  0  0  0  0  0  0  0  0
    5.4683    2.7668    0.1404 C   0  0  0  0  0  0  0  0  0  0  0  0
    4.9235    4.0829    0.1218 C   0  0  0  0  0  0  0  0  0  0  0  0
    3.5305    4.2252    0.0999 C   0  0  0  0  0  0  0  0  0  0  0  0
    2.6866    3.1682    0.0744 N   0  0  0  0  0  0  0  0  0  0  0  0
    3.2229    1.9257    0.0838 C   0  0  0  0  0  0  0  0  0  0  0  0
    4.5883    1.6674    0.1139 C   0  0  0  0  0  0  0  0  0  0  0  0
    2.8571    5.5703    0.0306 C   0  0  0  0  0  0  0  0  0  0  0  0
    3.7503    6.7613    0.3550 C   0  0  0  0  0  0  0  0  0  0  0  0
    5.1446    6.6086   -0.2296 C   0  0  0  0  0  0  0  0  0  0  0  0
    5.8109    5.3032    0.1982 C   0  0  0  0  0  0  0  0  0  0  0  0
    0.8599   -1.5570    0.0319 H   0  0  0  0  0  0  0  0  0  0  0  0
    1.8474   -3.8486    0.0424 H   0  0  0  0  0  0  0  0  0  0  0  0
    4.3368   -4.0709    0.0897 H   0  0  0  0  0  0  0  0  0  0  0  0
    8.3225    0.9037    0.2020 H   0  0  0  0  0  0  0  0  0  0  0  0
    7.5986    3.2553    0.2089 H   0  0  0  0  0  0  0  0  0  0  0  0
    2.0029    5.5769    0.7195 H   0  0  0  0  0  0  0  0  0  0  0  0
    2.4509    5.6858   -0.9822 H   0  0  0  0  0  0  0  0  0  0  0  0
    3.8211    6.8863    1.4417 H   0  0  0  0  0  0  0  0  0  0  0  0
    3.2861    7.6752   -0.0365 H   0  0  0  0  0  0  0  0  0  0  0  0
    5.0906    6.6535   -1.3235 H   0  0  0  0  0  0  0  0  0  0  0  0
    5.7704    7.4518    0.0901 H   0  0  0  0  0  0  0  0  0  0  0  0
    6.1642    5.3973    1.2329 H   0  0  0  0  0  0  0  0  0  0  0  0
    6.6898    5.1706   -0.4427 H   0  0  0  0  0  0  0  0  0  0  0  0
  1  2  2  0  0  0  0
  2  3  1  0  0  0  0
  2 17  1  0  0  0  0
  3  4  1  0  0  0  0
  3  8  2  0  0  0  0
  4  5  2  0  0  0  0
  4 23  1  0  0  0  0
  5  6  1  0  0  0  0
  5 24  1  0  0  0  0
  6  7  2  0  0  0  0
  6 25  1  0  0  0  0
  7  8  1  0  0  0  0
  8  9  1  0  0  0  0
  9 10  1  0  0  0  0
  9 18  2  0  0  0  0
 10 11  2  0  0  0  0
 11 12  1  0  0  0  0
 11 26  1  0  0  0  0
 12 13  2  0  0  0  0
 12 27  1  0  0  0  0
 13 14  1  0  0  0  0
 13 18  1  0  0  0  0
 14 15  2  0  0  0  0
 14 22  1  0  0  0  0
 15 16  1  0  0  0  0
 15 19  1  0  0  0  0
 16 17  2  0  0  0  0
 17 18  1  0  0  0  0
 19 20  1  0  0  0  0
 19 28  1  0  0  0  0
 19 29  1  0  0  0  0
 20 21  1  0  0  0  0
 20 30  1  0  0  0  0
 20 31  1  0  0  0  0
 21 22  1  0  0  0  0
 21 32  1  0  0  0  0
 21 33  1  0  0  0  0
 22 34  1  0  0  0  0
 22 35  1  0  0  0  0
M  END
>  <Energy>
108.481

$$$$

 OpenBabel04232616053D

 39 41  0  0  1  0  0  0  0  0999 V2000
    4.4115   -0.7564   -0.6940 C   0  0  0  0  0  0  0  0  0  0  0  0
    2.9932   -0.4133   -0.2749 C   0  0  0  0  0  0  0  0  0  0  0  0
    2.8866    0.9308    0.4002 C   0  0  0  0  0  0  0  0  0  0  0  0
    2.7172    2.0976   -0.3557 C   0  0  0  0  0  0  0  0  0  0  0  0
    2.4784    3.3254    0.2703 C   0  0  0  0  0  0  0  0  0  0  0  0
    2.4313    3.4144    1.6693 C   0  0  0  0  0  0  0  0  0  0  0  0
    1.9503    4.6806    2.3892 C   0  0  3  0  0  0  0  0  0  0  0  0
    0.4279    4.7628    2.4035 C   0  0  0  0  0  0  0  0  0  0  0  0
   -0.3298    3.5651    2.5607 C   0  0  0  0  0  0  0  0  0  0  0  0
   -0.9754    2.6117    2.7155 N   0  0  0  0  0  0  0  0  0  0  0  0
   -0.2172    5.9431    2.2886 C   0  0  0  0  0  0  0  0  0  0  0  0
   -1.5839    6.1130    2.3087 N   0  0  0  0  0  0  0  0  0  0  0  0
    0.4615    7.1432    2.1658 O   0  0  0  0  0  0  0  0  0  0  0  0
    1.8001    7.1355    1.8655 C   0  0  0  0  0  0  0  0  0  0  0  0
    2.3431    8.3672    1.4887 C   0  0  0  0  0  0  0  0  0  0  0  0
    3.6941    8.4803    1.1702 C   0  0  0  0  0  0  0  0  0  0  0  0
    4.1932    9.6754    0.6416 N   0  0  0  0  0  0  0  0  0  0  0  0
    4.4727    7.3215    1.1655 C   0  0  0  0  0  0  0  0  0  0  0  0
    3.9375    6.0899    1.5713 C   0  0  0  0  0  0  0  0  0  0  0  0
    2.5827    5.9795    1.9138 C   0  0  0  0  0  0  0  0  0  0  0  0
    2.6851    2.2533    2.4227 C   0  0  0  0  0  0  0  0  0  0  0  0
    2.9048    1.0253    1.7949 C   0  0  0  0  0  0  0  0  0  0  0  0
    4.4297   -1.7354   -1.1841 H   0  0  0  0  0  0  0  0  0  0  0  0
    5.0814   -0.7978    0.1706 H   0  0  0  0  0  0  0  0  0  0  0  0
    4.8092   -0.0175   -1.3978 H   0  0  0  0  0  0  0  0  0  0  0  0
    2.6115   -1.1930    0.3968 H   0  0  0  0  0  0  0  0  0  0  0  0
    2.3333   -0.4294   -1.1513 H   0  0  0  0  0  0  0  0  0  0  0  0
    2.7199    2.0489   -1.4425 H   0  0  0  0  0  0  0  0  0  0  0  0
    2.2883    4.2007   -0.3482 H   0  0  0  0  0  0  0  0  0  0  0  0
    2.2639    4.5910    3.4411 H   0  0  0  0  0  0  0  0  0  0  0  0
   -2.1239    5.3628    2.7324 H   0  0  0  0  0  0  0  0  0  0  0  0
   -1.8516    7.0395    2.6303 H   0  0  0  0  0  0  0  0  0  0  0  0
    1.6934    9.2367    1.4358 H   0  0  0  0  0  0  0  0  0  0  0  0
    3.7000   10.5053    0.9553 H   0  0  0  0  0  0  0  0  0  0  0  0
    5.2004    9.7743    0.7142 H   0  0  0  0  0  0  0  0  0  0  0  0
    5.5109    7.3653    0.8465 H   0  0  0  0  0  0  0  0  0  0  0  0
    4.5889    5.2187    1.5865 H   0  0  0  0  0  0  0  0  0  0  0  0
    2.6446    2.2781    3.5105 H   0  0  0  0  0  0  0  0  0  0  0  0
    3.0372    0.1340    2.4045 H   0  0  0  0  0  0  0  0  0  0  0  0
  1  2  1  0  0  0  0
  1 23  1  0  0  0  0
  1 24  1  0  0  0  0
  1 25  1  0  0  0  0
  2  3  1  0  0  0  0
  2 26  1  0  0  0  0
  2 27  1  0  0  0  0
  3  4  1  0  0  0  0
  3 22  2  0  0  0  0
  4  5  2  0  0  0  0
  4 28  1  0  0  0  0
  5  6  1  0  0  0  0
  5 29  1  0  0  0  0
  6  7  1  0  0  0  0
  6 21  2  0  0  0  0
  7  8  1  0  0  0  0
  7 20  1  0  0  0  0
  7 30  1  0  0  0  0
  8  9  1  0  0  0  0
  8 11  2  0  0  0  0
  9 10  3  0  0  0  0
 11 12  1  0  0  0  0
 11 13  1  0  0  0  0
 12 31  1  0  0  0  0
 12 32  1  0  0  0  0
 13 14  1  0  0  0  0
 14 15  1  0  0  0  0
 14 20  2  0  0  0  0
 15 16  2  0  0  0  0
 15 33  1  0  0  0  0
 16 17  1  0  0  0  0
 16 18  1  0  0  0  0
 17 34  1  0  0  0  0
 17 35  1  0  0  0  0
 18 19  2  0  0  0  0
 18 36  1  0  0  0  0
 19 20  1  0  0  0  0
 19 37  1  0  0  0  0
 21 22  1  0  0  0  0
 21 38  1  0  0  0  0
 22 39  1  0  0  0  0
M  END
>  <Energy>
31.548

$$$$

 OpenBabel04232616053D

 42 45  0  0  0  0  0  0  0  0999 V2000
    1.6249   -2.2238   -2.5226 C   0  0  0  0  0  0  0  0  0  0  0  0
    3.0070   -1.9258   -2.2324 N   0  0  0  0  0  0  0  0  0  0  0  0
    3.9707   -1.6292   -3.1554 C   0  0  0  0  0  0  0  0  0  0  0  0
    5.1565   -1.4566   -2.4709 C   0  0  0  0  0  0  0  0  0  0  0  0
    4.9169   -1.6700   -1.0760 C   0  0  0  0  0  0  0  0  0  0  0  0
    5.6927   -1.6717    0.1169 C   0  0  0  0  0  0  0  0  0  0  0  0
    7.0887   -1.5700    0.2234 N   0  0  0  0  0  0  0  0  0  0  0  0
    7.9290   -1.7871   -0.9679 C   0  0  0  0  0  0  0  0  0  0  0  0
    9.3818   -2.1241   -0.5502 C   0  0  0  0  0  0  0  0  0  0  0  0
    9.9109   -1.0707    0.3382 N   0  0  0  0  0  0  0  0  0  0  0  0
   11.2683   -0.7967    0.3956 C   0  0  0  0  0  0  0  0  0  0  0  0
   11.7243    0.4238    0.9153 C   0  0  0  0  0  0  0  0  0  0  0  0
   13.0767    0.7841    0.8945 C   0  0  0  0  0  0  0  0  0  0  0  0
   14.0164   -0.0820    0.3503 C   0  0  0  0  0  0  0  0  0  0  0  0
   13.6012   -1.3081   -0.1551 C   0  0  0  0  0  0  0  0  0  0  0  0
   12.2451   -1.6599   -0.1287 C   0  0  0  0  0  0  0  0  0  0  0  0
    9.0712   -0.8465    1.5353 C   0  0  0  0  0  0  0  0  0  0  0  0
    7.6202   -0.5035    1.1075 C   0  0  0  0  0  0  0  0  0  0  0  0
    4.9556   -1.8957    1.2976 C   0  0  0  0  0  0  0  0  0  0  0  0
    3.5865   -2.1114    1.2611 C   0  0  0  0  0  0  0  0  0  0  0  0
    2.8318   -2.1397    0.1506 N   0  0  0  0  0  0  0  0  0  0  0  0
    3.5454   -1.9173   -0.9693 C   0  0  0  0  0  0  0  0  0  0  0  0
    1.4613   -2.1869   -3.6031 H   0  0  0  0  0  0  0  0  0  0  0  0
    0.9961   -1.4806   -2.0266 H   0  0  0  0  0  0  0  0  0  0  0  0
    1.4013   -3.2285   -2.1519 H   0  0  0  0  0  0  0  0  0  0  0  0
    3.7452   -1.5667   -4.2115 H   0  0  0  0  0  0  0  0  0  0  0  0
    6.0956   -1.2020   -2.9414 H   0  0  0  0  0  0  0  0  0  0  0  0
    7.9400   -0.8806   -1.5861 H   0  0  0  0  0  0  0  0  0  0  0  0
    7.5550   -2.6244   -1.5673 H   0  0  0  0  0  0  0  0  0  0  0  0
    9.9717   -2.2106   -1.4693 H   0  0  0  0  0  0  0  0  0  0  0  0
    9.4056   -3.0915   -0.0317 H   0  0  0  0  0  0  0  0  0  0  0  0
   11.0151    1.1520    1.2985 H   0  0  0  0  0  0  0  0  0  0  0  0
   13.3834    1.7506    1.2822 H   0  0  0  0  0  0  0  0  0  0  0  0
   15.0641    0.2007    0.3128 H   0  0  0  0  0  0  0  0  0  0  0  0
   14.3279   -1.9943   -0.5827 H   0  0  0  0  0  0  0  0  0  0  0  0
   11.9712   -2.6313   -0.5286 H   0  0  0  0  0  0  0  0  0  0  0  0
    9.4413   -0.0438    2.1787 H   0  0  0  0  0  0  0  0  0  0  0  0
    9.0614   -1.7639    2.1409 H   0  0  0  0  0  0  0  0  0  0  0  0
    7.6169    0.4525    0.5660 H   0  0  0  0  0  0  0  0  0  0  0  0
    7.0189   -0.3681    2.0122 H   0  0  0  0  0  0  0  0  0  0  0  0
    5.4613   -1.9557    2.2542 H   0  0  0  0  0  0  0  0  0  0  0  0
    3.0438   -2.2999    2.1837 H   0  0  0  0  0  0  0  0  0  0  0  0
  1  2  1  0  0  0  0
  1 23  1  0  0  0  0
  1 24  1  0  0  0  0
  1 25  1  0  0  0  0
  2  3  1  0  0  0  0
  2 22  1  0  0  0  0
  3  4  2  0  0  0  0
  3 26  1  0  0  0  0
  4  5  1  0  0  0  0
  4 27  1  0  0  0  0
  5  6  1  0  0  0  0
  5 22  2  0  0  0  0
  6  7  1  0  0  0  0
  6 19  2  0  0  0  0
  7  8  1  0  0  0  0
  7 18  1  0  0  0  0
  8  9  1  0  0  0  0
  8 28  1  0  0  0  0
  8 29  1  0  0  0  0
  9 10  1  0  0  0  0
  9 30  1  0  0  0  0
  9 31  1  0  0  0  0
 10 11  1  0  0  0  0
 10 17  1  0  0  0  0
 11 12  1  0  0  0  0
 11 16  2  0  0  0  0
 12 13  2  0  0  0  0
 12 32  1  0  0  0  0
 13 14  1  0  0  0  0
 13 33  1  0  0  0  0
 14 15  2  0  0  0  0
 14 34  1  0  0  0  0
 15 16  1  0  0  0  0
 15 35  1  0  0  0  0
 16 36  1  0  0  0  0
 17 18  1  0  0  0  0
 17 37  1  0  0  0  0
 17 38  1  0  0  0  0
 18 39  1  0  0  0  0
 18 40  1  0  0  0  0
 19 20  1  0  0  0  0
 19 41  1  0  0  0  0
 20 21  2  0  0  0  0
 20 42  1  0  0  0  0
 21 22  1  0  0  0  0
M  END
>  <Energy>
136.227

$$$$

 OpenBabel04232616053D

 34 37  0  0  0  0  0  0  0  0999 V2000
    1.1060   -0.0639    0.1820 O   0  0  0  0  0  0  0  0  0  0  0  0
    2.3276   -0.0248    0.1183 C   0  0  0  0  0  0  0  0  0  0  0  0
    3.1770   -1.1372    0.0423 N   0  0  0  0  0  0  0  0  0  0  0  0
    2.7738   -2.5263    0.0250 C   0  0  0  0  0  0  0  0  0  0  0  0
    2.5338   -3.0342   -1.3754 C   0  0  0  0  0  0  0  0  0  0  0  0
    3.5833   -3.5849   -2.1252 C   0  0  0  0  0  0  0  0  0  0  0  0
    3.3736   -3.9942   -3.4435 C   0  0  0  0  0  0  0  0  0  0  0  0
    2.1143   -3.8577   -4.0248 C   0  0  0  0  0  0  0  0  0  0  0  0
    1.0600   -3.3262   -3.2845 C   0  0  0  0  0  0  0  0  0  0  0  0
    1.2678   -2.9152   -1.9668 C   0  0  0  0  0  0  0  0  0  0  0  0
    4.4917   -0.7430    0.0266 N   0  0  0  0  0  0  0  0  0  0  0  0
    4.4252    0.5584    0.0702 C   0  0  0  0  0  0  0  0  0  0  0  0
    3.1727    1.0709    0.1160 N   0  0  0  0  0  0  0  0  0  0  0  0
    2.8465    2.4443    0.1736 C   0  0  0  0  0  0  0  0  0  0  0  0
    1.5577    2.8820    0.5078 C   0  0  0  0  0  0  0  0  0  0  0  0
    1.2602    4.2481    0.5882 C   0  0  0  0  0  0  0  0  0  0  0  0
    2.2407    5.1965    0.3199 C   0  0  0  0  0  0  0  0  0  0  0  0
    3.5195    4.7807   -0.0422 C   0  0  0  0  0  0  0  0  0  0  0  0
    3.8285    3.4156   -0.1142 C   0  0  0  0  0  0  0  0  0  0  0  0
    5.4688    2.9794   -0.6745 S   0  0  0  0  0  0  0  0  0  0  0  0
    5.6433    1.4163    0.2009 C   0  0  0  0  0  0  0  0  0  0  0  0
    1.8615   -2.6361    0.6225 H   0  0  0  0  0  0  0  0  0  0  0  0
    3.5527   -3.1204    0.5187 H   0  0  0  0  0  0  0  0  0  0  0  0
    4.5753   -3.6826   -1.6888 H   0  0  0  0  0  0  0  0  0  0  0  0
    4.1963   -4.4073   -4.0213 H   0  0  0  0  0  0  0  0  0  0  0  0
    1.9562   -4.1579   -5.0572 H   0  0  0  0  0  0  0  0  0  0  0  0
    0.0776   -3.2186   -3.7367 H   0  0  0  0  0  0  0  0  0  0  0  0
    0.4392   -2.4854   -1.4065 H   0  0  0  0  0  0  0  0  0  0  0  0
    0.7588    2.1801    0.7322 H   0  0  0  0  0  0  0  0  0  0  0  0
    0.2568    4.5673    0.8619 H   0  0  0  0  0  0  0  0  0  0  0  0
    2.0095    6.2570    0.3821 H   0  0  0  0  0  0  0  0  0  0  0  0
    4.2738    5.5320   -0.2732 H   0  0  0  0  0  0  0  0  0  0  0  0
    5.8104    1.6128    1.2650 H   0  0  0  0  0  0  0  0  0  0  0  0
    6.5149    0.8804   -0.1863 H   0  0  0  0  0  0  0  0  0  0  0  0
  1  2  2  0  0  0  0
  2  3  1  0  0  0  0
  2 13  1  0  0  0  0
  3  4  1  0  0  0  0
  3 11  1  0  0  0  0
  4  5  1  0  0  0  0
  4 22  1  0  0  0  0
  4 23  1  0  0  0  0
  5  6  1  0  0  0  0
  5 10  2  0  0  0  0
  6  7  2  0  0  0  0
  6 24  1  0  0  0  0
  7  8  1  0  0  0  0
  7 25  1  0  0  0  0
  8  9  2  0  0  0  0
  8 26  1  0  0  0  0
  9 10  1  0  0  0  0
  9 27  1  0  0  0  0
 10 28  1  0  0  0  0
 11 12  2  0  0  0  0
 12 13  1  0  0  0  0
 12 21  1  0  0  0  0
 13 14  1  0  0  0  0
 14 15  1  0  0  0  0
 14 19  2  0  0  0  0
 15 16  2  0  0  0  0
 15 29  1  0  0  0  0
 16 17  1  0  0  0  0
 16 30  1  0  0  0  0
 17 18  2  0  0  0  0
 17 31  1  0  0  0  0
 18 19  1  0  0  0  0
 18 32  1  0  0  0  0
 19 20  1  0  0  0  0
 20 21  1  0  0  0  0
 21 33  1  0  0  0  0
 21 34  1  0  0  0  0
M  END
>  <Energy>
73.7738

$$$$

 OpenBabel04232616053D

 37 40  0  0  0  0  0  0  0  0999 V2000
    1.0863    0.1443   -0.0100 C   0  0  0  0  0  0  0  0  0  0  0  0
    2.5247    0.0944   -0.0571 N   0  0  0  0  0  0  0  0  0  0  0  0
    3.3168    1.2133   -0.1021 C   0  0  0  0  0  0  0  0  0  0  0  0
    4.5917    0.9107   -0.1230 N   0  0  0  0  0  0  0  0  0  0  0  0
    4.6286   -0.4658   -0.0781 C   0  0  0  0  0  0  0  0  0  0  0  0
    5.8243   -1.3009   -0.0808 C   0  0  0  0  0  0  0  0  0  0  0  0
    6.9427   -0.8173   -0.2410 O   0  0  0  0  0  0  0  0  0  0  0  0
    5.6038   -2.6922    0.0862 N   0  0  0  0  0  0  0  0  0  0  0  0
    6.7874   -3.5514   -0.0314 C   0  0  0  0  0  0  0  0  0  0  0  0
    7.5125   -3.7774    1.2774 C   0  0  0  0  0  0  0  0  0  0  0  0
    7.3187   -4.9465    2.0281 C   0  0  0  0  0  0  0  0  0  0  0  0
    7.9071   -5.0942    3.2836 C   0  0  0  0  0  0  0  0  0  0  0  0
    8.7262   -4.0912    3.7956 C   0  0  0  0  0  0  0  0  0  0  0  0
    8.9854   -2.9560    3.0323 C   0  0  0  0  0  0  0  0  0  0  0  0
    8.3872   -2.8033    1.7816 C   0  0  0  0  0  0  0  0  0  0  0  0
    4.2696   -3.2559    0.1942 C   0  0  0  0  0  0  0  0  0  0  0  0
    4.0657   -4.6290    0.4106 C   0  0  0  0  0  0  0  0  0  0  0  0
    2.7860   -5.1885    0.3901 C   0  0  0  0  0  0  0  0  0  0  0  0
    1.6833   -4.3893    0.1320 C   0  0  0  0  0  0  0  0  0  0  0  0
    1.8486   -3.0147   -0.0329 C   0  0  0  0  0  0  0  0  0  0  0  0
    3.1184   -2.4326    0.0350 C   0  0  0  0  0  0  0  0  0  0  0  0
    3.3560   -0.9974   -0.0484 C   0  0  0  0  0  0  0  0  0  0  0  0
    0.7543    1.1853    0.0442 H   0  0  0  0  0  0  0  0  0  0  0  0
    0.7431   -0.3860    0.8816 H   0  0  0  0  0  0  0  0  0  0  0  0
    0.6932   -0.3070   -0.9235 H   0  0  0  0  0  0  0  0  0  0  0  0
    2.9129    2.2188   -0.1142 H   0  0  0  0  0  0  0  0  0  0  0  0
    7.4904   -3.0951   -0.7423 H   0  0  0  0  0  0  0  0  0  0  0  0
    6.5244   -4.5037   -0.5054 H   0  0  0  0  0  0  0  0  0  0  0  0
    6.7041   -5.7574    1.6495 H   0  0  0  0  0  0  0  0  0  0  0  0
    7.7191   -5.9913    3.8686 H   0  0  0  0  0  0  0  0  0  0  0  0
    9.1632   -4.1944    4.7828 H   0  0  0  0  0  0  0  0  0  0  0  0
    9.6413   -2.1789    3.4152 H   0  0  0  0  0  0  0  0  0  0  0  0
    8.6036   -1.9045    1.2053 H   0  0  0  0  0  0  0  0  0  0  0  0
    4.8843   -5.3041    0.6095 H   0  0  0  0  0  0  0  0  0  0  0  0
    2.6582   -6.2549    0.5587 H   0  0  0  0  0  0  0  0  0  0  0  0
    0.6918   -4.8313    0.0671 H   0  0  0  0  0  0  0  0  0  0  0  0
    0.9600   -2.4299   -0.2301 H   0  0  0  0  0  0  0  0  0  0  0  0
  1  2  1  0  0  0  0
  1 23  1  0  0  0  0
  1 24  1  0  0  0  0
  1 25  1  0  0  0  0
  2  3  1  0  0  0  0
  2 22  1  0  0  0  0
  3  4  2  0  0  0  0
  3 26  1  0  0  0  0
  4  5  1  0  0  0  0
  5  6  1  0  0  0  0
  5 22  2  0  0  0  0
  6  7  2  0  0  0  0
  6  8  1  0  0  0  0
  8  9  1  0  0  0  0
  8 16  1  0  0  0  0
  9 10  1  0  0  0  0
  9 27  1  0  0  0  0
  9 28  1  0  0  0  0
 10 11  1  0  0  0  0
 10 15  2  0  0  0  0
 11 12  2  0  0  0  0
 11 29  1  0  0  0  0
 12 13  1  0  0  0  0
 12 30  1  0  0  0  0
 13 14  2  0  0  0  0
 13 31  1  0  0  0  0
 14 15  1  0  0  0  0
 14 32  1  0  0  0  0
 15 33  1  0  0  0  0
 16 17  1  0  0  0  0
 16 21  2  0  0  0  0
 17 18  2  0  0  0  0
 17 34  1  0  0  0  0
 18 19  1  0  0  0  0
 18 35  1  0  0  0  0
 19 20  2  0  0  0  0
 19 36  1  0  0  0  0
 20 21  1  0  0  0  0
 20 37  1  0  0  0  0
 21 22  1  0  0  0  0
M  END
>  <Energy>
89.6496

$$$$

 OpenBabel04232616053D

 43 45  0  0  0  0  0  0  0  0999 V2000
    1.0867    0.0893   -0.0583 C   0  0  0  0  0  0  0  0  0  0  0  0
    2.4321    0.0895    0.0180 C   0  0  0  0  0  0  0  0  0  0  0  0
    3.1126    1.3852    0.0563 C   0  0  0  0  0  0  0  0  0  0  0  0
    2.9273    2.2829    1.1196 C   0  0  0  0  0  0  0  0  0  0  0  0
    3.5912    3.5135    1.1361 C   0  0  0  0  0  0  0  0  0  0  0  0
    4.4319    3.8670    0.0834 C   0  0  0  0  0  0  0  0  0  0  0  0
    4.6247    2.9786   -0.9721 C   0  0  0  0  0  0  0  0  0  0  0  0
    3.9837    1.7290   -0.9709 C   0  0  0  0  0  0  0  0  0  0  0  0
    4.2915    0.8204   -2.0911 C   0  0  0  0  0  0  0  0  0  0  0  0
    4.2997    1.3175   -3.2206 O   0  0  0  0  0  0  0  0  0  0  0  0
    4.8146   -0.4479   -1.8058 N   0  0  0  0  0  0  0  0  0  0  0  0
    5.8953   -0.8556   -2.6976 C   0  0  0  0  0  0  0  0  0  0  0  0
    4.3348   -1.3809   -0.8098 C   0  0  0  0  0  0  0  0  0  0  0  0
    4.9910   -2.6213   -0.6706 C   0  0  0  0  0  0  0  0  0  0  0  0
    4.5556   -3.6186    0.2141 C   0  0  0  0  0  0  0  0  0  0  0  0
    3.4358   -3.4336    1.0197 C   0  0  0  0  0  0  0  0  0  0  0  0
    2.9325   -4.4977    2.0083 C   0  0  0  0  0  0  0  0  0  0  0  0
    3.7861   -5.7876    2.0202 C   0  0  0  0  0  0  0  0  0  0  0  0
    2.9520   -3.9263    3.4419 C   0  0  0  0  0  0  0  0  0  0  0  0
    1.4909   -4.9121    1.6453 C   0  0  0  0  0  0  0  0  0  0  0  0
    2.7754   -2.1989    0.8948 C   0  0  0  0  0  0  0  0  0  0  0  0
    3.1945   -1.1816   -0.0057 C   0  0  0  0  0  0  0  0  0  0  0  0
    0.5159    1.0126   -0.0764 H   0  0  0  0  0  0  0  0  0  0  0  0
    0.5113   -0.8275   -0.1371 H   0  0  0  0  0  0  0  0  0  0  0  0
    2.2754    2.0209    1.9490 H   0  0  0  0  0  0  0  0  0  0  0  0
    3.4505    4.1952    1.9712 H   0  0  0  0  0  0  0  0  0  0  0  0
    4.9438    4.8253    0.0867 H   0  0  0  0  0  0  0  0  0  0  0  0
    5.2827    3.2504   -1.7947 H   0  0  0  0  0  0  0  0  0  0  0  0
    6.1855   -0.0543   -3.3844 H   0  0  0  0  0  0  0  0  0  0  0  0
    5.5886   -1.7224   -3.2892 H   0  0  0  0  0  0  0  0  0  0  0  0
    6.7852   -1.0795   -2.0996 H   0  0  0  0  0  0  0  0  0  0  0  0
    5.8697   -2.8684   -1.2582 H   0  0  0  0  0  0  0  0  0  0  0  0
    5.1305   -4.5410    0.2414 H   0  0  0  0  0  0  0  0  0  0  0  0
    4.8248   -5.5814    2.3041 H   0  0  0  0  0  0  0  0  0  0  0  0
    3.7912   -6.2773    1.0391 H   0  0  0  0  0  0  0  0  0  0  0  0
    3.3940   -6.5152    2.7406 H   0  0  0  0  0  0  0  0  0  0  0  0
    3.9596   -3.5961    3.7207 H   0  0  0  0  0  0  0  0  0  0  0  0
    2.6338   -4.6797    4.1722 H   0  0  0  0  0  0  0  0  0  0  0  0
    2.2811   -3.0678    3.5551 H   0  0  0  0  0  0  0  0  0  0  0  0
    1.4383   -5.3087    0.6246 H   0  0  0  0  0  0  0  0  0  0  0  0
    0.7887   -4.0716    1.7078 H   0  0  0  0  0  0  0  0  0  0  0  0
    1.1209   -5.6893    2.3233 H   0  0  0  0  0  0  0  0  0  0  0  0
    1.9101   -2.0039    1.5279 H   0  0  0  0  0  0  0  0  0  0  0  0
  1  2  2  0  0  0  0
  1 23  1  0  0  0  0
  1 24  1  0  0  0  0
  2  3  1  0  0  0  0
  2 22  1  0  0  0  0
  3  4  1  0  0  0  0
  3  8  2  0  0  0  0
  4  5  2  0  0  0  0
  4 25  1  0  0  0  0
  5  6  1  0  0  0  0
  5 26  1  0  0  0  0
  6  7  2  0  0  0  0
  6 27  1  0  0  0  0
  7  8  1  0  0  0  0
  7 28  1  0  0  0  0
  8  9  1  0  0  0  0
  9 10  2  0  0  0  0
  9 11  1  0  0  0  0
 11 12  1  0  0  0  0
 11 13  1  0  0  0  0
 12 29  1  0  0  0  0
 12 30  1  0  0  0  0
 12 31  1  0  0  0  0
 13 14  1  0  0  0  0
 13 22  2  0  0  0  0
 14 15  2  0  0  0  0
 14 32  1  0  0  0  0
 15 16  1  0  0  0  0
 15 33  1  0  0  0  0
 16 17  1  0  0  0  0
 16 21  2  0  0  0  0
 17 18  1  0  0  0  0
 17 19  1  0  0  0  0
 17 20  1  0  0  0  0
 18 34  1  0  0  0  0
 18 35  1  0  0  0  0
 18 36  1  0  0  0  0
 19 37  1  0  0  0  0
 19 38  1  0  0  0  0
 19 39  1  0  0  0  0
 20 40  1  0  0  0  0
 20 41  1  0  0  0  0
 20 42  1  0  0  0  0
 21 22  1  0  0  0  0
 21 43  1  0  0  0  0
M  END
>  <Energy>
102.682

$$$$

 OpenBabel04232616053D

 43 45  0  0  0  0  0  0  0  0999 V2000
    3.2278   -1.4204   -0.2455 C   0  0  0  0  0  0  0  0  0  0  0  0
    2.6343   -0.0692    0.1226 C   0  0  0  0  0  0  0  0  0  0  0  0
    3.2209    1.0182   -0.6470 N   0  0  0  0  0  0  0  0  0  0  0  0
    3.1122    1.0408   -2.1013 C   0  0  0  0  0  0  0  0  0  0  0  0
    3.0604    2.4638   -2.6389 C   0  0  0  0  0  0  0  0  0  0  0  0
    3.8249    2.7966   -3.7666 C   0  0  0  0  0  0  0  0  0  0  0  0
    3.9498    4.1257   -4.1566 C   0  0  0  0  0  0  0  0  0  0  0  0
    4.6912    4.4296   -5.2298 F   0  0  0  0  0  0  0  0  0  0  0  0
    3.3422    5.1503   -3.4390 C   0  0  0  0  0  0  0  0  0  0  0  0
    2.5530    4.8404   -2.3330 C   0  0  0  0  0  0  0  0  0  0  0  0
    2.3694    3.4998   -1.9663 C   0  0  0  0  0  0  0  0  0  0  0  0
    1.5081    3.2140   -0.8808 N   0  0  0  0  0  0  0  0  0  0  0  0
    0.2296    2.6529   -1.0622 C   0  0  0  0  0  0  0  0  0  0  0  0
   -0.4800    2.3971   -0.0748 O   0  0  0  0  0  0  0  0  0  0  0  0
   -0.2911    2.3304   -2.4963 C   0  0  0  0  0  0  0  0  0  0  0  0
   -0.1045    3.2871   -3.7070 C   0  0  0  0  0  0  0  0  0  0  0  0
   -1.5177    2.9114   -4.1738 C   0  0  0  0  0  0  0  0  0  0  0  0
   -1.8249    2.5378   -2.7172 C   0  0  0  0  0  0  0  0  0  0  0  0
    2.0059    3.5036    0.4788 C   0  0  0  0  0  0  0  0  0  0  0  0
    3.3274    2.8502    0.9480 C   0  0  0  0  0  0  0  0  0  0  0  0
    4.0368    1.9652   -0.0503 C   0  0  0  0  0  0  0  0  0  0  0  0
    5.1908    2.1837   -0.4161 O   0  0  0  0  0  0  0  0  0  0  0  0
    2.8309   -2.2021    0.4091 H   0  0  0  0  0  0  0  0  0  0  0  0
    4.3188   -1.4110   -0.1495 H   0  0  0  0  0  0  0  0  0  0  0  0
    2.9857   -1.6900   -1.2786 H   0  0  0  0  0  0  0  0  0  0  0  0
    2.8136    0.1090    1.1884 H   0  0  0  0  0  0  0  0  0  0  0  0
    1.5527   -0.0640   -0.0431 H   0  0  0  0  0  0  0  0  0  0  0  0
    2.1950    0.5209   -2.3977 H   0  0  0  0  0  0  0  0  0  0  0  0
    3.9705    0.4947   -2.5070 H   0  0  0  0  0  0  0  0  0  0  0  0
    4.3638    2.0361   -4.3240 H   0  0  0  0  0  0  0  0  0  0  0  0
    3.4816    6.1811   -3.7487 H   0  0  0  0  0  0  0  0  0  0  0  0
    2.0603    5.6365   -1.7851 H   0  0  0  0  0  0  0  0  0  0  0  0
   -0.0113    1.2992   -2.7636 H   0  0  0  0  0  0  0  0  0  0  0  0
    0.6805    3.0085   -4.4164 H   0  0  0  0  0  0  0  0  0  0  0  0
   -0.0087    4.3474   -3.4548 H   0  0  0  0  0  0  0  0  0  0  0  0
   -1.5475    2.0631   -4.8667 H   0  0  0  0  0  0  0  0  0  0  0  0
   -2.1064    3.7330   -4.5903 H   0  0  0  0  0  0  0  0  0  0  0  0
   -2.4471    1.6483   -2.5877 H   0  0  0  0  0  0  0  0  0  0  0  0
   -2.2573    3.3621   -2.1380 H   0  0  0  0  0  0  0  0  0  0  0  0
    1.2389    3.2208    1.2099 H   0  0  0  0  0  0  0  0  0  0  0  0
    2.0852    4.5943    0.5712 H   0  0  0  0  0  0  0  0  0  0  0  0
    3.1695    2.2873    1.8745 H   0  0  0  0  0  0  0  0  0  0  0  0
    4.0240    3.6573    1.2124 H   0  0  0  0  0  0  0  0  0  0  0  0
  1  2  1  0  0  0  0
  1 23  1  0  0  0  0
  1 24  1  0  0  0  0
  1 25  1  0  0  0  0
  2  3  1  0  0  0  0
  2 26  1  0  0  0  0
  2 27  1  0  0  0  0
  3  4  1  0  0  0  0
  3 21  1  0  0  0  0
  4  5  1  0  0  0  0
  4 28  1  0  0  0  0
  4 29  1  0  0  0  0
  5  6  1  0  0  0  0
  5 11  2  0  0  0  0
  6  7  2  0  0  0  0
  6 30  1  0  0  0  0
  7  8  1  0  0  0  0
  7  9  1  0  0  0  0
  9 10  2  0  0  0  0
  9 31  1  0  0  0  0
 10 11  1  0  0  0  0
 10 32  1  0  0  0  0
 11 12  1  0  0  0  0
 12 13  1  0  0  0  0
 12 19  1  0  0  0  0
 13 14  2  0  0  0  0
 13 15  1  0  0  0  0
 15 16  1  0  0  0  0
 15 18  1  0  0  0  0
 15 33  1  0  0  0  0
 16 17  1  0  0  0  0
 16 34  1  0  0  0  0
 16 35  1  0  0  0  0
 17 18  1  0  0  0  0
 17 36  1  0  0  0  0
 17 37  1  0  0  0  0
 18 38  1  0  0  0  0
 18 39  1  0  0  0  0
 19 20  1  0  0  0  0
 19 40  1  0  0  0  0
 19 41  1  0  0  0  0
 20 21  1  0  0  0  0
 20 42  1  0  0  0  0
 20 43  1  0  0  0  0
 21 22  2  0  0  0  0
M  END
>  <Energy>
43.9123

$$$$

 OpenBabel04232616053D

 30 32  0  0  1  0  0  0  0  0999 V2000
    1.2291    0.0173    0.0456 C   0  0  0  0  0  0  0  0  0  0  0  0
    2.7200    0.0221    0.0414 C   0  0  0  0  0  0  0  0  0  0  0  0
    3.4281   -1.0596    0.0873 N   0  0  0  0  0  0  0  0  0  0  0  0
    4.7425   -0.6640    0.0602 N   0  0  0  0  0  0  0  0  0  0  0  0
    5.8145   -1.5044    0.0511 C   0  0  0  0  0  0  0  0  0  0  0  0
    7.0670   -1.0976    0.0384 N   0  0  0  0  0  0  0  0  0  0  0  0
    7.9333   -2.1866    0.0972 C   0  0  0  0  0  0  0  0  0  0  0  0
    9.3408   -2.1363    0.1571 C   0  0  0  0  0  0  0  0  0  0  0  0
   10.0805   -3.3253    0.1971 C   0  0  0  0  0  0  0  0  0  0  0  0
    9.4419   -4.5589    0.1730 C   0  0  0  0  0  0  0  0  0  0  0  0
    8.0462   -4.6357    0.1268 C   0  0  0  0  0  0  0  0  0  0  0  0
    7.3149   -3.4365    0.1000 C   0  0  0  0  0  0  0  0  0  0  0  0
    5.6160   -3.2222    0.0803 S   0  0  0  0  0  0  0  0  0  0  0  0
    4.8867    0.7546   -0.3106 C   0  0  3  0  0  0  0  0  0  0  0  0
    5.8388    1.4095    0.5415 O   0  0  0  0  0  0  0  0  0  0  0  0
    5.1952    0.9364   -1.8387 C   0  0  0  0  0  0  0  0  0  0  0  0
    5.1159   -0.2163   -2.5453 F   0  0  0  0  0  0  0  0  0  0  0  0
    4.3384    1.8068   -2.4345 F   0  0  0  0  0  0  0  0  0  0  0  0
    6.4433    1.4317   -2.0365 F   0  0  0  0  0  0  0  0  0  0  0  0
    3.4975    1.2953    0.0563 C   0  0  0  0  0  0  0  0  0  0  0  0
    0.8526   -1.0055   -0.0354 H   0  0  0  0  0  0  0  0  0  0  0  0
    0.8638    0.6021   -0.8014 H   0  0  0  0  0  0  0  0  0  0  0  0
    0.8680    0.4636    0.9762 H   0  0  0  0  0  0  0  0  0  0  0  0
    9.8454   -1.1754    0.1752 H   0  0  0  0  0  0  0  0  0  0  0  0
   11.1674   -3.2822    0.2473 H   0  0  0  0  0  0  0  0  0  0  0  0
   10.0259   -5.4798    0.2017 H   0  0  0  0  0  0  0  0  0  0  0  0
    7.5416   -5.5970    0.1205 H   0  0  0  0  0  0  0  0  0  0  0  0
    6.6517    0.8698    0.4473 H   0  0  0  0  0  0  0  0  0  0  0  0
    3.0825    2.0316   -0.6333 H   0  0  0  0  0  0  0  0  0  0  0  0
    3.4655    1.7096    1.0705 H   0  0  0  0  0  0  0  0  0  0  0  0
  1  2  1  0  0  0  0
  1 21  1  0  0  0  0
  1 22  1  0  0  0  0
  1 23  1  0  0  0  0
  2  3  2  0  0  0  0
  2 20  1  0  0  0  0
  3  4  1  0  0  0  0
  4  5  1  0  0  0  0
  4 14  1  0  0  0  0
  5  6  2  0  0  0  0
  5 13  1  0  0  0  0
  6  7  1  0  0  0  0
  7  8  1  0  0  0  0
  7 12  2  0  0  0  0
  8  9  2  0  0  0  0
  8 24  1  0  0  0  0
  9 10  1  0  0  0  0
  9 25  1  0  0  0  0
 10 11  2  0  0  0  0
 10 26  1  0  0  0  0
 11 12  1  0  0  0  0
 11 27  1  0  0  0  0
 12 13  1  0  0  0  0
 14 15  1  0  0  0  0
 14 16  1  0  0  0  0
 14 20  1  0  0  0  0
 15 28  1  0  0  0  0
 16 17  1  0  0  0  0
 16 18  1  0  0  0  0
 16 19  1  0  0  0  0
 20 29  1  0  0  0  0
 20 30  1  0  0  0  0
M  END
>  <Energy>
96.1323

$$$$

 OpenBabel04232616053D

 23 24  0  0  0  0  0  0  0  0999 V2000
    1.2390   -2.7040    0.3304 C   0  0  0  0  0  0  0  0  0  0  0  0
    2.6634   -2.6032    0.3297 O   0  0  0  0  0  0  0  0  0  0  0  0
    3.1395   -1.3259    0.2533 C   0  0  0  0  0  0  0  0  0  0  0  0
    2.4228   -0.3362    0.1371 O   0  0  0  0  0  0  0  0  0  0  0  0
    4.5904   -1.2743    0.3750 C   0  0  0  0  0  0  0  0  0  0  0  0
    5.3450   -2.3612   -0.0805 N   0  0  0  0  0  0  0  0  0  0  0  0
    6.6402   -2.1678    0.0642 N   0  0  0  0  0  0  0  0  0  0  0  0
    6.9987   -0.7111    0.7782 S   0  0  0  0  0  0  0  0  0  0  0  0
    5.3416   -0.2277    0.9185 C   0  0  0  0  0  0  0  0  0  0  0  0
    4.9859    1.0400    1.5814 C   0  0  0  0  0  0  0  0  0  0  0  0
    5.8036    2.1807    1.4795 C   0  0  0  0  0  0  0  0  0  0  0  0
    5.4729    3.3732    2.1335 C   0  0  0  0  0  0  0  0  0  0  0  0
    4.3061    3.4561    2.8870 C   0  0  0  0  0  0  0  0  0  0  0  0
    3.4835    2.3405    2.9931 C   0  0  0  0  0  0  0  0  0  0  0  0
    1.8854    2.4470    3.9991 Br  0  0  0  0  0  0  0  0  0  0  0  0
    3.8241    1.1402    2.3638 C   0  0  0  0  0  0  0  0  0  0  0  0
    0.9733   -3.7437    0.5403 H   0  0  0  0  0  0  0  0  0  0  0  0
    0.8418   -2.4315   -0.6518 H   0  0  0  0  0  0  0  0  0  0  0  0
    0.8028   -2.0761    1.1144 H   0  0  0  0  0  0  0  0  0  0  0  0
    6.7153    2.1678    0.8856 H   0  0  0  0  0  0  0  0  0  0  0  0
    6.1264    4.2384    2.0485 H   0  0  0  0  0  0  0  0  0  0  0  0
    4.0477    4.3879    3.3829 H   0  0  0  0  0  0  0  0  0  0  0  0
    3.1661    0.2859    2.4947 H   0  0  0  0  0  0  0  0  0  0  0  0
  1  2  1  0  0  0  0
  1 17  1  0  0  0  0
  1 18  1  0  0  0  0
  1 19  1  0  0  0  0
  2  3  1  0  0  0  0
  3  4  2  0  0  0  0
  3  5  1  0  0  0  0
  5  6  1  0  0  0  0
  5  9  2  0  0  0  0
  6  7  2  0  0  0  0
  7  8  1  0  0  0  0
  8  9  1  0  0  0  0
  9 10  1  0  0  0  0
 10 11  1  0  0  0  0
 10 16  2  0  0  0  0
 11 12  2  0  0  0  0
 11 20  1  0  0  0  0
 12 13  1  0  0  0  0
 12 21  1  0  0  0  0
 13 14  2  0  0  0  0
 13 22  1  0  0  0  0
 14 15  1  0  0  0  0
 14 16  1  0  0  0  0
 16 23  1  0  0  0  0
M  END
>  <Energy>
33.8578

$$$$

 OpenBabel04232616053D

 34 36  0  0  0  0  0  0  0  0999 V2000
    2.2894   -0.0304    0.0848 O   0  0  0  0  0  0  0  0  0  0  0  0
    1.0650   -0.0139    0.0570 C   0  0  0  0  0  0  0  0  0  0  0  0
    0.3166    1.2440   -0.0405 C   0  0  0  0  0  0  0  0  0  0  0  0
   -1.0250    1.2357   -0.0271 C   0  0  0  0  0  0  0  0  0  0  0  0
   -1.8009    2.3863   -0.1360 N   0  0  0  0  0  0  0  0  0  0  0  0
   -3.1498    2.5107    0.4492 C   0  0  0  0  0  0  0  0  0  0  0  0
   -4.1469    2.9903   -0.6141 C   0  0  0  0  0  0  0  0  0  0  0  0
   -3.7208    4.2255   -1.2144 O   0  0  0  0  0  0  0  0  0  0  0  0
   -2.4357    4.0572   -1.8338 C   0  0  0  0  0  0  0  0  0  0  0  0
   -1.3682    3.6238   -0.8152 C   0  0  0  0  0  0  0  0  0  0  0  0
   -1.7314    0.0357    0.0869 O   0  0  0  0  0  0  0  0  0  0  0  0
   -1.0497   -1.1750    0.0701 C   0  0  0  0  0  0  0  0  0  0  0  0
   -1.9038   -2.3824    0.0371 C   0  0  0  0  0  0  0  0  0  0  0  0
   -3.1441   -2.4054    0.6934 C   0  0  0  0  0  0  0  0  0  0  0  0
   -3.9557   -3.5469    0.6568 C   0  0  0  0  0  0  0  0  0  0  0  0
   -3.5358   -4.6747   -0.0421 C   0  0  0  0  0  0  0  0  0  0  0  0
   -4.5296   -6.0788   -0.0875 Cl  0  0  0  0  0  0  0  0  0  0  0  0
   -2.3160   -4.6724   -0.7104 C   0  0  0  0  0  0  0  0  0  0  0  0
   -1.5098   -3.5305   -0.6751 C   0  0  0  0  0  0  0  0  0  0  0  0
    0.2863   -1.2552    0.0844 C   0  0  0  0  0  0  0  0  0  0  0  0
    0.9092    2.1451   -0.1006 H   0  0  0  0  0  0  0  0  0  0  0  0
   -3.0979    3.2525    1.2565 H   0  0  0  0  0  0  0  0  0  0  0  0
   -3.4998    1.5727    0.8924 H   0  0  0  0  0  0  0  0  0  0  0  0
   -5.1237    3.1689   -0.1539 H   0  0  0  0  0  0  0  0  0  0  0  0
   -4.2770    2.2373   -1.4000 H   0  0  0  0  0  0  0  0  0  0  0  0
   -2.1542    5.0147   -2.2830 H   0  0  0  0  0  0  0  0  0  0  0  0
   -2.5257    3.3223   -2.6433 H   0  0  0  0  0  0  0  0  0  0  0  0
   -1.2288    4.4071   -0.0612 H   0  0  0  0  0  0  0  0  0  0  0  0
   -0.4202    3.4917   -1.3470 H   0  0  0  0  0  0  0  0  0  0  0  0
   -3.4898   -1.5357    1.2487 H   0  0  0  0  0  0  0  0  0  0  0  0
   -4.9107   -3.5467    1.1755 H   0  0  0  0  0  0  0  0  0  0  0  0
   -1.9859   -5.5478   -1.2637 H   0  0  0  0  0  0  0  0  0  0  0  0
   -0.5717   -3.5510   -1.2255 H   0  0  0  0  0  0  0  0  0  0  0  0
    0.8489   -2.1787    0.1020 H   0  0  0  0  0  0  0  0  0  0  0  0
  1  2  2  0  0  0  0
  2  3  1  0  0  0  0
  2 20  1  0  0  0  0
  3  4  2  0  0  0  0
  3 21  1  0  0  0  0
  4  5  1  0  0  0  0
  4 11  1  0  0  0  0
  5  6  1  0  0  0  0
  5 10  1  0  0  0  0
  6  7  1  0  0  0  0
  6 22  1  0  0  0  0
  6 23  1  0  0  0  0
  7  8  1  0  0  0  0
  7 24  1  0  0  0  0
  7 25  1  0  0  0  0
  8  9  1  0  0  0  0
  9 10  1  0  0  0  0
  9 26  1  0  0  0  0
  9 27  1  0  0  0  0
 10 28  1  0  0  0  0
 10 29  1  0  0  0  0
 11 12  1  0  0  0  0
 12 13  1  0  0  0  0
 12 20  2  0  0  0  0
 13 14  1  0  0  0  0
 13 19  2  0  0  0  0
 14 15  2  0  0  0  0
 14 30  1  0  0  0  0
 15 16  1  0  0  0  0
 15 31  1  0  0  0  0
 16 17  1  0  0  0  0
 16 18  2  0  0  0  0
 18 19  1  0  0  0  0
 18 32  1  0  0  0  0
 19 33  1  0  0  0  0
 20 34  1  0  0  0  0
M  END
>  <Energy>
72.7536

$$$$

 OpenBabel04232616053D

 28 30  0  0  0  0  0  0  0  0999 V2000
    1.0173    0.1791    0.2289 O   0  0  0  0  0  0  0  0  0  0  0  0
    2.4560    0.1104    0.0866 S   0  0  0  0  0  0  0  0  0  0  0  0
    3.1472   -1.1355   -0.1892 O   0  0  0  0  0  0  0  0  0  0  0  0
    2.9191    1.2596   -1.1834 C   0  0  0  0  0  0  0  0  0  0  0  0
    2.9560    0.7829   -2.5043 C   0  0  0  0  0  0  0  0  0  0  0  0
    3.2981    1.6456   -3.5473 C   0  0  0  0  0  0  0  0  0  0  0  0
    3.6028    2.9726   -3.2650 C   0  0  0  0  0  0  0  0  0  0  0  0
    3.9265    3.8000   -4.2674 F   0  0  0  0  0  0  0  0  0  0  0  0
    3.5681    3.4389   -1.9543 C   0  0  0  0  0  0  0  0  0  0  0  0
    3.8623    4.7188   -1.6899 F   0  0  0  0  0  0  0  0  0  0  0  0
    3.2255    2.5928   -0.9015 C   0  0  0  0  0  0  0  0  0  0  0  0
    3.1305    0.6629    1.5222 N   0  0  0  0  0  0  0  0  0  0  0  0
    4.4541    0.5121    1.8060 C   0  0  0  0  0  0  0  0  0  0  0  0
    4.7758    1.1503    2.9089 N   0  0  0  0  0  0  0  0  0  0  0  0
    3.6081    1.7392    3.3383 C   0  0  0  0  0  0  0  0  0  0  0  0
    3.3882    2.5385    4.4700 C   0  0  0  0  0  0  0  0  0  0  0  0
    2.1082    3.0568    4.6941 C   0  0  0  0  0  0  0  0  0  0  0  0
    1.0650    2.7837    3.8097 C   0  0  0  0  0  0  0  0  0  0  0  0
    1.2604    1.9836    2.6775 C   0  0  0  0  0  0  0  0  0  0  0  0
    2.5482    1.4702    2.4677 C   0  0  0  0  0  0  0  0  0  0  0  0
    2.7143   -0.2564   -2.7265 H   0  0  0  0  0  0  0  0  0  0  0  0
    3.3253    1.2938   -4.5748 H   0  0  0  0  0  0  0  0  0  0  0  0
    3.1980    3.0104    0.0991 H   0  0  0  0  0  0  0  0  0  0  0  0
    5.1362   -0.0600    1.1883 H   0  0  0  0  0  0  0  0  0  0  0  0
    4.2033    2.7476    5.1549 H   0  0  0  0  0  0  0  0  0  0  0  0
    1.9272    3.6770    5.5694 H   0  0  0  0  0  0  0  0  0  0  0  0
    0.0759    3.1943    4.0073 H   0  0  0  0  0  0  0  0  0  0  0  0
    0.4285    1.7691    2.0127 H   0  0  0  0  0  0  0  0  0  0  0  0
  1  2  2  0  0  0  0
  2  3  2  0  0  0  0
  2  4  1  0  0  0  0
  2 12  1  0  0  0  0
  4  5  1  0  0  0  0
  4 11  2  0  0  0  0
  5  6  2  0  0  0  0
  5 21  1  0  0  0  0
  6  7  1  0  0  0  0
  6 22  1  0  0  0  0
  7  8  1  0  0  0  0
  7  9  2  0  0  0  0
  9 10  1  0  0  0  0
  9 11  1  0  0  0  0
 11 23  1  0  0  0  0
 12 13  1  0  0  0  0
 12 20  1  0  0  0  0
 13 14  2  0  0  0  0
 13 24  1  0  0  0  0
 14 15  1  0  0  0  0
 15 16  1  0  0  0  0
 15 20  2  0  0  0  0
 16 17  2  0  0  0  0
 16 25  1  0  0  0  0
 17 18  1  0  0  0  0
 17 26  1  0  0  0  0
 18 19  2  0  0  0  0
 18 27  1  0  0  0  0
 19 20  1  0  0  0  0
 19 28  1  0  0  0  0
M  END
>  <Energy>
84.112

$$$$

 OpenBabel04232616053D

 33 36  0  0  0  0  0  0  0  0999 V2000
    2.4701    0.0875    0.4283 N   0  0  0  0  0  0  0  0  0  0  0  0
    1.0846    0.0089    0.2556 C   0  0  0  0  0  0  0  0  0  0  0  0
    0.3642   -1.0605    0.7863 C   0  0  0  0  0  0  0  0  0  0  0  0
   -1.0359   -1.0864    0.7263 C   0  0  0  0  0  0  0  0  0  0  0  0
   -1.7645   -0.0166    0.1828 C   0  0  0  0  0  0  0  0  0  0  0  0
   -3.2450   -0.0289    0.1162 C   0  0  0  0  0  0  0  0  0  0  0  0
   -4.0254   -0.5838    1.1377 C   0  0  0  0  0  0  0  0  0  0  0  0
   -5.4279   -0.5762    1.0817 C   0  0  0  0  0  0  0  0  0  0  0  0
   -6.1024    0.0098   -0.0164 C   0  0  0  0  0  0  0  0  0  0  0  0
   -5.3253    0.5550   -1.0351 C   0  0  0  0  0  0  0  0  0  0  0  0
   -3.9159    0.5350   -0.9856 C   0  0  0  0  0  0  0  0  0  0  0  0
   -6.2954    1.2188   -2.2877 S   0  0  0  0  0  0  0  0  0  0  0  0
   -7.7559    0.7963   -1.5001 C   0  0  0  0  0  0  0  0  0  0  0  0
   -9.0752    1.0053   -1.9051 C   0  0  0  0  0  0  0  0  0  0  0  0
   -9.4263    1.6255   -3.0944 N   0  0  0  0  0  0  0  0  0  0  0  0
  -10.0675    0.5961   -1.0984 N   0  0  0  0  0  0  0  0  0  0  0  0
   -9.7406   -0.0148    0.0499 C   0  0  0  0  0  0  0  0  0  0  0  0
   -8.5153   -0.2675    0.5192 N   0  0  0  0  0  0  0  0  0  0  0  0
   -7.5107    0.1564   -0.2909 C   0  0  0  0  0  0  0  0  0  0  0  0
   -1.0247    1.0838   -0.2850 C   0  0  0  0  0  0  0  0  0  0  0  0
    0.3746    1.1026   -0.2351 C   0  0  0  0  0  0  0  0  0  0  0  0
    2.9259   -0.8169    0.4917 H   0  0  0  0  0  0  0  0  0  0  0  0
    2.9301    0.7032   -0.2342 H   0  0  0  0  0  0  0  0  0  0  0  0
    0.8864   -1.8936    1.2497 H   0  0  0  0  0  0  0  0  0  0  0  0
   -1.5487   -1.9631    1.1162 H   0  0  0  0  0  0  0  0  0  0  0  0
   -3.5547   -1.0230    2.0147 H   0  0  0  0  0  0  0  0  0  0  0  0
   -6.0051   -1.0143    1.8936 H   0  0  0  0  0  0  0  0  0  0  0  0
   -3.3541    0.9578   -1.8142 H   0  0  0  0  0  0  0  0  0  0  0  0
   -8.7293    2.2425   -3.4883 H   0  0  0  0  0  0  0  0  0  0  0  0
  -10.3840    1.9553   -3.0807 H   0  0  0  0  0  0  0  0  0  0  0  0
  -10.5704   -0.3393    0.6705 H   0  0  0  0  0  0  0  0  0  0  0  0
   -1.5313    1.9635   -0.6767 H   0  0  0  0  0  0  0  0  0  0  0  0
    0.9019    1.9870   -0.5827 H   0  0  0  0  0  0  0  0  0  0  0  0
  1  2  1  0  0  0  0
  1 22  1  0  0  0  0
  1 23  1  0  0  0  0
  2  3  1  0  0  0  0
  2 21  2  0  0  0  0
  3  4  2  0  0  0  0
  3 24  1  0  0  0  0
  4  5  1  0  0  0  0
  4 25  1  0  0  0  0
  5  6  1  0  0  0  0
  5 20  2  0  0  0  0
  6  7  1  0  0  0  0
  6 11  2  0  0  0  0
  7  8  2  0  0  0  0
  7 26  1  0  0  0  0
  8  9  1  0  0  0  0
  8 27  1  0  0  0  0
  9 10  2  0  0  0  0
  9 19  1  0  0  0  0
 10 11  1  0  0  0  0
 10 12  1  0  0  0  0
 11 28  1  0  0  0  0
 12 13  1  0  0  0  0
 13 14  1  0  0  0  0
 13 19  2  0  0  0  0
 14 15  1  0  0  0  0
 14 16  2  0  0  0  0
 15 29  1  0  0  0  0
 15 30  1  0  0  0  0
 16 17  1  0  0  0  0
 17 18  2  0  0  0  0
 17 31  1  0  0  0  0
 18 19  1  0  0  0  0
 20 21  1  0  0  0  0
 20 32  1  0  0  0  0
 21 33  1  0  0  0  0
M  END
>  <Energy>
-3.88702

$$$$

 OpenBabel04232616053D

 40 43  0  0  0  0  0  0  0  0999 V2000
    1.2998    0.1188   -1.0449 O   0  0  0  0  0  0  0  0  0  0  0  0
    2.4409   -0.2591   -0.8016 C   0  0  0  0  0  0  0  0  0  0  0  0
    3.4595    0.6954   -0.3402 C   0  0  0  0  0  0  0  0  0  0  0  0
    4.6781    0.2962    0.0321 C   0  0  0  0  0  0  0  0  0  0  0  0
    5.6677    1.1667    0.4286 O   0  0  0  0  0  0  0  0  0  0  0  0
    5.0236   -1.1240    0.0122 C   0  0  0  0  0  0  0  0  0  0  0  0
    6.2408   -1.6170    0.4985 C   0  0  0  0  0  0  0  0  0  0  0  0
    6.5219   -2.9844    0.4488 C   0  0  0  0  0  0  0  0  0  0  0  0
    5.6179   -3.8519   -0.1605 C   0  0  0  0  0  0  0  0  0  0  0  0
    4.4173   -3.3804   -0.6997 C   0  0  0  0  0  0  0  0  0  0  0  0
    4.1108   -2.0223   -0.5487 C   0  0  0  0  0  0  0  0  0  0  0  0
    2.8453   -1.5702   -0.9850 O   0  0  0  0  0  0  0  0  0  0  0  0
    3.5865   -4.3056   -1.4636 C   0  0  0  0  0  0  0  0  0  0  0  0
    4.1687   -5.4396   -1.8849 C   0  0  0  0  0  0  0  0  0  0  0  0
    5.5760   -5.8360   -1.4667 C   0  0  0  0  0  0  0  0  0  0  0  0
    5.6003   -7.3545   -1.1652 C   0  0  0  0  0  0  0  0  0  0  0  0
    5.6874   -8.2727   -2.3904 C   0  0  0  0  0  0  0  0  0  0  0  0
    6.9797   -8.2051   -3.2200 C   0  0  0  0  0  0  0  0  0  0  0  0
    8.1782   -7.5290   -2.5611 C   0  0  0  0  0  0  0  0  0  0  0  0
    8.0153   -6.0413   -2.2180 C   0  0  0  0  0  0  0  0  0  0  0  0
    6.6380   -5.4360   -2.5195 C   0  0  0  0  0  0  0  0  0  0  0  0
    5.9579   -5.1816   -0.2213 O   0  0  0  0  0  0  0  0  0  0  0  0
    3.1503    1.7313   -0.3300 H   0  0  0  0  0  0  0  0  0  0  0  0
    5.3500    2.0806    0.3269 H   0  0  0  0  0  0  0  0  0  0  0  0
    6.9797   -0.9403    0.9226 H   0  0  0  0  0  0  0  0  0  0  0  0
    7.4623   -3.3655    0.8361 H   0  0  0  0  0  0  0  0  0  0  0  0
    2.5810   -4.0292   -1.7471 H   0  0  0  0  0  0  0  0  0  0  0  0
    3.6097   -6.1095   -2.5298 H   0  0  0  0  0  0  0  0  0  0  0  0
    4.6928   -7.6220   -0.6019 H   0  0  0  0  0  0  0  0  0  0  0  0
    6.4175   -7.5920   -0.4732 H   0  0  0  0  0  0  0  0  0  0  0  0
    4.8363   -8.0940   -3.0584 H   0  0  0  0  0  0  0  0  0  0  0  0
    5.5690   -9.3041   -2.0401 H   0  0  0  0  0  0  0  0  0  0  0  0
    7.2664   -9.2309   -3.4856 H   0  0  0  0  0  0  0  0  0  0  0  0
    6.7720   -7.7184   -4.1810 H   0  0  0  0  0  0  0  0  0  0  0  0
    9.0370   -7.6239   -3.2367 H   0  0  0  0  0  0  0  0  0  0  0  0
    8.4611   -8.0835   -1.6570 H   0  0  0  0  0  0  0  0  0  0  0  0
    8.7722   -5.4753   -2.7717 H   0  0  0  0  0  0  0  0  0  0  0  0
    8.2689   -5.8941   -1.1603 H   0  0  0  0  0  0  0  0  0  0  0  0
    6.3114   -5.6827   -3.5357 H   0  0  0  0  0  0  0  0  0  0  0  0
    6.7649   -4.3451   -2.5177 H   0  0  0  0  0  0  0  0  0  0  0  0
  1  2  2  0  0  0  0
  2  3  1  0  0  0  0
  2 12  1  0  0  0  0
  3  4  2  0  0  0  0
  3 23  1  0  0  0  0
  4  5  1  0  0  0  0
  4  6  1  0  0  0  0
  5 24  1  0  0  0  0
  6  7  1  0  0  0  0
  6 11  2  0  0  0  0
  7  8  2  0  0  0  0
  7 25  1  0  0  0  0
  8  9  1  0  0  0  0
  8 26  1  0  0  0  0
  9 10  2  0  0  0  0
  9 22  1  0  0  0  0
 10 11  1  0  0  0  0
 10 13  1  0  0  0  0
 11 12  1  0  0  0  0
 13 14  2  0  0  0  0
 13 27  1  0  0  0  0
 14 15  1  0  0  0  0
 14 28  1  0  0  0  0
 15 16  1  0  0  0  0
 15 21  1  0  0  0  0
 15 22  1  0  0  0  0
 16 17  1  0  0  0  0
 16 29  1  0  0  0  0
 16 30  1  0  0  0  0
 17 18  1  0  0  0  0
 17 31  1  0  0  0  0
 17 32  1  0  0  0  0
 18 19  1  0  0  0  0
 18 33  1  0  0  0  0
 18 34  1  0  0  0  0
 19 20  1  0  0  0  0
 19 35  1  0  0  0  0
 19 36  1  0  0  0  0
 20 21  1  0  0  0  0
 20 37  1  0  0  0  0
 20 38  1  0  0  0  0
 21 39  1  0  0  0  0
 21 40  1  0  0  0  0
M  END
>  <Energy>
71.3856

$$$$

 OpenBabel04232616053D

 41 44  0  0  0  0  0  0  0  0999 V2000
   -2.5051    0.5130   -0.0085 C   0  0  0  0  0  0  0  0  0  0  0  0
   -1.0547    0.2431    0.3849 C   0  0  0  0  0  0  0  0  0  0  0  0
   -0.5423   -1.0056   -0.3332 C   0  0  0  0  0  0  0  0  0  0  0  0
    0.9290   -1.2671   -0.0343 C   0  0  0  0  0  0  0  0  0  0  0  0
    1.7540   -0.0890   -0.3125 N   0  0  0  0  0  0  0  0  0  0  0  0
    2.9455   -0.0814   -1.0582 C   0  0  0  0  0  0  0  0  0  0  0  0
    3.4999    0.9814   -1.3494 O   0  0  0  0  0  0  0  0  0  0  0  0
    3.4926   -1.3475   -1.5209 C   0  0  0  0  0  0  0  0  0  0  0  0
    4.2287   -1.6597   -2.6517 C   0  0  0  0  0  0  0  0  0  0  0  0
    4.4032   -3.0759   -2.6626 C   0  0  0  0  0  0  0  0  0  0  0  0
    3.8226   -3.5206   -1.4833 C   0  0  0  0  0  0  0  0  0  0  0  0
    3.7216   -4.8521   -1.0973 C   0  0  0  0  0  0  0  0  0  0  0  0
    4.2438   -5.7988   -1.9805 C   0  0  0  0  0  0  0  0  0  0  0  0
    4.8630   -5.4212   -3.1827 C   0  0  0  0  0  0  0  0  0  0  0  0
    5.3891   -6.3829   -4.0562 C   0  0  0  0  0  0  0  0  0  0  0  0
    6.0095   -6.0028   -5.2484 C   0  0  0  0  0  0  0  0  0  0  0  0
    6.1109   -4.6555   -5.5902 C   0  0  0  0  0  0  0  0  0  0  0  0
    5.5885   -3.6769   -4.7442 C   0  0  0  0  0  0  0  0  0  0  0  0
    4.9623   -4.0473   -3.5380 C   0  0  0  0  0  0  0  0  0  0  0  0
    3.3404   -2.4770   -0.7652 O   0  0  0  0  0  0  0  0  0  0  0  0
    1.3165    1.1416    0.3426 C   0  0  0  0  0  0  0  0  0  0  0  0
   -0.1558    1.4428    0.0541 C   0  0  0  0  0  0  0  0  0  0  0  0
   -3.1362   -0.3517    0.2245 H   0  0  0  0  0  0  0  0  0  0  0  0
   -2.5948    0.7132   -1.0819 H   0  0  0  0  0  0  0  0  0  0  0  0
   -2.9024    1.3765    0.5334 H   0  0  0  0  0  0  0  0  0  0  0  0
   -1.0190    0.0640    1.4676 H   0  0  0  0  0  0  0  0  0  0  0  0
   -0.6659   -0.8842   -1.4177 H   0  0  0  0  0  0  0  0  0  0  0  0
   -1.1323   -1.8822   -0.0408 H   0  0  0  0  0  0  0  0  0  0  0  0
    1.2073   -2.1254   -0.6414 H   0  0  0  0  0  0  0  0  0  0  0  0
    1.0741   -1.5288    1.0204 H   0  0  0  0  0  0  0  0  0  0  0  0
    4.5332   -0.9511   -3.4095 H   0  0  0  0  0  0  0  0  0  0  0  0
    3.2394   -5.1347   -0.1694 H   0  0  0  0  0  0  0  0  0  0  0  0
    4.1597   -6.8517   -1.7169 H   0  0  0  0  0  0  0  0  0  0  0  0
    5.3212   -7.4417   -3.8141 H   0  0  0  0  0  0  0  0  0  0  0  0
    6.4152   -6.7633   -5.9112 H   0  0  0  0  0  0  0  0  0  0  0  0
    6.5976   -4.3672   -6.5183 H   0  0  0  0  0  0  0  0  0  0  0  0
    5.6735   -2.6316   -5.0290 H   0  0  0  0  0  0  0  0  0  0  0  0
    1.9283    1.9967    0.0375 H   0  0  0  0  0  0  0  0  0  0  0  0
    1.4681    1.0046    1.4187 H   0  0  0  0  0  0  0  0  0  0  0  0
   -0.2669    1.7047   -1.0061 H   0  0  0  0  0  0  0  0  0  0  0  0
   -0.4708    2.3168    0.6365 H   0  0  0  0  0  0  0  0  0  0  0  0
  1  2  1  0  0  0  0
  1 23  1  0  0  0  0
  1 24  1  0  0  0  0
  1 25  1  0  0  0  0
  2  3  1  0  0  0  0
  2 22  1  0  0  0  0
  2 26  1  0  0  0  0
  3  4  1  0  0  0  0
  3 27  1  0  0  0  0
  3 28  1  0  0  0  0
  4  5  1  0  0  0  0
  4 29  1  0  0  0  0
  4 30  1  0  0  0  0
  5  6  1  0  0  0  0
  5 21  1  0  0  0  0
  6  7  2  0  0  0  0
  6  8  1  0  0  0  0
  8  9  2  0  0  0  0
  8 20  1  0  0  0  0
  9 10  1  0  0  0  0
  9 31  1  0  0  0  0
 10 11  1  0  0  0  0
 10 19  2  0  0  0  0
 11 12  2  0  0  0  0
 11 20  1  0  0  0  0
 12 13  1  0  0  0  0
 12 32  1  0  0  0  0
 13 14  2  0  0  0  0
 13 33  1  0  0  0  0
 14 15  1  0  0  0  0
 14 19  1  0  0  0  0
 15 16  2  0  0  0  0
 15 34  1  0  0  0  0
 16 17  1  0  0  0  0
 16 35  1  0  0  0  0
 17 18  2  0  0  0  0
 17 36  1  0  0  0  0
 18 19  1  0  0  0  0
 18 37  1  0  0  0  0
 21 22  1  0  0  0  0
 21 38  1  0  0  0  0
 21 39  1  0  0  0  0
 22 40  1  0  0  0  0
 22 41  1  0  0  0  0
M  END
>  <Energy>
40.5845

$$$$

 OpenBabel04232616053D

 29 31  0  0  0  0  0  0  0  0999 V2000
   -2.4094   -0.5044   -0.8350 C   0  0  0  0  0  0  0  0  0  0  0  0
   -1.0421   -0.1750   -0.3578 C   0  0  0  0  0  0  0  0  0  0  0  0
   -0.2031   -0.9957    0.3749 C   0  0  0  0  0  0  0  0  0  0  0  0
    1.2228   -0.1458    0.8080 S   0  0  0  0  0  0  0  0  0  0  0  0
    0.6197    1.2272   -0.0167 C   0  0  0  0  0  0  0  0  0  0  0  0
    1.3954    2.3623    0.0215 N   0  0  0  0  0  0  0  0  0  0  0  0
    2.1786    2.7216   -1.0511 C   0  0  0  0  0  0  0  0  0  0  0  0
    2.3400    1.7998   -2.2433 C   0  0  0  0  0  0  0  0  0  0  0  0
    2.8624    3.8268   -1.0798 N   0  0  0  0  0  0  0  0  0  0  0  0
    2.7854    4.6968    0.0154 C   0  0  0  0  0  0  0  0  0  0  0  0
    3.5603    5.8591    0.0077 C   0  0  0  0  0  0  0  0  0  0  0  0
    3.5161    6.7404    1.0893 C   0  0  0  0  0  0  0  0  0  0  0  0
    4.4936    8.1561    1.0784 Cl  0  0  0  0  0  0  0  0  0  0  0  0
    2.6922    6.4809    2.1843 C   0  0  0  0  0  0  0  0  0  0  0  0
    1.9108    5.3263    2.1991 C   0  0  0  0  0  0  0  0  0  0  0  0
    1.9698    4.4387    1.1175 C   0  0  0  0  0  0  0  0  0  0  0  0
    1.1866    3.1908    1.1158 C   0  0  0  0  0  0  0  0  0  0  0  0
    0.4265    2.9707    2.0588 O   0  0  0  0  0  0  0  0  0  0  0  0
   -0.5256    1.0811   -0.6403 N   0  0  0  0  0  0  0  0  0  0  0  0
   -2.6611   -1.5509   -0.6359 H   0  0  0  0  0  0  0  0  0  0  0  0
   -2.4938   -0.3278   -1.9110 H   0  0  0  0  0  0  0  0  0  0  0  0
   -3.1445    0.1243   -0.3215 H   0  0  0  0  0  0  0  0  0  0  0  0
   -0.3678   -2.0142    0.6963 H   0  0  0  0  0  0  0  0  0  0  0  0
    1.6474    0.9599   -2.2652 H   0  0  0  0  0  0  0  0  0  0  0  0
    3.3616    1.4050   -2.2359 H   0  0  0  0  0  0  0  0  0  0  0  0
    2.2062    2.3787   -3.1626 H   0  0  0  0  0  0  0  0  0  0  0  0
    4.2018    6.0666   -0.8448 H   0  0  0  0  0  0  0  0  0  0  0  0
    2.6582    7.1674    3.0265 H   0  0  0  0  0  0  0  0  0  0  0  0
    1.2669    5.1156    3.0509 H   0  0  0  0  0  0  0  0  0  0  0  0
  1  2  1  0  0  0  0
  1 20  1  0  0  0  0
  1 21  1  0  0  0  0
  1 22  1  0  0  0  0
  2  3  2  0  0  0  0
  2 19  1  0  0  0  0
  3  4  1  0  0  0  0
  3 23  1  0  0  0  0
  4  5  1  0  0  0  0
  5  6  1  0  0  0  0
  5 19  2  0  0  0  0
  6  7  1  0  0  0  0
  6 17  1  0  0  0  0
  7  8  1  0  0  0  0
  7  9  2  0  0  0  0
  8 24  1  0  0  0  0
  8 25  1  0  0  0  0
  8 26  1  0  0  0  0
  9 10  1  0  0  0  0
 10 11  1  0  0  0  0
 10 16  2  0  0  0  0
 11 12  2  0  0  0  0
 11 27  1  0  0  0  0
 12 13  1  0  0  0  0
 12 14  1  0  0  0  0
 14 15  2  0  0  0  0
 14 28  1  0  0  0  0
 15 16  1  0  0  0  0
 15 29  1  0  0  0  0
 16 17  1  0  0  0  0
 17 18  2  0  0  0  0
M  END
>  <Energy>
16.6085

$$$$

 OpenBabel04232616053D

 34 37  0  0  0  0  0  0  0  0999 V2000
    1.0130    0.0646    0.3894 O   0  0  0  0  0  0  0  0  0  0  0  0
    2.2111   -0.0360    0.1750 C   0  0  0  0  0  0  0  0  0  0  0  0
    2.9896   -1.2559    0.5275 C   0  0  0  0  0  0  0  0  0  0  0  0
    3.7268   -1.2857    1.5037 O   0  0  0  0  0  0  0  0  0  0  0  0
    2.8212   -2.3839   -0.2904 N   0  0  0  0  0  0  0  0  0  0  0  0
    3.4531   -3.5889    0.0021 C   0  0  0  0  0  0  0  0  0  0  0  0
    3.0964   -4.5394   -0.9156 C   0  0  0  0  0  0  0  0  0  0  0  0
    2.2382   -3.9178   -1.8499 C   0  0  0  0  0  0  0  0  0  0  0  0
    1.5819   -4.4043   -2.9993 C   0  0  0  0  0  0  0  0  0  0  0  0
    0.7965   -3.5463   -3.7668 C   0  0  0  0  0  0  0  0  0  0  0  0
    0.6598   -2.2158   -3.4006 C   0  0  0  0  0  0  0  0  0  0  0  0
    1.2935   -1.7093   -2.2586 C   0  0  0  0  0  0  0  0  0  0  0  0
    2.0854   -2.5712   -1.4712 C   0  0  0  0  0  0  0  0  0  0  0  0
    2.9902    1.0183   -0.3324 N   0  0  0  0  0  0  0  0  0  0  0  0
    4.3367    0.9705   -0.6661 C   0  0  0  0  0  0  0  0  0  0  0  0
    4.7462    2.2085   -1.0996 C   0  0  0  0  0  0  0  0  0  0  0  0
    3.6281    3.0715   -1.0483 C   0  0  0  0  0  0  0  0  0  0  0  0
    3.4515    4.4382   -1.3482 C   0  0  0  0  0  0  0  0  0  0  0  0
    2.1950    5.0259   -1.1850 C   0  0  0  0  0  0  0  0  0  0  0  0
    1.1191    4.2699   -0.7372 C   0  0  0  0  0  0  0  0  0  0  0  0
    1.2695    2.9120   -0.4364 C   0  0  0  0  0  0  0  0  0  0  0  0
    2.5392    2.3206   -0.5914 C   0  0  0  0  0  0  0  0  0  0  0  0
    4.0976   -3.6626    0.8704 H   0  0  0  0  0  0  0  0  0  0  0  0
    3.4237   -5.5714   -0.9187 H   0  0  0  0  0  0  0  0  0  0  0  0
    1.6888   -5.4463   -3.2896 H   0  0  0  0  0  0  0  0  0  0  0  0
    0.2922   -3.9230   -4.6531 H   0  0  0  0  0  0  0  0  0  0  0  0
    0.0442   -1.5539   -4.0068 H   0  0  0  0  0  0  0  0  0  0  0  0
    1.1364   -0.6634   -2.0219 H   0  0  0  0  0  0  0  0  0  0  0  0
    4.9186    0.0643   -0.5570 H   0  0  0  0  0  0  0  0  0  0  0  0
    5.7499    2.4686   -1.4105 H   0  0  0  0  0  0  0  0  0  0  0  0
    4.2891    5.0365   -1.6960 H   0  0  0  0  0  0  0  0  0  0  0  0
    2.0614    6.0823   -1.4055 H   0  0  0  0  0  0  0  0  0  0  0  0
    0.1461    4.7399   -0.6103 H   0  0  0  0  0  0  0  0  0  0  0  0
    0.4143    2.3460   -0.0772 H   0  0  0  0  0  0  0  0  0  0  0  0
  1  2  2  0  0  0  0
  2  3  1  0  0  0  0
  2 14  1  0  0  0  0
  3  4  2  0  0  0  0
  3  5  1  0  0  0  0
  5  6  1  0  0  0  0
  5 13  1  0  0  0  0
  6  7  2  0  0  0  0
  6 23  1  0  0  0  0
  7  8  1  0  0  0  0
  7 24  1  0  0  0  0
  8  9  1  0  0  0  0
  8 13  2  0  0  0  0
  9 10  2  0  0  0  0
  9 25  1  0  0  0  0
 10 11  1  0  0  0  0
 10 26  1  0  0  0  0
 11 12  2  0  0  0  0
 11 27  1  0  0  0  0
 12 13  1  0  0  0  0
 12 28  1  0  0  0  0
 14 15  1  0  0  0  0
 14 22  1  0  0  0  0
 15 16  2  0  0  0  0
 15 29  1  0  0  0  0
 16 17  1  0  0  0  0
 16 30  1  0  0  0  0
 17 18  1  0  0  0  0
 17 22  2  0  0  0  0
 18 19  2  0  0  0  0
 18 31  1  0  0  0  0
 19 20  1  0  0  0  0
 19 32  1  0  0  0  0
 20 21  2  0  0  0  0
 20 33  1  0  0  0  0
 21 22  1  0  0  0  0
 21 34  1  0  0  0  0
M  END
>  <Energy>
109.542

$$$$

 OpenBabel04232616053D

 28 30  0  0  0  0  0  0  0  0999 V2000
    1.1480   -0.0523    0.3448 C   0  0  0  0  0  0  0  0  0  0  0  0
    2.5565   -0.0442    0.0286 N   0  0  0  0  0  0  0  0  0  0  0  0
    3.2050    1.1363   -0.2725 C   0  0  0  0  0  0  0  0  0  0  0  0
    2.7814    2.2674    0.2211 N   0  0  0  0  0  0  0  0  0  0  0  0
    3.4467    3.4681   -0.0977 C   0  0  0  0  0  0  0  0  0  0  0  0
    2.9575    4.6377    0.4912 C   0  0  0  0  0  0  0  0  0  0  0  0
    3.5496    5.8778    0.2329 C   0  0  0  0  0  0  0  0  0  0  0  0
    3.0245    7.1256    0.8811 C   0  0  0  0  0  0  0  0  0  0  0  0
    4.6431    5.9389   -0.6360 C   0  0  0  0  0  0  0  0  0  0  0  0
    5.1492    4.7786   -1.2356 C   0  0  0  0  0  0  0  0  0  0  0  0
    4.5552    3.5462   -0.9640 C   0  0  0  0  0  0  0  0  0  0  0  0
    4.9929    2.3167   -1.5035 N   0  0  0  0  0  0  0  0  0  0  0  0
    5.9890    1.9440   -2.3800 C   0  0  0  0  0  0  0  0  0  0  0  0
    7.2593    2.9495   -3.3008 Br  0  0  0  0  0  0  0  0  0  0  0  0
    5.8899    0.5746   -2.5028 C   0  0  0  0  0  0  0  0  0  0  0  0
    4.8622    0.0813   -1.7459 N   0  0  0  0  0  0  0  0  0  0  0  0
    4.3513    1.1474   -1.1584 C   0  0  0  0  0  0  0  0  0  0  0  0
    0.8298   -1.0677    0.5993 H   0  0  0  0  0  0  0  0  0  0  0  0
    0.5630    0.2850   -0.5165 H   0  0  0  0  0  0  0  0  0  0  0  0
    0.9266    0.5945    1.1995 H   0  0  0  0  0  0  0  0  0  0  0  0
    2.8746   -0.8216   -0.5459 H   0  0  0  0  0  0  0  0  0  0  0  0
    2.1047    4.5642    1.1616 H   0  0  0  0  0  0  0  0  0  0  0  0
    2.1772    6.9072    1.5405 H   0  0  0  0  0  0  0  0  0  0  0  0
    2.6831    7.8327    0.1196 H   0  0  0  0  0  0  0  0  0  0  0  0
    3.8067    7.5922    1.4871 H   0  0  0  0  0  0  0  0  0  0  0  0
    5.1153    6.8961   -0.8507 H   0  0  0  0  0  0  0  0  0  0  0  0
    5.9999    4.8937   -1.8924 H   0  0  0  0  0  0  0  0  0  0  0  0
    6.5032   -0.0830   -3.1065 H   0  0  0  0  0  0  0  0  0  0  0  0
  1  2  1  0  0  0  0
  1 18  1  0  0  0  0
  1 19  1  0  0  0  0
  1 20  1  0  0  0  0
  2  3  1  0  0  0  0
  2 21  1  0  0  0  0
  3  4  2  0  0  0  0
  3 17  1  0  0  0  0
  4  5  1  0  0  0  0
  5  6  1  0  0  0  0
  5 11  2  0  0  0  0
  6  7  2  0  0  0  0
  6 22  1  0  0  0  0
  7  8  1  0  0  0  0
  7  9  1  0  0  0  0
  8 23  1  0  0  0  0
  8 24  1  0  0  0  0
  8 25  1  0  0  0  0
  9 10  2  0  0  0  0
  9 26  1  0  0  0  0
 10 11  1  0  0  0  0
 10 27  1  0  0  0  0
 11 12  1  0  0  0  0
 12 13  1  0  0  0  0
 12 17  1  0  0  0  0
 13 14  1  0  0  0  0
 13 15  2  0  0  0  0
 15 16  1  0  0  0  0
 15 28  1  0  0  0  0
 16 17  2  0  0  0  0
M  END
>  <Energy>
17.3311

$$$$

 OpenBabel04232616053D

 31 34  0  0  0  0  0  0  0  0999 V2000
    3.6728   -0.7744    2.3106 O   0  0  0  0  0  0  0  0  0  0  0  0
    3.6073   -0.4063    1.1512 C   0  0  0  0  0  0  0  0  0  0  0  0
    4.1485    0.8902    0.6931 C   0  0  0  0  0  0  0  0  0  0  0  0
    4.7753    1.8385    1.4898 C   0  0  0  0  0  0  0  0  0  0  0  0
    5.2032    3.0261    0.8881 C   0  0  0  0  0  0  0  0  0  0  0  0
    4.9960    3.2417   -0.4849 C   0  0  0  0  0  0  0  0  0  0  0  0
    4.3618    2.2731   -1.2715 C   0  0  0  0  0  0  0  0  0  0  0  0
    3.9436    1.0972   -0.6677 C   0  0  0  0  0  0  0  0  0  0  0  0
    3.1180   -0.2723   -1.4247 S   0  0  0  0  0  0  0  0  0  0  0  0
    3.0432   -1.0870    0.0817 N   0  0  0  0  0  0  0  0  0  0  0  0
    2.4328   -2.3953    0.2039 C   0  0  0  0  0  0  0  0  0  0  0  0
    3.4339   -3.5147    0.0227 C   0  0  0  0  0  0  0  0  0  0  0  0
    3.7613   -3.9844   -1.2716 C   0  0  0  0  0  0  0  0  0  0  0  0
    4.7373   -4.9693   -1.4561 C   0  0  0  0  0  0  0  0  0  0  0  0
    5.3811   -5.4473   -0.3372 C   0  0  0  0  0  0  0  0  0  0  0  0
    5.0618   -5.0069    0.9267 C   0  0  0  0  0  0  0  0  0  0  0  0
    4.0905   -4.0544    1.1422 C   0  0  0  0  0  0  0  0  0  0  0  0
    5.8312   -5.5904    1.8856 O   0  0  0  0  0  0  0  0  0  0  0  0
    6.7911   -6.2804    1.0605 C   0  0  0  0  0  0  0  0  0  0  0  0
    6.3962   -6.3537   -0.3255 O   0  0  0  0  0  0  0  0  0  0  0  0
    4.9272    1.6631    2.5508 H   0  0  0  0  0  0  0  0  0  0  0  0
    5.6969    3.7896    1.4842 H   0  0  0  0  0  0  0  0  0  0  0  0
    5.3304    4.1717   -0.9395 H   0  0  0  0  0  0  0  0  0  0  0  0
    4.2034    2.4450   -2.3315 H   0  0  0  0  0  0  0  0  0  0  0  0
    1.6165   -2.4939   -0.5234 H   0  0  0  0  0  0  0  0  0  0  0  0
    1.9726   -2.4759    1.1969 H   0  0  0  0  0  0  0  0  0  0  0  0
    3.2664   -3.5638   -2.1451 H   0  0  0  0  0  0  0  0  0  0  0  0
    5.0024   -5.3220   -2.4463 H   0  0  0  0  0  0  0  0  0  0  0  0
    3.8738   -3.7091    2.1488 H   0  0  0  0  0  0  0  0  0  0  0  0
    6.9360   -7.2945    1.4469 H   0  0  0  0  0  0  0  0  0  0  0  0
    7.7463   -5.7425    1.1207 H   0  0  0  0  0  0  0  0  0  0  0  0
  1  2  2  0  0  0  0
  2  3  1  0  0  0  0
  2 10  1  0  0  0  0
  3  4  1  0  0  0  0
  3  8  2  0  0  0  0
  4  5  2  0  0  0  0
  4 21  1  0  0  0  0
  5  6  1  0  0  0  0
  5 22  1  0  0  0  0
  6  7  2  0  0  0  0
  6 23  1  0  0  0  0
  7  8  1  0  0  0  0
  7 24  1  0  0  0  0
  8  9  1  0  0  0  0
  9 10  1  0  0  0  0
 10 11  1  0  0  0  0
 11 12  1  0  0  0  0
 11 25  1  0  0  0  0
 11 26  1  0  0  0  0
 12 13  1  0  0  0  0
 12 17  2  0  0  0  0
 13 14  2  0  0  0  0
 13 27  1  0  0  0  0
 14 15  1  0  0  0  0
 14 28  1  0  0  0  0
 15 16  2  0  0  0  0
 15 20  1  0  0  0  0
 16 17  1  0  0  0  0
 16 18  1  0  0  0  0
 17 29  1  0  0  0  0
 18 19  1  0  0  0  0
 19 20  1  0  0  0  0
 19 30  1  0  0  0  0
 19 31  1  0  0  0  0
M  END
>  <Energy>
46.0149

$$$$

 OpenBabel04232616053D

 43 46  0  0  0  0  0  0  0  0999 V2000
    1.1086   -0.4664    0.1096 C   0  0  0  0  0  0  0  0  0  0  0  0
    2.4820   -0.1215   -0.1624 N   0  0  0  0  0  0  0  0  0  0  0  0
    3.2519   -0.7153   -1.2187 C   0  0  0  0  0  0  0  0  0  0  0  0
    4.3995    0.2642   -1.4105 C   0  0  0  0  0  0  0  0  0  0  0  0
    4.5921    0.9135   -0.0224 C   0  0  0  0  0  0  0  0  0  0  0  0
    4.9125    2.4188   -0.1180 C   0  0  0  0  0  0  0  0  0  0  0  0
    6.3634    2.6989   -0.4823 C   0  0  0  0  0  0  0  0  0  0  0  0
    7.2145    1.9896    0.4764 N   0  0  0  0  0  0  0  0  0  0  0  0
    8.4495    2.5458    0.8350 C   0  0  0  0  0  0  0  0  0  0  0  0
    9.1282    3.4452   -0.0041 C   0  0  0  0  0  0  0  0  0  0  0  0
   10.2892    4.0823    0.2735 N   0  0  0  0  0  0  0  0  0  0  0  0
   10.8353    3.8102    1.4732 C   0  0  0  0  0  0  0  0  0  0  0  0
   10.2943    2.9326    2.4098 C   0  0  0  0  0  0  0  0  0  0  0  0
   10.9434    2.7029    3.6378 C   0  0  0  0  0  0  0  0  0  0  0  0
   10.3943    1.8431    4.5849 C   0  0  0  0  0  0  0  0  0  0  0  0
    9.1750    1.2348    4.3286 C   0  0  0  0  0  0  0  0  0  0  0  0
    8.5151    1.4780    3.1200 C   0  0  0  0  0  0  0  0  0  0  0  0
    9.0666    2.2955    2.1018 C   0  0  0  0  0  0  0  0  0  0  0  0
    7.0835    0.5302    0.4023 C   0  0  0  0  0  0  0  0  0  0  0  0
    5.6498    0.1634    0.8147 C   0  0  0  0  0  0  0  0  0  0  0  0
    3.2136    0.7657    0.6077 C   0  0  0  0  0  0  0  0  0  0  0  0
    2.8153    1.3240    1.6190 O   0  0  0  0  0  0  0  0  0  0  0  0
    0.7828   -1.2805   -0.5411 H   0  0  0  0  0  0  0  0  0  0  0  0
    0.4928    0.4203   -0.0682 H   0  0  0  0  0  0  0  0  0  0  0  0
    1.0077   -0.7542    1.1598 H   0  0  0  0  0  0  0  0  0  0  0  0
    2.6511   -0.8249   -2.1247 H   0  0  0  0  0  0  0  0  0  0  0  0
    3.6005   -1.6971   -0.8803 H   0  0  0  0  0  0  0  0  0  0  0  0
    4.1034    1.0171   -2.1525 H   0  0  0  0  0  0  0  0  0  0  0  0
    5.2920   -0.2359   -1.7971 H   0  0  0  0  0  0  0  0  0  0  0  0
    4.7109    2.8960    0.8522 H   0  0  0  0  0  0  0  0  0  0  0  0
    4.2472    2.9121   -0.8364 H   0  0  0  0  0  0  0  0  0  0  0  0
    6.5092    3.7845   -0.4362 H   0  0  0  0  0  0  0  0  0  0  0  0
    6.5802    2.3730   -1.5073 H   0  0  0  0  0  0  0  0  0  0  0  0
    8.7400    3.6924   -0.9880 H   0  0  0  0  0  0  0  0  0  0  0  0
   11.7581    4.3485    1.6750 H   0  0  0  0  0  0  0  0  0  0  0  0
   11.8847    3.1990    3.8647 H   0  0  0  0  0  0  0  0  0  0  0  0
   10.9074    1.6647    5.5258 H   0  0  0  0  0  0  0  0  0  0  0  0
    8.7237    0.5784    5.0680 H   0  0  0  0  0  0  0  0  0  0  0  0
    7.5384    1.0235    2.9850 H   0  0  0  0  0  0  0  0  0  0  0  0
    7.7958   -0.0057    1.0369 H   0  0  0  0  0  0  0  0  0  0  0  0
    7.2870    0.1919   -0.6219 H   0  0  0  0  0  0  0  0  0  0  0  0
    5.5118    0.4155    1.8764 H   0  0  0  0  0  0  0  0  0  0  0  0
    5.5106   -0.9211    0.7415 H   0  0  0  0  0  0  0  0  0  0  0  0
  1  2  1  0  0  0  0
  1 23  1  0  0  0  0
  1 24  1  0  0  0  0
  1 25  1  0  0  0  0
  2  3  1  0  0  0  0
  2 21  1  0  0  0  0
  3  4  1  0  0  0  0
  3 26  1  0  0  0  0
  3 27  1  0  0  0  0
  4  5  1  0  0  0  0
  4 28  1  0  0  0  0
  4 29  1  0  0  0  0
  5  6  1  0  0  0  0
  5 20  1  0  0  0  0
  5 21  1  0  0  0  0
  6  7  1  0  0  0  0
  6 30  1  0  0  0  0
  6 31  1  0  0  0  0
  7  8  1  0  0  0  0
  7 32  1  0  0  0  0
  7 33  1  0  0  0  0
  8  9  1  0  0  0  0
  8 19  1  0  0  0  0
  9 10  1  0  0  0  0
  9 18  2  0  0  0  0
 10 11  2  0  0  0  0
 10 34  1  0  0  0  0
 11 12  1  0  0  0  0
 12 13  2  0  0  0  0
 12 35  1  0  0  0  0
 13 14  1  0  0  0  0
 13 18  1  0  0  0  0
 14 15  2  0  0  0  0
 14 36  1  0  0  0  0
 15 16  1  0  0  0  0
 15 37  1  0  0  0  0
 16 17  2  0  0  0  0
 16 38  1  0  0  0  0
 17 18  1  0  0  0  0
 17 39  1  0  0  0  0
 19 20  1  0  0  0  0
 19 40  1  0  0  0  0
 19 41  1  0  0  0  0
 20 42  1  0  0  0  0
 20 43  1  0  0  0  0
 21 22  2  0  0  0  0
M  END
>  <Energy>
66.5342

$$$$

 OpenBabel04232616053D

 31 33  0  0  0  0  0  0  0  0999 V2000
    1.0925   -0.2390   -0.7113 C   0  0  0  0  0  0  0  0  0  0  0  0
    2.5182   -0.2899   -0.7519 O   0  0  0  0  0  0  0  0  0  0  0  0
    3.1206    0.9157   -0.9556 C   0  0  0  0  0  0  0  0  0  0  0  0
    2.5135    1.9705   -1.1008 O   0  0  0  0  0  0  0  0  0  0  0  0
    4.5789    0.8364   -0.9658 C   0  0  0  0  0  0  0  0  0  0  0  0
    5.3976    1.9456   -1.0723 C   0  0  0  0  0  0  0  0  0  0  0  0
    6.7291    1.5711   -1.0312 N   0  0  0  0  0  0  0  0  0  0  0  0
    7.8437    2.4601   -1.0728 C   0  0  0  0  0  0  0  0  0  0  0  0
    8.9166    1.9745   -1.4238 O   0  0  0  0  0  0  0  0  0  0  0  0
    7.7110    3.8655   -0.6957 C   0  0  0  0  0  0  0  0  0  0  0  0
    6.9239    4.4430    0.2854 C   0  0  0  0  0  0  0  0  0  0  0  0
    7.1042    5.8542    0.3704 C   0  0  0  0  0  0  0  0  0  0  0  0
    8.0340    6.3088   -0.5358 C   0  0  0  0  0  0  0  0  0  0  0  0
    8.6877    5.0396   -1.4761 S   0  0  0  0  0  0  0  0  0  0  0  0
    6.7698    0.1753   -0.9518 C   0  0  0  0  0  0  0  0  0  0  0  0
    7.8641   -0.7113   -0.8878 C   0  0  0  0  0  0  0  0  0  0  0  0
    7.6203   -2.0805   -0.7646 C   0  0  0  0  0  0  0  0  0  0  0  0
    6.3231   -2.5663   -0.7052 C   0  0  0  0  0  0  0  0  0  0  0  0
    5.2376   -1.6885   -0.7668 C   0  0  0  0  0  0  0  0  0  0  0  0
    5.4489   -0.2948   -0.8859 C   0  0  0  0  0  0  0  0  0  0  0  0
    0.7305   -1.2119   -0.3669 H   0  0  0  0  0  0  0  0  0  0  0  0
    0.6963   -0.0547   -1.7141 H   0  0  0  0  0  0  0  0  0  0  0  0
    0.7420    0.5235   -0.0081 H   0  0  0  0  0  0  0  0  0  0  0  0
    5.1161    2.9837   -1.1979 H   0  0  0  0  0  0  0  0  0  0  0  0
    6.2559    3.8853    0.9320 H   0  0  0  0  0  0  0  0  0  0  0  0
    6.5868    6.5003    1.0700 H   0  0  0  0  0  0  0  0  0  0  0  0
    8.3721    7.3259   -0.6851 H   0  0  0  0  0  0  0  0  0  0  0  0
    8.8899   -0.3533   -0.9263 H   0  0  0  0  0  0  0  0  0  0  0  0
    8.4599   -2.7702   -0.7128 H   0  0  0  0  0  0  0  0  0  0  0  0
    6.1472   -3.6350   -0.6090 H   0  0  0  0  0  0  0  0  0  0  0  0
    4.2308   -2.0949   -0.7178 H   0  0  0  0  0  0  0  0  0  0  0  0
  1  2  1  0  0  0  0
  1 21  1  0  0  0  0
  1 22  1  0  0  0  0
  1 23  1  0  0  0  0
  2  3  1  0  0  0  0
  3  4  2  0  0  0  0
  3  5  1  0  0  0  0
  5  6  2  0  0  0  0
  5 20  1  0  0  0  0
  6  7  1  0  0  0  0
  6 24  1  0  0  0  0
  7  8  1  0  0  0  0
  7 15  1  0  0  0  0
  8  9  2  0  0  0  0
  8 10  1  0  0  0  0
 10 11  2  0  0  0  0
 10 14  1  0  0  0  0
 11 12  1  0  0  0  0
 11 25  1  0  0  0  0
 12 13  2  0  0  0  0
 12 26  1  0  0  0  0
 13 14  1  0  0  0  0
 13 27  1  0  0  0  0
 15 16  1  0  0  0  0
 15 20  2  0  0  0  0
 16 17  2  0  0  0  0
 16 28  1  0  0  0  0
 17 18  1  0  0  0  0
 17 29  1  0  0  0  0
 18 19  2  0  0  0  0
 18 30  1  0  0  0  0
 19 20  1  0  0  0  0
 19 31  1  0  0  0  0
M  END
>  <Energy>
82.0074

$$$$

 OpenBabel04232616053D

 30 32  0  0  0  0  0  0  0  0999 V2000
    1.0285    0.2014    0.1007 C   0  0  0  0  0  0  0  0  0  0  0  0
    2.5373    0.1207    0.0281 C   0  0  0  0  0  0  0  0  0  0  0  0
    3.1935    1.2379    0.0062 N   0  0  0  0  0  0  0  0  0  0  0  0
    4.5891    1.1934   -0.0772 C   0  0  0  0  0  0  0  0  0  0  0  0
    5.2963    2.3980   -0.0971 C   0  0  0  0  0  0  0  0  0  0  0  0
    6.6900    2.4046   -0.1979 C   0  0  0  0  0  0  0  0  0  0  0  0
    7.3893    1.2004   -0.2759 C   0  0  0  0  0  0  0  0  0  0  0  0
    6.6948   -0.0091   -0.2515 C   0  0  0  0  0  0  0  0  0  0  0  0
    5.2979   -0.0038   -0.1530 C   0  0  0  0  0  0  0  0  0  0  0  0
    4.5271   -1.2613   -0.1396 C   0  0  0  0  0  0  0  0  0  0  0  0
    5.1208   -2.3350   -0.2346 O   0  0  0  0  0  0  0  0  0  0  0  0
    3.1417   -1.1241   -0.0356 N   0  0  0  0  0  0  0  0  0  0  0  0
    2.3715   -2.3179   -0.0084 C   0  0  0  0  0  0  0  0  0  0  0  0
    1.9281   -2.8611   -1.2220 C   0  0  0  0  0  0  0  0  0  0  0  0
    1.1380   -4.0123   -1.2234 C   0  0  0  0  0  0  0  0  0  0  0  0
    0.8006   -4.6245   -0.0163 C   0  0  0  0  0  0  0  0  0  0  0  0
   -0.1946   -6.0280   -0.0242 Cl  0  0  0  0  0  0  0  0  0  0  0  0
    1.2536   -4.1061    1.1956 C   0  0  0  0  0  0  0  0  0  0  0  0
    2.0427   -2.9539    1.2005 C   0  0  0  0  0  0  0  0  0  0  0  0
    2.5648   -2.3287    2.7242 Cl  0  0  0  0  0  0  0  0  0  0  0  0
    0.7145    1.2394    0.2472 H   0  0  0  0  0  0  0  0  0  0  0  0
    0.6433   -0.3903    0.9340 H   0  0  0  0  0  0  0  0  0  0  0  0
    0.5960   -0.1590   -0.8370 H   0  0  0  0  0  0  0  0  0  0  0  0
    4.7530    3.3380   -0.0364 H   0  0  0  0  0  0  0  0  0  0  0  0
    7.2265    3.3502   -0.2173 H   0  0  0  0  0  0  0  0  0  0  0  0
    8.4737    1.2053   -0.3567 H   0  0  0  0  0  0  0  0  0  0  0  0
    7.2392   -0.9489   -0.3115 H   0  0  0  0  0  0  0  0  0  0  0  0
    2.1953   -2.3928   -2.1666 H   0  0  0  0  0  0  0  0  0  0  0  0
    0.7897   -4.4265   -2.1668 H   0  0  0  0  0  0  0  0  0  0  0  0
    0.9898   -4.5944    2.1300 H   0  0  0  0  0  0  0  0  0  0  0  0
  1  2  1  0  0  0  0
  1 21  1  0  0  0  0
  1 22  1  0  0  0  0
  1 23  1  0  0  0  0
  2  3  2  0  0  0  0
  2 12  1  0  0  0  0
  3  4  1  0  0  0  0
  4  5  1  0  0  0  0
  4  9  2  0  0  0  0
  5  6  2  0  0  0  0
  5 24  1  0  0  0  0
  6  7  1  0  0  0  0
  6 25  1  0  0  0  0
  7  8  2  0  0  0  0
  7 26  1  0  0  0  0
  8  9  1  0  0  0  0
  8 27  1  0  0  0  0
  9 10  1  0  0  0  0
 10 11  2  0  0  0  0
 10 12  1  0  0  0  0
 12 13  1  0  0  0  0
 13 14  1  0  0  0  0
 13 19  2  0  0  0  0
 14 15  2  0  0  0  0
 14 28  1  0  0  0  0
 15 16  1  0  0  0  0
 15 29  1  0  0  0  0
 16 17  1  0  0  0  0
 16 18  2  0  0  0  0
 18 19  1  0  0  0  0
 18 30  1  0  0  0  0
 19 20  1  0  0  0  0
M  END
>  <Energy>
47.7857

$$$$

 OpenBabel04232616053D

 31 32  0  0  0  0  0  0  0  0999 V2000
    1.1771    0.6324   -0.0719 C   0  0  0  0  0  0  0  0  0  0  0  0
    2.5779    0.1335   -0.0793 C   0  0  0  0  0  0  0  0  0  0  0  0
    3.5569    1.0393   -0.0875 N   0  0  0  0  0  0  0  0  0  0  0  0
    4.7030    0.3301   -0.0820 N   0  0  0  0  0  0  0  0  0  0  0  0
    5.9861    1.0652   -0.0776 C   0  0  0  0  0  0  0  0  0  0  0  0
    5.7556    2.6022   -0.0367 C   0  0  0  0  0  0  0  0  0  0  0  0
    6.8195    0.7044    1.1660 C   0  0  0  0  0  0  0  0  0  0  0  0
    6.7898    0.7650   -1.3556 C   0  0  0  0  0  0  0  0  0  0  0  0
    4.4707   -1.0358   -0.0818 C   0  0  0  0  0  0  0  0  0  0  0  0
    5.4503   -1.9650   -0.1096 N   0  0  0  0  0  0  0  0  0  0  0  0
    5.1245   -3.2255   -0.0104 C   0  0  0  0  0  0  0  0  0  0  0  0
    6.2169   -4.3052   -0.0536 C   0  0  0  0  0  0  0  0  0  0  0  0
    5.7446   -5.5848   -0.0062 F   0  0  0  0  0  0  0  0  0  0  0  0
    6.9660   -4.2299   -1.1892 F   0  0  0  0  0  0  0  0  0  0  0  0
    7.0865   -4.1915    0.9892 F   0  0  0  0  0  0  0  0  0  0  0  0
    3.5074   -3.8824    0.2108 S   0  0  0  0  0  0  0  0  0  0  0  0
    2.4850   -2.5000   -0.0550 C   0  0  0  0  0  0  0  0  0  0  0  0
    0.8384   -2.6906   -0.2502 S   0  0  0  0  0  0  0  0  0  0  0  0
    3.0917   -1.1939   -0.0698 C   0  0  0  0  0  0  0  0  0  0  0  0
    1.1447    1.7274   -0.0484 H   0  0  0  0  0  0  0  0  0  0  0  0
    0.6429    0.2730    0.8126 H   0  0  0  0  0  0  0  0  0  0  0  0
    0.6469    0.3139   -0.9744 H   0  0  0  0  0  0  0  0  0  0  0  0
    5.1961    2.9008    0.8585 H   0  0  0  0  0  0  0  0  0  0  0  0
    5.1925    2.9472   -0.9127 H   0  0  0  0  0  0  0  0  0  0  0  0
    6.7052    3.1496   -0.0251 H   0  0  0  0  0  0  0  0  0  0  0  0
    6.2618    0.9072    2.0877 H   0  0  0  0  0  0  0  0  0  0  0  0
    7.7442    1.2938    1.2017 H   0  0  0  0  0  0  0  0  0  0  0  0
    7.1105   -0.3500    1.1785 H   0  0  0  0  0  0  0  0  0  0  0  0
    6.2137    1.0183   -2.2531 H   0  0  0  0  0  0  0  0  0  0  0  0
    7.0720   -0.2894   -1.4286 H   0  0  0  0  0  0  0  0  0  0  0  0
    7.7170    1.3509   -1.3814 H   0  0  0  0  0  0  0  0  0  0  0  0
  1  2  1  0  0  0  0
  1 20  1  0  0  0  0
  1 21  1  0  0  0  0
  1 22  1  0  0  0  0
  2  3  2  0  0  0  0
  2 19  1  0  0  0  0
  3  4  1  0  0  0  0
  4  5  1  0  0  0  0
  4  9  1  0  0  0  0
  5  6  1  0  0  0  0
  5  7  1  0  0  0  0
  5  8  1  0  0  0  0
  6 23  1  0  0  0  0
  6 24  1  0  0  0  0
  6 25  1  0  0  0  0
  7 26  1  0  0  0  0
  7 27  1  0  0  0  0
  7 28  1  0  0  0  0
  8 29  1  0  0  0  0
  8 30  1  0  0  0  0
  8 31  1  0  0  0  0
  9 10  1  0  0  0  0
  9 19  2  0  0  0  0
 10 11  2  0  0  0  0
 11 12  1  0  0  0  0
 11 16  1  0  0  0  0
 12 13  1  0  0  0  0
 12 14  1  0  0  0  0
 12 15  1  0  0  0  0
 16 17  1  0  0  0  0
 17 18  2  0  0  0  0
 17 19  1  0  0  0  0
M  END
>  <Energy>
90.3872

$$$$

 OpenBabel04232616053D

 39 41  0  0  1  0  0  0  0  0999 V2000
    0.9769    0.3144    0.2599 C   0  0  0  0  0  0  0  0  0  0  0  0
    2.3906    0.4347    0.2264 O   0  0  0  0  0  0  0  0  0  0  0  0
    2.8998    0.8989   -1.0282 C   0  0  3  0  0  0  0  0  0  0  0  0
    2.6133    2.3780   -1.2413 C   0  0  0  0  0  0  0  0  0  0  0  0
    4.3584    0.5495   -1.0243 C   0  0  0  0  0  0  0  0  0  0  0  0
    5.2829    1.5544   -1.0916 O   0  0  0  0  0  0  0  0  0  0  0  0
    6.5188    0.9705   -1.1503 C   0  0  0  0  0  0  0  0  0  0  0  0
    7.7463    1.6368   -1.2635 C   0  0  0  0  0  0  0  0  0  0  0  0
    7.8974    3.1265   -1.2625 C   0  0  0  0  0  0  0  0  0  0  0  0
    8.8626    0.7788   -1.4054 C   0  0  0  0  0  0  0  0  0  0  0  0
   10.1173    1.4082   -1.6200 O   0  0  0  0  0  0  0  0  0  0  0  0
   11.2678    0.6830   -1.8791 C   0  0  0  0  0  0  0  0  0  0  0  0
   12.3396    1.2165   -2.1376 O   0  0  0  0  0  0  0  0  0  0  0  0
   11.1513   -0.7812   -1.8244 C   0  0  0  0  0  0  0  0  0  0  0  0
   10.0021   -1.4196   -1.5730 C   0  0  0  0  0  0  0  0  0  0  0  0
    9.9300   -2.9200   -1.5275 C   0  0  0  0  0  0  0  0  0  0  0  0
    8.7865   -0.6188   -1.3730 C   0  0  0  0  0  0  0  0  0  0  0  0
    7.5340   -1.2145   -1.1806 C   0  0  0  0  0  0  0  0  0  0  0  0
    6.3830   -0.4100   -1.1025 C   0  0  0  0  0  0  0  0  0  0  0  0
    4.9892   -0.6839   -0.9964 C   0  0  0  0  0  0  0  0  0  0  0  0
    4.3353   -2.0112   -0.9135 C   0  0  0  0  0  0  0  0  0  0  0  0
    0.7068   -0.2634    1.1482 H   0  0  0  0  0  0  0  0  0  0  0  0
    0.5999   -0.2133   -0.6215 H   0  0  0  0  0  0  0  0  0  0  0  0
    0.5129    1.3007    0.3405 H   0  0  0  0  0  0  0  0  0  0  0  0
    2.4360    0.3241   -1.8414 H   0  0  0  0  0  0  0  0  0  0  0  0
    2.9423    2.9762   -0.3870 H   0  0  0  0  0  0  0  0  0  0  0  0
    1.5351    2.5465   -1.3497 H   0  0  0  0  0  0  0  0  0  0  0  0
    3.0973    2.7557   -2.1481 H   0  0  0  0  0  0  0  0  0  0  0  0
    6.9346    3.6286   -1.1254 H   0  0  0  0  0  0  0  0  0  0  0  0
    8.3270    3.4686   -2.2092 H   0  0  0  0  0  0  0  0  0  0  0  0
    8.5533    3.4363   -0.4424 H   0  0  0  0  0  0  0  0  0  0  0  0
   12.0785   -1.3160   -2.0070 H   0  0  0  0  0  0  0  0  0  0  0  0
   10.8998   -3.3834   -1.7380 H   0  0  0  0  0  0  0  0  0  0  0  0
    9.2240   -3.3002   -2.2731 H   0  0  0  0  0  0  0  0  0  0  0  0
    9.6144   -3.2599   -0.5355 H   0  0  0  0  0  0  0  0  0  0  0  0
    7.4172   -2.2906   -1.1321 H   0  0  0  0  0  0  0  0  0  0  0  0
    5.0690   -2.8231   -0.8949 H   0  0  0  0  0  0  0  0  0  0  0  0
    3.6837   -2.1691   -1.7786 H   0  0  0  0  0  0  0  0  0  0  0  0
    3.7326   -2.0877   -0.0035 H   0  0  0  0  0  0  0  0  0  0  0  0
  1  2  1  0  0  0  0
  1 22  1  0  0  0  0
  1 23  1  0  0  0  0
  1 24  1  0  0  0  0
  2  3  1  0  0  0  0
  3  4  1  0  0  0  0
  3  5  1  0  0  0  0
  3 25  1  0  0  0  0
  4 26  1  0  0  0  0
  4 27  1  0  0  0  0
  4 28  1  0  0  0  0
  5  6  1  0  0  0  0
  5 20  2  0  0  0  0
  6  7  1  0  0  0  0
  7  8  1  0  0  0  0
  7 19  2  0  0  0  0
  8  9  1  0  0  0  0
  8 10  2  0  0  0  0
  9 29  1  0  0  0  0
  9 30  1  0  0  0  0
  9 31  1  0  0  0  0
 10 11  1  0  0  0  0
 10 17  1  0  0  0  0
 11 12  1  0  0  0  0
 12 13  2  0  0  0  0
 12 14  1  0  0  0  0
 14 15  2  0  0  0  0
 14 32  1  0  0  0  0
 15 16  1  0  0  0  0
 15 17  1  0  0  0  0
 16 33  1  0  0  0  0
 16 34  1  0  0  0  0
 16 35  1  0  0  0  0
 17 18  2  0  0  0  0
 18 19  1  0  0  0  0
 18 36  1  0  0  0  0
 19 20  1  0  0  0  0
 20 21  1  0  0  0  0
 21 37  1  0  0  0  0
 21 38  1  0  0  0  0
 21 39  1  0  0  0  0
M  END
>  <Energy>
52.847

$$$$

 OpenBabel04232616053D

 29 31  0  0  0  0  0  0  0  0999 V2000
    3.0694    0.3075    0.0271 O   0  0  0  0  0  0  0  0  0  0  0  0
    1.8476    0.2421    0.0154 C   0  0  0  0  0  0  0  0  0  0  0  0
    0.9160    1.4425    0.0100 C   0  0  0  0  0  0  0  0  0  0  0  0
   -0.4020    0.7824   -0.0025 C   0  0  0  0  0  0  0  0  0  0  0  0
   -1.6825    1.3105   -0.0104 C   0  0  0  0  0  0  0  0  0  0  0  0
   -2.7550    0.4123   -0.0227 C   0  0  0  0  0  0  0  0  0  0  0  0
   -4.0477    0.9814   -0.0711 O   0  0  0  0  0  0  0  0  0  0  0  0
   -5.0888    0.3848    0.6251 C   0  0  0  0  0  0  0  0  0  0  0  0
   -5.0236   -0.6011    1.3440 O   0  0  0  0  0  0  0  0  0  0  0  0
   -6.3661    1.1094    0.3869 C   0  0  0  0  0  0  0  0  0  0  0  0
   -6.4306    2.3511   -0.2650 C   0  0  0  0  0  0  0  0  0  0  0  0
   -7.6632    2.9883   -0.4393 C   0  0  0  0  0  0  0  0  0  0  0  0
   -8.8340    2.3912    0.0300 C   0  0  0  0  0  0  0  0  0  0  0  0
   -8.7710    1.1575    0.6736 C   0  0  0  0  0  0  0  0  0  0  0  0
  -10.2152    0.4220    1.2503 Cl  0  0  0  0  0  0  0  0  0  0  0  0
   -7.5477    0.5164    0.8545 C   0  0  0  0  0  0  0  0  0  0  0  0
   -2.5389   -0.9760   -0.0653 C   0  0  0  0  0  0  0  0  0  0  0  0
   -1.2372   -1.4845   -0.0447 C   0  0  0  0  0  0  0  0  0  0  0  0
   -0.1906   -0.5843   -0.0130 C   0  0  0  0  0  0  0  0  0  0  0  0
    1.1406   -0.9574    0.0005 O   0  0  0  0  0  0  0  0  0  0  0  0
    1.0798    2.0288   -0.8972 H   0  0  0  0  0  0  0  0  0  0  0  0
    1.0652    2.0289    0.9194 H   0  0  0  0  0  0  0  0  0  0  0  0
   -1.8506    2.3818   -0.0057 H   0  0  0  0  0  0  0  0  0  0  0  0
   -5.5321    2.8395   -0.6345 H   0  0  0  0  0  0  0  0  0  0  0  0
   -7.7124    3.9538   -0.9388 H   0  0  0  0  0  0  0  0  0  0  0  0
   -9.7896    2.8924   -0.1062 H   0  0  0  0  0  0  0  0  0  0  0  0
   -7.5124   -0.4461    1.3623 H   0  0  0  0  0  0  0  0  0  0  0  0
   -3.3722   -1.6717   -0.1067 H   0  0  0  0  0  0  0  0  0  0  0  0
   -1.0568   -2.5543   -0.0564 H   0  0  0  0  0  0  0  0  0  0  0  0
  1  2  2  0  0  0  0
  2  3  1  0  0  0  0
  2 20  1  0  0  0  0
  3  4  1  0  0  0  0
  3 21  1  0  0  0  0
  3 22  1  0  0  0  0
  4  5  1  0  0  0  0
  4 19  2  0  0  0  0
  5  6  2  0  0  0  0
  5 23  1  0  0  0  0
  6  7  1  0  0  0  0
  6 17  1  0  0  0  0
  7  8  1  0  0  0  0
  8  9  2  0  0  0  0
  8 10  1  0  0  0  0
 10 11  1  0  0  0  0
 10 16  2  0  0  0  0
 11 12  2  0  0  0  0
 11 24  1  0  0  0  0
 12 13  1  0  0  0  0
 12 25  1  0  0  0  0
 13 14  2  0  0  0  0
 13 26  1  0  0  0  0
 14 15  1  0  0  0  0
 14 16  1  0  0  0  0
 16 27  1  0  0  0  0
 17 18  2  0  0  0  0
 17 28  1  0  0  0  0
 18 19  1  0  0  0  0
 18 29  1  0  0  0  0
 19 20  1  0  0  0  0
M  END
>  <Energy>
65.7359

$$$$

 OpenBabel04232616053D

 36 39  0  0  0  0  0  0  0  0999 V2000
   -5.8775   -6.2137   -6.2991 C   0  0  0  0  0  0  0  0  0  0  0  0
   -4.7056   -6.6025   -5.4505 C   0  0  0  0  0  0  0  0  0  0  0  0
   -3.5554   -7.1780   -5.9866 C   0  0  0  0  0  0  0  0  0  0  0  0
   -2.4859   -7.5143   -5.1505 C   0  0  0  0  0  0  0  0  0  0  0  0
   -2.5524   -7.2792   -3.7690 C   0  0  0  0  0  0  0  0  0  0  0  0
   -3.6868   -6.6876   -3.2140 C   0  0  0  0  0  0  0  0  0  0  0  0
   -3.8124   -6.3953   -1.8346 N   0  0  0  0  0  0  0  0  0  0  0  0
   -4.9267   -5.6527   -1.4609 N   0  0  0  0  0  0  0  0  0  0  0  0
   -4.8112   -5.4263   -0.1880 C   0  0  0  0  0  0  0  0  0  0  0  0
   -5.7795   -4.6212    0.6005 C   0  0  0  0  0  0  0  0  0  0  0  0
   -5.0391   -3.6393    1.3173 O   0  0  0  0  0  0  0  0  0  0  0  0
   -4.7096   -4.1242    2.5573 C   0  0  0  0  0  0  0  0  0  0  0  0
   -5.2105   -3.3751    3.6237 C   0  0  0  0  0  0  0  0  0  0  0  0
   -5.0338   -3.8285    4.9251 C   0  0  0  0  0  0  0  0  0  0  0  0
   -4.3419   -5.0164    5.1488 C   0  0  0  0  0  0  0  0  0  0  0  0
   -3.7852   -5.7314    4.0791 C   0  0  0  0  0  0  0  0  0  0  0  0
   -3.9468   -5.2908    2.7575 C   0  0  0  0  0  0  0  0  0  0  0  0
   -3.2497   -6.0191    1.6715 C   0  0  0  0  0  0  0  0  0  0  0  0
   -3.6189   -6.0477    0.3851 C   0  0  0  0  0  0  0  0  0  0  0  0
   -2.9401   -6.6990   -0.7688 C   0  0  0  0  0  0  0  0  0  0  0  0
   -1.8973   -7.3194   -0.7182 O   0  0  0  0  0  0  0  0  0  0  0  0
   -4.7486   -6.3506   -4.0750 C   0  0  0  0  0  0  0  0  0  0  0  0
   -5.8187   -6.6571   -7.2971 H   0  0  0  0  0  0  0  0  0  0  0  0
   -5.9228   -5.1244   -6.4014 H   0  0  0  0  0  0  0  0  0  0  0  0
   -6.8090   -6.5626   -5.8380 H   0  0  0  0  0  0  0  0  0  0  0  0
   -3.4827   -7.3690   -7.0545 H   0  0  0  0  0  0  0  0  0  0  0  0
   -1.5905   -7.9605   -5.5791 H   0  0  0  0  0  0  0  0  0  0  0  0
   -1.6965   -7.5483   -3.1568 H   0  0  0  0  0  0  0  0  0  0  0  0
   -6.3876   -5.2736    1.2426 H   0  0  0  0  0  0  0  0  0  0  0  0
   -6.4588   -4.1024   -0.0834 H   0  0  0  0  0  0  0  0  0  0  0  0
   -5.7588   -2.4571    3.4328 H   0  0  0  0  0  0  0  0  0  0  0  0
   -5.4416   -3.2600    5.7563 H   0  0  0  0  0  0  0  0  0  0  0  0
   -4.2217   -5.3826    6.1678 H   0  0  0  0  0  0  0  0  0  0  0  0
   -3.2305   -6.6409    4.2960 H   0  0  0  0  0  0  0  0  0  0  0  0
   -2.3415   -6.5500    1.9626 H   0  0  0  0  0  0  0  0  0  0  0  0
   -5.6453   -5.8834   -3.6724 H   0  0  0  0  0  0  0  0  0  0  0  0
  1  2  1  0  0  0  0
  1 23  1  0  0  0  0
  1 24  1  0  0  0  0
  1 25  1  0  0  0  0
  2  3  1  0  0  0  0
  2 22  2  0  0  0  0
  3  4  2  0  0  0  0
  3 26  1  0  0  0  0
  4  5  1  0  0  0  0
  4 27  1  0  0  0  0
  5  6  2  0  0  0  0
  5 28  1  0  0  0  0
  6  7  1  0  0  0  0
  6 22  1  0  0  0  0
  7  8  1  0  0  0  0
  7 20  1  0  0  0  0
  8  9  2  0  0  0  0
  9 10  1  0  0  0  0
  9 19  1  0  0  0  0
 10 11  1  0  0  0  0
 10 29  1  0  0  0  0
 10 30  1  0  0  0  0
 11 12  1  0  0  0  0
 12 13  1  0  0  0  0
 12 17  2  0  0  0  0
 13 14  2  0  0  0  0
 13 31  1  0  0  0  0
 14 15  1  0  0  0  0
 14 32  1  0  0  0  0
 15 16  2  0  0  0  0
 15 33  1  0  0  0  0
 16 17  1  0  0  0  0
 16 34  1  0  0  0  0
 17 18  1  0  0  0  0
 18 19  2  0  0  0  0
 18 35  1  0  0  0  0
 19 20  1  0  0  0  0
 20 21  2  0  0  0  0
 22 36  1  0  0  0  0
M  END
>  <Energy>
108.916

$$$$

 OpenBabel04232616053D

 24 26  0  0  0  0  0  0  0  0999 V2000
    1.1690    0.1145   -0.4458 O   0  0  0  0  0  0  0  0  0  0  0  0
    2.3634   -0.0398   -0.2369 C   0  0  0  0  0  0  0  0  0  0  0  0
    3.2417    1.1375   -0.1736 C   0  0  0  0  0  0  0  0  0  0  0  0
    2.8751    2.4672   -0.3137 C   0  0  0  0  0  0  0  0  0  0  0  0
    3.8807    3.4267   -0.2104 C   0  0  0  0  0  0  0  0  0  0  0  0
    5.1895    3.0048    0.0237 C   0  0  0  0  0  0  0  0  0  0  0  0
    5.5571    1.7096    0.1735 N   0  0  0  0  0  0  0  0  0  0  0  0
    4.5581    0.8133    0.0730 C   0  0  0  0  0  0  0  0  0  0  0  0
    4.7758   -0.9316    0.2792 S   0  0  0  0  0  0  0  0  0  0  0  0
    3.0889   -1.2154   -0.0006 N   0  0  0  0  0  0  0  0  0  0  0  0
    2.5393   -2.5327    0.0135 C   0  0  0  0  0  0  0  0  0  0  0  0
    1.2940   -2.8082   -0.5743 C   0  0  0  0  0  0  0  0  0  0  0  0
    0.7460   -4.0972   -0.5555 C   0  0  0  0  0  0  0  0  0  0  0  0
    1.4327   -5.1326    0.0674 C   0  0  0  0  0  0  0  0  0  0  0  0
    0.6860   -6.8665    0.1146 Br  0  0  0  0  0  0  0  0  0  0  0  0
    2.6671   -4.8916    0.6580 C   0  0  0  0  0  0  0  0  0  0  0  0
    3.2182   -3.6041    0.6212 C   0  0  0  0  0  0  0  0  0  0  0  0
    1.8410    2.7456   -0.4870 H   0  0  0  0  0  0  0  0  0  0  0  0
    3.6529    4.4841   -0.3055 H   0  0  0  0  0  0  0  0  0  0  0  0
    6.0001    3.7258    0.1037 H   0  0  0  0  0  0  0  0  0  0  0  0
    0.7270   -2.0374   -1.0899 H   0  0  0  0  0  0  0  0  0  0  0  0
   -0.2156   -4.2739   -1.0310 H   0  0  0  0  0  0  0  0  0  0  0  0
    3.2096   -5.6909    1.1565 H   0  0  0  0  0  0  0  0  0  0  0  0
    4.1762   -3.4617    1.1146 H   0  0  0  0  0  0  0  0  0  0  0  0
  1  2  2  0  0  0  0
  2  3  1  0  0  0  0
  2 10  1  0  0  0  0
  3  4  1  0  0  0  0
  3  8  2  0  0  0  0
  4  5  2  0  0  0  0
  4 18  1  0  0  0  0
  5  6  1  0  0  0  0
  5 19  1  0  0  0  0
  6  7  2  0  0  0  0
  6 20  1  0  0  0  0
  7  8  1  0  0  0  0
  8  9  1  0  0  0  0
  9 10  1  0  0  0  0
 10 11  1  0  0  0  0
 11 12  1  0  0  0  0
 11 17  2  0  0  0  0
 12 13  2  0  0  0  0
 12 21  1  0  0  0  0
 13 14  1  0  0  0  0
 13 22  1  0  0  0  0
 14 15  1  0  0  0  0
 14 16  2  0  0  0  0
 16 17  1  0  0  0  0
 16 23  1  0  0  0  0
 17 24  1  0  0  0  0
M  END
>  <Energy>
54.5274

$$$$

 OpenBabel04232616053D

 34 37  0  0  0  0  0  0  0  0999 V2000
    1.3707    0.6164   -0.5844 C   0  0  0  0  0  0  0  0  0  0  0  0
    2.5228    0.0659    0.0429 O   0  0  0  0  0  0  0  0  0  0  0  0
    3.0919   -1.0255   -0.5559 C   0  0  0  0  0  0  0  0  0  0  0  0
    2.6351   -1.6432   -1.7199 C   0  0  0  0  0  0  0  0  0  0  0  0
    3.3066   -2.7553   -2.2214 C   0  0  0  0  0  0  0  0  0  0  0  0
    4.4285   -3.2425   -1.5502 C   0  0  0  0  0  0  0  0  0  0  0  0
    5.0385   -4.3713   -2.1206 O   0  0  0  0  0  0  0  0  0  0  0  0
    6.1431   -4.9445   -1.5280 C   0  0  0  0  0  0  0  0  0  0  0  0
    6.6873   -5.9444   -1.9847 O   0  0  0  0  0  0  0  0  0  0  0  0
    6.6619   -4.3057   -0.3144 C   0  0  0  0  0  0  0  0  0  0  0  0
    6.1213   -3.2167    0.2600 C   0  0  0  0  0  0  0  0  0  0  0  0
    6.7511   -2.7440    1.4654 C   0  0  0  0  0  0  0  0  0  0  0  0
    8.0957   -2.7651    1.8420 C   0  0  0  0  0  0  0  0  0  0  0  0
    8.2049   -2.2452    3.1557 C   0  0  0  0  0  0  0  0  0  0  0  0
    9.2468   -2.0431    4.0771 C   0  0  0  0  0  0  0  0  0  0  0  0
    8.9366   -1.4895    5.3275 C   0  0  0  0  0  0  0  0  0  0  0  0
    7.6244   -1.1329    5.6515 C   0  0  0  0  0  0  0  0  0  0  0  0
    6.5776   -1.3234    4.7425 C   0  0  0  0  0  0  0  0  0  0  0  0
    6.9175   -1.8887    3.5162 C   0  0  0  0  0  0  0  0  0  0  0  0
    6.0509   -2.1790    2.5129 O   0  0  0  0  0  0  0  0  0  0  0  0
    4.9171   -2.6506   -0.3853 C   0  0  0  0  0  0  0  0  0  0  0  0
    4.2289   -1.5275    0.0973 C   0  0  0  0  0  0  0  0  0  0  0  0
    1.0383    1.4701    0.0140 H   0  0  0  0  0  0  0  0  0  0  0  0
    0.5507   -0.1089   -0.6133 H   0  0  0  0  0  0  0  0  0  0  0  0
    1.6082    0.9851   -1.5879 H   0  0  0  0  0  0  0  0  0  0  0  0
    1.7637   -1.2865   -2.2580 H   0  0  0  0  0  0  0  0  0  0  0  0
    2.9584   -3.2419   -3.1283 H   0  0  0  0  0  0  0  0  0  0  0  0
    7.5261   -4.8168    0.0961 H   0  0  0  0  0  0  0  0  0  0  0  0
    8.9119   -3.1348    1.2367 H   0  0  0  0  0  0  0  0  0  0  0  0
   10.2689   -2.3175    3.8349 H   0  0  0  0  0  0  0  0  0  0  0  0
    9.7302   -1.3373    6.0562 H   0  0  0  0  0  0  0  0  0  0  0  0
    7.4110   -0.7034    6.6280 H   0  0  0  0  0  0  0  0  0  0  0  0
    5.5545   -1.0563    4.9771 H   0  0  0  0  0  0  0  0  0  0  0  0
    4.5606   -1.0149    0.9974 H   0  0  0  0  0  0  0  0  0  0  0  0
  1  2  1  0  0  0  0
  1 23  1  0  0  0  0
  1 24  1  0  0  0  0
  1 25  1  0  0  0  0
  2  3  1  0  0  0  0
  3  4  1  0  0  0  0
  3 22  2  0  0  0  0
  4  5  2  0  0  0  0
  4 26  1  0  0  0  0
  5  6  1  0  0  0  0
  5 27  1  0  0  0  0
  6  7  1  0  0  0  0
  6 21  2  0  0  0  0
  7  8  1  0  0  0  0
  8  9  2  0  0  0  0
  8 10  1  0  0  0  0
 10 11  2  0  0  0  0
 10 28  1  0  0  0  0
 11 12  1  0  0  0  0
 11 21  1  0  0  0  0
 12 13  2  0  0  0  0
 12 20  1  0  0  0  0
 13 14  1  0  0  0  0
 13 29  1  0  0  0  0
 14 15  1  0  0  0  0
 14 19  2  0  0  0  0
 15 16  2  0  0  0  0
 15 30  1  0  0  0  0
 16 17  1  0  0  0  0
 16 31  1  0  0  0  0
 17 18  2  0  0  0  0
 17 32  1  0  0  0  0
 18 19  1  0  0  0  0
 18 33  1  0  0  0  0
 19 20  1  0  0  0  0
 21 22  1  0  0  0  0
 22 34  1  0  0  0  0
M  END
>  <Energy>
45.6384

$$$$

 OpenBabel04232616053D

 31 32  0  0  1  0  0  0  0  0999 V2000
    0.9802    0.0766    0.0671 C   0  0  0  0  0  0  0  0  0  0  0  0
    2.4677   -0.0233   -0.0023 C   0  0  0  0  0  0  0  0  0  0  0  0
    3.2027   -1.1239   -0.1495 C   0  0  0  0  0  0  0  0  0  0  0  0
    2.6550   -2.5375   -0.2586 C   0  0  0  0  0  0  0  0  0  0  0  0
    2.2006   -3.7103   -0.3492 N   0  0  0  0  0  0  0  0  0  0  0  0
    4.6357   -0.7990   -0.0940 C   0  0  0  0  0  0  0  0  0  0  0  0
    5.7204   -1.6112    0.1176 C   0  0  0  0  0  0  0  0  0  0  0  0
    5.4689   -3.0830    0.4020 C   0  0  0  0  0  0  0  0  0  0  0  0
    5.2602   -4.3040    0.6380 N   0  0  0  0  0  0  0  0  0  0  0  0
    7.1416   -1.0722    0.1018 C   0  0  0  0  0  0  0  0  0  0  0  0
    8.3206   -0.6251    0.0886 N   0  0  0  0  0  0  0  0  0  0  0  0
    4.7374    0.5986   -0.2202 O   0  0  0  0  0  0  0  0  0  0  0  0
    3.3986    1.1611    0.0975 C   0  0  3  0  0  0  0  0  0  0  0  0
    3.5198    1.6603    1.5507 C   0  0  0  0  0  0  0  0  0  0  0  0
    2.9829    2.2344   -0.9112 C   0  0  0  0  0  0  0  0  0  0  0  0
    3.4255    2.1869   -2.2448 C   0  0  0  0  0  0  0  0  0  0  0  0
    2.8909    3.0559   -3.2069 C   0  0  0  0  0  0  0  0  0  0  0  0
    1.9166    3.9778   -2.8459 C   0  0  0  0  0  0  0  0  0  0  0  0
    1.3788    4.7734   -3.7790 F   0  0  0  0  0  0  0  0  0  0  0  0
    1.4721    4.0639   -1.5397 C   0  0  0  0  0  0  0  0  0  0  0  0
    2.0052    3.1980   -0.5899 C   0  0  0  0  0  0  0  0  0  0  0  0
    1.4893    3.2574    0.6445 F   0  0  0  0  0  0  0  0  0  0  0  0
    0.4999   -0.9071    0.0702 H   0  0  0  0  0  0  0  0  0  0  0  0
    0.5851    0.6217   -0.7953 H   0  0  0  0  0  0  0  0  0  0  0  0
    0.6692    0.5916    0.9809 H   0  0  0  0  0  0  0  0  0  0  0  0
    3.9921    0.9054    2.1920 H   0  0  0  0  0  0  0  0  0  0  0  0
    2.5552    1.9002    2.0070 H   0  0  0  0  0  0  0  0  0  0  0  0
    4.1582    2.5497    1.6015 H   0  0  0  0  0  0  0  0  0  0  0  0
    4.1608    1.4517   -2.5620 H   0  0  0  0  0  0  0  0  0  0  0  0
    3.2121    2.9993   -4.2428 H   0  0  0  0  0  0  0  0  0  0  0  0
    0.6965    4.7694   -1.2656 H   0  0  0  0  0  0  0  0  0  0  0  0
  1  2  1  0  0  0  0
  1 23  1  0  0  0  0
  1 24  1  0  0  0  0
  1 25  1  0  0  0  0
  2  3  2  0  0  0  0
  2 13  1  0  0  0  0
  3  4  1  0  0  0  0
  3  6  1  0  0  0  0
  4  5  3  0  0  0  0
  6  7  2  0  0  0  0
  6 12  1  0  0  0  0
  7  8  1  0  0  0  0
  7 10  1  0  0  0  0
  8  9  3  0  0  0  0
 10 11  3  0  0  0  0
 12 13  1  0  0  0  0
 13 14  1  0  0  0  0
 13 15  1  0  0  0  0
 14 26  1  0  0  0  0
 14 27  1  0  0  0  0
 14 28  1  0  0  0  0
 15 16  1  0  0  0  0
 15 21  2  0  0  0  0
 16 17  2  0  0  0  0
 16 29  1  0  0  0  0
 17 18  1  0  0  0  0
 17 30  1  0  0  0  0
 18 19  1  0  0  0  0
 18 20  2  0  0  0  0
 20 21  1  0  0  0  0
 20 31  1  0  0  0  0
 21 22  1  0  0  0  0
M  END
>  <Energy>
480.281

$$$$

 OpenBabel04232616053D

 34 36  0  0  1  0  0  0  0  0999 V2000
    1.1001    0.1157    0.3466 C   0  0  0  0  0  0  0  0  0  0  0  0
    2.6097   -0.1413    0.2673 C   0  0  3  0  0  0  0  0  0  0  0  0
    3.3239    0.9956    1.0286 C   0  0  0  0  0  0  0  0  0  0  0  0
    4.0667    0.2581    2.0871 C   0  0  0  0  0  0  0  0  0  0  0  0
    4.7889    0.8466    3.1203 C   0  0  0  0  0  0  0  0  0  0  0  0
    5.4355    0.0188    4.0302 C   0  0  0  0  0  0  0  0  0  0  0  0
    5.3413   -1.3723    3.8972 C   0  0  0  0  0  0  0  0  0  0  0  0
    4.5873   -1.9526    2.8620 C   0  0  0  0  0  0  0  0  0  0  0  0
    3.9574   -1.1269    1.9409 C   0  0  0  0  0  0  0  0  0  0  0  0
    3.1142   -1.4475    0.8365 N   0  0  0  0  0  0  0  0  0  0  0  0
    2.8618   -2.7062    0.2557 C   0  0  0  0  0  0  0  0  0  0  0  0
    1.4706   -3.0341   -0.6361 S   0  0  0  0  0  0  0  0  0  0  0  0
    3.8795   -3.6493    0.4121 N   0  0  0  0  0  0  0  0  0  0  0  0
    3.9653   -4.9613   -0.0824 C   0  0  0  0  0  0  0  0  0  0  0  0
    3.0535   -5.5883   -0.6015 O   0  0  0  0  0  0  0  0  0  0  0  0
    5.2675   -5.5753    0.1037 C   0  0  0  0  0  0  0  0  0  0  0  0
    5.7220   -6.8244   -0.2722 C   0  0  0  0  0  0  0  0  0  0  0  0
    7.0545   -6.9267    0.1774 C   0  0  0  0  0  0  0  0  0  0  0  0
    7.3374   -5.7301    0.7940 C   0  0  0  0  0  0  0  0  0  0  0  0
    6.2627   -4.9037    0.7570 O   0  0  0  0  0  0  0  0  0  0  0  0
    0.8768    1.1205   -0.0323 H   0  0  0  0  0  0  0  0  0  0  0  0
    0.7322    0.0444    1.3744 H   0  0  0  0  0  0  0  0  0  0  0  0
    0.5087   -0.5591   -0.2701 H   0  0  0  0  0  0  0  0  0  0  0  0
    2.9134   -0.1197   -0.7876 H   0  0  0  0  0  0  0  0  0  0  0  0
    2.6247    1.7086    1.4804 H   0  0  0  0  0  0  0  0  0  0  0  0
    4.0143    1.5367    0.3746 H   0  0  0  0  0  0  0  0  0  0  0  0
    4.8384    1.9270    3.2234 H   0  0  0  0  0  0  0  0  0  0  0  0
    6.0031    0.4537    4.8501 H   0  0  0  0  0  0  0  0  0  0  0  0
    5.8450   -2.0074    4.6232 H   0  0  0  0  0  0  0  0  0  0  0  0
    4.4972   -3.0319    2.8417 H   0  0  0  0  0  0  0  0  0  0  0  0
    4.7629   -3.2845    0.7371 H   0  0  0  0  0  0  0  0  0  0  0  0
    5.1431   -7.5691   -0.8031 H   0  0  0  0  0  0  0  0  0  0  0  0
    7.7285   -7.7659    0.0702 H   0  0  0  0  0  0  0  0  0  0  0  0
    8.2141   -5.3331    1.2914 H   0  0  0  0  0  0  0  0  0  0  0  0
  1  2  1  0  0  0  0
  1 21  1  0  0  0  0
  1 22  1  0  0  0  0
  1 23  1  0  0  0  0
  2  3  1  0  0  0  0
  2 10  1  0  0  0  0
  2 24  1  0  0  0  0
  3  4  1  0  0  0  0
  3 25  1  0  0  0  0
  3 26  1  0  0  0  0
  4  5  1  0  0  0  0
  4  9  2  0  0  0  0
  5  6  2  0  0  0  0
  5 27  1  0  0  0  0
  6  7  1  0  0  0  0
  6 28  1  0  0  0  0
  7  8  2  0  0  0  0
  7 29  1  0  0  0  0
  8  9  1  0  0  0  0
  8 30  1  0  0  0  0
  9 10  1  0  0  0  0
 10 11  1  0  0  0  0
 11 12  2  0  0  0  0
 11 13  1  0  0  0  0
 13 14  1  0  0  0  0
 13 31  1  0  0  0  0
 14 15  2  0  0  0  0
 14 16  1  0  0  0  0
 16 17  2  0  0  0  0
 16 20  1  0  0  0  0
 17 18  1  0  0  0  0
 17 32  1  0  0  0  0
 18 19  2  0  0  0  0
 18 33  1  0  0  0  0
 19 20  1  0  0  0  0
 19 34  1  0  0  0  0
M  END
>  <Energy>
10.0283

$$$$

 OpenBabel04232616053D

 37 39  0  0  0  0  0  0  0  0999 V2000
    1.6576   -0.4223   -0.8524 O   0  0  0  0  0  0  0  0  0  0  0  0
    2.5293    0.0225   -0.1073 C   0  0  0  0  0  0  0  0  0  0  0  0
    3.1110    1.3363   -0.4638 C   0  0  0  0  0  0  0  0  0  0  0  0
    2.2469    2.4254   -0.6201 C   0  0  0  0  0  0  0  0  0  0  0  0
    2.7601    3.6750   -0.9746 C   0  0  0  0  0  0  0  0  0  0  0  0
    4.1314    3.8263   -1.1823 C   0  0  0  0  0  0  0  0  0  0  0  0
    4.7649    5.3689   -1.6048 Cl  0  0  0  0  0  0  0  0  0  0  0  0
    4.9930    2.7354   -1.0593 C   0  0  0  0  0  0  0  0  0  0  0  0
    4.4809    1.4820   -0.7151 C   0  0  0  0  0  0  0  0  0  0  0  0
    2.9611   -0.6328    1.0435 N   0  0  0  0  0  0  0  0  0  0  0  0
    2.5982   -2.0529    1.1794 C   0  0  0  0  0  0  0  0  0  0  0  0
    2.5315   -2.5478    2.6373 C   0  0  0  0  0  0  0  0  0  0  0  0
    3.7572   -2.1448    3.3454 N   0  0  0  0  0  0  0  0  0  0  0  0
    4.2962   -2.9017    4.3717 C   0  0  0  0  0  0  0  0  0  0  0  0
    3.5947   -3.9073    5.0417 C   0  0  0  0  0  0  0  0  0  0  0  0
    4.2139   -4.6856    6.0237 C   0  0  0  0  0  0  0  0  0  0  0  0
    5.5416   -4.4418    6.3217 C   0  0  0  0  0  0  0  0  0  0  0  0
    6.2713   -3.4865    5.7191 N   0  0  0  0  0  0  0  0  0  0  0  0
    5.6336   -2.7573    4.7681 C   0  0  0  0  0  0  0  0  0  0  0  0
    3.9526   -0.6845    3.3588 C   0  0  0  0  0  0  0  0  0  0  0  0
    4.0555   -0.1674    1.9129 C   0  0  0  0  0  0  0  0  0  0  0  0
    1.1761    2.2971   -0.4739 H   0  0  0  0  0  0  0  0  0  0  0  0
    2.0871    4.5200   -1.0939 H   0  0  0  0  0  0  0  0  0  0  0  0
    6.0585    2.8533   -1.2399 H   0  0  0  0  0  0  0  0  0  0  0  0
    5.1483    0.6264   -0.6553 H   0  0  0  0  0  0  0  0  0  0  0  0
    3.3684   -2.6181    0.6391 H   0  0  0  0  0  0  0  0  0  0  0  0
    1.6418   -2.2532    0.6840 H   0  0  0  0  0  0  0  0  0  0  0  0
    2.4114   -3.6367    2.6125 H   0  0  0  0  0  0  0  0  0  0  0  0
    1.6560   -2.1192    3.1415 H   0  0  0  0  0  0  0  0  0  0  0  0
    2.5487   -4.0997    4.8241 H   0  0  0  0  0  0  0  0  0  0  0  0
    3.6680   -5.4672    6.5399 H   0  0  0  0  0  0  0  0  0  0  0  0
    6.0682   -5.0271    7.0693 H   0  0  0  0  0  0  0  0  0  0  0  0
    6.2806   -2.0375    4.2743 H   0  0  0  0  0  0  0  0  0  0  0  0
    4.8484   -0.3729    3.9056 H   0  0  0  0  0  0  0  0  0  0  0  0
    3.0952   -0.2139    3.8575 H   0  0  0  0  0  0  0  0  0  0  0  0
    4.9890   -0.5294    1.4662 H   0  0  0  0  0  0  0  0  0  0  0  0
    4.0842    0.9260    1.9314 H   0  0  0  0  0  0  0  0  0  0  0  0
  1  2  2  0  0  0  0
  2  3  1  0  0  0  0
  2 10  1  0  0  0  0
  3  4  1  0  0  0  0
  3  9  2  0  0  0  0
  4  5  2  0  0  0  0
  4 22  1  0  0  0  0
  5  6  1  0  0  0  0
  5 23  1  0  0  0  0
  6  7  1  0  0  0  0
  6  8  2  0  0  0  0
  8  9  1  0  0  0  0
  8 24  1  0  0  0  0
  9 25  1  0  0  0  0
 10 11  1  0  0  0  0
 10 21  1  0  0  0  0
 11 12  1  0  0  0  0
 11 26  1  0  0  0  0
 11 27  1  0  0  0  0
 12 13  1  0  0  0  0
 12 28  1  0  0  0  0
 12 29  1  0  0  0  0
 13 14  1  0  0  0  0
 13 20  1  0  0  0  0
 14 15  1  0  0  0  0
 14 19  2  0  0  0  0
 15 16  2  0  0  0  0
 15 30  1  0  0  0  0
 16 17  1  0  0  0  0
 16 31  1  0  0  0  0
 17 18  2  0  0  0  0
 17 32  1  0  0  0  0
 18 19  1  0  0  0  0
 19 33  1  0  0  0  0
 20 21  1  0  0  0  0
 20 34  1  0  0  0  0
 20 35  1  0  0  0  0
 21 36  1  0  0  0  0
 21 37  1  0  0  0  0
M  END
>  <Energy>
122.633

$$$$

 OpenBabel04232616053D

 27 29  0  0  0  0  0  0  0  0999 V2000
    1.2034    0.3290   -0.6438 O   0  0  0  0  0  0  0  0  0  0  0  0
    2.3181    0.0690   -0.2012 C   0  0  0  0  0  0  0  0  0  0  0  0
    3.0764    1.1475    0.4800 C   0  0  0  0  0  0  0  0  0  0  0  0
    4.3780    1.4176    0.0233 C   0  0  0  0  0  0  0  0  0  0  0  0
    5.1016    2.4874    0.5512 C   0  0  0  0  0  0  0  0  0  0  0  0
    4.5215    3.3006    1.5212 C   0  0  0  0  0  0  0  0  0  0  0  0
    5.4063    4.6357    2.1478 Cl  0  0  0  0  0  0  0  0  0  0  0  0
    3.2297    3.0464    1.9781 C   0  0  0  0  0  0  0  0  0  0  0  0
    2.5032    1.9666    1.4619 C   0  0  0  0  0  0  0  0  0  0  0  0
    0.9316    1.6830    2.1151 Cl  0  0  0  0  0  0  0  0  0  0  0  0
    2.8597   -1.1995   -0.4802 N   0  0  0  0  0  0  0  0  0  0  0  0
    3.9374   -1.7846    0.1528 C   0  0  0  0  0  0  0  0  0  0  0  0
    4.3308   -2.8912   -0.4286 N   0  0  0  0  0  0  0  0  0  0  0  0
    3.4497   -3.0808   -1.4602 C   0  0  0  0  0  0  0  0  0  0  0  0
    3.4257   -4.0933   -2.4312 C   0  0  0  0  0  0  0  0  0  0  0  0
    2.4259   -4.0690   -3.4107 C   0  0  0  0  0  0  0  0  0  0  0  0
    1.4594   -3.0638   -3.4155 C   0  0  0  0  0  0  0  0  0  0  0  0
    1.4683   -2.0450   -2.4566 C   0  0  0  0  0  0  0  0  0  0  0  0
    2.4849   -2.0762   -1.4902 C   0  0  0  0  0  0  0  0  0  0  0  0
    4.8329    0.8252   -0.7694 H   0  0  0  0  0  0  0  0  0  0  0  0
    6.1065    2.6905    0.1899 H   0  0  0  0  0  0  0  0  0  0  0  0
    2.7862    3.6930    2.7333 H   0  0  0  0  0  0  0  0  0  0  0  0
    4.4002   -1.3535    1.0309 H   0  0  0  0  0  0  0  0  0  0  0  0
    4.1824   -4.8709   -2.4248 H   0  0  0  0  0  0  0  0  0  0  0  0
    2.4063   -4.8403   -4.1767 H   0  0  0  0  0  0  0  0  0  0  0  0
    0.6904   -3.0609   -4.1856 H   0  0  0  0  0  0  0  0  0  0  0  0
    0.7214   -1.2570   -2.4783 H   0  0  0  0  0  0  0  0  0  0  0  0
  1  2  2  0  0  0  0
  2  3  1  0  0  0  0
  2 11  1  0  0  0  0
  3  4  1  0  0  0  0
  3  9  2  0  0  0  0
  4  5  2  0  0  0  0
  4 20  1  0  0  0  0
  5  6  1  0  0  0  0
  5 21  1  0  0  0  0
  6  7  1  0  0  0  0
  6  8  2  0  0  0  0
  8  9  1  0  0  0  0
  8 22  1  0  0  0  0
  9 10  1  0  0  0  0
 11 12  1  0  0  0  0
 11 19  1  0  0  0  0
 12 13  2  0  0  0  0
 12 23  1  0  0  0  0
 13 14  1  0  0  0  0
 14 15  1  0  0  0  0
 14 19  2  0  0  0  0
 15 16  2  0  0  0  0
 15 24  1  0  0  0  0
 16 17  1  0  0  0  0
 16 25  1  0  0  0  0
 17 18  2  0  0  0  0
 17 26  1  0  0  0  0
 18 19  1  0  0  0  0
 18 27  1  0  0  0  0
M  END
>  <Energy>
58.9655

$$$$

 OpenBabel04232616053D

 35 37  0  0  0  0  0  0  0  0999 V2000
    1.3496    0.1012   -0.8721 O   0  0  0  0  0  0  0  0  0  0  0  0
    2.5086    0.0618   -0.4658 C   0  0  0  0  0  0  0  0  0  0  0  0
    3.0959    1.1665    0.4050 C   0  0  0  0  0  0  0  0  0  0  0  0
    2.1485    2.2400    0.6889 N   0  0  0  0  0  0  0  0  0  0  0  0
    1.2313    2.3164    1.7250 C   0  0  0  0  0  0  0  0  0  0  0  0
    1.0287    1.2713    2.7808 C   0  0  0  0  0  0  0  0  0  0  0  0
    1.8339    0.1848    2.6299 F   0  0  0  0  0  0  0  0  0  0  0  0
    1.2982    1.7604    4.0224 F   0  0  0  0  0  0  0  0  0  0  0  0
   -0.2440    0.7993    2.8146 F   0  0  0  0  0  0  0  0  0  0  0  0
    0.5720    3.4684    1.6668 N   0  0  0  0  0  0  0  0  0  0  0  0
    1.0702    4.1464    0.5920 C   0  0  0  0  0  0  0  0  0  0  0  0
    0.7155    5.4134    0.1014 C   0  0  0  0  0  0  0  0  0  0  0  0
    1.3943    5.9186   -1.0118 C   0  0  0  0  0  0  0  0  0  0  0  0
    2.4011    5.1743   -1.6266 C   0  0  0  0  0  0  0  0  0  0  0  0
    2.7571    3.9030   -1.1571 C   0  0  0  0  0  0  0  0  0  0  0  0
    2.0707    3.4156   -0.0366 C   0  0  0  0  0  0  0  0  0  0  0  0
    3.3503   -0.9890   -0.7901 N   0  0  0  0  0  0  0  0  0  0  0  0
    2.9082   -2.0682   -1.6574 C   0  0  0  0  0  0  0  0  0  0  0  0
    3.8167   -3.2308   -1.2936 C   0  0  0  0  0  0  0  0  0  0  0  0
    5.1326   -2.5426   -0.9517 C   0  0  0  0  0  0  0  0  0  0  0  0
    4.7039   -1.2247   -0.3100 C   0  0  0  0  0  0  0  0  0  0  0  0
    3.9526    1.6051   -0.1139 H   0  0  0  0  0  0  0  0  0  0  0  0
    3.4640    0.7676    1.3535 H   0  0  0  0  0  0  0  0  0  0  0  0
   -0.0696    5.9831    0.5865 H   0  0  0  0  0  0  0  0  0  0  0  0
    1.1312    6.8997   -1.3996 H   0  0  0  0  0  0  0  0  0  0  0  0
    2.9173    5.5875   -2.4906 H   0  0  0  0  0  0  0  0  0  0  0  0
    3.5337    3.3321   -1.6544 H   0  0  0  0  0  0  0  0  0  0  0  0
    3.0791   -1.7478   -2.6921 H   0  0  0  0  0  0  0  0  0  0  0  0
    1.8473   -2.2969   -1.5265 H   0  0  0  0  0  0  0  0  0  0  0  0
    3.9145   -3.9604   -2.1026 H   0  0  0  0  0  0  0  0  0  0  0  0
    3.4274   -3.7492   -0.4092 H   0  0  0  0  0  0  0  0  0  0  0  0
    5.7003   -2.3505   -1.8698 H   0  0  0  0  0  0  0  0  0  0  0  0
    5.7609   -3.1456   -0.2888 H   0  0  0  0  0  0  0  0  0  0  0  0
    5.3561   -0.3970   -0.6044 H   0  0  0  0  0  0  0  0  0  0  0  0
    4.6822   -1.2940    0.7820 H   0  0  0  0  0  0  0  0  0  0  0  0
  1  2  2  0  0  0  0
  2  3  1  0  0  0  0
  2 17  1  0  0  0  0
  3  4  1  0  0  0  0
  3 22  1  0  0  0  0
  3 23  1  0  0  0  0
  4  5  1  0  0  0  0
  4 16  1  0  0  0  0
  5  6  1  0  0  0  0
  5 10  2  0  0  0  0
  6  7  1  0  0  0  0
  6  8  1  0  0  0  0
  6  9  1  0  0  0  0
 10 11  1  0  0  0  0
 11 12  1  0  0  0  0
 11 16  2  0  0  0  0
 12 13  2  0  0  0  0
 12 24  1  0  0  0  0
 13 14  1  0  0  0  0
 13 25  1  0  0  0  0
 14 15  2  0  0  0  0
 14 26  1  0  0  0  0
 15 16  1  0  0  0  0
 15 27  1  0  0  0  0
 17 18  1  0  0  0  0
 17 21  1  0  0  0  0
 18 19  1  0  0  0  0
 18 28  1  0  0  0  0
 18 29  1  0  0  0  0
 19 20  1  0  0  0  0
 19 30  1  0  0  0  0
 19 31  1  0  0  0  0
 20 21  1  0  0  0  0
 20 32  1  0  0  0  0
 20 33  1  0  0  0  0
 21 34  1  0  0  0  0
 21 35  1  0  0  0  0
M  END
>  <Energy>
55.114

$$$$

 OpenBabel04232616053D

 33 36  0  0  0  0  0  0  0  0999 V2000
    0.9364   -0.2248   -0.1895 O   0  0  0  0  0  0  0  0  0  0  0  0
    2.1611   -0.0986   -0.1617 C   0  0  0  0  0  0  0  0  0  0  0  0
    2.8371    1.1973   -0.4566 C   0  0  0  0  0  0  0  0  0  0  0  0
    4.1823    1.2308   -0.4191 C   0  0  0  0  0  0  0  0  0  0  0  0
    4.9969    0.1671   -0.0824 O   0  0  0  0  0  0  0  0  0  0  0  0
    4.4048   -1.0009    0.3136 C   0  0  0  0  0  0  0  0  0  0  0  0
    5.2467   -1.9840    0.8351 C   0  0  0  0  0  0  0  0  0  0  0  0
    4.7074   -3.1936    1.2689 C   0  0  0  0  0  0  0  0  0  0  0  0
    3.3446   -3.4326    1.1128 C   0  0  0  0  0  0  0  0  0  0  0  0
    2.8415   -4.6140    1.4923 F   0  0  0  0  0  0  0  0  0  0  0  0
    2.4964   -2.4598    0.5930 C   0  0  0  0  0  0  0  0  0  0  0  0
    3.0315   -1.2203    0.2322 C   0  0  0  0  0  0  0  0  0  0  0  0
    4.9333    2.4572   -0.7270 C   0  0  0  0  0  0  0  0  0  0  0  0
    5.8691    2.4524   -1.7717 C   0  0  0  0  0  0  0  0  0  0  0  0
    6.5831    3.6105   -2.0900 C   0  0  0  0  0  0  0  0  0  0  0  0
    6.3834    4.7797   -1.3567 C   0  0  0  0  0  0  0  0  0  0  0  0
    5.4758    4.7922   -0.2984 C   0  0  0  0  0  0  0  0  0  0  0  0
    4.7458    3.6404    0.0024 C   0  0  0  0  0  0  0  0  0  0  0  0
    3.8874    3.6661    1.0749 O   0  0  0  0  0  0  0  0  0  0  0  0
    2.6005    4.1646    0.6779 C   0  0  0  0  0  0  0  0  0  0  0  0
    1.6326    3.0272    0.3335 C   0  0  0  0  0  0  0  0  0  0  0  0
    2.0664    2.2914   -0.8206 O   0  0  0  0  0  0  0  0  0  0  0  0
    6.3134   -1.7949    0.9271 H   0  0  0  0  0  0  0  0  0  0  0  0
    5.3386   -3.9472    1.7300 H   0  0  0  0  0  0  0  0  0  0  0  0
    1.4340   -2.6649    0.5016 H   0  0  0  0  0  0  0  0  0  0  0  0
    6.0417    1.5468   -2.3496 H   0  0  0  0  0  0  0  0  0  0  0  0
    7.2978    3.5977   -2.9091 H   0  0  0  0  0  0  0  0  0  0  0  0
    6.9410    5.6789   -1.6051 H   0  0  0  0  0  0  0  0  0  0  0  0
    5.3358    5.6951    0.2884 H   0  0  0  0  0  0  0  0  0  0  0  0
    2.6788    4.8796   -0.1513 H   0  0  0  0  0  0  0  0  0  0  0  0
    2.2047    4.7152    1.5393 H   0  0  0  0  0  0  0  0  0  0  0  0
    0.6644    3.4711    0.0755 H   0  0  0  0  0  0  0  0  0  0  0  0
    1.4709    2.3684    1.1958 H   0  0  0  0  0  0  0  0  0  0  0  0
  1  2  2  0  0  0  0
  2  3  1  0  0  0  0
  2 12  1  0  0  0  0
  3  4  2  0  0  0  0
  3 22  1  0  0  0  0
  4  5  1  0  0  0  0
  4 13  1  0  0  0  0
  5  6  1  0  0  0  0
  6  7  1  0  0  0  0
  6 12  2  0  0  0  0
  7  8  2  0  0  0  0
  7 23  1  0  0  0  0
  8  9  1  0  0  0  0
  8 24  1  0  0  0  0
  9 10  1  0  0  0  0
  9 11  2  0  0  0  0
 11 12  1  0  0  0  0
 11 25  1  0  0  0  0
 13 14  1  0  0  0  0
 13 18  2  0  0  0  0
 14 15  2  0  0  0  0
 14 26  1  0  0  0  0
 15 16  1  0  0  0  0
 15 27  1  0  0  0  0
 16 17  2  0  0  0  0
 16 28  1  0  0  0  0
 17 18  1  0  0  0  0
 17 29  1  0  0  0  0
 18 19  1  0  0  0  0
 19 20  1  0  0  0  0
 20 21  1  0  0  0  0
 20 30  1  0  0  0  0
 20 31  1  0  0  0  0
 21 22  1  0  0  0  0
 21 32  1  0  0  0  0
 21 33  1  0  0  0  0
M  END
>  <Energy>
101.212

$$$$

 OpenBabel04232616053D

 37 40  0  0  0  0  0  0  0  0999 V2000
    2.5149   -0.0006    0.2033 C   0  0  0  0  0  0  0  0  0  0  0  0
    1.0178   -0.0528    0.3421 C   0  0  0  0  0  0  0  0  0  0  0  0
    0.3262    1.1722    0.2440 C   0  0  0  0  0  0  0  0  0  0  0  0
   -1.0663    1.2222    0.1657 C   0  0  0  0  0  0  0  0  0  0  0  0
   -1.8013    0.0490    0.2334 C   0  0  0  0  0  0  0  0  0  0  0  0
   -1.1469   -1.1710    0.3901 C   0  0  0  0  0  0  0  0  0  0  0  0
    0.2606   -1.2424    0.4255 C   0  0  0  0  0  0  0  0  0  0  0  0
    0.8464   -2.5349    0.2344 N   0  0  0  0  0  0  0  0  0  0  0  0
    1.9997   -3.0997    0.7617 C   0  0  0  0  0  0  0  0  0  0  0  0
    2.5062   -2.7642    2.1188 C   0  0  0  0  0  0  0  0  0  0  0  0
    2.5190   -4.0018   -0.0727 N   0  0  0  0  0  0  0  0  0  0  0  0
    1.6423   -4.0885   -1.1206 C   0  0  0  0  0  0  0  0  0  0  0  0
    0.5298   -3.3225   -0.8433 C   0  0  0  0  0  0  0  0  0  0  0  0
   -0.4253   -3.0387   -1.8557 C   0  0  0  0  0  0  0  0  0  0  0  0
   -1.6335   -3.1037   -1.7957 O   0  0  0  0  0  0  0  0  0  0  0  0
    0.2891   -2.7453   -3.0956 C   0  0  0  0  0  0  0  0  0  0  0  0
    0.4170   -1.4380   -3.5398 C   0  0  0  0  0  0  0  0  0  0  0  0
    1.1612   -1.2067   -4.6851 C   0  0  0  0  0  0  0  0  0  0  0  0
    1.6794   -2.2941   -5.4021 C   0  0  0  0  0  0  0  0  0  0  0  0
    1.6949   -3.5754   -4.8351 C   0  0  0  0  0  0  0  0  0  0  0  0
    1.1607   -3.7435   -3.5681 C   0  0  0  0  0  0  0  0  0  0  0  0
    1.8493   -4.6059   -2.5156 C   0  0  0  0  0  0  0  0  0  0  0  0
    2.6107   -5.4982   -2.8278 O   0  0  0  0  0  0  0  0  0  0  0  0
    2.8611    1.0238    0.0202 H   0  0  0  0  0  0  0  0  0  0  0  0
    2.8439   -0.5997   -0.6514 H   0  0  0  0  0  0  0  0  0  0  0  0
    3.0086   -0.3336    1.1174 H   0  0  0  0  0  0  0  0  0  0  0  0
    0.8758    2.1102    0.1608 H   0  0  0  0  0  0  0  0  0  0  0  0
   -1.5724    2.1736    0.0254 H   0  0  0  0  0  0  0  0  0  0  0  0
   -2.8851    0.0723    0.1248 H   0  0  0  0  0  0  0  0  0  0  0  0
   -1.7573   -2.0737    0.4191 H   0  0  0  0  0  0  0  0  0  0  0  0
    2.0192   -1.8798    2.5412 H   0  0  0  0  0  0  0  0  0  0  0  0
    3.5850   -2.5841    2.0981 H   0  0  0  0  0  0  0  0  0  0  0  0
    2.3057   -3.5976    2.7977 H   0  0  0  0  0  0  0  0  0  0  0  0
    0.0167   -0.6143   -2.9480 H   0  0  0  0  0  0  0  0  0  0  0  0
    1.3446   -0.1878   -5.0152 H   0  0  0  0  0  0  0  0  0  0  0  0
    2.1585   -2.1178   -6.3614 H   0  0  0  0  0  0  0  0  0  0  0  0
    2.2125   -4.3910   -5.3335 H   0  0  0  0  0  0  0  0  0  0  0  0
  1  2  1  0  0  0  0
  1 24  1  0  0  0  0
  1 25  1  0  0  0  0
  1 26  1  0  0  0  0
  2  3  1  0  0  0  0
  2  7  2  0  0  0  0
  3  4  2  0  0  0  0
  3 27  1  0  0  0  0
  4  5  1  0  0  0  0
  4 28  1  0  0  0  0
  5  6  2  0  0  0  0
  5 29  1  0  0  0  0
  6  7  1  0  0  0  0
  6 30  1  0  0  0  0
  7  8  1  0  0  0  0
  8  9  1  0  0  0  0
  8 13  1  0  0  0  0
  9 10  1  0  0  0  0
  9 11  2  0  0  0  0
 10 31  1  0  0  0  0
 10 32  1  0  0  0  0
 10 33  1  0  0  0  0
 11 12  1  0  0  0  0
 12 13  2  0  0  0  0
 12 22  1  0  0  0  0
 13 14  1  0  0  0  0
 14 15  2  0  0  0  0
 14 16  1  0  0  0  0
 16 17  1  0  0  0  0
 16 21  2  0  0  0  0
 17 18  2  0  0  0  0
 17 34  1  0  0  0  0
 18 19  1  0  0  0  0
 18 35  1  0  0  0  0
 19 20  2  0  0  0  0
 19 36  1  0  0  0  0
 20 21  1  0  0  0  0
 20 37  1  0  0  0  0
 21 22  1  0  0  0  0
 22 23  2  0  0  0  0
M  END
>  <Energy>
163.298

$$$$

 OpenBabel04232616053D

 39 42  0  0  0  0  0  0  0  0999 V2000
    2.2810   -1.3764   -0.4390 C   0  0  0  0  0  0  0  0  0  0  0  0
    2.5263    0.0509    0.0891 C   0  0  0  0  0  0  0  0  0  0  0  0
    3.5924    0.7278   -0.7893 C   0  0  0  0  0  0  0  0  0  0  0  0
    1.2132    0.8459   -0.0042 C   0  0  0  0  0  0  0  0  0  0  0  0
    3.0060   -0.0195    1.5218 C   0  0  0  0  0  0  0  0  0  0  0  0
    3.2273   -1.1170    2.2212 N   0  0  0  0  0  0  0  0  0  0  0  0
    3.6877   -0.7070    3.4422 C   0  0  0  0  0  0  0  0  0  0  0  0
    4.0850   -1.4647    4.5527 C   0  0  0  0  0  0  0  0  0  0  0  0
    4.5332   -0.7952    5.6998 C   0  0  0  0  0  0  0  0  0  0  0  0
    4.5811    0.6057    5.7376 C   0  0  0  0  0  0  0  0  0  0  0  0
    4.1860    1.3692    4.6358 C   0  0  0  0  0  0  0  0  0  0  0  0
    3.7448    0.6770    3.5043 C   0  0  0  0  0  0  0  0  0  0  0  0
    3.2995    1.0936    2.2749 N   0  0  0  0  0  0  0  0  0  0  0  0
    4.2353    2.8379    4.6579 C   0  0  0  0  0  0  0  0  0  0  0  0
    3.8841    3.4803    3.6723 O   0  0  0  0  0  0  0  0  0  0  0  0
    4.7115    3.5123    5.8814 C   0  0  0  0  0  0  0  0  0  0  0  0
    4.7704    4.9105    5.9265 C   0  0  0  0  0  0  0  0  0  0  0  0
    5.2165    5.5525    7.0833 C   0  0  0  0  0  0  0  0  0  0  0  0
    5.6011    4.8026    8.1950 C   0  0  0  0  0  0  0  0  0  0  0  0
    5.5450    3.4095    8.1517 C   0  0  0  0  0  0  0  0  0  0  0  0
    5.1022    2.7621    6.9917 C   0  0  0  0  0  0  0  0  0  0  0  0
    5.0570    1.2857    6.9583 C   0  0  0  0  0  0  0  0  0  0  0  0
    5.4094    0.6316    7.9310 O   0  0  0  0  0  0  0  0  0  0  0  0
    1.9354   -1.3668   -1.4781 H   0  0  0  0  0  0  0  0  0  0  0  0
    1.5244   -1.8977    0.1601 H   0  0  0  0  0  0  0  0  0  0  0  0
    3.1980   -1.9781   -0.3988 H   0  0  0  0  0  0  0  0  0  0  0  0
    3.2664    0.7812   -1.8343 H   0  0  0  0  0  0  0  0  0  0  0  0
    4.5403    0.1780   -0.7614 H   0  0  0  0  0  0  0  0  0  0  0  0
    3.7975    1.7522   -0.4568 H   0  0  0  0  0  0  0  0  0  0  0  0
    0.8663    0.9099   -1.0423 H   0  0  0  0  0  0  0  0  0  0  0  0
    1.3335    1.8716    0.3634 H   0  0  0  0  0  0  0  0  0  0  0  0
    0.4174    0.3765    0.5854 H   0  0  0  0  0  0  0  0  0  0  0  0
    4.0461   -2.5485    4.5130 H   0  0  0  0  0  0  0  0  0  0  0  0
    4.8465   -1.3788    6.5639 H   0  0  0  0  0  0  0  0  0  0  0  0
    3.2251    2.0624    1.9878 H   0  0  0  0  0  0  0  0  0  0  0  0
    4.4707    5.5036    5.0642 H   0  0  0  0  0  0  0  0  0  0  0  0
    5.2641    6.6385    7.1182 H   0  0  0  0  0  0  0  0  0  0  0  0
    5.9465    5.3025    9.0974 H   0  0  0  0  0  0  0  0  0  0  0  0
    5.8480    2.8306    9.0228 H   0  0  0  0  0  0  0  0  0  0  0  0
  1  2  1  0  0  0  0
  1 24  1  0  0  0  0
  1 25  1  0  0  0  0
  1 26  1  0  0  0  0
  2  3  1  0  0  0  0
  2  4  1  0  0  0  0
  2  5  1  0  0  0  0
  3 27  1  0  0  0  0
  3 28  1  0  0  0  0
  3 29  1  0  0  0  0
  4 30  1  0  0  0  0
  4 31  1  0  0  0  0
  4 32  1  0  0  0  0
  5  6  2  0  0  0  0
  5 13  1  0  0  0  0
  6  7  1  0  0  0  0
  7  8  1  0  0  0  0
  7 12  2  0  0  0  0
  8  9  2  0  0  0  0
  8 33  1  0  0  0  0
  9 10  1  0  0  0  0
  9 34  1  0  0  0  0
 10 11  2  0  0  0  0
 10 22  1  0  0  0  0
 11 12  1  0  0  0  0
 11 14  1  0  0  0  0
 12 13  1  0  0  0  0
 13 35  1  0  0  0  0
 14 15  2  0  0  0  0
 14 16  1  0  0  0  0
 16 17  1  0  0  0  0
 16 21  2  0  0  0  0
 17 18  2  0  0  0  0
 17 36  1  0  0  0  0
 18 19  1  0  0  0  0
 18 37  1  0  0  0  0
 19 20  2  0  0  0  0
 19 38  1  0  0  0  0
 20 21  1  0  0  0  0
 20 39  1  0  0  0  0
 21 22  1  0  0  0  0
 22 23  2  0  0  0  0
M  END
>  <Energy>
56.8961

$$$$

 OpenBabel04232616053D

 39 42  0  0  1  0  0  0  0  0999 V2000
    1.1050   -0.2717    0.1891 C   0  0  0  0  0  0  0  0  0  0  0  0
    2.6273   -0.3814    0.2889 C   0  0  3  0  0  0  0  0  0  0  0  0
    3.1764    0.8753    1.0062 C   0  0  0  0  0  0  0  0  0  0  0  0
    4.0287    0.2918    2.0822 C   0  0  0  0  0  0  0  0  0  0  0  0
    4.7085    1.0002    3.0686 C   0  0  0  0  0  0  0  0  0  0  0  0
    5.4775    0.2977    3.9928 C   0  0  0  0  0  0  0  0  0  0  0  0
    5.6211   -1.0818    3.8687 C   0  0  0  0  0  0  0  0  0  0  0  0
    4.9599   -1.7708    2.8482 C   0  0  0  0  0  0  0  0  0  0  0  0
    4.0811   -1.0978    2.0055 C   0  0  0  0  0  0  0  0  0  0  0  0
    3.1477   -1.5688    1.0334 N   0  0  0  0  0  0  0  0  0  0  0  0
    2.7527   -2.8908    0.7286 C   0  0  0  0  0  0  0  0  0  0  0  0
    1.9791   -3.1567   -0.1854 O   0  0  0  0  0  0  0  0  0  0  0  0
    3.3719   -3.9773    1.5889 C   0  0  0  0  0  0  0  0  0  0  0  0
    2.6158   -5.1881    1.9356 N   0  0  0  0  0  0  0  0  0  0  0  0
    1.4330   -5.0658    2.6375 C   0  0  0  0  0  0  0  0  0  0  0  0
    1.5026   -5.6758    3.8003 N   0  0  0  0  0  0  0  0  0  0  0  0
    2.6725   -6.3934    3.7676 C   0  0  0  0  0  0  0  0  0  0  0  0
    3.2687   -7.1903    4.7572 C   0  0  0  0  0  0  0  0  0  0  0  0
    4.4323   -7.9038    4.4428 C   0  0  0  0  0  0  0  0  0  0  0  0
    5.0059   -7.8023    3.1738 C   0  0  0  0  0  0  0  0  0  0  0  0
    4.4792   -6.9397    2.2027 C   0  0  0  0  0  0  0  0  0  0  0  0
    3.3091   -6.2426    2.5376 C   0  0  0  0  0  0  0  0  0  0  0  0
    0.8308    0.6621   -0.3184 H   0  0  0  0  0  0  0  0  0  0  0  0
    0.6377   -0.2657    1.1787 H   0  0  0  0  0  0  0  0  0  0  0  0
    0.6678   -1.0879   -0.3904 H   0  0  0  0  0  0  0  0  0  0  0  0
    3.0392   -0.4380   -0.7278 H   0  0  0  0  0  0  0  0  0  0  0  0
    2.3883    1.4990    1.4416 H   0  0  0  0  0  0  0  0  0  0  0  0
    3.7796    1.4824    0.3227 H   0  0  0  0  0  0  0  0  0  0  0  0
    4.6281    2.0816    3.1349 H   0  0  0  0  0  0  0  0  0  0  0  0
    5.9858    0.8201    4.7990 H   0  0  0  0  0  0  0  0  0  0  0  0
    6.2434   -1.6335    4.5696 H   0  0  0  0  0  0  0  0  0  0  0  0
    5.1973   -2.8233    2.7770 H   0  0  0  0  0  0  0  0  0  0  0  0
    3.4893   -3.5697    2.5909 H   0  0  0  0  0  0  0  0  0  0  0  0
    4.3258   -4.2755    1.1433 H   0  0  0  0  0  0  0  0  0  0  0  0
    0.6344   -4.4111    2.3129 H   0  0  0  0  0  0  0  0  0  0  0  0
    2.8251   -7.2522    5.7450 H   0  0  0  0  0  0  0  0  0  0  0  0
    4.8844   -8.5485    5.1931 H   0  0  0  0  0  0  0  0  0  0  0  0
    5.8924   -8.3926    2.9437 H   0  0  0  0  0  0  0  0  0  0  0  0
    4.9581   -6.8296    1.2357 H   0  0  0  0  0  0  0  0  0  0  0  0
  1  2  1  0  0  0  0
  1 23  1  0  0  0  0
  1 24  1  0  0  0  0
  1 25  1  0  0  0  0
  2  3  1  0  0  0  0
  2 10  1  0  0  0  0
  2 26  1  0  0  0  0
  3  4  1  0  0  0  0
  3 27  1  0  0  0  0
  3 28  1  0  0  0  0
  4  5  1  0  0  0  0
  4  9  2  0  0  0  0
  5  6  2  0  0  0  0
  5 29  1  0  0  0  0
  6  7  1  0  0  0  0
  6 30  1  0  0  0  0
  7  8  2  0  0  0  0
  7 31  1  0  0  0  0
  8  9  1  0  0  0  0
  8 32  1  0  0  0  0
  9 10  1  0  0  0  0
 10 11  1  0  0  0  0
 11 12  2  0  0  0  0
 11 13  1  0  0  0  0
 13 14  1  0  0  0  0
 13 33  1  0  0  0  0
 13 34  1  0  0  0  0
 14 15  1  0  0  0  0
 14 22  1  0  0  0  0
 15 16  2  0  0  0  0
 15 35  1  0  0  0  0
 16 17  1  0  0  0  0
 17 18  1  0  0  0  0
 17 22  2  0  0  0  0
 18 19  2  0  0  0  0
 18 36  1  0  0  0  0
 19 20  1  0  0  0  0
 19 37  1  0  0  0  0
 20 21  2  0  0  0  0
 20 38  1  0  0  0  0
 21 22  1  0  0  0  0
 21 39  1  0  0  0  0
M  END
>  <Energy>
73.6654

$$$$

 OpenBabel04232616053D

 33 36  0  0  0  0  0  0  0  0999 V2000
    0.7876    0.0231   -0.1587 C   0  0  0  0  0  0  0  0  0  0  0  0
    2.2204   -0.0885   -0.0181 N   0  0  0  0  0  0  0  0  0  0  0  0
    3.0076   -1.2301    0.0017 C   0  0  0  0  0  0  0  0  0  0  0  0
    2.5641   -2.6222   -0.1857 C   0  0  0  0  0  0  0  0  0  0  0  0
    1.5094   -3.1427    0.5607 C   0  0  0  0  0  0  0  0  0  0  0  0
    1.0258   -4.4003    0.4478 N   0  0  0  0  0  0  0  0  0  0  0  0
    1.6633   -5.2087   -0.4281 C   0  0  0  0  0  0  0  0  0  0  0  0
    2.7590   -4.8317   -1.2054 C   0  0  0  0  0  0  0  0  0  0  0  0
    3.3929   -5.7454   -2.0710 C   0  0  0  0  0  0  0  0  0  0  0  0
    4.4973   -5.3620   -2.8294 C   0  0  0  0  0  0  0  0  0  0  0  0
    4.9713   -4.0619   -2.7417 C   0  0  0  0  0  0  0  0  0  0  0  0
    4.3408   -3.1467   -1.8944 C   0  0  0  0  0  0  0  0  0  0  0  0
    3.2276   -3.5033   -1.0910 C   0  0  0  0  0  0  0  0  0  0  0  0
    4.2793   -0.8894    0.1413 N   0  0  0  0  0  0  0  0  0  0  0  0
    4.3351    0.4711    0.1013 C   0  0  0  0  0  0  0  0  0  0  0  0
    5.4565    1.3174    0.1069 C   0  0  0  0  0  0  0  0  0  0  0  0
    5.2570    2.7012    0.0256 C   0  0  0  0  0  0  0  0  0  0  0  0
    3.9662    3.2189   -0.0397 C   0  0  0  0  0  0  0  0  0  0  0  0
    3.8059    4.5478   -0.1186 F   0  0  0  0  0  0  0  0  0  0  0  0
    2.8474    2.3858   -0.0383 C   0  0  0  0  0  0  0  0  0  0  0  0
    1.6111    2.8965   -0.1138 F   0  0  0  0  0  0  0  0  0  0  0  0
    3.0591    1.0069    0.0181 C   0  0  0  0  0  0  0  0  0  0  0  0
    0.3269   -0.9499   -0.3185 H   0  0  0  0  0  0  0  0  0  0  0  0
    0.5705    0.6590   -1.0213 H   0  0  0  0  0  0  0  0  0  0  0  0
    0.3925    0.4760    0.7551 H   0  0  0  0  0  0  0  0  0  0  0  0
    0.9970   -2.5451    1.3111 H   0  0  0  0  0  0  0  0  0  0  0  0
    1.2565   -6.2160   -0.4841 H   0  0  0  0  0  0  0  0  0  0  0  0
    3.0341   -6.7692   -2.1509 H   0  0  0  0  0  0  0  0  0  0  0  0
    4.9886   -6.0770   -3.4828 H   0  0  0  0  0  0  0  0  0  0  0  0
    5.8372   -3.7510   -3.3211 H   0  0  0  0  0  0  0  0  0  0  0  0
    4.7523   -2.1410   -1.8553 H   0  0  0  0  0  0  0  0  0  0  0  0
    6.4540    0.8936    0.1535 H   0  0  0  0  0  0  0  0  0  0  0  0
    6.1083    3.3752    0.0071 H   0  0  0  0  0  0  0  0  0  0  0  0
  1  2  1  0  0  0  0
  1 23  1  0  0  0  0
  1 24  1  0  0  0  0
  1 25  1  0  0  0  0
  2  3  1  0  0  0  0
  2 22  1  0  0  0  0
  3  4  1  0  0  0  0
  3 14  2  0  0  0  0
  4  5  1  0  0  0  0
  4 13  2  0  0  0  0
  5  6  2  0  0  0  0
  5 26  1  0  0  0  0
  6  7  1  0  0  0  0
  7  8  2  0  0  0  0
  7 27  1  0  0  0  0
  8  9  1  0  0  0  0
  8 13  1  0  0  0  0
  9 10  2  0  0  0  0
  9 28  1  0  0  0  0
 10 11  1  0  0  0  0
 10 29  1  0  0  0  0
 11 12  2  0  0  0  0
 11 30  1  0  0  0  0
 12 13  1  0  0  0  0
 12 31  1  0  0  0  0
 14 15  1  0  0  0  0
 15 16  1  0  0  0  0
 15 22  2  0  0  0  0
 16 17  2  0  0  0  0
 16 32  1  0  0  0  0
 17 18  1  0  0  0  0
 17 33  1  0  0  0  0
 18 19  1  0  0  0  0
 18 20  2  0  0  0  0
 20 21  1  0  0  0  0
 20 22  1  0  0  0  0
M  END
>  <Energy>
64.9687

$$$$

 OpenBabel04232616053D

 20 21  0  0  0  0  0  0  0  0999 V2000
    0.8826    0.0340    0.0051 C   0  0  0  0  0  0  0  0  0  0  0  0
    2.3784    0.0917    0.0037 C   0  0  0  0  0  0  0  0  0  0  0  0
    3.0608    1.2464    0.0133 C   0  0  0  0  0  0  0  0  0  0  0  0
    4.5122    1.2430   -0.0593 C   0  0  0  0  0  0  0  0  0  0  0  0
    5.2550    2.4253   -0.1083 C   0  0  0  0  0  0  0  0  0  0  0  0
    6.6460    2.3634   -0.2412 C   0  0  0  0  0  0  0  0  0  0  0  0
    7.7464    4.1247   -0.3588 I   0  0  0  0  0  0  0  0  0  0  0  0
    7.3031    1.1323   -0.3129 C   0  0  0  0  0  0  0  0  0  0  0  0
    6.5647   -0.0488   -0.2461 C   0  0  0  0  0  0  0  0  0  0  0  0
    5.1791    0.0233   -0.1238 C   0  0  0  0  0  0  0  0  0  0  0  0
    4.4691   -1.1898   -0.0833 O   0  0  0  0  0  0  0  0  0  0  0  0
    3.0806   -1.2184   -0.0279 C   0  0  0  0  0  0  0  0  0  0  0  0
    2.4633   -2.2789   -0.0072 O   0  0  0  0  0  0  0  0  0  0  0  0
    0.4359    1.0341    0.0092 H   0  0  0  0  0  0  0  0  0  0  0  0
    0.5151   -0.4988    0.8869 H   0  0  0  0  0  0  0  0  0  0  0  0
    0.5213   -0.4822   -0.8921 H   0  0  0  0  0  0  0  0  0  0  0  0
    2.5495    2.2034    0.0395 H   0  0  0  0  0  0  0  0  0  0  0  0
    4.7518    3.3876   -0.0588 H   0  0  0  0  0  0  0  0  0  0  0  0
    8.3832    1.0789   -0.4258 H   0  0  0  0  0  0  0  0  0  0  0  0
    7.0620   -1.0132   -0.3019 H   0  0  0  0  0  0  0  0  0  0  0  0
  1  2  1  0  0  0  0
  1 14  1  0  0  0  0
  1 15  1  0  0  0  0
  1 16  1  0  0  0  0
  2  3  2  0  0  0  0
  2 12  1  0  0  0  0
  3  4  1  0  0  0  0
  3 17  1  0  0  0  0
  4  5  1  0  0  0  0
  4 10  2  0  0  0  0
  5  6  2  0  0  0  0
  5 18  1  0  0  0  0
  6  7  1  0  0  0  0
  6  8  1  0  0  0  0
  8  9  2  0  0  0  0
  8 19  1  0  0  0  0
  9 10  1  0  0  0  0
  9 20  1  0  0  0  0
 10 11  1  0  0  0  0
 11 12  1  0  0  0  0
 12 13  2  0  0  0  0
M  END
>  <Energy>
33.4636

$$$$

 OpenBabel04232616053D

 34 37  0  0  0  0  0  0  0  0999 V2000
    1.1607   -0.0313   -0.0730 C   0  0  0  0  0  0  0  0  0  0  0  0
    2.6264   -0.2100   -0.0743 C   0  0  0  0  0  0  0  0  0  0  0  0
    3.4487   -1.3169   -0.0750 C   0  0  0  0  0  0  0  0  0  0  0  0
    4.7870   -0.8346   -0.0710 C   0  0  0  0  0  0  0  0  0  0  0  0
    4.6817    0.5503   -0.0713 C   0  0  0  0  0  0  0  0  0  0  0  0
    5.7664    1.4213   -0.0685 C   0  0  0  0  0  0  0  0  0  0  0  0
    7.0342    0.8291   -0.0630 C   0  0  0  0  0  0  0  0  0  0  0  0
    8.1254    1.6550   -0.0586 O   0  0  0  0  0  0  0  0  0  0  0  0
    7.1971   -0.5685   -0.0599 C   0  0  0  0  0  0  0  0  0  0  0  0
    8.5365   -1.2067   -0.0482 C   0  0  0  0  0  0  0  0  0  0  0  0
    9.5992   -0.6002   -0.0474 O   0  0  0  0  0  0  0  0  0  0  0  0
    8.5669   -2.6779   -0.0396 C   0  0  0  0  0  0  0  0  0  0  0  0
    7.4197   -3.3605   -0.0502 C   0  0  0  0  0  0  0  0  0  0  0  0
    7.4598   -4.8276   -0.0649 C   0  0  0  0  0  0  0  0  0  0  0  0
    7.4800   -5.5538    1.1330 C   0  0  0  0  0  0  0  0  0  0  0  0
    7.6384   -6.9429    1.1136 C   0  0  0  0  0  0  0  0  0  0  0  0
    7.7859   -7.6126   -0.1002 C   0  0  0  0  0  0  0  0  0  0  0  0
    7.7544   -6.8991   -1.2972 C   0  0  0  0  0  0  0  0  0  0  0  0
    7.5844   -5.5125   -1.2812 C   0  0  0  0  0  0  0  0  0  0  0  0
    6.1635   -2.7936   -0.0655 O   0  0  0  0  0  0  0  0  0  0  0  0
    6.0713   -1.4168   -0.0656 C   0  0  0  0  0  0  0  0  0  0  0  0
    3.3741    0.9294   -0.0734 O   0  0  0  0  0  0  0  0  0  0  0  0
    0.6491   -0.9988   -0.0718 H   0  0  0  0  0  0  0  0  0  0  0  0
    0.8400    0.5223   -0.9608 H   0  0  0  0  0  0  0  0  0  0  0  0
    0.8412    0.5233    0.8147 H   0  0  0  0  0  0  0  0  0  0  0  0
    3.1284   -2.3493   -0.0755 H   0  0  0  0  0  0  0  0  0  0  0  0
    5.6134    2.4931   -0.0681 H   0  0  0  0  0  0  0  0  0  0  0  0
    7.8536    2.5863   -0.0684 H   0  0  0  0  0  0  0  0  0  0  0  0
    9.5445   -3.1444   -0.0327 H   0  0  0  0  0  0  0  0  0  0  0  0
    7.3948   -5.0428    2.0892 H   0  0  0  0  0  0  0  0  0  0  0  0
    7.6632   -7.5005    2.0465 H   0  0  0  0  0  0  0  0  0  0  0  0
    7.9325   -8.6900   -0.1133 H   0  0  0  0  0  0  0  0  0  0  0  0
    7.8769   -7.4200   -2.2434 H   0  0  0  0  0  0  0  0  0  0  0  0
    7.5719   -4.9677   -2.2224 H   0  0  0  0  0  0  0  0  0  0  0  0
  1  2  1  0  0  0  0
  1 23  1  0  0  0  0
  1 24  1  0  0  0  0
  1 25  1  0  0  0  0
  2  3  2  0  0  0  0
  2 22  1  0  0  0  0
  3  4  1  0  0  0  0
  3 26  1  0  0  0  0
  4  5  1  0  0  0  0
  4 21  2  0  0  0  0
  5  6  2  0  0  0  0
  5 22  1  0  0  0  0
  6  7  1  0  0  0  0
  6 27  1  0  0  0  0
  7  8  1  0  0  0  0
  7  9  2  0  0  0  0
  8 28  1  0  0  0  0
  9 10  1  0  0  0  0
  9 21  1  0  0  0  0
 10 11  2  0  0  0  0
 10 12  1  0  0  0  0
 12 13  2  0  0  0  0
 12 29  1  0  0  0  0
 13 14  1  0  0  0  0
 13 20  1  0  0  0  0
 14 15  1  0  0  0  0
 14 19  2  0  0  0  0
 15 16  2  0  0  0  0
 15 30  1  0  0  0  0
 16 17  1  0  0  0  0
 16 31  1  0  0  0  0
 17 18  2  0  0  0  0
 17 32  1  0  0  0  0
 18 19  1  0  0  0  0
 18 33  1  0  0  0  0
 19 34  1  0  0  0  0
 20 21  1  0  0  0  0
M  END
>  <Energy>
54.1672

$$$$

 OpenBabel04232616053D

 36 40  0  0  0  0  0  0  0  0999 V2000
    0.5048   -0.1031    0.6187 O   0  0  0  0  0  0  0  0  0  0  0  0
    1.7236    0.0213    0.5667 C   0  0  0  0  0  0  0  0  0  0  0  0
    2.3547    1.2067    0.9035 O   0  0  0  0  0  0  0  0  0  0  0  0
    3.6637    1.4640    0.4543 C   0  0  0  0  0  0  0  0  0  0  0  0
    4.0643    2.7988    0.4877 C   0  0  0  0  0  0  0  0  0  0  0  0
    5.2776    3.1495   -0.0895 C   0  0  0  0  0  0  0  0  0  0  0  0
    6.0741    2.1634   -0.6744 C   0  0  0  0  0  0  0  0  0  0  0  0
    5.6811    0.8156   -0.6448 C   0  0  0  0  0  0  0  0  0  0  0  0
    4.4645    0.4390   -0.0640 C   0  0  0  0  0  0  0  0  0  0  0  0
    3.9520   -0.9262   -0.0063 C   0  0  0  0  0  0  0  0  0  0  0  0
    4.8158   -1.9710   -0.1687 N   0  0  0  0  0  0  0  0  0  0  0  0
    4.3075   -3.2376   -0.0956 C   0  0  0  0  0  0  0  0  0  0  0  0
    2.9353   -3.4837    0.0602 C   0  0  0  0  0  0  0  0  0  0  0  0
    2.0771   -2.4050    0.2403 C   0  0  0  0  0  0  0  0  0  0  0  0
    2.5986   -1.1195    0.2400 C   0  0  0  0  0  0  0  0  0  0  0  0
    2.4135   -4.8924    0.1650 C   0  0  0  0  0  0  0  0  0  0  0  0
    3.2734   -5.8768   -0.6251 C   0  0  0  0  0  0  0  0  0  0  0  0
    4.7376   -5.6962   -0.3040 C   0  0  0  0  0  0  0  0  0  0  0  0
    5.5799   -6.8158   -0.2441 C   0  0  0  0  0  0  0  0  0  0  0  0
    6.9306   -6.6555    0.0444 C   0  0  0  0  0  0  0  0  0  0  0  0
    7.4481   -5.3773    0.2457 C   0  0  0  0  0  0  0  0  0  0  0  0
    6.6155   -4.2537    0.1656 C   0  0  0  0  0  0  0  0  0  0  0  0
    5.2446   -4.3868   -0.1024 C   0  0  0  0  0  0  0  0  0  0  0  0
    3.4187    3.5543    0.9268 H   0  0  0  0  0  0  0  0  0  0  0  0
    5.5886    4.1914   -0.1050 H   0  0  0  0  0  0  0  0  0  0  0  0
    7.0044    2.4468   -1.1619 H   0  0  0  0  0  0  0  0  0  0  0  0
    6.3202    0.0664   -1.1092 H   0  0  0  0  0  0  0  0  0  0  0  0
    1.0152   -2.5653    0.4174 H   0  0  0  0  0  0  0  0  0  0  0  0
    1.3831   -4.9452   -0.2053 H   0  0  0  0  0  0  0  0  0  0  0  0
    2.4007   -5.1715    1.2265 H   0  0  0  0  0  0  0  0  0  0  0  0
    3.1380   -5.7221   -1.7030 H   0  0  0  0  0  0  0  0  0  0  0  0
    2.9456   -6.8973   -0.3947 H   0  0  0  0  0  0  0  0  0  0  0  0
    5.1824   -7.8154   -0.4058 H   0  0  0  0  0  0  0  0  0  0  0  0
    7.5781   -7.5259    0.1149 H   0  0  0  0  0  0  0  0  0  0  0  0
    8.5033   -5.2550    0.4781 H   0  0  0  0  0  0  0  0  0  0  0  0
    7.0418   -3.2685    0.3435 H   0  0  0  0  0  0  0  0  0  0  0  0
  1  2  2  0  0  0  0
  2  3  1  0  0  0  0
  2 15  1  0  0  0  0
  3  4  1  0  0  0  0
  4  5  1  0  0  0  0
  4  9  2  0  0  0  0
  5  6  2  0  0  0  0
  5 24  1  0  0  0  0
  6  7  1  0  0  0  0
  6 25  1  0  0  0  0
  7  8  2  0  0  0  0
  7 26  1  0  0  0  0
  8  9  1  0  0  0  0
  8 27  1  0  0  0  0
  9 10  1  0  0  0  0
 10 11  1  0  0  0  0
 10 15  2  0  0  0  0
 11 12  2  0  0  0  0
 12 13  1  0  0  0  0
 12 23  1  0  0  0  0
 13 14  2  0  0  0  0
 13 16  1  0  0  0  0
 14 15  1  0  0  0  0
 14 28  1  0  0  0  0
 16 17  1  0  0  0  0
 16 29  1  0  0  0  0
 16 30  1  0  0  0  0
 17 18  1  0  0  0  0
 17 31  1  0  0  0  0
 17 32  1  0  0  0  0
 18 19  1  0  0  0  0
 18 23  2  0  0  0  0
 19 20  2  0  0  0  0
 19 33  1  0  0  0  0
 20 21  1  0  0  0  0
 20 34  1  0  0  0  0
 21 22  2  0  0  0  0
 21 35  1  0  0  0  0
 22 23  1  0  0  0  0
 22 36  1  0  0  0  0
M  END
>  <Energy>
94.3141

$$$$

 OpenBabel04232616053D

 27 29  0  0  0  0  0  0  0  0999 V2000
    1.3805   -0.0748    0.5533 O   0  0  0  0  0  0  0  0  0  0  0  0
    2.5655   -0.0568    0.2315 C   0  0  0  0  0  0  0  0  0  0  0  0
    3.3617    1.2066    0.2071 C   0  0  0  0  0  0  0  0  0  0  0  0
    3.1368    2.0689    1.2156 C   0  0  0  0  0  0  0  0  0  0  0  0
    3.9000    3.2972    1.4369 C   0  0  0  0  0  0  0  0  0  0  0  0
    5.0673    3.2513    2.2157 C   0  0  0  0  0  0  0  0  0  0  0  0
    5.7877    4.4201    2.4759 C   0  0  0  0  0  0  0  0  0  0  0  0
    5.3423    5.6276    1.9510 C   0  0  0  0  0  0  0  0  0  0  0  0
    6.0261    6.7491    2.2137 F   0  0  0  0  0  0  0  0  0  0  0  0
    4.1977    5.6730    1.1645 C   0  0  0  0  0  0  0  0  0  0  0  0
    3.7764    6.8385    0.6558 F   0  0  0  0  0  0  0  0  0  0  0  0
    3.4701    4.5138    0.9010 C   0  0  0  0  0  0  0  0  0  0  0  0
    4.3279    1.3568   -0.9245 C   0  0  0  0  0  0  0  0  0  0  0  0
    5.6576    0.1378   -0.7507 S   0  0  0  0  0  0  0  0  0  0  0  0
    4.6492   -1.2785   -0.4957 C   0  0  0  0  0  0  0  0  0  0  0  0
    5.2557   -2.8569   -0.7216 S   0  0  0  0  0  0  0  0  0  0  0  0
    3.7453   -3.5561   -0.3404 C   0  0  0  0  0  0  0  0  0  0  0  0
    2.8014   -2.6012   -0.0350 C   0  0  0  0  0  0  0  0  0  0  0  0
    3.3216   -1.2633   -0.1010 C   0  0  0  0  0  0  0  0  0  0  0  0
    2.3961    1.8491    1.9838 H   0  0  0  0  0  0  0  0  0  0  0  0
    5.4157    2.3083    2.6342 H   0  0  0  0  0  0  0  0  0  0  0  0
    6.6847    4.3950    3.0866 H   0  0  0  0  0  0  0  0  0  0  0  0
    2.5727    4.5787    0.2918 H   0  0  0  0  0  0  0  0  0  0  0  0
    4.7723    2.3549   -0.9726 H   0  0  0  0  0  0  0  0  0  0  0  0
    3.8132    1.1977   -1.8797 H   0  0  0  0  0  0  0  0  0  0  0  0
    3.6234   -4.6308   -0.3527 H   0  0  0  0  0  0  0  0  0  0  0  0
    1.7811   -2.8407    0.2436 H   0  0  0  0  0  0  0  0  0  0  0  0
  1  2  2  0  0  0  0
  2  3  1  0  0  0  0
  2 19  1  0  0  0  0
  3  4  2  0  0  0  0
  3 13  1  0  0  0  0
  4  5  1  0  0  0  0
  4 20  1  0  0  0  0
  5  6  1  0  0  0  0
  5 12  2  0  0  0  0
  6  7  2  0  0  0  0
  6 21  1  0  0  0  0
  7  8  1  0  0  0  0
  7 22  1  0  0  0  0
  8  9  1  0  0  0  0
  8 10  2  0  0  0  0
 10 11  1  0  0  0  0
 10 12  1  0  0  0  0
 12 23  1  0  0  0  0
 13 14  1  0  0  0  0
 13 24  1  0  0  0  0
 13 25  1  0  0  0  0
 14 15  1  0  0  0  0
 15 16  1  0  0  0  0
 15 19  2  0  0  0  0
 16 17  1  0  0  0  0
 17 18  2  0  0  0  0
 17 26  1  0  0  0  0
 18 19  1  0  0  0  0
 18 27  1  0  0  0  0
M  END
>  <Energy>
33.4766

$$$$

 OpenBabel04232616053D

 30 32  0  0  0  0  0  0  0  0999 V2000
    1.4209   -3.3747    1.1054 C   0  0  0  0  0  0  0  0  0  0  0  0
    2.9158   -3.1353    0.9726 C   0  0  0  0  0  0  0  0  0  0  0  0
    3.2124   -1.6415   -0.0135 S   0  0  0  0  0  0  0  0  0  0  0  0
    4.9483   -1.6239   -0.0536 C   0  0  0  0  0  0  0  0  0  0  0  0
    5.6750   -2.6803    0.1092 N   0  0  0  0  0  0  0  0  0  0  0  0
    7.0027   -2.3378   -0.0070 C   0  0  0  0  0  0  0  0  0  0  0  0
    8.0380   -3.1820    0.1118 C   0  0  0  0  0  0  0  0  0  0  0  0
    7.8762   -4.6108    0.3842 C   0  0  0  0  0  0  0  0  0  0  0  0
    7.8022   -5.5247   -0.6886 C   0  0  0  0  0  0  0  0  0  0  0  0
    7.6275   -6.8920   -0.4512 C   0  0  0  0  0  0  0  0  0  0  0  0
    7.5252   -7.3055    0.8591 C   0  0  0  0  0  0  0  0  0  0  0  0
    7.5987   -6.4179    1.9072 C   0  0  0  0  0  0  0  0  0  0  0  0
    7.7774   -5.0657    1.7056 C   0  0  0  0  0  0  0  0  0  0  0  0
    7.4695   -7.0302    3.1149 O   0  0  0  0  0  0  0  0  0  0  0  0
    7.2563   -8.3967    2.7038 C   0  0  0  0  0  0  0  0  0  0  0  0
    7.3397   -8.5863    1.2761 O   0  0  0  0  0  0  0  0  0  0  0  0
    7.2631   -0.9009   -0.2930 C   0  0  0  0  0  0  0  0  0  0  0  0
    8.3437   -0.3613   -0.4615 O   0  0  0  0  0  0  0  0  0  0  0  0
    5.7221   -0.0911   -0.3546 S   0  0  0  0  0  0  0  0  0  0  0  0
    1.2382   -4.2644    1.7173 H   0  0  0  0  0  0  0  0  0  0  0  0
    0.9541   -3.5449    0.1289 H   0  0  0  0  0  0  0  0  0  0  0  0
    0.9166   -2.5316    1.5899 H   0  0  0  0  0  0  0  0  0  0  0  0
    3.3805   -4.0028    0.4941 H   0  0  0  0  0  0  0  0  0  0  0  0
    3.3587   -3.0060    1.9654 H   0  0  0  0  0  0  0  0  0  0  0  0
    9.0635   -2.8357    0.0073 H   0  0  0  0  0  0  0  0  0  0  0  0
    7.8724   -5.1702   -1.7150 H   0  0  0  0  0  0  0  0  0  0  0  0
    7.5657   -7.6016   -1.2683 H   0  0  0  0  0  0  0  0  0  0  0  0
    7.8279   -4.3861    2.5489 H   0  0  0  0  0  0  0  0  0  0  0  0
    6.2607   -8.7100    3.0396 H   0  0  0  0  0  0  0  0  0  0  0  0
    8.0066   -9.0317    3.1881 H   0  0  0  0  0  0  0  0  0  0  0  0
  1  2  1  0  0  0  0
  1 20  1  0  0  0  0
  1 21  1  0  0  0  0
  1 22  1  0  0  0  0
  2  3  1  0  0  0  0
  2 23  1  0  0  0  0
  2 24  1  0  0  0  0
  3  4  1  0  0  0  0
  4  5  2  0  0  0  0
  4 19  1  0  0  0  0
  5  6  1  0  0  0  0
  6  7  2  0  0  0  0
  6 17  1  0  0  0  0
  7  8  1  0  0  0  0
  7 25  1  0  0  0  0
  8  9  1  0  0  0  0
  8 13  2  0  0  0  0
  9 10  2  0  0  0  0
  9 26  1  0  0  0  0
 10 11  1  0  0  0  0
 10 27  1  0  0  0  0
 11 12  2  0  0  0  0
 11 16  1  0  0  0  0
 12 13  1  0  0  0  0
 12 14  1  0  0  0  0
 13 28  1  0  0  0  0
 14 15  1  0  0  0  0
 15 16  1  0  0  0  0
 15 29  1  0  0  0  0
 15 30  1  0  0  0  0
 17 18  2  0  0  0  0
 17 19  1  0  0  0  0
M  END
>  <Energy>
9.0358

$$$$

 OpenBabel04232616053D

 42 44  0  0  0  0  0  0  0  0999 V2000
    1.3731    0.0539    1.3170 C   0  0  0  0  0  0  0  0  0  0  0  0
    2.6579    0.0232    0.5770 C   0  0  0  0  0  0  0  0  0  0  0  0
    3.3952    1.1633    0.3564 N   0  0  0  0  0  0  0  0  0  0  0  0
    4.5504    0.8459   -0.3750 C   0  0  0  0  0  0  0  0  0  0  0  0
    5.4117    1.6247   -0.7402 O   0  0  0  0  0  0  0  0  0  0  0  0
    4.4657   -0.5442   -0.5785 N   0  0  0  0  0  0  0  0  0  0  0  0
    5.4362   -1.3213   -1.3003 C   0  0  0  0  0  0  0  0  0  0  0  0
    3.3064   -1.0141    0.0129 C   0  0  0  0  0  0  0  0  0  0  0  0
    2.8915   -2.4082   -0.0183 C   0  0  0  0  0  0  0  0  0  0  0  0
    2.1036   -2.8798   -1.0721 C   0  0  0  0  0  0  0  0  0  0  0  0
    1.7145   -4.2199   -1.1157 C   0  0  0  0  0  0  0  0  0  0  0  0
    2.1099   -5.1126   -0.1091 C   0  0  0  0  0  0  0  0  0  0  0  0
    1.7329   -6.5820   -0.1551 C   0  0  0  0  0  0  0  0  0  0  0  0
    2.2820   -7.2710   -1.4169 C   0  0  0  0  0  0  0  0  0  0  0  0
    1.9243   -8.7551   -1.4358 C   0  0  0  0  0  0  0  0  0  0  0  0
    0.4193   -8.9692   -1.3010 C   0  0  0  0  0  0  0  0  0  0  0  0
   -0.1426   -8.2767   -0.0621 C   0  0  0  0  0  0  0  0  0  0  0  0
    0.2145   -6.7911   -0.0332 C   0  0  0  0  0  0  0  0  0  0  0  0
    2.8850   -4.6266    0.9546 C   0  0  0  0  0  0  0  0  0  0  0  0
    3.2709   -3.2846    1.0011 C   0  0  0  0  0  0  0  0  0  0  0  0
    1.1416    1.0641    1.6706 H   0  0  0  0  0  0  0  0  0  0  0  0
    1.4134   -0.6024    2.1920 H   0  0  0  0  0  0  0  0  0  0  0  0
    0.5494   -0.2691    0.6726 H   0  0  0  0  0  0  0  0  0  0  0  0
    3.1704    2.1012    0.6500 H   0  0  0  0  0  0  0  0  0  0  0  0
    6.2301   -0.6757   -1.6860 H   0  0  0  0  0  0  0  0  0  0  0  0
    4.9487   -1.8225   -2.1413 H   0  0  0  0  0  0  0  0  0  0  0  0
    5.8774   -2.0646   -0.6299 H   0  0  0  0  0  0  0  0  0  0  0  0
    1.7972   -2.2079   -1.8707 H   0  0  0  0  0  0  0  0  0  0  0  0
    1.1067   -4.5609   -1.9506 H   0  0  0  0  0  0  0  0  0  0  0  0
    2.1980   -7.0779    0.7091 H   0  0  0  0  0  0  0  0  0  0  0  0
    3.3721   -7.1577   -1.4649 H   0  0  0  0  0  0  0  0  0  0  0  0
    1.8789   -6.8000   -2.3225 H   0  0  0  0  0  0  0  0  0  0  0  0
    2.4425   -9.2654   -0.6146 H   0  0  0  0  0  0  0  0  0  0  0  0
    2.2799   -9.2075   -2.3683 H   0  0  0  0  0  0  0  0  0  0  0  0
    0.2035  -10.0424   -1.2531 H   0  0  0  0  0  0  0  0  0  0  0  0
   -0.0846   -8.5808   -2.1947 H   0  0  0  0  0  0  0  0  0  0  0  0
    0.2528   -8.7632    0.8381 H   0  0  0  0  0  0  0  0  0  0  0  0
   -1.2317   -8.3944   -0.0360 H   0  0  0  0  0  0  0  0  0  0  0  0
   -0.1538   -6.3471    0.8999 H   0  0  0  0  0  0  0  0  0  0  0  0
   -0.3126   -6.2824   -0.8505 H   0  0  0  0  0  0  0  0  0  0  0  0
    3.2032   -5.2926    1.7540 H   0  0  0  0  0  0  0  0  0  0  0  0
    3.8774   -2.9317    1.8324 H   0  0  0  0  0  0  0  0  0  0  0  0
  1  2  1  0  0  0  0
  1 21  1  0  0  0  0
  1 22  1  0  0  0  0
  1 23  1  0  0  0  0
  2  3  1  0  0  0  0
  2  8  2  0  0  0  0
  3  4  1  0  0  0  0
  3 24  1  0  0  0  0
  4  5  2  0  0  0  0
  4  6  1  0  0  0  0
  6  7  1  0  0  0  0
  6  8  1  0  0  0  0
  7 25  1  0  0  0  0
  7 26  1  0  0  0  0
  7 27  1  0  0  0  0
  8  9  1  0  0  0  0
  9 10  1  0  0  0  0
  9 20  2  0  0  0  0
 10 11  2  0  0  0  0
 10 28  1  0  0  0  0
 11 12  1  0  0  0  0
 11 29  1  0  0  0  0
 12 13  1  0  0  0  0
 12 19  2  0  0  0  0
 13 14  1  0  0  0  0
 13 18  1  0  0  0  0
 13 30  1  0  0  0  0
 14 15  1  0  0  0  0
 14 31  1  0  0  0  0
 14 32  1  0  0  0  0
 15 16  1  0  0  0  0
 15 33  1  0  0  0  0
 15 34  1  0  0  0  0
 16 17  1  0  0  0  0
 16 35  1  0  0  0  0
 16 36  1  0  0  0  0
 17 18  1  0  0  0  0
 17 37  1  0  0  0  0
 17 38  1  0  0  0  0
 18 39  1  0  0  0  0
 18 40  1  0  0  0  0
 19 20  1  0  0  0  0
 19 41  1  0  0  0  0
 20 42  1  0  0  0  0
M  END
>  <Energy>
12.8453

$$$$

 OpenBabel04232616053D

 25 27  0  0  0  0  0  0  0  0999 V2000
    6.2114   -2.2741   -5.4557 Cl  0  0  0  0  0  0  0  0  0  0  0  0
    5.7050   -1.6534   -3.9333 C   0  0  0  0  0  0  0  0  0  0  0  0
    6.6529   -1.1908   -3.0238 C   0  0  0  0  0  0  0  0  0  0  0  0
    6.2403   -0.6892   -1.7858 C   0  0  0  0  0  0  0  0  0  0  0  0
    4.8789   -0.6277   -1.4607 C   0  0  0  0  0  0  0  0  0  0  0  0
    4.3208   -0.0355    0.1270 S   0  0  0  0  0  0  0  0  0  0  0  0
    4.8404    1.6429    0.0739 C   0  0  0  0  0  0  0  0  0  0  0  0
    5.5540    2.1456   -0.9064 N   0  0  0  0  0  0  0  0  0  0  0  0
    5.8354    3.4760   -0.6538 C   0  0  0  0  0  0  0  0  0  0  0  0
    6.5911    4.3295   -1.4825 C   0  0  0  0  0  0  0  0  0  0  0  0
    6.8050    5.6582   -1.1015 C   0  0  0  0  0  0  0  0  0  0  0  0
    6.2725    6.1443    0.0885 C   0  0  0  0  0  0  0  0  0  0  0  0
    5.5178    5.3177    0.9276 C   0  0  0  0  0  0  0  0  0  0  0  0
    5.3134    3.9836    0.5371 C   0  0  0  0  0  0  0  0  0  0  0  0
    4.4514    2.7302    1.3438 S   0  0  0  0  0  0  0  0  0  0  0  0
    3.9377   -1.1108   -2.3790 C   0  0  0  0  0  0  0  0  0  0  0  0
    4.3492   -1.6208   -3.6146 C   0  0  0  0  0  0  0  0  0  0  0  0
    7.7112   -1.2151   -3.2686 H   0  0  0  0  0  0  0  0  0  0  0  0
    6.9899   -0.3295   -1.0846 H   0  0  0  0  0  0  0  0  0  0  0  0
    7.0041    3.9457   -2.4096 H   0  0  0  0  0  0  0  0  0  0  0  0
    7.3916    6.3126   -1.7426 H   0  0  0  0  0  0  0  0  0  0  0  0
    6.4457    7.1807    0.3717 H   0  0  0  0  0  0  0  0  0  0  0  0
    5.1048    5.6990    1.8569 H   0  0  0  0  0  0  0  0  0  0  0  0
    2.8764   -1.0959   -2.1412 H   0  0  0  0  0  0  0  0  0  0  0  0
    3.6088   -1.9903   -4.3190 H   0  0  0  0  0  0  0  0  0  0  0  0
  1  2  1  0  0  0  0
  2  3  1  0  0  0  0
  2 17  2  0  0  0  0
  3  4  2  0  0  0  0
  3 18  1  0  0  0  0
  4  5  1  0  0  0  0
  4 19  1  0  0  0  0
  5  6  1  0  0  0  0
  5 16  2  0  0  0  0
  6  7  1  0  0  0  0
  7  8  2  0  0  0  0
  7 15  1  0  0  0  0
  8  9  1  0  0  0  0
  9 10  1  0  0  0  0
  9 14  2  0  0  0  0
 10 11  2  0  0  0  0
 10 20  1  0  0  0  0
 11 12  1  0  0  0  0
 11 21  1  0  0  0  0
 12 13  2  0  0  0  0
 12 22  1  0  0  0  0
 13 14  1  0  0  0  0
 13 23  1  0  0  0  0
 14 15  1  0  0  0  0
 16 17  1  0  0  0  0
 16 24  1  0  0  0  0
 17 25  1  0  0  0  0
M  END
>  <Energy>
31.1388

$$$$

 OpenBabel04232616053D

 35 37  0  0  0  0  0  0  0  0999 V2000
    1.6780    0.0992   -2.4028 C   0  0  0  0  0  0  0  0  0  0  0  0
    0.3509   -0.1574   -1.8188 C   0  0  0  0  0  0  0  0  0  0  0  0
   -0.3342   -1.2931   -1.4715 C   0  0  0  0  0  0  0  0  0  0  0  0
   -1.5627   -0.8279   -0.9447 C   0  0  0  0  0  0  0  0  0  0  0  0
   -2.5611   -1.6085   -0.4600 N   0  0  0  0  0  0  0  0  0  0  0  0
   -2.6302   -2.9795   -0.4019 C   0  0  0  0  0  0  0  0  0  0  0  0
   -3.6315   -3.7380    0.0630 C   0  0  0  0  0  0  0  0  0  0  0  0
   -3.4947   -5.2214   -0.0371 C   0  0  0  0  0  0  0  0  0  0  0  0
   -2.4045   -5.7380   -0.2567 O   0  0  0  0  0  0  0  0  0  0  0  0
   -4.7351   -6.0458    0.0967 C   0  0  0  0  0  0  0  0  0  0  0  0
   -5.9286   -5.5299   -0.4420 C   0  0  0  0  0  0  0  0  0  0  0  0
   -7.1034   -6.2709   -0.3952 C   0  0  0  0  0  0  0  0  0  0  0  0
   -7.0962   -7.5411    0.1686 C   0  0  0  0  0  0  0  0  0  0  0  0
   -5.9202   -8.0949    0.6937 C   0  0  0  0  0  0  0  0  0  0  0  0
   -5.9490   -9.3936    1.2308 C   0  0  0  0  0  0  0  0  0  0  0  0
   -4.8013   -9.9833    1.7528 C   0  0  0  0  0  0  0  0  0  0  0  0
   -3.6090   -9.2757    1.7565 C   0  0  0  0  0  0  0  0  0  0  0  0
   -3.5660   -7.9801    1.2327 C   0  0  0  0  0  0  0  0  0  0  0  0
   -4.7088   -7.3536    0.6730 C   0  0  0  0  0  0  0  0  0  0  0  0
   -1.6152    0.5087   -0.9841 N   0  0  0  0  0  0  0  0  0  0  0  0
   -0.4149    0.9267   -1.5317 O   0  0  0  0  0  0  0  0  0  0  0  0
    2.2061   -0.8392   -2.5983 H   0  0  0  0  0  0  0  0  0  0  0  0
    2.2895    0.6958   -1.7189 H   0  0  0  0  0  0  0  0  0  0  0  0
    1.5854    0.6402   -3.3491 H   0  0  0  0  0  0  0  0  0  0  0  0
    0.0147   -2.3078   -1.5793 H   0  0  0  0  0  0  0  0  0  0  0  0
   -3.3756   -1.1128   -0.1102 H   0  0  0  0  0  0  0  0  0  0  0  0
   -1.7495   -3.4749   -0.8088 H   0  0  0  0  0  0  0  0  0  0  0  0
   -4.5338   -3.3116    0.4788 H   0  0  0  0  0  0  0  0  0  0  0  0
   -5.9549   -4.5613   -0.9345 H   0  0  0  0  0  0  0  0  0  0  0  0
   -8.0218   -5.8672   -0.8164 H   0  0  0  0  0  0  0  0  0  0  0  0
   -8.0249   -8.1095    0.1834 H   0  0  0  0  0  0  0  0  0  0  0  0
   -6.8752   -9.9657    1.2381 H   0  0  0  0  0  0  0  0  0  0  0  0
   -4.8391  -10.9929    2.1531 H   0  0  0  0  0  0  0  0  0  0  0  0
   -2.7057   -9.7266    2.1592 H   0  0  0  0  0  0  0  0  0  0  0  0
   -2.6058   -7.4684    1.2606 H   0  0  0  0  0  0  0  0  0  0  0  0
  1  2  1  0  0  0  0
  1 22  1  0  0  0  0
  1 23  1  0  0  0  0
  1 24  1  0  0  0  0
  2  3  2  0  0  0  0
  2 21  1  0  0  0  0
  3  4  1  0  0  0  0
  3 25  1  0  0  0  0
  4  5  1  0  0  0  0
  4 20  2  0  0  0  0
  5  6  1  0  0  0  0
  5 26  1  0  0  0  0
  6  7  2  0  0  0  0
  6 27  1  0  0  0  0
  7  8  1  0  0  0  0
  7 28  1  0  0  0  0
  8  9  2  0  0  0  0
  8 10  1  0  0  0  0
 10 11  1  0  0  0  0
 10 19  2  0  0  0  0
 11 12  2  0  0  0  0
 11 29  1  0  0  0  0
 12 13  1  0  0  0  0
 12 30  1  0  0  0  0
 13 14  2  0  0  0  0
 13 31  1  0  0  0  0
 14 15  1  0  0  0  0
 14 19  1  0  0  0  0
 15 16  2  0  0  0  0
 15 32  1  0  0  0  0
 16 17  1  0  0  0  0
 16 33  1  0  0  0  0
 17 18  2  0  0  0  0
 17 34  1  0  0  0  0
 18 19  1  0  0  0  0
 18 35  1  0  0  0  0
 20 21  1  0  0  0  0
M  END
>  <Energy>
43.9094

$$$$

 OpenBabel04232616053D

 36 38  0  0  0  0  0  0  0  0999 V2000
    1.1101   -1.5251    0.9997 C   0  0  0  0  0  0  0  0  0  0  0  0
    2.6032   -1.5194    0.9697 C   0  0  0  0  0  0  0  0  0  0  0  0
    3.3081   -1.6604   -0.1618 C   0  0  0  0  0  0  0  0  0  0  0  0
    4.7527   -1.6573   -0.1901 C   0  0  0  0  0  0  0  0  0  0  0  0
    5.4517   -1.7974   -1.3261 C   0  0  0  0  0  0  0  0  0  0  0  0
    6.9444   -1.7963   -1.3267 C   0  0  0  0  0  0  0  0  0  0  0  0
    7.6199   -1.6392   -0.2238 N   0  0  0  0  0  0  0  0  0  0  0  0
    9.0311   -1.6458   -0.2620 C   0  0  0  0  0  0  0  0  0  0  0  0
    9.7340   -1.4760    0.9334 C   0  0  0  0  0  0  0  0  0  0  0  0
   11.1342   -1.4764    0.9564 C   0  0  0  0  0  0  0  0  0  0  0  0
   11.6900   -1.3000    2.1949 O   0  0  0  0  0  0  0  0  0  0  0  0
   13.1107   -1.3004    2.2670 C   0  0  0  0  0  0  0  0  0  0  0  0
   11.8419   -1.6491   -0.2353 C   0  0  0  0  0  0  0  0  0  0  0  0
   11.1607   -1.8196   -1.4434 C   0  0  0  0  0  0  0  0  0  0  0  0
    9.7645   -1.8162   -1.4451 C   0  0  0  0  0  0  0  0  0  0  0  0
    9.0095   -1.9815   -2.6195 N   0  0  0  0  0  0  0  0  0  0  0  0
    9.4346   -2.1655   -3.9131 C   0  0  0  0  0  0  0  0  0  0  0  0
    8.3240   -2.2775   -4.7200 C   0  0  0  0  0  0  0  0  0  0  0  0
    7.1862   -2.1580   -3.8878 C   0  0  0  0  0  0  0  0  0  0  0  0
    7.6314   -1.9752   -2.5898 C   0  0  0  0  0  0  0  0  0  0  0  0
    0.7576   -1.4032    2.0287 H   0  0  0  0  0  0  0  0  0  0  0  0
    0.7157   -2.4730    0.6210 H   0  0  0  0  0  0  0  0  0  0  0  0
    0.7045   -0.6995    0.4067 H   0  0  0  0  0  0  0  0  0  0  0  0
    3.1113   -1.3935    1.9232 H   0  0  0  0  0  0  0  0  0  0  0  0
    2.7827   -1.7846   -1.1070 H   0  0  0  0  0  0  0  0  0  0  0  0
    5.2737   -1.5374    0.7586 H   0  0  0  0  0  0  0  0  0  0  0  0
    4.9492   -1.9179   -2.2765 H   0  0  0  0  0  0  0  0  0  0  0  0
    9.1808   -1.3419    1.8595 H   0  0  0  0  0  0  0  0  0  0  0  0
   13.3948   -1.1483    3.3126 H   0  0  0  0  0  0  0  0  0  0  0  0
   13.5358   -0.4766    1.6838 H   0  0  0  0  0  0  0  0  0  0  0  0
   13.5213   -2.2640    1.9471 H   0  0  0  0  0  0  0  0  0  0  0  0
   12.9268   -1.6558   -0.2595 H   0  0  0  0  0  0  0  0  0  0  0  0
   11.7381   -1.9508   -2.3521 H   0  0  0  0  0  0  0  0  0  0  0  0
   10.4832   -2.2037   -4.1696 H   0  0  0  0  0  0  0  0  0  0  0  0
    8.3340   -2.4291   -5.7920 H   0  0  0  0  0  0  0  0  0  0  0  0
    6.1563   -2.2027   -4.2161 H   0  0  0  0  0  0  0  0  0  0  0  0
  1  2  1  0  0  0  0
  1 21  1  0  0  0  0
  1 22  1  0  0  0  0
  1 23  1  0  0  0  0
  2  3  2  0  0  0  0
  2 24  1  0  0  0  0
  3  4  1  0  0  0  0
  3 25  1  0  0  0  0
  4  5  2  0  0  0  0
  4 26  1  0  0  0  0
  5  6  1  0  0  0  0
  5 27  1  0  0  0  0
  6  7  2  0  0  0  0
  6 20  1  0  0  0  0
  7  8  1  0  0  0  0
  8  9  1  0  0  0  0
  8 15  2  0  0  0  0
  9 10  2  0  0  0  0
  9 28  1  0  0  0  0
 10 11  1  0  0  0  0
 10 13  1  0  0  0  0
 11 12  1  0  0  0  0
 12 29  1  0  0  0  0
 12 30  1  0  0  0  0
 12 31  1  0  0  0  0
 13 14  2  0  0  0  0
 13 32  1  0  0  0  0
 14 15  1  0  0  0  0
 14 33  1  0  0  0  0
 15 16  1  0  0  0  0
 16 17  1  0  0  0  0
 16 20  1  0  0  0  0
 17 18  2  0  0  0  0
 17 34  1  0  0  0  0
 18 19  1  0  0  0  0
 18 35  1  0  0  0  0
 19 20  2  0  0  0  0
 19 36  1  0  0  0  0
M  END
>  <Energy>
32.8801

$$$$

 OpenBabel04232616053D

 38 40  0  0  0  0  0  0  0  0999 V2000
    2.3912    1.1184   -4.4996 C   0  0  0  0  0  0  0  0  0  0  0  0
    3.6402    0.6297   -4.0274 O   0  0  0  0  0  0  0  0  0  0  0  0
    3.5949   -0.3689   -3.0928 C   0  0  0  0  0  0  0  0  0  0  0  0
    2.4424   -0.8547   -2.4736 C   0  0  0  0  0  0  0  0  0  0  0  0
    2.5303   -1.8843   -1.5349 C   0  0  0  0  0  0  0  0  0  0  0  0
    3.7703   -2.4374   -1.2177 C   0  0  0  0  0  0  0  0  0  0  0  0
    4.9375   -1.9635   -1.8315 C   0  0  0  0  0  0  0  0  0  0  0  0
    6.2338   -2.5555   -1.5245 C   0  0  0  0  0  0  0  0  0  0  0  0
    6.3956   -3.6419   -0.7527 N   0  0  0  0  0  0  0  0  0  0  0  0
    7.7225   -3.8102   -0.7952 N   0  0  0  0  0  0  0  0  0  0  0  0
    8.3462   -2.8422   -1.5324 C   0  0  0  0  0  0  0  0  0  0  0  0
    9.7973   -2.7694   -1.7175 C   0  0  0  0  0  0  0  0  0  0  0  0
   10.6369   -3.1940   -0.6679 C   0  0  0  0  0  0  0  0  0  0  0  0
   12.0309   -3.1792   -0.7884 C   0  0  0  0  0  0  0  0  0  0  0  0
   12.9037   -3.6054    0.3542 C   0  0  0  0  0  0  0  0  0  0  0  0
   12.5985   -2.7448   -1.9857 C   0  0  0  0  0  0  0  0  0  0  0  0
   11.7860   -2.2982   -3.0291 C   0  0  0  0  0  0  0  0  0  0  0  0
   10.3854   -2.2889   -2.9063 C   0  0  0  0  0  0  0  0  0  0  0  0
    9.5664   -1.7479   -4.0491 C   0  0  0  0  0  0  0  0  0  0  0  0
    7.4134   -2.0515   -2.0228 N   0  0  0  0  0  0  0  0  0  0  0  0
    4.8369   -0.9182   -2.7602 C   0  0  0  0  0  0  0  0  0  0  0  0
    2.5934    1.8583   -5.2798 H   0  0  0  0  0  0  0  0  0  0  0  0
    1.8380    1.6206   -3.6993 H   0  0  0  0  0  0  0  0  0  0  0  0
    1.7963    0.3158   -4.9486 H   0  0  0  0  0  0  0  0  0  0  0  0
    1.4601   -0.4526   -2.6964 H   0  0  0  0  0  0  0  0  0  0  0  0
    1.6317   -2.2598   -1.0513 H   0  0  0  0  0  0  0  0  0  0  0  0
    3.8234   -3.2431   -0.4883 H   0  0  0  0  0  0  0  0  0  0  0  0
    8.1356   -4.5984   -0.3129 H   0  0  0  0  0  0  0  0  0  0  0  0
   10.2060   -3.5154    0.2780 H   0  0  0  0  0  0  0  0  0  0  0  0
   12.3082   -3.8892    1.2287 H   0  0  0  0  0  0  0  0  0  0  0  0
   13.5597   -2.7816    0.6530 H   0  0  0  0  0  0  0  0  0  0  0  0
   13.5110   -4.4688    0.0665 H   0  0  0  0  0  0  0  0  0  0  0  0
   13.6792   -2.7323   -2.1092 H   0  0  0  0  0  0  0  0  0  0  0  0
   12.2573   -1.9455   -3.9447 H   0  0  0  0  0  0  0  0  0  0  0  0
   10.2001   -1.4651   -4.8971 H   0  0  0  0  0  0  0  0  0  0  0  0
    9.0293   -0.8463   -3.7372 H   0  0  0  0  0  0  0  0  0  0  0  0
    8.8576   -2.4993   -4.4103 H   0  0  0  0  0  0  0  0  0  0  0  0
    5.7334   -0.5310   -3.2419 H   0  0  0  0  0  0  0  0  0  0  0  0
  1  2  1  0  0  0  0
  1 22  1  0  0  0  0
  1 23  1  0  0  0  0
  1 24  1  0  0  0  0
  2  3  1  0  0  0  0
  3  4  1  0  0  0  0
  3 21  2  0  0  0  0
  4  5  2  0  0  0  0
  4 25  1  0  0  0  0
  5  6  1  0  0  0  0
  5 26  1  0  0  0  0
  6  7  2  0  0  0  0
  6 27  1  0  0  0  0
  7  8  1  0  0  0  0
  7 21  1  0  0  0  0
  8  9  2  0  0  0  0
  8 20  1  0  0  0  0
  9 10  1  0  0  0  0
 10 11  1  0  0  0  0
 10 28  1  0  0  0  0
 11 12  1  0  0  0  0
 11 20  2  0  0  0  0
 12 13  1  0  0  0  0
 12 18  2  0  0  0  0
 13 14  2  0  0  0  0
 13 29  1  0  0  0  0
 14 15  1  0  0  0  0
 14 16  1  0  0  0  0
 15 30  1  0  0  0  0
 15 31  1  0  0  0  0
 15 32  1  0  0  0  0
 16 17  2  0  0  0  0
 16 33  1  0  0  0  0
 17 18  1  0  0  0  0
 17 34  1  0  0  0  0
 18 19  1  0  0  0  0
 19 35  1  0  0  0  0
 19 36  1  0  0  0  0
 19 37  1  0  0  0  0
 21 38  1  0  0  0  0
M  END
>  <Energy>
60.5157

$$$$

 OpenBabel04232616053D

 31 33  0  0  0  0  0  0  0  0999 V2000
    2.7380    0.3586   -0.7221 C   0  0  0  0  0  0  0  0  0  0  0  0
    4.4031    0.0250   -0.0892 S   0  0  0  0  0  0  0  0  0  0  0  0
    4.0017   -0.1474    1.6543 C   0  0  0  0  0  0  0  0  0  0  0  0
    4.0945    1.0283    2.4197 C   0  0  0  0  0  0  0  0  0  0  0  0
    3.7509    1.0345    3.7717 C   0  0  0  0  0  0  0  0  0  0  0  0
    3.3024   -0.1350    4.3743 C   0  0  0  0  0  0  0  0  0  0  0  0
    3.2189   -1.3126    3.6292 C   0  0  0  0  0  0  0  0  0  0  0  0
    3.5835   -1.3474    2.2685 C   0  0  0  0  0  0  0  0  0  0  0  0
    3.4936   -2.6344    1.5876 C   0  0  0  0  0  0  0  0  0  0  0  0
    2.6819   -3.6516    1.8044 N   0  0  0  0  0  0  0  0  0  0  0  0
    3.0437   -4.6401    0.9075 N   0  0  0  0  0  0  0  0  0  0  0  0
    4.0665   -4.1668    0.2236 C   0  0  0  0  0  0  0  0  0  0  0  0
    4.8123   -4.7415   -0.8882 C   0  0  0  0  0  0  0  0  0  0  0  0
    4.4605   -6.0033   -1.3897 C   0  0  0  0  0  0  0  0  0  0  0  0
    5.1288   -6.5456   -2.4910 C   0  0  0  0  0  0  0  0  0  0  0  0
    6.1607   -5.8351   -3.1009 C   0  0  0  0  0  0  0  0  0  0  0  0
    6.5340   -4.5886   -2.6045 C   0  0  0  0  0  0  0  0  0  0  0  0
    5.8657   -4.0462   -1.5040 C   0  0  0  0  0  0  0  0  0  0  0  0
    4.4245   -2.9090    0.6254 O   0  0  0  0  0  0  0  0  0  0  0  0
    2.7774    0.4378   -1.8118 H   0  0  0  0  0  0  0  0  0  0  0  0
    2.3604    1.3023   -0.3188 H   0  0  0  0  0  0  0  0  0  0  0  0
    2.0507   -0.4495   -0.4571 H   0  0  0  0  0  0  0  0  0  0  0  0
    4.4314    1.9572    1.9631 H   0  0  0  0  0  0  0  0  0  0  0  0
    3.8270    1.9519    4.3480 H   0  0  0  0  0  0  0  0  0  0  0  0
    3.0263   -0.1373    5.4257 H   0  0  0  0  0  0  0  0  0  0  0  0
    2.8737   -2.2206    4.1238 H   0  0  0  0  0  0  0  0  0  0  0  0
    3.6510   -6.5688   -0.9303 H   0  0  0  0  0  0  0  0  0  0  0  0
    4.8371   -7.5193   -2.8767 H   0  0  0  0  0  0  0  0  0  0  0  0
    6.6725   -6.2517   -3.9648 H   0  0  0  0  0  0  0  0  0  0  0  0
    7.3398   -4.0323   -3.0769 H   0  0  0  0  0  0  0  0  0  0  0  0
    6.1702   -3.0663   -1.1399 H   0  0  0  0  0  0  0  0  0  0  0  0
  1  2  1  0  0  0  0
  1 20  1  0  0  0  0
  1 21  1  0  0  0  0
  1 22  1  0  0  0  0
  2  3  1  0  0  0  0
  3  4  1  0  0  0  0
  3  8  2  0  0  0  0
  4  5  2  0  0  0  0
  4 23  1  0  0  0  0
  5  6  1  0  0  0  0
  5 24  1  0  0  0  0
  6  7  2  0  0  0  0
  6 25  1  0  0  0  0
  7  8  1  0  0  0  0
  7 26  1  0  0  0  0
  8  9  1  0  0  0  0
  9 10  2  0  0  0  0
  9 19  1  0  0  0  0
 10 11  1  0  0  0  0
 11 12  2  0  0  0  0
 12 13  1  0  0  0  0
 12 19  1  0  0  0  0
 13 14  1  0  0  0  0
 13 18  2  0  0  0  0
 14 15  2  0  0  0  0
 14 27  1  0  0  0  0
 15 16  1  0  0  0  0
 15 28  1  0  0  0  0
 16 17  2  0  0  0  0
 16 29  1  0  0  0  0
 17 18  1  0  0  0  0
 17 30  1  0  0  0  0
 18 31  1  0  0  0  0
M  END
>  <Energy>
66.9607

$$$$

 OpenBabel04232616053D

 32 34  0  0  0  0  0  0  0  0999 V2000
    2.3489    1.1669   -1.1788 C   0  0  0  0  0  0  0  0  0  0  0  0
    2.4182    0.0754   -0.2668 O   0  0  0  0  0  0  0  0  0  0  0  0
    3.0471   -1.0410   -0.7446 C   0  0  0  0  0  0  0  0  0  0  0  0
    4.0585   -1.0421   -1.6997 C   0  0  0  0  0  0  0  0  0  0  0  0
    4.6239   -2.2528   -2.1165 C   0  0  0  0  0  0  0  0  0  0  0  0
    4.2075   -3.4901   -1.5898 C   0  0  0  0  0  0  0  0  0  0  0  0
    4.8322   -4.7465   -2.0607 C   0  0  0  0  0  0  0  0  0  0  0  0
    4.9667   -5.8768   -1.2639 C   0  0  0  0  0  0  0  0  0  0  0  0
    5.6304   -6.9797   -1.7871 C   0  0  0  0  0  0  0  0  0  0  0  0
    5.7834   -8.1099   -1.0255 O   0  0  0  0  0  0  0  0  0  0  0  0
    6.1613   -6.9548   -3.0842 C   0  0  0  0  0  0  0  0  0  0  0  0
    6.8829   -8.0284   -3.6524 C   0  0  0  0  0  0  0  0  0  0  0  0
    7.3808   -7.9370   -4.9487 C   0  0  0  0  0  0  0  0  0  0  0  0
    7.1488   -6.7804   -5.6764 C   0  0  0  0  0  0  0  0  0  0  0  0
    7.6161   -6.6849   -6.9275 F   0  0  0  0  0  0  0  0  0  0  0  0
    6.4439   -5.7164   -5.1257 C   0  0  0  0  0  0  0  0  0  0  0  0
    5.9559   -5.7787   -3.8307 C   0  0  0  0  0  0  0  0  0  0  0  0
    5.3115   -4.7125   -3.3314 N   0  0  0  0  0  0  0  0  0  0  0  0
    3.1978   -3.4606   -0.6132 C   0  0  0  0  0  0  0  0  0  0  0  0
    2.6346   -2.2499   -0.1885 C   0  0  0  0  0  0  0  0  0  0  0  0
    1.6539    1.9038   -0.7651 H   0  0  0  0  0  0  0  0  0  0  0  0
    1.9587    0.8490   -2.1520 H   0  0  0  0  0  0  0  0  0  0  0  0
    3.3238    1.6538   -1.2865 H   0  0  0  0  0  0  0  0  0  0  0  0
    4.4393   -0.1223   -2.1310 H   0  0  0  0  0  0  0  0  0  0  0  0
    5.4127   -2.2245   -2.8680 H   0  0  0  0  0  0  0  0  0  0  0  0
    4.5930   -5.8858   -0.2466 H   0  0  0  0  0  0  0  0  0  0  0  0
    5.3011   -8.0043   -0.1886 H   0  0  0  0  0  0  0  0  0  0  0  0
    7.0599   -8.9333   -3.0732 H   0  0  0  0  0  0  0  0  0  0  0  0
    7.9435   -8.7529   -5.3901 H   0  0  0  0  0  0  0  0  0  0  0  0
    6.2825   -4.8227   -5.7197 H   0  0  0  0  0  0  0  0  0  0  0  0
    2.8154   -4.3790   -0.1771 H   0  0  0  0  0  0  0  0  0  0  0  0
    1.8527   -2.2538    0.5674 H   0  0  0  0  0  0  0  0  0  0  0  0
  1  2  1  0  0  0  0
  1 21  1  0  0  0  0
  1 22  1  0  0  0  0
  1 23  1  0  0  0  0
  2  3  1  0  0  0  0
  3  4  1  0  0  0  0
  3 20  2  0  0  0  0
  4  5  2  0  0  0  0
  4 24  1  0  0  0  0
  5  6  1  0  0  0  0
  5 25  1  0  0  0  0
  6  7  1  0  0  0  0
  6 19  2  0  0  0  0
  7  8  1  0  0  0  0
  7 18  2  0  0  0  0
  8  9  2  0  0  0  0
  8 26  1  0  0  0  0
  9 10  1  0  0  0  0
  9 11  1  0  0  0  0
 10 27  1  0  0  0  0
 11 12  1  0  0  0  0
 11 17  2  0  0  0  0
 12 13  2  0  0  0  0
 12 28  1  0  0  0  0
 13 14  1  0  0  0  0
 13 29  1  0  0  0  0
 14 15  1  0  0  0  0
 14 16  2  0  0  0  0
 16 17  1  0  0  0  0
 16 30  1  0  0  0  0
 17 18  1  0  0  0  0
 19 20  1  0  0  0  0
 19 31  1  0  0  0  0
 20 32  1  0  0  0  0
M  END
>  <Energy>
43.0132

$$$$

 OpenBabel04232616053D

 28 29  0  0  0  0  0  0  0  0999 V2000
    1.2066    0.0584   -0.4719 O   0  0  0  0  0  0  0  0  0  0  0  0
    1.6243   -0.3962    0.5999 N   0  3  0  0  0  0  0  0  0  0  0  0
    1.1699   -0.1415    1.7219 O   0  5  0  0  0  0  0  0  0  0  0  0
    2.7291   -1.3249    0.5273 C   0  0  0  0  0  0  0  0  0  0  0  0
    2.4303   -2.5572   -0.0808 C   0  0  0  0  0  0  0  0  0  0  0  0
    3.4096   -3.5403   -0.1394 C   0  0  0  0  0  0  0  0  0  0  0  0
    3.0599   -5.0521   -0.8776 Cl  0  0  0  0  0  0  0  0  0  0  0  0
    4.6675   -3.3062    0.4067 C   0  0  0  0  0  0  0  0  0  0  0  0
    4.9514   -2.0713    1.0047 C   0  0  0  0  0  0  0  0  0  0  0  0
    3.9939   -1.0458    1.0629 C   0  0  0  0  0  0  0  0  0  0  0  0
    4.4827    0.0830    1.6640 O   0  0  0  0  0  0  0  0  0  0  0  0
    3.8743    1.3423    1.3785 C   0  0  0  0  0  0  0  0  0  0  0  0
    4.8347    2.4976    1.5566 C   0  0  0  0  0  0  0  0  0  0  0  0
    4.6818    3.6306    0.7401 C   0  0  0  0  0  0  0  0  0  0  0  0
    5.4841    4.7576    0.9207 C   0  0  0  0  0  0  0  0  0  0  0  0
    6.4445    4.7695    1.9278 C   0  0  0  0  0  0  0  0  0  0  0  0
    6.6050    3.6549    2.7502 C   0  0  0  0  0  0  0  0  0  0  0  0
    5.8015    2.5242    2.5697 C   0  0  0  0  0  0  0  0  0  0  0  0
    1.4421   -2.7476   -0.4947 H   0  0  0  0  0  0  0  0  0  0  0  0
    5.4357   -4.0754    0.3705 H   0  0  0  0  0  0  0  0  0  0  0  0
    5.9440   -1.9039    1.4219 H   0  0  0  0  0  0  0  0  0  0  0  0
    3.0430    1.5046    2.0716 H   0  0  0  0  0  0  0  0  0  0  0  0
    3.5232    1.3617    0.3416 H   0  0  0  0  0  0  0  0  0  0  0  0
    3.9223    3.6475   -0.0395 H   0  0  0  0  0  0  0  0  0  0  0  0
    5.3482    5.6270    0.2836 H   0  0  0  0  0  0  0  0  0  0  0  0
    7.0620    5.6517    2.0765 H   0  0  0  0  0  0  0  0  0  0  0  0
    7.3499    3.6717    3.5415 H   0  0  0  0  0  0  0  0  0  0  0  0
    5.9289    1.6717    3.2335 H   0  0  0  0  0  0  0  0  0  0  0  0
  1  2  2  0  0  0  0
  2  3  1  0  0  0  0
  2  4  1  0  0  0  0
  4  5  1  0  0  0  0
  4 10  2  0  0  0  0
  5  6  2  0  0  0  0
  5 19  1  0  0  0  0
  6  7  1  0  0  0  0
  6  8  1  0  0  0  0
  8  9  2  0  0  0  0
  8 20  1  0  0  0  0
  9 10  1  0  0  0  0
  9 21  1  0  0  0  0
 10 11  1  0  0  0  0
 11 12  1  0  0  0  0
 12 13  1  0  0  0  0
 12 22  1  0  0  0  0
 12 23  1  0  0  0  0
 13 14  1  0  0  0  0
 13 18  2  0  0  0  0
 14 15  2  0  0  0  0
 14 24  1  0  0  0  0
 15 16  1  0  0  0  0
 15 25  1  0  0  0  0
 16 17  2  0  0  0  0
 16 26  1  0  0  0  0
 17 18  1  0  0  0  0
 17 27  1  0  0  0  0
 18 28  1  0  0  0  0
M  CHG  2   2   1   3  -1
M  END
>  <Energy>
75.087

$$$$

 OpenBabel04232616053D

 37 39  0  0  1  0  0  0  0  0999 V2000
    0.9986    3.5951   -1.7382 C   0  0  0  0  0  0  0  0  0  0  0  0
    0.7628    2.1361   -1.4786 C   0  0  0  0  0  0  0  0  0  0  0  0
    1.7819    1.3449   -0.9469 C   0  0  0  0  0  0  0  0  0  0  0  0
    1.5660   -0.0103   -0.7325 C   0  0  0  0  0  0  0  0  0  0  0  0
    0.3266   -0.5789   -1.0365 C   0  0  0  0  0  0  0  0  0  0  0  0
   -0.7299    0.1888   -1.5541 C   0  0  0  0  0  0  0  0  0  0  0  0
   -2.0399   -0.3766   -1.6979 N   0  0  0  0  0  0  0  0  0  0  0  0
   -3.2336    0.4345   -1.8200 C   0  0  0  0  0  0  0  0  0  0  0  0
   -4.0707    0.3942   -0.5481 C   0  0  0  0  0  0  0  0  0  0  0  0
   -3.6887   -0.8198    0.3001 C   0  0  2  0  0  0  0  0  0  0  0  0
   -2.5720   -0.6602    1.3354 C   0  0  0  0  0  0  0  0  0  0  0  0
   -1.9923    0.5750    1.6695 C   0  0  0  0  0  0  0  0  0  0  0  0
   -0.9375    0.6525    2.5846 C   0  0  0  0  0  0  0  0  0  0  0  0
   -0.4503   -0.4996    3.1927 C   0  0  0  0  0  0  0  0  0  0  0  0
   -1.0226   -1.7316    2.8922 C   0  0  0  0  0  0  0  0  0  0  0  0
   -2.0755   -1.8100    1.9774 C   0  0  0  0  0  0  0  0  0  0  0  0
   -3.3918   -1.9104   -0.6075 O   0  0  0  0  0  0  0  0  0  0  0  0
   -2.2923   -1.7208   -1.4047 C   0  0  0  0  0  0  0  0  0  0  0  0
   -1.6342   -2.6780   -1.7971 O   0  0  0  0  0  0  0  0  0  0  0  0
   -0.4744    1.5477   -1.8022 C   0  0  0  0  0  0  0  0  0  0  0  0
    1.7103    4.0088   -1.0156 H   0  0  0  0  0  0  0  0  0  0  0  0
    0.0687    4.1645   -1.6360 H   0  0  0  0  0  0  0  0  0  0  0  0
    1.3941    3.7370   -2.7486 H   0  0  0  0  0  0  0  0  0  0  0  0
    2.7461    1.7779   -0.6910 H   0  0  0  0  0  0  0  0  0  0  0  0
    2.3497   -0.6303   -0.3066 H   0  0  0  0  0  0  0  0  0  0  0  0
    0.2058   -1.6341   -0.8052 H   0  0  0  0  0  0  0  0  0  0  0  0
   -3.8236   -0.0158   -2.6313 H   0  0  0  0  0  0  0  0  0  0  0  0
   -3.0547    1.4628   -2.1339 H   0  0  0  0  0  0  0  0  0  0  0  0
   -5.1208    0.3008   -0.8543 H   0  0  0  0  0  0  0  0  0  0  0  0
   -4.0168    1.3377    0.0016 H   0  0  0  0  0  0  0  0  0  0  0  0
   -4.5787   -1.1191    0.8688 H   0  0  0  0  0  0  0  0  0  0  0  0
   -2.3136    1.5026    1.2071 H   0  0  0  0  0  0  0  0  0  0  0  0
   -0.4842    1.6156    2.8071 H   0  0  0  0  0  0  0  0  0  0  0  0
    0.3781   -0.4379    3.8930 H   0  0  0  0  0  0  0  0  0  0  0  0
   -0.6402   -2.6362    3.3575 H   0  0  0  0  0  0  0  0  0  0  0  0
   -2.4920   -2.7887    1.7423 H   0  0  0  0  0  0  0  0  0  0  0  0
   -1.2251    2.1937   -2.2411 H   0  0  0  0  0  0  0  0  0  0  0  0
  1  2  1  0  0  0  0
  1 21  1  0  0  0  0
  1 22  1  0  0  0  0
  1 23  1  0  0  0  0
  2  3  1  0  0  0  0
  2 20  2  0  0  0  0
  3  4  2  0  0  0  0
  3 24  1  0  0  0  0
  4  5  1  0  0  0  0
  4 25  1  0  0  0  0
  5  6  2  0  0  0  0
  5 26  1  0  0  0  0
  6  7  1  0  0  0  0
  6 20  1  0  0  0  0
  7  8  1  0  0  0  0
  7 18  1  0  0  0  0
  8  9  1  0  0  0  0
  8 27  1  0  0  0  0
  8 28  1  0  0  0  0
  9 10  1  0  0  0  0
  9 29  1  0  0  0  0
  9 30  1  0  0  0  0
 10 11  1  0  0  0  0
 10 17  1  0  0  0  0
 10 31  1  1  0  0  0
 11 12  1  0  0  0  0
 11 16  2  0  0  0  0
 12 13  2  0  0  0  0
 12 32  1  0  0  0  0
 13 14  1  0  0  0  0
 13 33  1  0  0  0  0
 14 15  2  0  0  0  0
 14 34  1  0  0  0  0
 15 16  1  0  0  0  0
 15 35  1  0  0  0  0
 16 36  1  0  0  0  0
 17 18  1  0  0  0  0
 18 19  2  0  0  0  0
 20 37  1  0  0  0  0
M  END
>  <Energy>
19.3347

$$$$

 OpenBabel04232616053D

 27 29  0  0  0  0  0  0  0  0999 V2000
    1.8138    0.3976    1.2849 Cl  0  0  0  0  0  0  0  0  0  0  0  0
    0.1873    0.4384    0.7404 C   0  0  0  0  0  0  0  0  0  0  0  0
   -0.2121    1.2127   -0.2376 N   0  0  0  0  0  0  0  0  0  0  0  0
   -1.5720    1.0276   -0.4141 C   0  0  0  0  0  0  0  0  0  0  0  0
   -2.1719    0.1109    0.4308 C   0  0  0  0  0  0  0  0  0  0  0  0
   -3.5962   -0.3297    0.5290 C   0  0  0  0  0  0  0  0  0  0  0  0
   -4.4111    0.7730    0.1399 O   0  0  0  0  0  0  0  0  0  0  0  0
   -5.7772    0.5785    0.1569 C   0  0  0  0  0  0  0  0  0  0  0  0
   -6.4072   -0.3302    1.0206 C   0  0  0  0  0  0  0  0  0  0  0  0
   -7.7938   -0.4414    1.0345 C   0  0  0  0  0  0  0  0  0  0  0  0
   -8.5576    0.3556    0.1911 C   0  0  0  0  0  0  0  0  0  0  0  0
   -7.9386    1.2710   -0.6732 C   0  0  0  0  0  0  0  0  0  0  0  0
   -8.7090    2.0794   -1.5203 C   0  0  0  0  0  0  0  0  0  0  0  0
   -8.0883    2.9825   -2.3714 C   0  0  0  0  0  0  0  0  0  0  0  0
   -6.7103    3.0451   -2.3466 C   0  0  0  0  0  0  0  0  0  0  0  0
   -5.9355    2.2830   -1.5438 N   0  0  0  0  0  0  0  0  0  0  0  0
   -6.5298    1.4006   -0.7049 C   0  0  0  0  0  0  0  0  0  0  0  0
   -0.9767   -0.5548    1.4782 S   0  0  0  0  0  0  0  0  0  0  0  0
   -2.0904    1.6002   -1.1768 H   0  0  0  0  0  0  0  0  0  0  0  0
   -3.8039   -0.6150    1.5654 H   0  0  0  0  0  0  0  0  0  0  0  0
   -3.7676   -1.1814   -0.1401 H   0  0  0  0  0  0  0  0  0  0  0  0
   -5.8499   -0.9466    1.7165 H   0  0  0  0  0  0  0  0  0  0  0  0
   -8.2785   -1.1394    1.7130 H   0  0  0  0  0  0  0  0  0  0  0  0
   -9.6416    0.2642    0.2171 H   0  0  0  0  0  0  0  0  0  0  0  0
   -9.7940    2.0107   -1.5194 H   0  0  0  0  0  0  0  0  0  0  0  0
   -8.6638    3.6180   -3.0334 H   0  0  0  0  0  0  0  0  0  0  0  0
   -6.1700    3.7323   -2.9916 H   0  0  0  0  0  0  0  0  0  0  0  0
  1  2  1  0  0  0  0
  2  3  2  0  0  0  0
  2 18  1  0  0  0  0
  3  4  1  0  0  0  0
  4  5  2  0  0  0  0
  4 19  1  0  0  0  0
  5  6  1  0  0  0  0
  5 18  1  0  0  0  0
  6  7  1  0  0  0  0
  6 20  1  0  0  0  0
  6 21  1  0  0  0  0
  7  8  1  0  0  0  0
  8  9  1  0  0  0  0
  8 17  2  0  0  0  0
  9 10  2  0  0  0  0
  9 22  1  0  0  0  0
 10 11  1  0  0  0  0
 10 23  1  0  0  0  0
 11 12  2  0  0  0  0
 11 24  1  0  0  0  0
 12 13  1  0  0  0  0
 12 17  1  0  0  0  0
 13 14  2  0  0  0  0
 13 25  1  0  0  0  0
 14 15  1  0  0  0  0
 14 26  1  0  0  0  0
 15 16  2  0  0  0  0
 15 27  1  0  0  0  0
 16 17  1  0  0  0  0
M  END
>  <Energy>
68.0964

$$$$

 OpenBabel04232616053D

 40 42  0  0  0  0  0  0  0  0999 V2000
    0.8668    0.5311   -0.6434 C   0  0  0  0  0  0  0  0  0  0  0  0
    2.3863    0.5001   -0.6507 C   0  0  0  0  0  0  0  0  0  0  0  0
    2.9077   -0.7695   -1.3207 C   0  0  0  0  0  0  0  0  0  0  0  0
    4.4345   -0.8073   -1.3290 C   0  0  0  0  0  0  0  0  0  0  0  0
    4.9466   -2.0779   -2.0041 C   0  0  0  0  0  0  0  0  0  0  0  0
    6.4589   -2.1066   -1.9983 C   0  0  0  0  0  0  0  0  0  0  0  0
    7.1112   -1.5863   -2.9972 N   0  0  0  0  0  0  0  0  0  0  0  0
    8.5257   -1.5979   -2.9732 C   0  0  0  0  0  0  0  0  0  0  0  0
    9.2236   -1.0512   -4.0555 C   0  0  0  0  0  0  0  0  0  0  0  0
   10.6241   -1.0357   -4.0775 C   0  0  0  0  0  0  0  0  0  0  0  0
   11.1830   -0.4758   -5.1964 O   0  0  0  0  0  0  0  0  0  0  0  0
   12.6047   -0.4464   -5.2523 C   0  0  0  0  0  0  0  0  0  0  0  0
   11.3384   -1.5699   -3.0017 C   0  0  0  0  0  0  0  0  0  0  0  0
   10.6629   -2.1210   -1.9110 C   0  0  0  0  0  0  0  0  0  0  0  0
    9.2694   -2.1311   -1.9072 C   0  0  0  0  0  0  0  0  0  0  0  0
    8.5263   -2.6743   -0.8440 N   0  0  0  0  0  0  0  0  0  0  0  0
    8.9557   -3.2525    0.3262 C   0  0  0  0  0  0  0  0  0  0  0  0
    7.8463   -3.6360    1.0486 C   0  0  0  0  0  0  0  0  0  0  0  0
    6.7062   -3.2822    0.2904 C   0  0  0  0  0  0  0  0  0  0  0  0
    7.1521   -2.6794   -0.8700 C   0  0  0  0  0  0  0  0  0  0  0  0
    0.5075    1.4486   -0.1678 H   0  0  0  0  0  0  0  0  0  0  0  0
    0.4615   -0.3216   -0.0893 H   0  0  0  0  0  0  0  0  0  0  0  0
    0.4704    0.4975   -1.6632 H   0  0  0  0  0  0  0  0  0  0  0  0
    2.7538    0.5563    0.3806 H   0  0  0  0  0  0  0  0  0  0  0  0
    2.7639    1.3833   -1.1789 H   0  0  0  0  0  0  0  0  0  0  0  0
    2.5330   -0.8233   -2.3502 H   0  0  0  0  0  0  0  0  0  0  0  0
    2.5220   -1.6488   -0.7903 H   0  0  0  0  0  0  0  0  0  0  0  0
    4.8091   -0.7500   -0.2992 H   0  0  0  0  0  0  0  0  0  0  0  0
    4.8270    0.0735   -1.8524 H   0  0  0  0  0  0  0  0  0  0  0  0
    4.5969   -2.1225   -3.0418 H   0  0  0  0  0  0  0  0  0  0  0  0
    4.5578   -2.9667   -1.4945 H   0  0  0  0  0  0  0  0  0  0  0  0
    8.6658   -0.6345   -4.8911 H   0  0  0  0  0  0  0  0  0  0  0  0
   12.8976    0.0137   -6.2002 H   0  0  0  0  0  0  0  0  0  0  0  0
   13.0221   -1.4592   -5.2318 H   0  0  0  0  0  0  0  0  0  0  0  0
   13.0170    0.1660   -4.4430 H   0  0  0  0  0  0  0  0  0  0  0  0
   12.4228   -1.5747   -2.9794 H   0  0  0  0  0  0  0  0  0  0  0  0
   11.2476   -2.5300   -1.0929 H   0  0  0  0  0  0  0  0  0  0  0  0
   10.0049   -3.3479    0.5646 H   0  0  0  0  0  0  0  0  0  0  0  0
    7.8587   -4.1174    2.0182 H   0  0  0  0  0  0  0  0  0  0  0  0
    5.6735   -3.4463    0.5709 H   0  0  0  0  0  0  0  0  0  0  0  0
  1  2  1  0  0  0  0
  1 21  1  0  0  0  0
  1 22  1  0  0  0  0
  1 23  1  0  0  0  0
  2  3  1  0  0  0  0
  2 24  1  0  0  0  0
  2 25  1  0  0  0  0
  3  4  1  0  0  0  0
  3 26  1  0  0  0  0
  3 27  1  0  0  0  0
  4  5  1  0  0  0  0
  4 28  1  0  0  0  0
  4 29  1  0  0  0  0
  5  6  1  0  0  0  0
  5 30  1  0  0  0  0
  5 31  1  0  0  0  0
  6  7  2  0  0  0  0
  6 20  1  0  0  0  0
  7  8  1  0  0  0  0
  8  9  1  0  0  0  0
  8 15  2  0  0  0  0
  9 10  2  0  0  0  0
  9 32  1  0  0  0  0
 10 11  1  0  0  0  0
 10 13  1  0  0  0  0
 11 12  1  0  0  0  0
 12 33  1  0  0  0  0
 12 34  1  0  0  0  0
 12 35  1  0  0  0  0
 13 14  2  0  0  0  0
 13 36  1  0  0  0  0
 14 15  1  0  0  0  0
 14 37  1  0  0  0  0
 15 16  1  0  0  0  0
 16 17  1  0  0  0  0
 16 20  1  0  0  0  0
 17 18  2  0  0  0  0
 17 38  1  0  0  0  0
 18 19  1  0  0  0  0
 18 39  1  0  0  0  0
 19 20  2  0  0  0  0
 19 40  1  0  0  0  0
M  END
>  <Energy>
26.8243

$$$$

 OpenBabel04232616053D

 31 34  0  0  0  0  0  0  0  0999 V2000
    1.3957   -0.1069   -0.0507 C   0  0  0  0  0  0  0  0  0  0  0  0
    0.5670   -0.6986    0.8987 C   0  0  0  0  0  0  0  0  0  0  0  0
   -0.8141   -0.5184    0.8227 C   0  0  0  0  0  0  0  0  0  0  0  0
   -1.3888    0.2532   -0.2021 C   0  0  0  0  0  0  0  0  0  0  0  0
   -2.8343    0.4311   -0.2218 C   0  0  0  0  0  0  0  0  0  0  0  0
   -3.7266    0.0161    0.6462 N   0  0  0  0  0  0  0  0  0  0  0  0
   -4.9078    0.5039    0.1344 C   0  0  0  0  0  0  0  0  0  0  0  0
   -6.1765    0.2887    0.8232 C   0  0  0  0  0  0  0  0  0  0  0  0
   -6.2016   -0.5242    1.9684 C   0  0  0  0  0  0  0  0  0  0  0  0
   -7.3882   -0.7693    2.6680 C   0  0  0  0  0  0  0  0  0  0  0  0
   -8.5803   -0.1737    2.2236 C   0  0  0  0  0  0  0  0  0  0  0  0
   -9.9262   -0.2059    2.6775 C   0  0  0  0  0  0  0  0  0  0  0  0
  -10.6657    0.6102    1.8527 C   0  0  0  0  0  0  0  0  0  0  0  0
   -9.8211    1.1226    0.9025 N   0  0  0  0  0  0  0  0  0  0  0  0
   -8.5424    0.6486    1.0975 C   0  0  0  0  0  0  0  0  0  0  0  0
   -7.3652    0.8891    0.3714 C   0  0  0  0  0  0  0  0  0  0  0  0
   -4.7623    1.1812   -1.0183 N   0  0  0  0  0  0  0  0  0  0  0  0
   -3.3849    1.1329   -1.2559 O   0  0  0  0  0  0  0  0  0  0  0  0
   -0.5421    0.8375   -1.1539 C   0  0  0  0  0  0  0  0  0  0  0  0
    0.8430    0.6587   -1.0764 C   0  0  0  0  0  0  0  0  0  0  0  0
    2.4729   -0.2414    0.0100 H   0  0  0  0  0  0  0  0  0  0  0  0
    0.9930   -1.2957    1.7012 H   0  0  0  0  0  0  0  0  0  0  0  0
   -1.4497   -0.9835    1.5758 H   0  0  0  0  0  0  0  0  0  0  0  0
   -5.2832   -0.9819    2.3328 H   0  0  0  0  0  0  0  0  0  0  0  0
   -7.3817   -1.4065    3.5484 H   0  0  0  0  0  0  0  0  0  0  0  0
  -10.3069   -0.7611    3.5249 H   0  0  0  0  0  0  0  0  0  0  0  0
  -11.7155    0.8705    1.8622 H   0  0  0  0  0  0  0  0  0  0  0  0
  -10.0907    1.7633    0.1693 H   0  0  0  0  0  0  0  0  0  0  0  0
   -7.3746    1.5276   -0.5082 H   0  0  0  0  0  0  0  0  0  0  0  0
   -0.9465    1.4444   -1.9613 H   0  0  0  0  0  0  0  0  0  0  0  0
    1.4920    1.1215   -1.8159 H   0  0  0  0  0  0  0  0  0  0  0  0
  1  2  1  0  0  0  0
  1 20  2  0  0  0  0
  1 21  1  0  0  0  0
  2  3  2  0  0  0  0
  2 22  1  0  0  0  0
  3  4  1  0  0  0  0
  3 23  1  0  0  0  0
  4  5  1  0  0  0  0
  4 19  2  0  0  0  0
  5  6  2  0  0  0  0
  5 18  1  0  0  0  0
  6  7  1  0  0  0  0
  7  8  1  0  0  0  0
  7 17  2  0  0  0  0
  8  9  1  0  0  0  0
  8 16  2  0  0  0  0
  9 10  2  0  0  0  0
  9 24  1  0  0  0  0
 10 11  1  0  0  0  0
 10 25  1  0  0  0  0
 11 12  1  0  0  0  0
 11 15  2  0  0  0  0
 12 13  2  0  0  0  0
 12 26  1  0  0  0  0
 13 14  1  0  0  0  0
 13 27  1  0  0  0  0
 14 15  1  0  0  0  0
 14 28  1  0  0  0  0
 15 16  1  0  0  0  0
 16 29  1  0  0  0  0
 17 18  1  0  0  0  0
 19 20  1  0  0  0  0
 19 30  1  0  0  0  0
 20 31  1  0  0  0  0
M  END
>  <Energy>
59.824

$$$$

 OpenBabel04232616053D

 31 33  0  0  0  0  0  0  0  0999 V2000
    2.9536    1.1817    0.9296 C   0  0  0  0  0  0  0  0  0  0  0  0
    2.5782    0.0747   -0.0439 C   0  0  0  0  0  0  0  0  0  0  0  0
    3.0893    0.2889   -1.4261 C   0  0  0  0  0  0  0  0  0  0  0  0
    3.2289    1.5873   -1.8114 O   0  0  0  0  0  0  0  0  0  0  0  0
    3.7488    1.6508   -3.0842 N   0  0  0  0  0  0  0  0  0  0  0  0
    3.8347    0.3820   -3.5016 C   0  0  0  0  0  0  0  0  0  0  0  0
    4.2478    0.0604   -4.8990 C   0  0  0  0  0  0  0  0  0  0  0  0
    5.0602    0.8380   -5.7051 C   0  0  0  0  0  0  0  0  0  0  0  0
    5.1716    0.1528   -6.9401 C   0  0  0  0  0  0  0  0  0  0  0  0
    4.3915   -0.9729   -6.8365 C   0  0  0  0  0  0  0  0  0  0  0  0
    4.0843   -2.1323   -8.0665 Cl  0  0  0  0  0  0  0  0  0  0  0  0
    3.8687   -1.0592   -5.5827 O   0  0  0  0  0  0  0  0  0  0  0  0
    3.4789   -0.5382   -2.4696 C   0  0  0  0  0  0  0  0  0  0  0  0
    3.6200   -1.9895   -2.3904 C   0  0  0  0  0  0  0  0  0  0  0  0
    4.7239   -2.6146   -2.9959 C   0  0  0  0  0  0  0  0  0  0  0  0
    4.9152   -3.9948   -2.8955 C   0  0  0  0  0  0  0  0  0  0  0  0
    4.0231   -4.7682   -2.1630 C   0  0  0  0  0  0  0  0  0  0  0  0
    2.9251   -4.1651   -1.5519 C   0  0  0  0  0  0  0  0  0  0  0  0
    2.7161   -2.7878   -1.6811 C   0  0  0  0  0  0  0  0  0  0  0  0
    2.5313    0.9731    1.9177 H   0  0  0  0  0  0  0  0  0  0  0  0
    2.5729    2.1555    0.6031 H   0  0  0  0  0  0  0  0  0  0  0  0
    4.0418    1.2597    1.0333 H   0  0  0  0  0  0  0  0  0  0  0  0
    1.4862   -0.0120   -0.0835 H   0  0  0  0  0  0  0  0  0  0  0  0
    2.9649   -0.8673    0.3577 H   0  0  0  0  0  0  0  0  0  0  0  0
    5.5359    1.7634   -5.4174 H   0  0  0  0  0  0  0  0  0  0  0  0
    5.7397    0.4554   -7.8108 H   0  0  0  0  0  0  0  0  0  0  0  0
    5.4624   -2.0404   -3.5493 H   0  0  0  0  0  0  0  0  0  0  0  0
    5.7693   -4.4609   -3.3849 H   0  0  0  0  0  0  0  0  0  0  0  0
    4.1809   -5.8403   -2.0684 H   0  0  0  0  0  0  0  0  0  0  0  0
    2.2300   -4.7678   -0.9728 H   0  0  0  0  0  0  0  0  0  0  0  0
    1.8351   -2.3554   -1.2102 H   0  0  0  0  0  0  0  0  0  0  0  0
  1  2  1  0  0  0  0
  1 20  1  0  0  0  0
  1 21  1  0  0  0  0
  1 22  1  0  0  0  0
  2  3  1  0  0  0  0
  2 23  1  0  0  0  0
  2 24  1  0  0  0  0
  3  4  1  0  0  0  0
  3 13  2  0  0  0  0
  4  5  1  0  0  0  0
  5  6  2  0  0  0  0
  6  7  1  0  0  0  0
  6 13  1  0  0  0  0
  7  8  2  0  0  0  0
  7 12  1  0  0  0  0
  8  9  1  0  0  0  0
  8 25  1  0  0  0  0
  9 10  2  0  0  0  0
  9 26  1  0  0  0  0
 10 11  1  0  0  0  0
 10 12  1  0  0  0  0
 13 14  1  0  0  0  0
 14 15  1  0  0  0  0
 14 19  2  0  0  0  0
 15 16  2  0  0  0  0
 15 27  1  0  0  0  0
 16 17  1  0  0  0  0
 16 28  1  0  0  0  0
 17 18  2  0  0  0  0
 17 29  1  0  0  0  0
 18 19  1  0  0  0  0
 18 30  1  0  0  0  0
 19 31  1  0  0  0  0
M  END
>  <Energy>
37.8459

$$$$

 OpenBabel04232616053D

 36 38  0  0  0  0  0  0  0  0999 V2000
    2.4591    0.0152    0.3403 C   0  0  0  0  0  0  0  0  0  0  0  0
    0.9589    0.0472    0.3254 C   0  0  0  0  0  0  0  0  0  0  0  0
    0.2729    1.2344    0.0416 C   0  0  0  0  0  0  0  0  0  0  0  0
   -1.1218    1.2546    0.0095 C   0  0  0  0  0  0  0  0  0  0  0  0
   -1.8397    0.0842    0.2591 C   0  0  0  0  0  0  0  0  0  0  0  0
   -3.3137    0.0837    0.2047 C   0  0  0  0  0  0  0  0  0  0  0  0
   -3.9900    1.1552   -0.0632 N   0  0  0  0  0  0  0  0  0  0  0  0
   -5.3933    1.0987   -0.0802 C   0  0  0  0  0  0  0  0  0  0  0  0
   -6.0795    1.9576   -0.9434 C   0  0  0  0  0  0  0  0  0  0  0  0
   -7.4836    1.9919   -0.9753 C   0  0  0  0  0  0  0  0  0  0  0  0
   -8.2407    1.1644   -0.1397 C   0  0  0  0  0  0  0  0  0  0  0  0
   -9.7102    1.1409   -0.0914 C   0  0  0  0  0  0  0  0  0  0  0  0
  -10.5654    2.0369   -0.9384 C   0  0  0  0  0  0  0  0  0  0  0  0
  -10.3020    0.2844    0.7574 C   0  0  0  0  0  0  0  0  0  0  0  0
   -9.5683   -0.6289    1.6433 C   0  0  0  0  0  0  0  0  0  0  0  0
  -10.1685   -1.4011    2.3843 O   0  0  0  0  0  0  0  0  0  0  0  0
   -8.1933   -0.5645    1.5975 O   0  0  0  0  0  0  0  0  0  0  0  0
   -7.5354    0.3152    0.7166 C   0  0  0  0  0  0  0  0  0  0  0  0
   -6.1411    0.2829    0.7655 C   0  0  0  0  0  0  0  0  0  0  0  0
   -1.1686   -1.1046    0.5559 C   0  0  0  0  0  0  0  0  0  0  0  0
    0.2283   -1.1204    0.5879 C   0  0  0  0  0  0  0  0  0  0  0  0
    2.8826    1.0031    0.1304 H   0  0  0  0  0  0  0  0  0  0  0  0
    2.8282   -0.6761   -0.4241 H   0  0  0  0  0  0  0  0  0  0  0  0
    2.8224   -0.3033    1.3223 H   0  0  0  0  0  0  0  0  0  0  0  0
    0.8178    2.1533   -0.1614 H   0  0  0  0  0  0  0  0  0  0  0  0
   -1.6432    2.1822   -0.2146 H   0  0  0  0  0  0  0  0  0  0  0  0
   -3.8007   -0.8878    0.4037 H   0  0  0  0  0  0  0  0  0  0  0  0
   -5.5130    2.6204   -1.5938 H   0  0  0  0  0  0  0  0  0  0  0  0
   -7.9470    2.6894   -1.6657 H   0  0  0  0  0  0  0  0  0  0  0  0
  -10.0075    2.6921   -1.6086 H   0  0  0  0  0  0  0  0  0  0  0  0
  -11.1792    2.6836   -0.3011 H   0  0  0  0  0  0  0  0  0  0  0  0
  -11.2354    1.4380   -1.5658 H   0  0  0  0  0  0  0  0  0  0  0  0
  -11.3813    0.2201    0.8417 H   0  0  0  0  0  0  0  0  0  0  0  0
   -5.6553   -0.3722    1.4803 H   0  0  0  0  0  0  0  0  0  0  0  0
   -1.7161   -2.0213    0.7594 H   0  0  0  0  0  0  0  0  0  0  0  0
    0.7471   -2.0498    0.8139 H   0  0  0  0  0  0  0  0  0  0  0  0
  1  2  1  0  0  0  0
  1 22  1  0  0  0  0
  1 23  1  0  0  0  0
  1 24  1  0  0  0  0
  2  3  1  0  0  0  0
  2 21  2  0  0  0  0
  3  4  2  0  0  0  0
  3 25  1  0  0  0  0
  4  5  1  0  0  0  0
  4 26  1  0  0  0  0
  5  6  1  0  0  0  0
  5 20  2  0  0  0  0
  6  7  2  0  0  0  0
  6 27  1  0  0  0  0
  7  8  1  0  0  0  0
  8  9  1  0  0  0  0
  8 19  2  0  0  0  0
  9 10  2  0  0  0  0
  9 28  1  0  0  0  0
 10 11  1  0  0  0  0
 10 29  1  0  0  0  0
 11 12  1  0  0  0  0
 11 18  2  0  0  0  0
 12 13  1  0  0  0  0
 12 14  2  0  0  0  0
 13 30  1  0  0  0  0
 13 31  1  0  0  0  0
 13 32  1  0  0  0  0
 14 15  1  0  0  0  0
 14 33  1  0  0  0  0
 15 16  2  0  0  0  0
 15 17  1  0  0  0  0
 17 18  1  0  0  0  0
 18 19  1  0  0  0  0
 19 34  1  0  0  0  0
 20 21  1  0  0  0  0
 20 35  1  0  0  0  0
 21 36  1  0  0  0  0
M  END
>  <Energy>
62.4157

$$$$

 OpenBabel04232616053D

 34 36  0  0  0  0  0  0  0  0999 V2000
   -1.6640   -2.3681    0.8768 C   0  0  0  0  0  0  0  0  0  0  0  0
   -1.0623   -1.1160    0.2967 C   0  0  0  0  0  0  0  0  0  0  0  0
   -1.8977    0.0067    0.1346 C   0  0  0  0  0  0  0  0  0  0  0  0
   -1.4096    1.1963   -0.4001 C   0  0  0  0  0  0  0  0  0  0  0  0
   -0.0827    1.2720   -0.8002 C   0  0  0  0  0  0  0  0  0  0  0  0
    0.7448    0.1547   -0.6813 C   0  0  0  0  0  0  0  0  0  0  0  0
    0.2888   -1.0480   -0.1165 C   0  0  0  0  0  0  0  0  0  0  0  0
    1.1639   -2.2429   -0.0532 C   0  0  0  0  0  0  0  0  0  0  0  0
    2.4739   -2.3326    0.2421 C   0  0  0  0  0  0  0  0  0  0  0  0
    3.3673   -1.2327    0.5817 C   0  0  0  0  0  0  0  0  0  0  0  0
    3.4562   -0.8909    1.8713 N   0  0  0  0  0  0  0  0  0  0  0  0
    4.1513    0.2287    2.0921 C   0  0  0  0  0  0  0  0  0  0  0  0
    4.2118    0.5636    3.4092 O   0  0  0  0  0  0  0  0  0  0  0  0
    4.7427    1.0260    1.1188 C   0  0  0  0  0  0  0  0  0  0  0  0
    5.3948    2.2538    1.3599 C   0  0  0  0  0  0  0  0  0  0  0  0
    5.9102    2.9926    0.2964 C   0  0  0  0  0  0  0  0  0  0  0  0
    5.7957    2.4966   -0.9974 C   0  0  0  0  0  0  0  0  0  0  0  0
    5.1641    1.2683   -1.2193 C   0  0  0  0  0  0  0  0  0  0  0  0
    4.6217    0.5257   -0.1775 C   0  0  0  0  0  0  0  0  0  0  0  0
    3.9678   -0.6108   -0.4493 N   0  0  0  0  0  0  0  0  0  0  0  0
   -2.6363   -2.1660    1.3389 H   0  0  0  0  0  0  0  0  0  0  0  0
   -1.0213   -2.7825    1.6599 H   0  0  0  0  0  0  0  0  0  0  0  0
   -1.8139   -3.1135    0.0895 H   0  0  0  0  0  0  0  0  0  0  0  0
   -2.9457   -0.0434    0.4255 H   0  0  0  0  0  0  0  0  0  0  0  0
   -2.0643    2.0542   -0.5148 H   0  0  0  0  0  0  0  0  0  0  0  0
    0.3084    2.1916   -1.2263 H   0  0  0  0  0  0  0  0  0  0  0  0
    1.7541    0.2427   -1.0678 H   0  0  0  0  0  0  0  0  0  0  0  0
    0.6509   -3.1781   -0.2747 H   0  0  0  0  0  0  0  0  0  0  0  0
    2.9600   -3.3014    0.2450 H   0  0  0  0  0  0  0  0  0  0  0  0
    3.6960   -0.1684    3.7954 H   0  0  0  0  0  0  0  0  0  0  0  0
    5.4749    2.6405    2.3747 H   0  0  0  0  0  0  0  0  0  0  0  0
    6.3884    3.9525    0.4759 H   0  0  0  0  0  0  0  0  0  0  0  0
    6.1858    3.0635   -1.8379 H   0  0  0  0  0  0  0  0  0  0  0  0
    5.0724    0.8931   -2.2363 H   0  0  0  0  0  0  0  0  0  0  0  0
  1  2  1  0  0  0  0
  1 21  1  0  0  0  0
  1 22  1  0  0  0  0
  1 23  1  0  0  0  0
  2  3  1  0  0  0  0
  2  7  2  0  0  0  0
  3  4  2  0  0  0  0
  3 24  1  0  0  0  0
  4  5  1  0  0  0  0
  4 25  1  0  0  0  0
  5  6  2  0  0  0  0
  5 26  1  0  0  0  0
  6  7  1  0  0  0  0
  6 27  1  0  0  0  0
  7  8  1  0  0  0  0
  8  9  2  0  0  0  0
  8 28  1  0  0  0  0
  9 10  1  0  0  0  0
  9 29  1  0  0  0  0
 10 11  1  0  0  0  0
 10 20  2  0  0  0  0
 11 12  2  0  0  0  0
 12 13  1  0  0  0  0
 12 14  1  0  0  0  0
 13 30  1  0  0  0  0
 14 15  1  0  0  0  0
 14 19  2  0  0  0  0
 15 16  2  0  0  0  0
 15 31  1  0  0  0  0
 16 17  1  0  0  0  0
 16 32  1  0  0  0  0
 17 18  2  0  0  0  0
 17 33  1  0  0  0  0
 18 19  1  0  0  0  0
 18 34  1  0  0  0  0
 19 20  1  0  0  0  0
M  END
>  <Energy>
0.228047

$$$$

 OpenBabel04232616053D

 31 33  0  0  0  0  0  0  0  0999 V2000
    1.0332    0.2853   -0.0830 C   0  0  0  0  0  0  0  0  0  0  0  0
    2.5112    0.1582   -0.0836 C   0  0  0  0  0  0  0  0  0  0  0  0
    3.3332   -0.9597   -0.1220 C   0  0  0  0  0  0  0  0  0  0  0  0
    2.9491   -2.3602   -0.0626 C   0  0  0  0  0  0  0  0  0  0  0  0
    3.6967   -3.3056   -0.7817 C   0  0  0  0  0  0  0  0  0  0  0  0
    3.3440   -4.6575   -0.7691 C   0  0  0  0  0  0  0  0  0  0  0  0
    2.2412   -5.0821   -0.0329 C   0  0  0  0  0  0  0  0  0  0  0  0
    1.5026   -4.1595    0.7049 C   0  0  0  0  0  0  0  0  0  0  0  0
    1.8614   -2.8079    0.6995 C   0  0  0  0  0  0  0  0  0  0  0  0
    4.6218   -0.5669   -0.3547 N   0  0  0  0  0  0  0  0  0  0  0  0
    4.6427    0.7506   -0.4570 N   0  0  0  0  0  0  0  0  0  0  0  0
    3.3987    1.2244   -0.2005 N   0  0  0  0  0  0  0  0  0  0  0  0
    3.1768    2.6272   -0.1212 C   0  0  0  0  0  0  0  0  0  0  0  0
    4.0710    3.4968   -0.7688 C   0  0  0  0  0  0  0  0  0  0  0  0
    3.8588    4.8785   -0.7365 C   0  0  0  0  0  0  0  0  0  0  0  0
    2.7761    5.3978   -0.0314 C   0  0  0  0  0  0  0  0  0  0  0  0
    2.5132    7.0961    0.0072 Cl  0  0  0  0  0  0  0  0  0  0  0  0
    1.9064    4.5465    0.6477 C   0  0  0  0  0  0  0  0  0  0  0  0
    2.1042    3.1620    0.6035 C   0  0  0  0  0  0  0  0  0  0  0  0
    0.5564   -0.6102   -0.4927 H   0  0  0  0  0  0  0  0  0  0  0  0
    0.7010    1.1155   -0.7136 H   0  0  0  0  0  0  0  0  0  0  0  0
    0.6550    0.4305    0.9327 H   0  0  0  0  0  0  0  0  0  0  0  0
    4.5603   -2.9919   -1.3656 H   0  0  0  0  0  0  0  0  0  0  0  0
    3.9316   -5.3751   -1.3361 H   0  0  0  0  0  0  0  0  0  0  0  0
    1.9625   -6.1328   -0.0281 H   0  0  0  0  0  0  0  0  0  0  0  0
    0.6490   -4.4923    1.2895 H   0  0  0  0  0  0  0  0  0  0  0  0
    1.2825   -2.1174    1.3063 H   0  0  0  0  0  0  0  0  0  0  0  0
    4.9205    3.1128   -1.3320 H   0  0  0  0  0  0  0  0  0  0  0  0
    4.5416    5.5397   -1.2647 H   0  0  0  0  0  0  0  0  0  0  0  0
    1.0780    4.9548    1.2210 H   0  0  0  0  0  0  0  0  0  0  0  0
    1.4342    2.5384    1.1863 H   0  0  0  0  0  0  0  0  0  0  0  0
  1  2  1  0  0  0  0
  1 20  1  0  0  0  0
  1 21  1  0  0  0  0
  1 22  1  0  0  0  0
  2  3  2  0  0  0  0
  2 12  1  0  0  0  0
  3  4  1  0  0  0  0
  3 10  1  0  0  0  0
  4  5  1  0  0  0  0
  4  9  2  0  0  0  0
  5  6  2  0  0  0  0
  5 23  1  0  0  0  0
  6  7  1  0  0  0  0
  6 24  1  0  0  0  0
  7  8  2  0  0  0  0
  7 25  1  0  0  0  0
  8  9  1  0  0  0  0
  8 26  1  0  0  0  0
  9 27  1  0  0  0  0
 10 11  2  0  0  0  0
 11 12  1  0  0  0  0
 12 13  1  0  0  0  0
 13 14  1  0  0  0  0
 13 19  2  0  0  0  0
 14 15  2  0  0  0  0
 14 28  1  0  0  0  0
 15 16  1  0  0  0  0
 15 29  1  0  0  0  0
 16 17  1  0  0  0  0
 16 18  2  0  0  0  0
 18 19  1  0  0  0  0
 18 30  1  0  0  0  0
 19 31  1  0  0  0  0
M  END
>  <Energy>
65.9644

$$$$

 OpenBabel04232616053D

 32 34  0  0  0  0  0  0  0  0999 V2000
    2.6607    0.6908    1.1998 O   0  0  0  0  0  0  0  0  0  0  0  0
    2.1851    0.0983    0.2382 C   0  0  0  0  0  0  0  0  0  0  0  0
    0.9583    0.3618   -0.3317 N   0  0  0  0  0  0  0  0  0  0  0  0
    0.0828    1.2799    0.1717 C   0  0  0  0  0  0  0  0  0  0  0  0
    0.2312    2.1250    1.1569 N   0  0  0  0  0  0  0  0  0  0  0  0
   -0.9458    2.8264    1.3368 C   0  0  0  0  0  0  0  0  0  0  0  0
   -1.9715    2.4936    0.4813 C   0  0  0  0  0  0  0  0  0  0  0  0
   -1.4388    1.2801   -0.6081 S   0  0  0  0  0  0  0  0  0  0  0  0
    2.8894   -1.0347   -0.3710 C   0  0  0  0  0  0  0  0  0  0  0  0
    3.9914   -1.6901    0.1433 C   0  0  0  0  0  0  0  0  0  0  0  0
    4.3742   -2.8438   -0.6167 C   0  0  0  0  0  0  0  0  0  0  0  0
    3.5714   -2.9852   -1.7351 C   0  0  0  0  0  0  0  0  0  0  0  0
    2.4006   -1.7440   -1.8489 S   0  0  0  0  0  0  0  0  0  0  0  0
    3.5833   -4.0960   -2.7402 C   0  0  0  0  0  0  0  0  0  0  0  0
    4.9469   -4.4243   -3.3538 C   0  0  0  0  0  0  0  0  0  0  0  0
    6.1951   -3.8344   -2.6999 C   0  0  0  0  0  0  0  0  0  0  0  0
    6.4292   -4.2807   -1.2596 C   0  0  0  0  0  0  0  0  0  0  0  0
    5.4434   -3.8044   -0.1897 C   0  0  0  0  0  0  0  0  0  0  0  0
    0.6359   -0.2119   -1.0969 H   0  0  0  0  0  0  0  0  0  0  0  0
   -0.9982    3.5724    2.1209 H   0  0  0  0  0  0  0  0  0  0  0  0
   -2.9758    2.8928    0.4447 H   0  0  0  0  0  0  0  0  0  0  0  0
    4.4601   -1.3875    1.0746 H   0  0  0  0  0  0  0  0  0  0  0  0
    2.8861   -3.8831   -3.5615 H   0  0  0  0  0  0  0  0  0  0  0  0
    3.1879   -4.9950   -2.2492 H   0  0  0  0  0  0  0  0  0  0  0  0
    4.9385   -4.0988   -4.4026 H   0  0  0  0  0  0  0  0  0  0  0  0
    5.0480   -5.5171   -3.3971 H   0  0  0  0  0  0  0  0  0  0  0  0
    6.1859   -2.7402   -2.7684 H   0  0  0  0  0  0  0  0  0  0  0  0
    7.0608   -4.1587   -3.2929 H   0  0  0  0  0  0  0  0  0  0  0  0
    7.4329   -3.9445   -0.9665 H   0  0  0  0  0  0  0  0  0  0  0  0
    6.4781   -5.3771   -1.2255 H   0  0  0  0  0  0  0  0  0  0  0  0
    6.0222   -3.3544    0.6285 H   0  0  0  0  0  0  0  0  0  0  0  0
    4.9504   -4.6797    0.2531 H   0  0  0  0  0  0  0  0  0  0  0  0
  1  2  2  0  0  0  0
  2  3  1  0  0  0  0
  2  9  1  0  0  0  0
  3  4  1  0  0  0  0
  3 19  1  0  0  0  0
  4  5  2  0  0  0  0
  4  8  1  0  0  0  0
  5  6  1  0  0  0  0
  6  7  2  0  0  0  0
  6 20  1  0  0  0  0
  7  8  1  0  0  0  0
  7 21  1  0  0  0  0
  9 10  2  0  0  0  0
  9 13  1  0  0  0  0
 10 11  1  0  0  0  0
 10 22  1  0  0  0  0
 11 12  2  0  0  0  0
 11 18  1  0  0  0  0
 12 13  1  0  0  0  0
 12 14  1  0  0  0  0
 14 15  1  0  0  0  0
 14 23  1  0  0  0  0
 14 24  1  0  0  0  0
 15 16  1  0  0  0  0
 15 25  1  0  0  0  0
 15 26  1  0  0  0  0
 16 17  1  0  0  0  0
 16 27  1  0  0  0  0
 16 28  1  0  0  0  0
 17 18  1  0  0  0  0
 17 29  1  0  0  0  0
 17 30  1  0  0  0  0
 18 31  1  0  0  0  0
 18 32  1  0  0  0  0
M  END
>  <Energy>
-10.5904

$$$$

 OpenBabel04232616053D

 35 37  0  0  0  0  0  0  0  0999 V2000
    2.4511    1.4474   -0.0494 C   0  0  0  0  0  0  0  0  0  0  0  0
    1.5439    0.3223   -0.0584 N   0  0  0  0  0  0  0  0  0  0  0  0
    1.9360   -0.9916   -0.0462 C   0  0  0  0  0  0  0  0  0  0  0  0
    0.8010   -1.7670   -0.0336 C   0  0  0  0  0  0  0  0  0  0  0  0
   -0.3182   -0.8944   -0.0337 C   0  0  0  0  0  0  0  0  0  0  0  0
   -1.7100   -1.1043   -0.0091 C   0  0  0  0  0  0  0  0  0  0  0  0
   -2.5886   -0.0121   -0.0107 C   0  0  0  0  0  0  0  0  0  0  0  0
   -3.9900   -0.1904    0.0164 N   0  0  0  0  0  0  0  0  0  0  0  0
   -4.6149   -1.3009    0.5584 C   0  0  0  0  0  0  0  0  0  0  0  0
   -4.0620   -2.1151    1.2914 O   0  0  0  0  0  0  0  0  0  0  0  0
   -5.9315   -1.3909    0.1327 N   0  0  0  0  0  0  0  0  0  0  0  0
   -6.7865   -2.4417    0.5345 C   0  0  0  0  0  0  0  0  0  0  0  0
   -6.7192   -3.0052    1.8123 C   0  0  0  0  0  0  0  0  0  0  0  0
   -7.5133   -4.1017    2.1461 C   0  0  0  0  0  0  0  0  0  0  0  0
   -8.3865   -4.6391    1.2036 C   0  0  0  0  0  0  0  0  0  0  0  0
   -8.4899   -4.0563   -0.0591 C   0  0  0  0  0  0  0  0  0  0  0  0
   -7.7069   -2.9460   -0.3881 C   0  0  0  0  0  0  0  0  0  0  0  0
   -2.0775    1.2848   -0.0829 C   0  0  0  0  0  0  0  0  0  0  0  0
   -0.6944    1.5217   -0.0987 C   0  0  0  0  0  0  0  0  0  0  0  0
    0.1670    0.4131   -0.0676 C   0  0  0  0  0  0  0  0  0  0  0  0
    3.4823    1.0859   -0.0270 H   0  0  0  0  0  0  0  0  0  0  0  0
    2.2503    2.0448    0.8436 H   0  0  0  0  0  0  0  0  0  0  0  0
    2.2830    2.0336   -0.9560 H   0  0  0  0  0  0  0  0  0  0  0  0
    2.9825   -1.2720   -0.0412 H   0  0  0  0  0  0  0  0  0  0  0  0
    0.7730   -2.8500   -0.0140 H   0  0  0  0  0  0  0  0  0  0  0  0
   -2.0769   -2.1260    0.0044 H   0  0  0  0  0  0  0  0  0  0  0  0
   -4.5680    0.6331   -0.0660 H   0  0  0  0  0  0  0  0  0  0  0  0
   -6.0936   -1.0016   -0.7846 H   0  0  0  0  0  0  0  0  0  0  0  0
   -6.0403   -2.6066    2.5628 H   0  0  0  0  0  0  0  0  0  0  0  0
   -7.4321   -4.5438    3.1355 H   0  0  0  0  0  0  0  0  0  0  0  0
   -8.9799   -5.5144    1.4533 H   0  0  0  0  0  0  0  0  0  0  0  0
   -9.1664   -4.4818   -0.7957 H   0  0  0  0  0  0  0  0  0  0  0  0
   -7.7866   -2.5253   -1.3861 H   0  0  0  0  0  0  0  0  0  0  0  0
   -2.7467    2.1410   -0.0966 H   0  0  0  0  0  0  0  0  0  0  0  0
   -0.3105    2.5363   -0.1256 H   0  0  0  0  0  0  0  0  0  0  0  0
  1  2  1  0  0  0  0
  1 21  1  0  0  0  0
  1 22  1  0  0  0  0
  1 23  1  0  0  0  0
  2  3  1  0  0  0  0
  2 20  1  0  0  0  0
  3  4  2  0  0  0  0
  3 24  1  0  0  0  0
  4  5  1  0  0  0  0
  4 25  1  0  0  0  0
  5  6  1  0  0  0  0
  5 20  2  0  0  0  0
  6  7  2  0  0  0  0
  6 26  1  0  0  0  0
  7  8  1  0  0  0  0
  7 18  1  0  0  0  0
  8  9  1  0  0  0  0
  8 27  1  0  0  0  0
  9 10  2  0  0  0  0
  9 11  1  0  0  0  0
 11 12  1  0  0  0  0
 11 28  1  0  0  0  0
 12 13  1  0  0  0  0
 12 17  2  0  0  0  0
 13 14  2  0  0  0  0
 13 29  1  0  0  0  0
 14 15  1  0  0  0  0
 14 30  1  0  0  0  0
 15 16  2  0  0  0  0
 15 31  1  0  0  0  0
 16 17  1  0  0  0  0
 16 32  1  0  0  0  0
 17 33  1  0  0  0  0
 18 19  2  0  0  0  0
 18 34  1  0  0  0  0
 19 20  1  0  0  0  0
 19 35  1  0  0  0  0
M  END
>  <Energy>
-21.2147

$$$$

 OpenBabel04232616053D

 38 39  0  0  0  0  0  0  0  0999 V2000
    1.0120   -0.4925   -0.2202 C   0  0  0  0  0  0  0  0  0  0  0  0
    2.3058    0.0653   -0.0227 O   0  0  0  0  0  0  0  0  0  0  0  0
    3.0074   -0.3658    1.0710 C   0  0  0  0  0  0  0  0  0  0  0  0
    2.7116   -1.5310    1.7825 C   0  0  0  0  0  0  0  0  0  0  0  0
    3.5088   -1.9270    2.8596 C   0  0  0  0  0  0  0  0  0  0  0  0
    4.6142   -1.1665    3.2567 C   0  0  0  0  0  0  0  0  0  0  0  0
    5.4301   -1.6800    4.4055 C   0  0  0  0  0  0  0  0  0  0  0  0
    6.6886   -0.9718    4.8372 C   0  0  0  0  0  0  0  0  0  0  0  0
    5.0701   -2.7044    4.9894 O   0  0  0  0  0  0  0  0  0  0  0  0
    4.8980    0.0163    2.5599 C   0  0  0  0  0  0  0  0  0  0  0  0
    4.1122    0.4153    1.4554 C   0  0  0  0  0  0  0  0  0  0  0  0
    4.4690    1.6981    0.7322 C   0  0  0  0  0  0  0  0  0  0  0  0
    3.8479    2.7948    1.4041 O   0  0  0  0  0  0  0  0  0  0  0  0
    4.0749    4.0458    0.8922 C   0  0  0  0  0  0  0  0  0  0  0  0
    4.9204    4.3547   -0.1742 C   0  0  0  0  0  0  0  0  0  0  0  0
    5.0714    5.6804   -0.5907 C   0  0  0  0  0  0  0  0  0  0  0  0
    4.3776    6.7054    0.0518 C   0  0  0  0  0  0  0  0  0  0  0  0
    3.5238    6.4137    1.1184 C   0  0  0  0  0  0  0  0  0  0  0  0
    2.7567    7.5015    1.8102 C   0  0  0  0  0  0  0  0  0  0  0  0
    3.3837    5.0789    1.5336 C   0  0  0  0  0  0  0  0  0  0  0  0
    0.5667   -0.0047   -1.0933 H   0  0  0  0  0  0  0  0  0  0  0  0
    0.3668   -0.2952    0.6421 H   0  0  0  0  0  0  0  0  0  0  0  0
    1.0653   -1.5641   -0.4383 H   0  0  0  0  0  0  0  0  0  0  0  0
    1.8764   -2.1711    1.5160 H   0  0  0  0  0  0  0  0  0  0  0  0
    3.2572   -2.8460    3.3893 H   0  0  0  0  0  0  0  0  0  0  0  0
    7.0277   -0.1979    4.1496 H   0  0  0  0  0  0  0  0  0  0  0  0
    7.4959   -1.7088    4.9077 H   0  0  0  0  0  0  0  0  0  0  0  0
    6.5180   -0.5226    5.8201 H   0  0  0  0  0  0  0  0  0  0  0  0
    5.7237    0.6557    2.8479 H   0  0  0  0  0  0  0  0  0  0  0  0
    4.1518    1.6518   -0.3163 H   0  0  0  0  0  0  0  0  0  0  0  0
    5.5604    1.8141    0.7520 H   0  0  0  0  0  0  0  0  0  0  0  0
    5.4775    3.5912   -0.7079 H   0  0  0  0  0  0  0  0  0  0  0  0
    5.7329    5.9154   -1.4209 H   0  0  0  0  0  0  0  0  0  0  0  0
    4.5072    7.7296   -0.2884 H   0  0  0  0  0  0  0  0  0  0  0  0
    2.9627    8.4819    1.3682 H   0  0  0  0  0  0  0  0  0  0  0  0
    3.0333    7.5464    2.8689 H   0  0  0  0  0  0  0  0  0  0  0  0
    1.6803    7.3173    1.7254 H   0  0  0  0  0  0  0  0  0  0  0  0
    2.7239    4.8382    2.3635 H   0  0  0  0  0  0  0  0  0  0  0  0
  1  2  1  0  0  0  0
  1 21  1  0  0  0  0
  1 22  1  0  0  0  0
  1 23  1  0  0  0  0
  2  3  1  0  0  0  0
  3  4  1  0  0  0  0
  3 11  2  0  0  0  0
  4  5  2  0  0  0  0
  4 24  1  0  0  0  0
  5  6  1  0  0  0  0
  5 25  1  0  0  0  0
  6  7  1  0  0  0  0
  6 10  2  0  0  0  0
  7  8  1  0  0  0  0
  7  9  2  0  0  0  0
  8 26  1  0  0  0  0
  8 27  1  0  0  0  0
  8 28  1  0  0  0  0
 10 11  1  0  0  0  0
 10 29  1  0  0  0  0
 11 12  1  0  0  0  0
 12 13  1  0  0  0  0
 12 30  1  0  0  0  0
 12 31  1  0  0  0  0
 13 14  1  0  0  0  0
 14 15  1  0  0  0  0
 14 20  2  0  0  0  0
 15 16  2  0  0  0  0
 15 32  1  0  0  0  0
 16 17  1  0  0  0  0
 16 33  1  0  0  0  0
 17 18  2  0  0  0  0
 17 34  1  0  0  0  0
 18 19  1  0  0  0  0
 18 20  1  0  0  0  0
 19 35  1  0  0  0  0
 19 36  1  0  0  0  0
 19 37  1  0  0  0  0
 20 38  1  0  0  0  0
M  END
>  <Energy>
70.3661

$$$$

 OpenBabel04232616063D

 38 39  0  0  0  0  0  0  0  0999 V2000
    0.9262   -3.6242    3.3393 C   0  0  0  0  0  0  0  0  0  0  0  0
    2.4463   -3.6624    3.3659 C   0  0  0  0  0  0  0  0  0  0  0  0
    3.0367   -3.2838    2.0079 C   0  0  0  0  0  0  0  0  0  0  0  0
    4.5662   -3.3225    2.0293 C   0  0  0  0  0  0  0  0  0  0  0  0
    5.1454   -2.9489    0.6592 C   0  0  0  0  0  0  0  0  0  0  0  0
    6.6707   -2.9198    0.6450 C   0  0  0  0  0  0  0  0  0  0  0  0
    7.2522   -4.2039    0.9401 N   0  0  0  0  0  0  0  0  0  0  0  0
    7.5755   -5.1535    0.0126 C   0  0  0  0  0  0  0  0  0  0  0  0
    7.4082   -5.0043   -1.1948 O   0  0  0  0  0  0  0  0  0  0  0  0
    8.1929   -6.2770    0.4875 N   0  0  0  0  0  0  0  0  0  0  0  0
    8.3296   -6.5702    1.8130 C   0  0  0  0  0  0  0  0  0  0  0  0
    7.7183   -5.9636    2.8026 N   0  0  0  0  0  0  0  0  0  0  0  0
    8.1417   -6.4989    3.9971 C   0  0  0  0  0  0  0  0  0  0  0  0
    7.6837   -6.1093    5.2690 C   0  0  0  0  0  0  0  0  0  0  0  0
    8.2296   -6.7022    6.4083 C   0  0  0  0  0  0  0  0  0  0  0  0
    9.2263   -7.6674    6.2888 C   0  0  0  0  0  0  0  0  0  0  0  0
    9.6863   -8.0824    5.0330 C   0  0  0  0  0  0  0  0  0  0  0  0
    9.1172   -7.4947    3.8936 C   0  0  0  0  0  0  0  0  0  0  0  0
    9.4183   -7.8072    2.2179 S   0  0  0  0  0  0  0  0  0  0  0  0
    0.5222   -3.8974    4.3191 H   0  0  0  0  0  0  0  0  0  0  0  0
    0.5292   -4.3273    2.6001 H   0  0  0  0  0  0  0  0  0  0  0  0
    0.5634   -2.6220    3.0896 H   0  0  0  0  0  0  0  0  0  0  0  0
    2.7758   -4.6689    3.6487 H   0  0  0  0  0  0  0  0  0  0  0  0
    2.8102   -2.9729    4.1365 H   0  0  0  0  0  0  0  0  0  0  0  0
    2.6992   -2.2783    1.7286 H   0  0  0  0  0  0  0  0  0  0  0  0
    2.6643   -3.9743    1.2414 H   0  0  0  0  0  0  0  0  0  0  0  0
    4.8973   -4.3277    2.3160 H   0  0  0  0  0  0  0  0  0  0  0  0
    4.9419   -2.6287    2.7912 H   0  0  0  0  0  0  0  0  0  0  0  0
    4.7817   -1.9537    0.3756 H   0  0  0  0  0  0  0  0  0  0  0  0
    4.7820   -3.6554   -0.0963 H   0  0  0  0  0  0  0  0  0  0  0  0
    7.0467   -2.2228    1.4022 H   0  0  0  0  0  0  0  0  0  0  0  0
    7.0288   -2.5849   -0.3330 H   0  0  0  0  0  0  0  0  0  0  0  0
    7.2944   -4.4940    1.9129 H   0  0  0  0  0  0  0  0  0  0  0  0
    8.5965   -6.8960   -0.1994 H   0  0  0  0  0  0  0  0  0  0  0  0
    6.9119   -5.3494    5.3509 H   0  0  0  0  0  0  0  0  0  0  0  0
    7.8755   -6.3993    7.3901 H   0  0  0  0  0  0  0  0  0  0  0  0
    9.6509   -8.1094    7.1876 H   0  0  0  0  0  0  0  0  0  0  0  0
   10.4634   -8.8360    4.9471 H   0  0  0  0  0  0  0  0  0  0  0  0
  1  2  1  0  0  0  0
  1 20  1  0  0  0  0
  1 21  1  0  0  0  0
  1 22  1  0  0  0  0
  2  3  1  0  0  0  0
  2 23  1  0  0  0  0
  2 24  1  0  0  0  0
  3  4  1  0  0  0  0
  3 25  1  0  0  0  0
  3 26  1  0  0  0  0
  4  5  1  0  0  0  0
  4 27  1  0  0  0  0
  4 28  1  0  0  0  0
  5  6  1  0  0  0  0
  5 29  1  0  0  0  0
  5 30  1  0  0  0  0
  6  7  1  0  0  0  0
  6 31  1  0  0  0  0
  6 32  1  0  0  0  0
  7  8  1  0  0  0  0
  7 33  1  0  0  0  0
  8  9  2  0  0  0  0
  8 10  1  0  0  0  0
 10 11  1  0  0  0  0
 10 34  1  0  0  0  0
 11 12  2  0  0  0  0
 11 19  1  0  0  0  0
 12 13  1  0  0  0  0
 13 14  1  0  0  0  0
 13 18  2  0  0  0  0
 14 15  2  0  0  0  0
 14 35  1  0  0  0  0
 15 16  1  0  0  0  0
 15 36  1  0  0  0  0
 16 17  2  0  0  0  0
 16 37  1  0  0  0  0
 17 18  1  0  0  0  0
 17 38  1  0  0  0  0
 18 19  1  0  0  0  0
M  END
>  <Energy>
-87.6106

$$$$

 OpenBabel04232616063D

 34 36  0  0  0  0  0  0  0  0999 V2000
    1.4207   -0.8823   -0.1893 C   0  0  0  0  0  0  0  0  0  0  0  0
    2.4959    0.0342   -0.0313 O   0  0  0  0  0  0  0  0  0  0  0  0
    3.1255    0.0474    1.1848 C   0  0  0  0  0  0  0  0  0  0  0  0
    2.7766   -0.7272    2.2931 C   0  0  0  0  0  0  0  0  0  0  0  0
    3.4957   -0.6406    3.4916 C   0  0  0  0  0  0  0  0  0  0  0  0
    4.5755    0.2377    3.5142 C   0  0  0  0  0  0  0  0  0  0  0  0
    5.3797    0.4543    4.5839 O   0  0  0  0  0  0  0  0  0  0  0  0
    6.3076    1.3783    4.2123 C   0  0  0  0  0  0  0  0  0  0  0  0
    7.2826    1.7559    5.2596 C   0  0  0  0  0  0  0  0  0  0  0  0
    6.1329    1.7430    2.8830 C   0  0  0  0  0  0  0  0  0  0  0  0
    6.9776    2.6952    2.1725 C   0  0  0  0  0  0  0  0  0  0  0  0
    7.5575    3.6127    2.7525 O   0  0  0  0  0  0  0  0  0  0  0  0
    7.1608    2.5635    0.7005 C   0  0  0  0  0  0  0  0  0  0  0  0
    7.2710    1.3099    0.0827 C   0  0  0  0  0  0  0  0  0  0  0  0
    7.4134    1.2224   -1.3036 C   0  0  0  0  0  0  0  0  0  0  0  0
    7.4792    2.3829   -2.0737 C   0  0  0  0  0  0  0  0  0  0  0  0
    7.4101    3.6339   -1.4599 C   0  0  0  0  0  0  0  0  0  0  0  0
    7.2548    3.7265   -0.0756 C   0  0  0  0  0  0  0  0  0  0  0  0
    4.9739    1.0198    2.4392 C   0  0  0  0  0  0  0  0  0  0  0  0
    4.2102    0.9361    1.2561 C   0  0  0  0  0  0  0  0  0  0  0  0
    1.0500   -0.7892   -1.2144 H   0  0  0  0  0  0  0  0  0  0  0  0
    0.5960   -0.6384    0.4881 H   0  0  0  0  0  0  0  0  0  0  0  0
    1.7573   -1.9150   -0.0495 H   0  0  0  0  0  0  0  0  0  0  0  0
    1.9361   -1.4142    2.2647 H   0  0  0  0  0  0  0  0  0  0  0  0
    3.2319   -1.2269    4.3634 H   0  0  0  0  0  0  0  0  0  0  0  0
    7.0213    1.3017    6.2217 H   0  0  0  0  0  0  0  0  0  0  0  0
    7.3055    2.8403    5.3999 H   0  0  0  0  0  0  0  0  0  0  0  0
    8.2862    1.4146    4.9893 H   0  0  0  0  0  0  0  0  0  0  0  0
    7.2371    0.3924    0.6652 H   0  0  0  0  0  0  0  0  0  0  0  0
    7.4720    0.2480   -1.7829 H   0  0  0  0  0  0  0  0  0  0  0  0
    7.5919    2.3119   -3.1530 H   0  0  0  0  0  0  0  0  0  0  0  0
    7.4756    4.5373   -2.0621 H   0  0  0  0  0  0  0  0  0  0  0  0
    7.2010    4.7062    0.3954 H   0  0  0  0  0  0  0  0  0  0  0  0
    4.4498    1.5431    0.3876 H   0  0  0  0  0  0  0  0  0  0  0  0
  1  2  1  0  0  0  0
  1 21  1  0  0  0  0
  1 22  1  0  0  0  0
  1 23  1  0  0  0  0
  2  3  1  0  0  0  0
  3  4  1  0  0  0  0
  3 20  2  0  0  0  0
  4  5  2  0  0  0  0
  4 24  1  0  0  0  0
  5  6  1  0  0  0  0
  5 25  1  0  0  0  0
  6  7  1  0  0  0  0
  6 19  2  0  0  0  0
  7  8  1  0  0  0  0
  8  9  1  0  0  0  0
  8 10  2  0  0  0  0
  9 26  1  0  0  0  0
  9 27  1  0  0  0  0
  9 28  1  0  0  0  0
 10 11  1  0  0  0  0
 10 19  1  0  0  0  0
 11 12  2  0  0  0  0
 11 13  1  0  0  0  0
 13 14  1  0  0  0  0
 13 18  2  0  0  0  0
 14 15  2  0  0  0  0
 14 29  1  0  0  0  0
 15 16  1  0  0  0  0
 15 30  1  0  0  0  0
 16 17  2  0  0  0  0
 16 31  1  0  0  0  0
 17 18  1  0  0  0  0
 17 32  1  0  0  0  0
 18 33  1  0  0  0  0
 19 20  1  0  0  0  0
 20 34  1  0  0  0  0
M  END
>  <Energy>
66.2128

$$$$

 OpenBabel04232616063D

 33 33  0  0  0  0  0  0  0  0999 V2000
    0.8044    0.4573    2.2149 C   0  0  0  0  0  0  0  0  0  0  0  0
    2.3157    0.3968    2.3149 C   0  0  0  0  0  0  0  0  0  0  0  0
    2.9080    0.8517    1.0994 O   0  0  0  0  0  0  0  0  0  0  0  0
    4.6380    0.8517    1.0994 P   0  0  0  0  0  0  0  0  0  0  0  0
    4.6097   -0.6874    1.2853 O   0  0  0  0  0  0  0  0  0  0  0  0
    4.5740    1.1752   -0.5409 O   0  0  0  0  0  0  0  0  0  0  0  0
    4.6267    0.0735   -1.4479 C   0  0  0  0  0  0  0  0  0  0  0  0
    4.5378    0.5529   -2.8913 C   0  0  0  0  0  0  0  0  0  0  0  0
    6.4680    0.8517    1.0994 C   0  0  0  0  0  0  0  0  0  0  0  0
    7.0730    1.4476    0.0405 F   0  0  0  0  0  0  0  0  0  0  0  0
    7.2115    0.3203    2.0831 C   0  0  0  0  0  0  0  0  0  0  0  0
    8.6782    0.3068    2.1087 C   0  0  0  0  0  0  0  0  0  0  0  0
    9.4424    1.3309    1.5175 C   0  0  0  0  0  0  0  0  0  0  0  0
   10.8334    1.2847    1.5399 C   0  0  0  0  0  0  0  0  0  0  0  0
   11.4655    0.2295    2.1741 C   0  0  0  0  0  0  0  0  0  0  0  0
   12.8089    0.1825    2.1891 F   0  0  0  0  0  0  0  0  0  0  0  0
   10.7437   -0.7777    2.7948 C   0  0  0  0  0  0  0  0  0  0  0  0
    9.3431   -0.7372    2.7672 C   0  0  0  0  0  0  0  0  0  0  0  0
    0.3478   -0.2351    2.9301 H   0  0  0  0  0  0  0  0  0  0  0  0
    0.4562    0.2088    1.2079 H   0  0  0  0  0  0  0  0  0  0  0  0
    0.4450    1.4636    2.4513 H   0  0  0  0  0  0  0  0  0  0  0  0
    2.6070   -0.6405    2.5031 H   0  0  0  0  0  0  0  0  0  0  0  0
    2.6716    1.0147    3.1455 H   0  0  0  0  0  0  0  0  0  0  0  0
    3.8025   -0.6177   -1.2445 H   0  0  0  0  0  0  0  0  0  0  0  0
    5.5749   -0.4546   -1.3114 H   0  0  0  0  0  0  0  0  0  0  0  0
    3.5006    0.7739   -3.1667 H   0  0  0  0  0  0  0  0  0  0  0  0
    4.8986   -0.2229   -3.5766 H   0  0  0  0  0  0  0  0  0  0  0  0
    5.1194    1.4650   -3.0563 H   0  0  0  0  0  0  0  0  0  0  0  0
    6.7073   -0.1891    2.9039 H   0  0  0  0  0  0  0  0  0  0  0  0
    8.9626    2.1693    1.0254 H   0  0  0  0  0  0  0  0  0  0  0  0
   11.4164    2.0629    1.0601 H   0  0  0  0  0  0  0  0  0  0  0  0
   11.2640   -1.5902    3.2883 H   0  0  0  0  0  0  0  0  0  0  0  0
    8.7868   -1.5394    3.2473 H   0  0  0  0  0  0  0  0  0  0  0  0
  1  2  1  0  0  0  0
  1 19  1  0  0  0  0
  1 20  1  0  0  0  0
  1 21  1  0  0  0  0
  2  3  1  0  0  0  0
  2 22  1  0  0  0  0
  2 23  1  0  0  0  0
  3  4  1  0  0  0  0
  4  5  2  0  0  0  0
  4  6  1  0  0  0  0
  4  9  1  0  0  0  0
  6  7  1  0  0  0  0
  7  8  1  0  0  0  0
  7 24  1  0  0  0  0
  7 25  1  0  0  0  0
  8 26  1  0  0  0  0
  8 27  1  0  0  0  0
  8 28  1  0  0  0  0
  9 10  1  0  0  0  0
  9 11  2  0  0  0  0
 11 12  1  0  0  0  0
 11 29  1  0  0  0  0
 12 13  1  0  0  0  0
 12 18  2  0  0  0  0
 13 14  2  0  0  0  0
 13 30  1  0  0  0  0
 14 15  1  0  0  0  0
 14 31  1  0  0  0  0
 15 16  1  0  0  0  0
 15 17  2  0  0  0  0
 17 18  1  0  0  0  0
 17 32  1  0  0  0  0
 18 33  1  0  0  0  0
M  END
>  <Energy>
549.942

$$$$

 OpenBabel04232616063D

 34 36  0  0  0  0  0  0  0  0999 V2000
   -2.4855    0.1776    0.0169 C   0  0  0  0  0  0  0  0  0  0  0  0
   -0.9925    0.0724    0.1057 C   0  0  0  0  0  0  0  0  0  0  0  0
   -0.3797   -1.1564    0.3395 C   0  0  0  0  0  0  0  0  0  0  0  0
    0.9979   -1.1900    0.4370 C   0  0  0  0  0  0  0  0  0  0  0  0
    1.7831   -0.1009    0.3243 N   0  0  0  0  0  0  0  0  0  0  0  0
    1.1994    1.0884    0.0973 C   0  0  0  0  0  0  0  0  0  0  0  0
    1.9815    2.2531   -0.0235 N   0  0  0  0  0  0  0  0  0  0  0  0
    3.3401    2.3105    0.2527 C   0  0  0  0  0  0  0  0  0  0  0  0
    4.0395    1.3917    0.6612 O   0  0  0  0  0  0  0  0  0  0  0  0
    3.9796    3.6568    0.0851 C   0  0  0  0  0  0  0  0  0  0  0  0
    3.2803    4.7859    0.5481 C   0  0  0  0  0  0  0  0  0  0  0  0
    3.8737    6.0438    0.5149 C   0  0  0  0  0  0  0  0  0  0  0  0
    5.1777    6.1830    0.0473 C   0  0  0  0  0  0  0  0  0  0  0  0
    5.9064    5.0748   -0.4097 C   0  0  0  0  0  0  0  0  0  0  0  0
    7.2324    5.2463   -0.8451 C   0  0  0  0  0  0  0  0  0  0  0  0
    7.9842    4.1686   -1.3080 C   0  0  0  0  0  0  0  0  0  0  0  0
    7.4125    2.9063   -1.3582 C   0  0  0  0  0  0  0  0  0  0  0  0
    6.0967    2.7200   -0.9258 C   0  0  0  0  0  0  0  0  0  0  0  0
    5.3110    3.7864   -0.4175 C   0  0  0  0  0  0  0  0  0  0  0  0
   -0.1836    1.2108   -0.0280 C   0  0  0  0  0  0  0  0  0  0  0  0
   -2.9629   -0.8026    0.1276 H   0  0  0  0  0  0  0  0  0  0  0  0
   -2.7810    0.5850   -0.9546 H   0  0  0  0  0  0  0  0  0  0  0  0
   -2.8666    0.8247    0.8135 H   0  0  0  0  0  0  0  0  0  0  0  0
   -0.9520   -2.0709    0.4487 H   0  0  0  0  0  0  0  0  0  0  0  0
    1.5293   -2.1199    0.6169 H   0  0  0  0  0  0  0  0  0  0  0  0
    1.5057    3.0889   -0.3161 H   0  0  0  0  0  0  0  0  0  0  0  0
    2.2906    4.6939    0.9865 H   0  0  0  0  0  0  0  0  0  0  0  0
    3.3359    6.9137    0.8838 H   0  0  0  0  0  0  0  0  0  0  0  0
    5.6329    7.1721    0.0560 H   0  0  0  0  0  0  0  0  0  0  0  0
    7.6996    6.2288   -0.8157 H   0  0  0  0  0  0  0  0  0  0  0  0
    9.0127    4.3155   -1.6264 H   0  0  0  0  0  0  0  0  0  0  0  0
    7.9867    2.0577   -1.7212 H   0  0  0  0  0  0  0  0  0  0  0  0
    5.6919    1.7103   -0.9798 H   0  0  0  0  0  0  0  0  0  0  0  0
   -0.6432    2.1779   -0.2023 H   0  0  0  0  0  0  0  0  0  0  0  0
  1  2  1  0  0  0  0
  1 21  1  0  0  0  0
  1 22  1  0  0  0  0
  1 23  1  0  0  0  0
  2  3  1  0  0  0  0
  2 20  2  0  0  0  0
  3  4  2  0  0  0  0
  3 24  1  0  0  0  0
  4  5  1  0  0  0  0
  4 25  1  0  0  0  0
  5  6  2  0  0  0  0
  6  7  1  0  0  0  0
  6 20  1  0  0  0  0
  7  8  1  0  0  0  0
  7 26  1  0  0  0  0
  8  9  2  0  0  0  0
  8 10  1  0  0  0  0
 10 11  1  0  0  0  0
 10 19  2  0  0  0  0
 11 12  2  0  0  0  0
 11 27  1  0  0  0  0
 12 13  1  0  0  0  0
 12 28  1  0  0  0  0
 13 14  2  0  0  0  0
 13 29  1  0  0  0  0
 14 15  1  0  0  0  0
 14 19  1  0  0  0  0
 15 16  2  0  0  0  0
 15 30  1  0  0  0  0
 16 17  1  0  0  0  0
 16 31  1  0  0  0  0
 17 18  2  0  0  0  0
 17 32  1  0  0  0  0
 18 19  1  0  0  0  0
 18 33  1  0  0  0  0
 20 34  1  0  0  0  0
M  END
>  <Energy>
32.1283

$$$$

 OpenBabel04232616063D

 35 37  0  0  0  0  0  0  0  0999 V2000
    1.0483   -0.0345   -0.2113 C   0  0  0  0  0  0  0  0  0  0  0  0
    2.4850   -0.0351    0.0702 N   0  0  0  0  0  0  0  0  0  0  0  0
    3.1677    1.1342    0.3129 N   0  0  0  0  0  0  0  0  0  0  0  0
    2.6378    2.0015    1.1223 C   0  0  0  0  0  0  0  0  0  0  0  0
    3.3577    3.2302    1.5240 C   0  0  0  0  0  0  0  0  0  0  0  0
    4.7047    3.3911    1.1554 C   0  0  0  0  0  0  0  0  0  0  0  0
    5.4121    4.5085    1.5820 C   0  0  0  0  0  0  0  0  0  0  0  0
    4.7731    5.4623    2.3683 C   0  0  0  0  0  0  0  0  0  0  0  0
    3.4256    5.3047    2.7345 C   0  0  0  0  0  0  0  0  0  0  0  0
    2.7853    6.2609    3.5350 C   0  0  0  0  0  0  0  0  0  0  0  0
    1.4551    6.0901    3.8953 C   0  0  0  0  0  0  0  0  0  0  0  0
    0.8047    4.9641    3.4392 C   0  0  0  0  0  0  0  0  0  0  0  0
    1.3889    4.0206    2.6681 N   0  0  0  0  0  0  0  0  0  0  0  0
    2.6862    4.1731    2.3114 C   0  0  0  0  0  0  0  0  0  0  0  0
    3.2586   -1.1112   -0.4412 C   0  0  0  0  0  0  0  0  0  0  0  0
    2.6977   -2.2154   -1.1084 C   0  0  0  0  0  0  0  0  0  0  0  0
    3.4868   -3.2781   -1.5706 C   0  0  0  0  0  0  0  0  0  0  0  0
    4.8622   -3.2683   -1.3691 C   0  0  0  0  0  0  0  0  0  0  0  0
    5.4487   -2.1934   -0.7127 C   0  0  0  0  0  0  0  0  0  0  0  0
    4.6552   -1.1330   -0.2586 C   0  0  0  0  0  0  0  0  0  0  0  0
    0.5299    0.8460    0.1771 H   0  0  0  0  0  0  0  0  0  0  0  0
    0.5751   -0.9005    0.2669 H   0  0  0  0  0  0  0  0  0  0  0  0
    0.8514   -0.0621   -1.2885 H   0  0  0  0  0  0  0  0  0  0  0  0
    1.6456    1.8457    1.5745 H   0  0  0  0  0  0  0  0  0  0  0  0
    5.2018    2.6358    0.5502 H   0  0  0  0  0  0  0  0  0  0  0  0
    6.4564    4.6294    1.3081 H   0  0  0  0  0  0  0  0  0  0  0  0
    5.3368    6.3331    2.7017 H   0  0  0  0  0  0  0  0  0  0  0  0
    3.3194    7.1418    3.8853 H   0  0  0  0  0  0  0  0  0  0  0  0
    0.9427    6.8167    4.5145 H   0  0  0  0  0  0  0  0  0  0  0  0
   -0.2357    4.7769    3.6881 H   0  0  0  0  0  0  0  0  0  0  0  0
    1.6304   -2.2786   -1.2929 H   0  0  0  0  0  0  0  0  0  0  0  0
    3.0194   -4.1134   -2.0852 H   0  0  0  0  0  0  0  0  0  0  0  0
    5.4732   -4.0953   -1.7192 H   0  0  0  0  0  0  0  0  0  0  0  0
    6.5217   -2.1735   -0.5449 H   0  0  0  0  0  0  0  0  0  0  0  0
    5.1413   -0.3103    0.2603 H   0  0  0  0  0  0  0  0  0  0  0  0
  1  2  1  0  0  0  0
  1 21  1  0  0  0  0
  1 22  1  0  0  0  0
  1 23  1  0  0  0  0
  2  3  1  0  0  0  0
  2 15  1  0  0  0  0
  3  4  2  0  0  0  0
  4  5  1  0  0  0  0
  4 24  1  0  0  0  0
  5  6  1  0  0  0  0
  5 14  2  0  0  0  0
  6  7  2  0  0  0  0
  6 25  1  0  0  0  0
  7  8  1  0  0  0  0
  7 26  1  0  0  0  0
  8  9  2  0  0  0  0
  8 27  1  0  0  0  0
  9 10  1  0  0  0  0
  9 14  1  0  0  0  0
 10 11  2  0  0  0  0
 10 28  1  0  0  0  0
 11 12  1  0  0  0  0
 11 29  1  0  0  0  0
 12 13  2  0  0  0  0
 12 30  1  0  0  0  0
 13 14  1  0  0  0  0
 15 16  1  0  0  0  0
 15 20  2  0  0  0  0
 16 17  2  0  0  0  0
 16 31  1  0  0  0  0
 17 18  1  0  0  0  0
 17 32  1  0  0  0  0
 18 19  2  0  0  0  0
 18 33  1  0  0  0  0
 19 20  1  0  0  0  0
 19 34  1  0  0  0  0
 20 35  1  0  0  0  0
M  END
>  <Energy>
91.5348

$$$$

 OpenBabel04232616063D

 40 42  0  0  0  0  0  0  0  0999 V2000
    1.9273    0.2410    1.3035 C   0  0  0  0  0  0  0  0  0  0  0  0
    0.5503    0.2079    0.7116 C   0  0  0  0  0  0  0  0  0  0  0  0
    0.0248    1.3047    0.0297 C   0  0  0  0  0  0  0  0  0  0  0  0
   -1.2332    1.2192   -0.5629 C   0  0  0  0  0  0  0  0  0  0  0  0
   -1.9627    0.0240   -0.5124 C   0  0  0  0  0  0  0  0  0  0  0  0
   -1.4583   -1.1064    0.1444 C   0  0  0  0  0  0  0  0  0  0  0  0
   -2.1021   -2.3850    0.1097 N   0  0  0  0  0  0  0  0  0  0  0  0
   -1.1561   -3.4026   -0.3503 C   0  0  0  0  0  0  0  0  0  0  0  0
   -3.5000   -2.6569    0.1001 C   0  0  0  0  0  0  0  0  0  0  0  0
   -4.3049   -1.5711    0.1206 N   0  0  0  0  0  0  0  0  0  0  0  0
   -5.6228   -1.7416    0.0813 C   0  0  0  0  0  0  0  0  0  0  0  0
   -6.2604   -2.9078    0.0415 N   0  0  0  0  0  0  0  0  0  0  0  0
   -5.4990   -3.9993    0.0669 C   0  0  0  0  0  0  0  0  0  0  0  0
   -6.1835   -5.2087    0.0591 C   0  0  0  0  0  0  0  0  0  0  0  0
   -5.5461   -6.4575    0.0942 C   0  0  0  0  0  0  0  0  0  0  0  0
   -6.3715   -7.7112    0.0976 C   0  0  0  0  0  0  0  0  0  0  0  0
   -4.1544   -6.4800    0.1481 C   0  0  0  0  0  0  0  0  0  0  0  0
   -3.3414   -7.7461    0.1501 C   0  0  0  0  0  0  0  0  0  0  0  0
   -3.4620   -5.2545    0.1871 C   0  0  0  0  0  0  0  0  0  0  0  0
   -4.0927   -3.9694    0.1136 C   0  0  0  0  0  0  0  0  0  0  0  0
   -0.2096   -0.9696    0.7898 C   0  0  0  0  0  0  0  0  0  0  0  0
    2.3790    1.2342    1.2204 H   0  0  0  0  0  0  0  0  0  0  0  0
    2.5737   -0.4671    0.7719 H   0  0  0  0  0  0  0  0  0  0  0  0
    1.8957   -0.0306    2.3628 H   0  0  0  0  0  0  0  0  0  0  0  0
    0.5922    2.2292   -0.0536 H   0  0  0  0  0  0  0  0  0  0  0  0
   -1.6425    2.0746   -1.0937 H   0  0  0  0  0  0  0  0  0  0  0  0
   -2.9109   -0.0164   -1.0397 H   0  0  0  0  0  0  0  0  0  0  0  0
   -0.2227   -2.9893   -0.7560 H   0  0  0  0  0  0  0  0  0  0  0  0
   -1.5587   -3.9949   -1.1784 H   0  0  0  0  0  0  0  0  0  0  0  0
   -0.8583   -4.0387    0.4907 H   0  0  0  0  0  0  0  0  0  0  0  0
   -6.2369   -0.8464    0.0820 H   0  0  0  0  0  0  0  0  0  0  0  0
   -7.2720   -5.1715    0.0269 H   0  0  0  0  0  0  0  0  0  0  0  0
   -7.4439   -7.4907    0.0750 H   0  0  0  0  0  0  0  0  0  0  0  0
   -6.1766   -8.2883    1.0078 H   0  0  0  0  0  0  0  0  0  0  0  0
   -6.1413   -8.3233   -0.7802 H   0  0  0  0  0  0  0  0  0  0  0  0
   -3.9548   -8.6504    0.1574 H   0  0  0  0  0  0  0  0  0  0  0  0
   -2.6974   -7.7767    1.0352 H   0  0  0  0  0  0  0  0  0  0  0  0
   -2.7141   -7.7820   -0.7471 H   0  0  0  0  0  0  0  0  0  0  0  0
   -2.3899   -5.3414    0.2942 H   0  0  0  0  0  0  0  0  0  0  0  0
    0.1982   -1.8133    1.3431 H   0  0  0  0  0  0  0  0  0  0  0  0
  1  2  1  0  0  0  0
  1 22  1  0  0  0  0
  1 23  1  0  0  0  0
  1 24  1  0  0  0  0
  2  3  1  0  0  0  0
  2 21  2  0  0  0  0
  3  4  2  0  0  0  0
  3 25  1  0  0  0  0
  4  5  1  0  0  0  0
  4 26  1  0  0  0  0
  5  6  2  0  0  0  0
  5 27  1  0  0  0  0
  6  7  1  0  0  0  0
  6 21  1  0  0  0  0
  7  8  1  0  0  0  0
  7  9  1  0  0  0  0
  8 28  1  0  0  0  0
  8 29  1  0  0  0  0
  8 30  1  0  0  0  0
  9 10  1  0  0  0  0
  9 20  2  0  0  0  0
 10 11  2  0  0  0  0
 11 12  1  0  0  0  0
 11 31  1  0  0  0  0
 12 13  2  0  0  0  0
 13 14  1  0  0  0  0
 13 20  1  0  0  0  0
 14 15  2  0  0  0  0
 14 32  1  0  0  0  0
 15 16  1  0  0  0  0
 15 17  1  0  0  0  0
 16 33  1  0  0  0  0
 16 34  1  0  0  0  0
 16 35  1  0  0  0  0
 17 18  1  0  0  0  0
 17 19  2  0  0  0  0
 18 36  1  0  0  0  0
 18 37  1  0  0  0  0
 18 38  1  0  0  0  0
 19 20  1  0  0  0  0
 19 39  1  0  0  0  0
 21 40  1  0  0  0  0
M  END
>  <Energy>
44.6903

$$$$

 OpenBabel04232616063D

 34 36  0  0  0  0  0  0  0  0999 V2000
    1.7719    0.4453   -1.5358 C   0  0  0  0  0  0  0  0  0  0  0  0
    3.1561    0.1593   -1.0284 C   0  0  0  0  0  0  0  0  0  0  0  0
    4.2479    1.1159   -1.4239 C   0  0  0  0  0  0  0  0  0  0  0  0
    3.3737   -0.9088   -0.2352 C   0  0  0  0  0  0  0  0  0  0  0  0
    4.6569   -1.2144    0.4721 C   0  0  0  0  0  0  0  0  0  0  0  0
    5.1312   -2.5187    0.1498 O   0  0  0  0  0  0  0  0  0  0  0  0
    6.4947   -2.7052    0.1737 C   0  0  0  0  0  0  0  0  0  0  0  0
    7.0093   -3.6300   -0.7743 C   0  0  0  0  0  0  0  0  0  0  0  0
    6.4517   -4.4651   -1.7910 C   0  0  0  0  0  0  0  0  0  0  0  0
    7.4987   -5.1459   -2.3672 C   0  0  0  0  0  0  0  0  0  0  0  0
    8.6740   -4.7788   -1.7971 O   0  0  0  0  0  0  0  0  0  0  0  0
    8.3784   -3.8600   -0.8389 C   0  0  0  0  0  0  0  0  0  0  0  0
    9.3187   -3.2252   -0.0425 C   0  0  0  0  0  0  0  0  0  0  0  0
    8.7973   -2.3305    0.8911 C   0  0  0  0  0  0  0  0  0  0  0  0
    9.7726   -1.6398    1.6540 O   0  0  0  0  0  0  0  0  0  0  0  0
    9.4310   -0.6564    2.5611 C   0  0  0  0  0  0  0  0  0  0  0  0
   10.2623    0.0379    3.1391 O   0  0  0  0  0  0  0  0  0  0  0  0
    8.0024   -0.5217    2.8553 C   0  0  0  0  0  0  0  0  0  0  0  0
    7.0780   -1.2184    2.1909 C   0  0  0  0  0  0  0  0  0  0  0  0
    7.4230   -2.0836    1.0604 C   0  0  0  0  0  0  0  0  0  0  0  0
    1.7698    1.2415   -2.2859 H   0  0  0  0  0  0  0  0  0  0  0  0
    1.1261    0.7661   -0.7108 H   0  0  0  0  0  0  0  0  0  0  0  0
    1.3380   -0.4459   -1.9996 H   0  0  0  0  0  0  0  0  0  0  0  0
    3.9215    1.8088   -2.2047 H   0  0  0  0  0  0  0  0  0  0  0  0
    5.1086    0.5699   -1.8267 H   0  0  0  0  0  0  0  0  0  0  0  0
    4.5742    1.7107   -0.5644 H   0  0  0  0  0  0  0  0  0  0  0  0
    2.5408   -1.5604    0.0235 H   0  0  0  0  0  0  0  0  0  0  0  0
    4.3960   -1.2022    1.5338 H   0  0  0  0  0  0  0  0  0  0  0  0
    5.4073   -0.4461    0.2637 H   0  0  0  0  0  0  0  0  0  0  0  0
    5.4101   -4.5578   -2.0593 H   0  0  0  0  0  0  0  0  0  0  0  0
    7.5750   -5.8838   -3.1548 H   0  0  0  0  0  0  0  0  0  0  0  0
   10.3792   -3.4158   -0.1423 H   0  0  0  0  0  0  0  0  0  0  0  0
    7.7388    0.1444    3.6666 H   0  0  0  0  0  0  0  0  0  0  0  0
    6.0602   -1.1481    2.5369 H   0  0  0  0  0  0  0  0  0  0  0  0
  1  2  1  0  0  0  0
  1 21  1  0  0  0  0
  1 22  1  0  0  0  0
  1 23  1  0  0  0  0
  2  3  1  0  0  0  0
  2  4  2  0  0  0  0
  3 24  1  0  0  0  0
  3 25  1  0  0  0  0
  3 26  1  0  0  0  0
  4  5  1  0  0  0  0
  4 27  1  0  0  0  0
  5  6  1  0  0  0  0
  5 28  1  0  0  0  0
  5 29  1  0  0  0  0
  6  7  1  0  0  0  0
  7  8  1  0  0  0  0
  7 20  2  0  0  0  0
  8  9  1  0  0  0  0
  8 12  2  0  0  0  0
  9 10  2  0  0  0  0
  9 30  1  0  0  0  0
 10 11  1  0  0  0  0
 10 31  1  0  0  0  0
 11 12  1  0  0  0  0
 12 13  1  0  0  0  0
 13 14  2  0  0  0  0
 13 32  1  0  0  0  0
 14 15  1  0  0  0  0
 14 20  1  0  0  0  0
 15 16  1  0  0  0  0
 16 17  2  0  0  0  0
 16 18  1  0  0  0  0
 18 19  2  0  0  0  0
 18 33  1  0  0  0  0
 19 20  1  0  0  0  0
 19 34  1  0  0  0  0
M  END
>  <Energy>
65.5947

$$$$

 OpenBabel04232616063D

 31 33  0  0  0  0  0  0  0  0999 V2000
    1.4240    2.9764    0.3300 N   0  0  0  0  0  0  0  0  0  0  0  0
    2.5633    2.7566    0.4128 C   0  0  0  0  0  0  0  0  0  0  0  0
    4.0084    2.4899    0.5064 C   0  0  0  0  0  0  0  0  0  0  0  0
    4.3513    0.9189    1.3718 S   0  0  0  0  0  0  0  0  0  0  0  0
    6.1373    0.8435    1.2166 C   0  0  0  0  0  0  0  0  0  0  0  0
    6.7636    2.0281    1.0783 N   0  0  0  0  0  0  0  0  0  0  0  0
    8.1250    2.0821    0.9801 N   0  0  0  0  0  0  0  0  0  0  0  0
    8.8790    0.9559    1.0493 C   0  0  0  0  0  0  0  0  0  0  0  0
   10.3355    1.2186    0.9002 C   0  0  0  0  0  0  0  0  0  0  0  0
   10.9179    2.3597    1.4895 C   0  0  0  0  0  0  0  0  0  0  0  0
   12.2850    2.6349    1.3685 C   0  0  0  0  0  0  0  0  0  0  0  0
   13.1100    1.7670    0.6618 C   0  0  0  0  0  0  0  0  0  0  0  0
   12.5619    0.6476    0.0457 C   0  0  0  0  0  0  0  0  0  0  0  0
   11.1881    0.3952    0.1408 C   0  0  0  0  0  0  0  0  0  0  0  0
    8.2703   -0.3122    1.2328 C   0  0  0  0  0  0  0  0  0  0  0  0
    8.9806   -1.5348    1.3842 C   0  0  0  0  0  0  0  0  0  0  0  0
    8.3371   -2.7693    1.4828 C   0  0  0  0  0  0  0  0  0  0  0  0
    6.9559   -2.8225    1.4818 C   0  0  0  0  0  0  0  0  0  0  0  0
    6.2254   -1.6390    1.4059 C   0  0  0  0  0  0  0  0  0  0  0  0
    6.8524   -0.3690    1.2864 C   0  0  0  0  0  0  0  0  0  0  0  0
    4.4940    3.3140    1.0393 H   0  0  0  0  0  0  0  0  0  0  0  0
    4.4333    2.4338   -0.5017 H   0  0  0  0  0  0  0  0  0  0  0  0
   10.2982    3.0595    2.0495 H   0  0  0  0  0  0  0  0  0  0  0  0
   12.7006    3.5291    1.8264 H   0  0  0  0  0  0  0  0  0  0  0  0
   14.1745    1.9710    0.5785 H   0  0  0  0  0  0  0  0  0  0  0  0
   13.1997   -0.0268   -0.5205 H   0  0  0  0  0  0  0  0  0  0  0  0
   10.7937   -0.4605   -0.4027 H   0  0  0  0  0  0  0  0  0  0  0  0
   10.0665   -1.5472    1.4383 H   0  0  0  0  0  0  0  0  0  0  0  0
    8.9201   -3.6835    1.5642 H   0  0  0  0  0  0  0  0  0  0  0  0
    6.4421   -3.7777    1.5566 H   0  0  0  0  0  0  0  0  0  0  0  0
    5.1403   -1.7259    1.4349 H   0  0  0  0  0  0  0  0  0  0  0  0
  1  2  3  0  0  0  0
  2  3  1  0  0  0  0
  3  4  1  0  0  0  0
  3 21  1  0  0  0  0
  3 22  1  0  0  0  0
  4  5  1  0  0  0  0
  5  6  1  0  0  0  0
  5 20  2  0  0  0  0
  6  7  2  0  0  0  0
  7  8  1  0  0  0  0
  8  9  1  0  0  0  0
  8 15  2  0  0  0  0
  9 10  1  0  0  0  0
  9 14  2  0  0  0  0
 10 11  2  0  0  0  0
 10 23  1  0  0  0  0
 11 12  1  0  0  0  0
 11 24  1  0  0  0  0
 12 13  2  0  0  0  0
 12 25  1  0  0  0  0
 13 14  1  0  0  0  0
 13 26  1  0  0  0  0
 14 27  1  0  0  0  0
 15 16  1  0  0  0  0
 15 20  1  0  0  0  0
 16 17  2  0  0  0  0
 16 28  1  0  0  0  0
 17 18  1  0  0  0  0
 17 29  1  0  0  0  0
 18 19  2  0  0  0  0
 18 30  1  0  0  0  0
 19 20  1  0  0  0  0
 19 31  1  0  0  0  0
M  END
>  <Energy>
90.4258

$$$$

 OpenBabel04232616063D

 32 35  0  0  0  0  0  0  0  0999 V2000
    2.4013   -0.7009   -0.0149 C   0  0  0  0  0  0  0  0  0  0  0  0
    2.4086    0.6905   -0.0049 C   0  0  0  0  0  0  0  0  0  0  0  0
    1.2021    1.3905    0.0021 C   0  0  0  0  0  0  0  0  0  0  0  0
   -0.0261    0.7085   -0.0074 C   0  0  0  0  0  0  0  0  0  0  0  0
   -1.2471    1.4056    0.0025 C   0  0  0  0  0  0  0  0  0  0  0  0
   -2.4863    0.7493   -0.0143 C   0  0  0  0  0  0  0  0  0  0  0  0
   -3.7150    1.4405    0.0897 N   0  0  0  0  0  0  0  0  0  0  0  0
   -3.9698    2.6810    0.5877 C   0  0  0  0  0  0  0  0  0  0  0  0
   -3.0996    3.4802    1.2263 N   0  0  0  0  0  0  0  0  0  0  0  0
   -3.8162    4.5587    1.5599 N   0  0  0  0  0  0  0  0  0  0  0  0
   -5.1205    4.5178    1.1677 C   0  0  0  0  0  0  0  0  0  0  0  0
   -6.1747    5.4157    1.3112 C   0  0  0  0  0  0  0  0  0  0  0  0
   -7.3844    5.0016    0.7651 C   0  0  0  0  0  0  0  0  0  0  0  0
   -7.4619    3.7613    0.1381 C   0  0  0  0  0  0  0  0  0  0  0  0
   -6.4459    2.8753   -0.0039 N   0  0  0  0  0  0  0  0  0  0  0  0
   -5.2637    3.2938    0.5278 C   0  0  0  0  0  0  0  0  0  0  0  0
   -2.4779   -0.6508   -0.0288 C   0  0  0  0  0  0  0  0  0  0  0  0
   -1.2720   -1.3675   -0.0299 C   0  0  0  0  0  0  0  0  0  0  0  0
   -0.0366   -0.7005   -0.0203 C   0  0  0  0  0  0  0  0  0  0  0  0
    1.1876   -1.3929   -0.0189 C   0  0  0  0  0  0  0  0  0  0  0  0
    3.3402   -1.2483   -0.0188 H   0  0  0  0  0  0  0  0  0  0  0  0
    3.3502    1.2329   -0.0004 H   0  0  0  0  0  0  0  0  0  0  0  0
    1.2223    2.4782    0.0171 H   0  0  0  0  0  0  0  0  0  0  0  0
   -1.2215    2.4922    0.0108 H   0  0  0  0  0  0  0  0  0  0  0  0
   -4.5095    0.9196   -0.2706 H   0  0  0  0  0  0  0  0  0  0  0  0
   -3.3459    5.2986    2.0672 H   0  0  0  0  0  0  0  0  0  0  0  0
   -6.0633    6.3701    1.8121 H   0  0  0  0  0  0  0  0  0  0  0  0
   -8.2612    5.6388    0.8280 H   0  0  0  0  0  0  0  0  0  0  0  0
   -8.4078    3.4351   -0.2906 H   0  0  0  0  0  0  0  0  0  0  0  0
   -3.4128   -1.2050   -0.0110 H   0  0  0  0  0  0  0  0  0  0  0  0
   -1.3060   -2.4545   -0.0251 H   0  0  0  0  0  0  0  0  0  0  0  0
    1.2034   -2.4802   -0.0213 H   0  0  0  0  0  0  0  0  0  0  0  0
  1  2  1  0  0  0  0
  1 20  2  0  0  0  0
  1 21  1  0  0  0  0
  2  3  2  0  0  0  0
  2 22  1  0  0  0  0
  3  4  1  0  0  0  0
  3 23  1  0  0  0  0
  4  5  1  0  0  0  0
  4 19  2  0  0  0  0
  5  6  2  0  0  0  0
  5 24  1  0  0  0  0
  6  7  1  0  0  0  0
  6 17  1  0  0  0  0
  7  8  1  0  0  0  0
  7 25  1  0  0  0  0
  8  9  2  0  0  0  0
  8 16  1  0  0  0  0
  9 10  1  0  0  0  0
 10 11  1  0  0  0  0
 10 26  1  0  0  0  0
 11 12  1  0  0  0  0
 11 16  2  0  0  0  0
 12 13  2  0  0  0  0
 12 27  1  0  0  0  0
 13 14  1  0  0  0  0
 13 28  1  0  0  0  0
 14 15  2  0  0  0  0
 14 29  1  0  0  0  0
 15 16  1  0  0  0  0
 17 18  2  0  0  0  0
 17 30  1  0  0  0  0
 18 19  1  0  0  0  0
 18 31  1  0  0  0  0
 19 20  1  0  0  0  0
 20 32  1  0  0  0  0
M  END
>  <Energy>
49.9304

$$$$

 OpenBabel04232616063D

 36 38  0  0  0  0  0  0  0  0999 V2000
    1.9950    0.6350    0.4852 C   0  0  0  0  0  0  0  0  0  0  0  0
    0.6960    0.0010    0.8972 C   0  0  0  0  0  0  0  0  0  0  0  0
   -0.2071    0.7949    1.6294 C   0  0  0  0  0  0  0  0  0  0  0  0
   -1.4660    0.3146    1.9930 C   0  0  0  0  0  0  0  0  0  0  0  0
   -1.8402   -0.9769    1.6439 C   0  0  0  0  0  0  0  0  0  0  0  0
   -0.9419   -1.7931    0.9585 C   0  0  0  0  0  0  0  0  0  0  0  0
    0.3351   -1.3274    0.6074 C   0  0  0  0  0  0  0  0  0  0  0  0
    1.0638   -2.2270   -0.1387 O   0  0  0  0  0  0  0  0  0  0  0  0
    2.4031   -2.4303    0.0845 C   0  0  0  0  0  0  0  0  0  0  0  0
    3.0636   -2.2237    1.2930 C   0  0  0  0  0  0  0  0  0  0  0  0
    4.4491   -2.3762    1.3600 C   0  0  0  0  0  0  0  0  0  0  0  0
    5.1658   -2.8156    0.2431 C   0  0  0  0  0  0  0  0  0  0  0  0
    4.4983   -3.1370   -0.9463 C   0  0  0  0  0  0  0  0  0  0  0  0
    5.2418   -3.7322   -2.1133 C   0  0  0  0  0  0  0  0  0  0  0  0
    5.5267   -2.7615   -3.1535 N   0  0  0  0  0  0  0  0  0  0  0  0
    4.7833   -2.5357   -4.2795 C   0  0  0  0  0  0  0  0  0  0  0  0
    5.5212   -1.6416   -5.0177 C   0  0  0  0  0  0  0  0  0  0  0  0
    6.6890   -1.3251   -4.3757 N   0  0  0  0  0  0  0  0  0  0  0  0
    6.6632   -2.0138   -3.2567 C   0  0  0  0  0  0  0  0  0  0  0  0
    3.1144   -2.9225   -1.0168 C   0  0  0  0  0  0  0  0  0  0  0  0
    1.8724    1.7152    0.3486 H   0  0  0  0  0  0  0  0  0  0  0  0
    2.3518    0.2436   -0.4710 H   0  0  0  0  0  0  0  0  0  0  0  0
    2.7549    0.4877    1.2584 H   0  0  0  0  0  0  0  0  0  0  0  0
    0.0593    1.8161    1.8974 H   0  0  0  0  0  0  0  0  0  0  0  0
   -2.1579    0.9571    2.5313 H   0  0  0  0  0  0  0  0  0  0  0  0
   -2.8310   -1.3461    1.8952 H   0  0  0  0  0  0  0  0  0  0  0  0
   -1.2431   -2.7999    0.6782 H   0  0  0  0  0  0  0  0  0  0  0  0
    2.5209   -1.9036    2.1792 H   0  0  0  0  0  0  0  0  0  0  0  0
    4.9735   -2.1500    2.2855 H   0  0  0  0  0  0  0  0  0  0  0  0
    6.2457   -2.9250    0.3203 H   0  0  0  0  0  0  0  0  0  0  0  0
    4.6589   -4.5472   -2.5600 H   0  0  0  0  0  0  0  0  0  0  0  0
    6.1959   -4.1676   -1.7924 H   0  0  0  0  0  0  0  0  0  0  0  0
    3.8321   -3.0177   -4.4640 H   0  0  0  0  0  0  0  0  0  0  0  0
    5.2786   -1.2180   -5.9856 H   0  0  0  0  0  0  0  0  0  0  0  0
    7.4436   -2.0164   -2.5026 H   0  0  0  0  0  0  0  0  0  0  0  0
    2.5717   -3.1376   -1.9349 H   0  0  0  0  0  0  0  0  0  0  0  0
  1  2  1  0  0  0  0
  1 21  1  0  0  0  0
  1 22  1  0  0  0  0
  1 23  1  0  0  0  0
  2  3  1  0  0  0  0
  2  7  2  0  0  0  0
  3  4  2  0  0  0  0
  3 24  1  0  0  0  0
  4  5  1  0  0  0  0
  4 25  1  0  0  0  0
  5  6  2  0  0  0  0
  5 26  1  0  0  0  0
  6  7  1  0  0  0  0
  6 27  1  0  0  0  0
  7  8  1  0  0  0  0
  8  9  1  0  0  0  0
  9 10  1  0  0  0  0
  9 20  2  0  0  0  0
 10 11  2  0  0  0  0
 10 28  1  0  0  0  0
 11 12  1  0  0  0  0
 11 29  1  0  0  0  0
 12 13  2  0  0  0  0
 12 30  1  0  0  0  0
 13 14  1  0  0  0  0
 13 20  1  0  0  0  0
 14 15  1  0  0  0  0
 14 31  1  0  0  0  0
 14 32  1  0  0  0  0
 15 16  1  0  0  0  0
 15 19  1  0  0  0  0
 16 17  2  0  0  0  0
 16 33  1  0  0  0  0
 17 18  1  0  0  0  0
 17 34  1  0  0  0  0
 18 19  2  0  0  0  0
 19 35  1  0  0  0  0
 20 36  1  0  0  0  0
M  END
>  <Energy>
66.1985

$$$$

 OpenBabel04232616063D

 38 39  0  0  0  0  0  0  0  0999 V2000
    0.7465   -0.0883    1.4069 C   0  0  0  0  0  0  0  0  0  0  0  0
    2.1421    0.1820    1.3554 O   0  0  0  0  0  0  0  0  0  0  0  0
    2.9770   -0.8951    1.2273 C   0  0  0  0  0  0  0  0  0  0  0  0
    2.5808   -2.2323    1.1947 C   0  0  0  0  0  0  0  0  0  0  0  0
    3.5277   -3.2536    1.0219 C   0  0  0  0  0  0  0  0  0  0  0  0
    3.1463   -4.6719    0.9311 C   0  0  0  0  0  0  0  0  0  0  0  0
    1.9982   -5.0904    0.3868 C   0  0  0  0  0  0  0  0  0  0  0  0
    1.7066   -6.4228    0.2195 O   0  0  0  0  0  0  0  0  0  0  0  0
    0.8884   -6.7868   -0.8307 C   0  0  0  0  0  0  0  0  0  0  0  0
    0.8666   -6.0876   -2.0472 C   0  0  0  0  0  0  0  0  0  0  0  0
    0.0582   -6.5242   -3.0956 C   0  0  0  0  0  0  0  0  0  0  0  0
   -0.7046   -7.6781   -2.9496 C   0  0  0  0  0  0  0  0  0  0  0  0
   -0.6724   -8.3908   -1.7484 C   0  0  0  0  0  0  0  0  0  0  0  0
    0.1176   -7.9505   -0.6762 C   0  0  0  0  0  0  0  0  0  0  0  0
    0.1116   -8.7057    0.6222 C   0  0  0  0  0  0  0  0  0  0  0  0
    4.8866   -2.9190    0.9243 C   0  0  0  0  0  0  0  0  0  0  0  0
    5.2930   -1.5843    0.9533 C   0  0  0  0  0  0  0  0  0  0  0  0
    6.5777   -1.1347    0.8207 O   0  0  0  0  0  0  0  0  0  0  0  0
    7.5894   -2.1124    0.6117 C   0  0  0  0  0  0  0  0  0  0  0  0
    4.3326   -0.5824    1.1100 C   0  0  0  0  0  0  0  0  0  0  0  0
    0.2180    0.8708    1.4016 H   0  0  0  0  0  0  0  0  0  0  0  0
    0.4867   -0.6100    2.3341 H   0  0  0  0  0  0  0  0  0  0  0  0
    0.4122   -0.6517    0.5296 H   0  0  0  0  0  0  0  0  0  0  0  0
    1.5358   -2.4990    1.3015 H   0  0  0  0  0  0  0  0  0  0  0  0
    3.8784   -5.4041    1.2536 H   0  0  0  0  0  0  0  0  0  0  0  0
    1.2220   -4.4291    0.0181 H   0  0  0  0  0  0  0  0  0  0  0  0
    1.4842   -5.2079   -2.1984 H   0  0  0  0  0  0  0  0  0  0  0  0
    0.0345   -5.9683   -4.0297 H   0  0  0  0  0  0  0  0  0  0  0  0
   -1.3224   -8.0285   -3.7718 H   0  0  0  0  0  0  0  0  0  0  0  0
   -1.2690   -9.2958   -1.6571 H   0  0  0  0  0  0  0  0  0  0  0  0
   -0.5079   -9.6067    0.5592 H   0  0  0  0  0  0  0  0  0  0  0  0
   -0.2982   -8.0758    1.4184 H   0  0  0  0  0  0  0  0  0  0  0  0
    1.1254   -9.0184    0.8910 H   0  0  0  0  0  0  0  0  0  0  0  0
    5.6102   -3.7189    0.8031 H   0  0  0  0  0  0  0  0  0  0  0  0
    8.5188   -1.5876    0.3722 H   0  0  0  0  0  0  0  0  0  0  0  0
    7.3575   -2.7653   -0.2373 H   0  0  0  0  0  0  0  0  0  0  0  0
    7.7541   -2.6940    1.5242 H   0  0  0  0  0  0  0  0  0  0  0  0
    4.6451    0.4593    1.1340 H   0  0  0  0  0  0  0  0  0  0  0  0
  1  2  1  0  0  0  0
  1 21  1  0  0  0  0
  1 22  1  0  0  0  0
  1 23  1  0  0  0  0
  2  3  1  0  0  0  0
  3  4  1  0  0  0  0
  3 20  2  0  0  0  0
  4  5  2  0  0  0  0
  4 24  1  0  0  0  0
  5  6  1  0  0  0  0
  5 16  1  0  0  0  0
  6  7  2  0  0  0  0
  6 25  1  0  0  0  0
  7  8  1  0  0  0  0
  7 26  1  0  0  0  0
  8  9  1  0  0  0  0
  9 10  1  0  0  0  0
  9 14  2  0  0  0  0
 10 11  2  0  0  0  0
 10 27  1  0  0  0  0
 11 12  1  0  0  0  0
 11 28  1  0  0  0  0
 12 13  2  0  0  0  0
 12 29  1  0  0  0  0
 13 14  1  0  0  0  0
 13 30  1  0  0  0  0
 14 15  1  0  0  0  0
 15 31  1  0  0  0  0
 15 32  1  0  0  0  0
 15 33  1  0  0  0  0
 16 17  2  0  0  0  0
 16 34  1  0  0  0  0
 17 18  1  0  0  0  0
 17 20  1  0  0  0  0
 18 19  1  0  0  0  0
 19 35  1  0  0  0  0
 19 36  1  0  0  0  0
 19 37  1  0  0  0  0
 20 38  1  0  0  0  0
M  END
>  <Energy>
52.8602

$$$$

 OpenBabel04232616063D

 34 37  0  0  0  0  0  0  0  0999 V2000
    1.1369    0.0751    0.2693 C   0  0  0  0  0  0  0  0  0  0  0  0
    0.1233   -0.1647    1.1860 C   0  0  0  0  0  0  0  0  0  0  0  0
   -1.2137   -0.0560    0.7914 C   0  0  0  0  0  0  0  0  0  0  0  0
   -1.5739    0.2924   -0.5268 C   0  0  0  0  0  0  0  0  0  0  0  0
   -3.0010    0.3958   -0.9142 C   0  0  0  0  0  0  0  0  0  0  0  0
   -3.4488    1.1431   -2.0001 C   0  0  0  0  0  0  0  0  0  0  0  0
   -4.8158    1.2307   -2.2505 C   0  0  0  0  0  0  0  0  0  0  0  0
   -5.7191    0.5974   -1.3944 C   0  0  0  0  0  0  0  0  0  0  0  0
   -7.1103    0.7502   -1.5447 C   0  0  0  0  0  0  0  0  0  0  0  0
   -7.9920    0.1849   -0.6144 C   0  0  0  0  0  0  0  0  0  0  0  0
   -9.3811    0.5009   -0.6521 N   0  0  0  0  0  0  0  0  0  0  0  0
  -10.0313    1.3142   -1.5571 C   0  0  0  0  0  0  0  0  0  0  0  0
  -11.3319    1.4102   -1.1233 C   0  0  0  0  0  0  0  0  0  0  0  0
  -11.5232    0.6611   -0.0007 N   0  0  0  0  0  0  0  0  0  0  0  0
  -10.3494    0.1260    0.2560 C   0  0  0  0  0  0  0  0  0  0  0  0
   -7.4694   -0.6279    0.3965 C   0  0  0  0  0  0  0  0  0  0  0  0
   -6.0835   -0.7955    0.5165 C   0  0  0  0  0  0  0  0  0  0  0  0
   -5.1938   -0.1634   -0.3367 C   0  0  0  0  0  0  0  0  0  0  0  0
   -3.8742   -0.2696   -0.1121 N   0  0  0  0  0  0  0  0  0  0  0  0
   -0.5218    0.5334   -1.4298 C   0  0  0  0  0  0  0  0  0  0  0  0
    0.8185    0.4271   -1.0382 C   0  0  0  0  0  0  0  0  0  0  0  0
    2.1801   -0.0118    0.5716 H   0  0  0  0  0  0  0  0  0  0  0  0
    0.3633   -0.4383    2.2109 H   0  0  0  0  0  0  0  0  0  0  0  0
   -1.9900   -0.2447    1.5327 H   0  0  0  0  0  0  0  0  0  0  0  0
   -2.7634    1.6904   -2.6367 H   0  0  0  0  0  0  0  0  0  0  0  0
   -5.1649    1.8261   -3.0902 H   0  0  0  0  0  0  0  0  0  0  0  0
   -7.4685    1.3620   -2.3670 H   0  0  0  0  0  0  0  0  0  0  0  0
   -9.5448    1.7722   -2.4047 H   0  0  0  0  0  0  0  0  0  0  0  0
  -12.1363    1.9847   -1.5637 H   0  0  0  0  0  0  0  0  0  0  0  0
  -10.1535   -0.5175    1.1016 H   0  0  0  0  0  0  0  0  0  0  0  0
   -8.0943   -1.1280    1.1303 H   0  0  0  0  0  0  0  0  0  0  0  0
   -5.6868   -1.4070    1.3244 H   0  0  0  0  0  0  0  0  0  0  0  0
   -0.7244    0.7945   -2.4654 H   0  0  0  0  0  0  0  0  0  0  0  0
    1.6089    0.6136   -1.7596 H   0  0  0  0  0  0  0  0  0  0  0  0
  1  2  1  0  0  0  0
  1 21  2  0  0  0  0
  1 22  1  0  0  0  0
  2  3  2  0  0  0  0
  2 23  1  0  0  0  0
  3  4  1  0  0  0  0
  3 24  1  0  0  0  0
  4  5  1  0  0  0  0
  4 20  2  0  0  0  0
  5  6  1  0  0  0  0
  5 19  2  0  0  0  0
  6  7  2  0  0  0  0
  6 25  1  0  0  0  0
  7  8  1  0  0  0  0
  7 26  1  0  0  0  0
  8  9  1  0  0  0  0
  8 18  2  0  0  0  0
  9 10  2  0  0  0  0
  9 27  1  0  0  0  0
 10 11  1  0  0  0  0
 10 16  1  0  0  0  0
 11 12  1  0  0  0  0
 11 15  1  0  0  0  0
 12 13  2  0  0  0  0
 12 28  1  0  0  0  0
 13 14  1  0  0  0  0
 13 29  1  0  0  0  0
 14 15  2  0  0  0  0
 15 30  1  0  0  0  0
 16 17  2  0  0  0  0
 16 31  1  0  0  0  0
 17 18  1  0  0  0  0
 17 32  1  0  0  0  0
 18 19  1  0  0  0  0
 20 21  1  0  0  0  0
 20 33  1  0  0  0  0
 21 34  1  0  0  0  0
M  END
>  <Energy>
79.6039

$$$$

 OpenBabel04232616063D

 32 33  0  0  0  0  0  0  0  0999 V2000
    1.0408    2.4154   -1.5530 N   0  0  0  0  0  0  0  0  0  0  0  0
    2.1124    2.5493   -1.9780 C   0  0  0  0  0  0  0  0  0  0  0  0
    3.6825    2.7066   -2.5773 S   0  0  0  0  0  0  0  0  0  0  0  0
    4.5001    1.5747   -1.4055 C   0  0  0  0  0  0  0  0  0  0  0  0
    5.9995    1.4728   -1.6790 C   0  0  0  0  0  0  0  0  0  0  0  0
    6.6292    2.7208   -1.3815 O   0  0  0  0  0  0  0  0  0  0  0  0
    7.9749    2.8005   -1.6172 C   0  0  0  0  0  0  0  0  0  0  0  0
    8.8094    1.7312   -1.9451 C   0  0  0  0  0  0  0  0  0  0  0  0
   10.1778    1.9411   -2.1468 C   0  0  0  0  0  0  0  0  0  0  0  0
   10.7116    3.2295   -2.0767 C   0  0  0  0  0  0  0  0  0  0  0  0
   12.0381    3.5343   -2.2744 O   0  0  0  0  0  0  0  0  0  0  0  0
   12.7871    2.8188   -3.1811 C   0  0  0  0  0  0  0  0  0  0  0  0
   12.2906    2.2908   -4.3762 C   0  0  0  0  0  0  0  0  0  0  0  0
   13.1322    1.5680   -5.2261 C   0  0  0  0  0  0  0  0  0  0  0  0
   14.4813    1.4180   -4.9085 C   0  0  0  0  0  0  0  0  0  0  0  0
   14.9937    1.9947   -3.7475 C   0  0  0  0  0  0  0  0  0  0  0  0
   14.1460    2.6944   -2.8848 C   0  0  0  0  0  0  0  0  0  0  0  0
    9.8853    4.2933   -1.7139 C   0  0  0  0  0  0  0  0  0  0  0  0
    8.5240    4.0780   -1.4840 C   0  0  0  0  0  0  0  0  0  0  0  0
    4.0479    0.5819   -1.5041 H   0  0  0  0  0  0  0  0  0  0  0  0
    4.3307    1.9398   -0.3868 H   0  0  0  0  0  0  0  0  0  0  0  0
    6.1775    1.1854   -2.7232 H   0  0  0  0  0  0  0  0  0  0  0  0
    6.4062    0.6992   -1.0163 H   0  0  0  0  0  0  0  0  0  0  0  0
    8.4357    0.7188   -2.0431 H   0  0  0  0  0  0  0  0  0  0  0  0
   10.8121    1.0862   -2.3656 H   0  0  0  0  0  0  0  0  0  0  0  0
   11.2508    2.4270   -4.6591 H   0  0  0  0  0  0  0  0  0  0  0  0
   12.7350    1.1296   -6.1359 H   0  0  0  0  0  0  0  0  0  0  0  0
   15.1372    0.8615   -5.5744 H   0  0  0  0  0  0  0  0  0  0  0  0
   16.0494    1.9007   -3.5125 H   0  0  0  0  0  0  0  0  0  0  0  0
   14.5474    3.1428   -1.9808 H   0  0  0  0  0  0  0  0  0  0  0  0
   10.3000    5.2923   -1.6105 H   0  0  0  0  0  0  0  0  0  0  0  0
    7.8877    4.9144   -1.2053 H   0  0  0  0  0  0  0  0  0  0  0  0
  1  2  3  0  0  0  0
  2  3  1  0  0  0  0
  3  4  1  0  0  0  0
  4  5  1  0  0  0  0
  4 20  1  0  0  0  0
  4 21  1  0  0  0  0
  5  6  1  0  0  0  0
  5 22  1  0  0  0  0
  5 23  1  0  0  0  0
  6  7  1  0  0  0  0
  7  8  1  0  0  0  0
  7 19  2  0  0  0  0
  8  9  2  0  0  0  0
  8 24  1  0  0  0  0
  9 10  1  0  0  0  0
  9 25  1  0  0  0  0
 10 11  1  0  0  0  0
 10 18  2  0  0  0  0
 11 12  1  0  0  0  0
 12 13  1  0  0  0  0
 12 17  2  0  0  0  0
 13 14  2  0  0  0  0
 13 26  1  0  0  0  0
 14 15  1  0  0  0  0
 14 27  1  0  0  0  0
 15 16  2  0  0  0  0
 15 28  1  0  0  0  0
 16 17  1  0  0  0  0
 16 29  1  0  0  0  0
 17 30  1  0  0  0  0
 18 19  1  0  0  0  0
 18 31  1  0  0  0  0
 19 32  1  0  0  0  0
M  END
>  <Energy>
43.0912

$$$$

 OpenBabel04232616063D

 30 32  0  0  0  0  0  0  0  0999 V2000
   -2.0935   -0.3062   -0.0999 Cl  0  0  0  0  0  0  0  0  0  0  0  0
   -0.3790   -0.1713   -0.0775 C   0  0  0  0  0  0  0  0  0  0  0  0
    0.2335    0.7293    0.7889 C   0  0  0  0  0  0  0  0  0  0  0  0
    1.6288    0.8236    0.8194 C   0  0  0  0  0  0  0  0  0  0  0  0
    2.4260    0.0226   -0.0156 C   0  0  0  0  0  0  0  0  0  0  0  0
    3.8795    0.1156    0.0789 C   0  0  0  0  0  0  0  0  0  0  0  0
    4.6239    0.8070    0.9177 N   0  0  0  0  0  0  0  0  0  0  0  0
    5.8994    0.4257    0.5649 C   0  0  0  0  0  0  0  0  0  0  0  0
    7.0926    0.8121    1.3592 C   0  0  0  0  0  0  0  0  0  0  0  0
    7.7026    2.0371    0.7241 C   0  0  0  0  0  0  0  0  0  0  0  0
    7.3079    3.3247    1.1185 C   0  0  0  0  0  0  0  0  0  0  0  0
    7.9311    4.4545    0.5842 C   0  0  0  0  0  0  0  0  0  0  0  0
    8.9528    4.3113   -0.3537 C   0  0  0  0  0  0  0  0  0  0  0  0
    9.3428    3.0397   -0.7669 C   0  0  0  0  0  0  0  0  0  0  0  0
    8.7201    1.9087   -0.2352 C   0  0  0  0  0  0  0  0  0  0  0  0
    5.9578   -0.4646   -0.4370 N   0  0  0  0  0  0  0  0  0  0  0  0
    4.6160   -0.6597   -0.7720 O   0  0  0  0  0  0  0  0  0  0  0  0
    1.7880   -0.8704   -0.8912 C   0  0  0  0  0  0  0  0  0  0  0  0
    0.3913   -0.9689   -0.9208 C   0  0  0  0  0  0  0  0  0  0  0  0
   -0.3630    1.3544    1.4482 H   0  0  0  0  0  0  0  0  0  0  0  0
    2.0962    1.5258    1.5089 H   0  0  0  0  0  0  0  0  0  0  0  0
    7.8231   -0.0047    1.3921 H   0  0  0  0  0  0  0  0  0  0  0  0
    6.8126    1.0224    2.3979 H   0  0  0  0  0  0  0  0  0  0  0  0
    6.5194    3.4558    1.8573 H   0  0  0  0  0  0  0  0  0  0  0  0
    7.6269    5.4473    0.9057 H   0  0  0  0  0  0  0  0  0  0  0  0
    9.4450    5.1906   -0.7614 H   0  0  0  0  0  0  0  0  0  0  0  0
   10.1394    2.9265   -1.4983 H   0  0  0  0  0  0  0  0  0  0  0  0
    9.0429    0.9232   -0.5647 H   0  0  0  0  0  0  0  0  0  0  0  0
    2.3671   -1.5113   -1.5539 H   0  0  0  0  0  0  0  0  0  0  0  0
   -0.0861   -1.6741   -1.5969 H   0  0  0  0  0  0  0  0  0  0  0  0
  1  2  1  0  0  0  0
  2  3  1  0  0  0  0
  2 19  2  0  0  0  0
  3  4  2  0  0  0  0
  3 20  1  0  0  0  0
  4  5  1  0  0  0  0
  4 21  1  0  0  0  0
  5  6  1  0  0  0  0
  5 18  2  0  0  0  0
  6  7  2  0  0  0  0
  6 17  1  0  0  0  0
  7  8  1  0  0  0  0
  8  9  1  0  0  0  0
  8 16  2  0  0  0  0
  9 10  1  0  0  0  0
  9 22  1  0  0  0  0
  9 23  1  0  0  0  0
 10 11  1  0  0  0  0
 10 15  2  0  0  0  0
 11 12  2  0  0  0  0
 11 24  1  0  0  0  0
 12 13  1  0  0  0  0
 12 25  1  0  0  0  0
 13 14  2  0  0  0  0
 13 26  1  0  0  0  0
 14 15  1  0  0  0  0
 14 27  1  0  0  0  0
 15 28  1  0  0  0  0
 16 17  1  0  0  0  0
 18 19  1  0  0  0  0
 18 29  1  0  0  0  0
 19 30  1  0  0  0  0
M  END
>  <Energy>
74.352

$$$$

 OpenBabel04232616063D

 35 37  0  0  0  0  0  0  0  0999 V2000
    4.9867   -1.1966   -1.8124 C   0  0  0  0  0  0  0  0  0  0  0  0
    4.6601   -0.3334   -0.7316 O   0  0  0  0  0  0  0  0  0  0  0  0
    3.9146   -0.8549    0.3002 C   0  0  0  0  0  0  0  0  0  0  0  0
    3.6570   -2.2216    0.4668 C   0  0  0  0  0  0  0  0  0  0  0  0
    2.9205   -2.6657    1.5685 C   0  0  0  0  0  0  0  0  0  0  0  0
    2.4458   -1.7527    2.5051 C   0  0  0  0  0  0  0  0  0  0  0  0
    2.6919   -0.3869    2.3417 C   0  0  0  0  0  0  0  0  0  0  0  0
    3.4253    0.0817    1.2402 C   0  0  0  0  0  0  0  0  0  0  0  0
    3.6539    1.4553    0.9888 N   0  0  0  0  0  0  0  0  0  0  0  0
    3.6783    2.1946    1.9987 N   0  0  0  0  0  0  0  0  0  0  0  0
    4.0925    3.4945    1.5943 C   0  0  0  0  0  0  0  0  0  0  0  0
    5.3907    3.6699    1.0739 C   0  0  0  0  0  0  0  0  0  0  0  0
    6.2712    2.6193    0.9981 O   0  0  0  0  0  0  0  0  0  0  0  0
    5.8321    4.8936    0.5956 C   0  0  0  0  0  0  0  0  0  0  0  0
    4.9681    5.9830    0.6233 C   0  0  0  0  0  0  0  0  0  0  0  0
    3.6825    5.8697    1.1746 C   0  0  0  0  0  0  0  0  0  0  0  0
    2.8380    6.9912    1.2113 C   0  0  0  0  0  0  0  0  0  0  0  0
    1.5775    6.9196    1.7989 C   0  0  0  0  0  0  0  0  0  0  0  0
    1.1407    5.7220    2.3539 C   0  0  0  0  0  0  0  0  0  0  0  0
    1.9545    4.5843    2.2916 C   0  0  0  0  0  0  0  0  0  0  0  0
    3.2369    4.6249    1.6971 C   0  0  0  0  0  0  0  0  0  0  0  0
    5.5500   -0.6126   -2.5471 H   0  0  0  0  0  0  0  0  0  0  0  0
    4.0819   -1.5695   -2.3035 H   0  0  0  0  0  0  0  0  0  0  0  0
    5.6300   -2.0205   -1.4873 H   0  0  0  0  0  0  0  0  0  0  0  0
    4.0167   -2.9645   -0.2353 H   0  0  0  0  0  0  0  0  0  0  0  0
    2.7207   -3.7269    1.6924 H   0  0  0  0  0  0  0  0  0  0  0  0
    1.8747   -2.1033    3.3631 H   0  0  0  0  0  0  0  0  0  0  0  0
    2.3025    0.3114    3.0757 H   0  0  0  0  0  0  0  0  0  0  0  0
    5.7419    1.8185    1.1893 H   0  0  0  0  0  0  0  0  0  0  0  0
    6.8326    4.9902    0.1863 H   0  0  0  0  0  0  0  0  0  0  0  0
    5.3152    6.9317    0.2202 H   0  0  0  0  0  0  0  0  0  0  0  0
    3.1619    7.9373    0.7837 H   0  0  0  0  0  0  0  0  0  0  0  0
    0.9407    7.8005    1.8280 H   0  0  0  0  0  0  0  0  0  0  0  0
    0.1668    5.6684    2.8306 H   0  0  0  0  0  0  0  0  0  0  0  0
    1.5846    3.6584    2.7273 H   0  0  0  0  0  0  0  0  0  0  0  0
  1  2  1  0  0  0  0
  1 22  1  0  0  0  0
  1 23  1  0  0  0  0
  1 24  1  0  0  0  0
  2  3  1  0  0  0  0
  3  4  1  0  0  0  0
  3  8  2  0  0  0  0
  4  5  2  0  0  0  0
  4 25  1  0  0  0  0
  5  6  1  0  0  0  0
  5 26  1  0  0  0  0
  6  7  2  0  0  0  0
  6 27  1  0  0  0  0
  7  8  1  0  0  0  0
  7 28  1  0  0  0  0
  8  9  1  0  0  0  0
  9 10  2  0  0  0  0
 10 11  1  0  0  0  0
 11 12  1  0  0  0  0
 11 21  2  0  0  0  0
 12 13  1  0  0  0  0
 12 14  2  0  0  0  0
 13 29  1  0  0  0  0
 14 15  1  0  0  0  0
 14 30  1  0  0  0  0
 15 16  2  0  0  0  0
 15 31  1  0  0  0  0
 16 17  1  0  0  0  0
 16 21  1  0  0  0  0
 17 18  2  0  0  0  0
 17 32  1  0  0  0  0
 18 19  1  0  0  0  0
 18 33  1  0  0  0  0
 19 20  2  0  0  0  0
 19 34  1  0  0  0  0
 20 21  1  0  0  0  0
 20 35  1  0  0  0  0
M  END
>  <Energy>
86.5771

$$$$

 OpenBabel04232616063D

 37 38  0  0  0  0  0  0  0  0999 V2000
    3.2627    1.3152   -0.6332 C   0  0  0  0  0  0  0  0  0  0  0  0
    2.6196    0.0126   -0.1009 C   0  0  0  0  0  0  0  0  0  0  0  0
    1.0872    0.1661   -0.1586 C   0  0  0  0  0  0  0  0  0  0  0  0
    3.0358   -1.1047   -1.0864 C   0  0  0  0  0  0  0  0  0  0  0  0
    3.0225   -0.2938    1.3548 C   0  0  0  0  0  0  0  0  0  0  0  0
    3.3433    0.7291    2.2635 C   0  0  0  0  0  0  0  0  0  0  0  0
    3.7000    0.4547    3.5928 C   0  0  0  0  0  0  0  0  0  0  0  0
    3.7260   -0.8555    4.0660 C   0  0  0  0  0  0  0  0  0  0  0  0
    4.2270   -1.3011    5.7205 S   0  0  0  0  0  0  0  0  0  0  0  0
    3.5450    0.0713    6.7225 C   0  0  0  0  0  0  0  0  0  0  0  0
    3.7390   -0.1520    8.2070 C   0  0  0  0  0  0  0  0  0  0  0  0
    3.1100   -1.2124    8.8596 C   0  0  0  0  0  0  0  0  0  0  0  0
    3.3228   -1.3886   10.2255 C   0  0  0  0  0  0  0  0  0  0  0  0
    4.1430   -0.4997   10.9073 C   0  0  0  0  0  0  0  0  0  0  0  0
    4.7178    0.5372   10.1914 C   0  0  0  0  0  0  0  0  0  0  0  0
    4.5315    0.7316    8.8675 N   0  0  0  0  0  0  0  0  0  0  0  0
    3.3959   -1.8825    3.1816 C   0  0  0  0  0  0  0  0  0  0  0  0
    3.0411   -1.6075    1.8523 C   0  0  0  0  0  0  0  0  0  0  0  0
    3.0159    1.4756   -1.6897 H   0  0  0  0  0  0  0  0  0  0  0  0
    4.3553    1.2791   -0.5496 H   0  0  0  0  0  0  0  0  0  0  0  0
    2.9109    2.2031   -0.0975 H   0  0  0  0  0  0  0  0  0  0  0  0
    0.7480    0.3639   -1.1826 H   0  0  0  0  0  0  0  0  0  0  0  0
    0.7435    0.9963    0.4693 H   0  0  0  0  0  0  0  0  0  0  0  0
    0.5790   -0.7414    0.1879 H   0  0  0  0  0  0  0  0  0  0  0  0
    2.7497   -0.8481   -2.1136 H   0  0  0  0  0  0  0  0  0  0  0  0
    2.5541   -2.0626   -0.8657 H   0  0  0  0  0  0  0  0  0  0  0  0
    4.1208   -1.2599   -1.0736 H   0  0  0  0  0  0  0  0  0  0  0  0
    3.3305    1.7743    1.9612 H   0  0  0  0  0  0  0  0  0  0  0  0
    3.9755    1.2900    4.2288 H   0  0  0  0  0  0  0  0  0  0  0  0
    2.4758    0.1911    6.5157 H   0  0  0  0  0  0  0  0  0  0  0  0
    4.0505    1.0011    6.4425 H   0  0  0  0  0  0  0  0  0  0  0  0
    2.4756   -1.9040    8.3150 H   0  0  0  0  0  0  0  0  0  0  0  0
    2.8551   -2.2168   10.7497 H   0  0  0  0  0  0  0  0  0  0  0  0
    4.3323   -0.6120   11.9685 H   0  0  0  0  0  0  0  0  0  0  0  0
    5.3653    1.2596   10.6786 H   0  0  0  0  0  0  0  0  0  0  0  0
    3.4131   -2.9199    3.5129 H   0  0  0  0  0  0  0  0  0  0  0  0
    2.7791   -2.4528    1.2222 H   0  0  0  0  0  0  0  0  0  0  0  0
  1  2  1  0  0  0  0
  1 19  1  0  0  0  0
  1 20  1  0  0  0  0
  1 21  1  0  0  0  0
  2  3  1  0  0  0  0
  2  4  1  0  0  0  0
  2  5  1  0  0  0  0
  3 22  1  0  0  0  0
  3 23  1  0  0  0  0
  3 24  1  0  0  0  0
  4 25  1  0  0  0  0
  4 26  1  0  0  0  0
  4 27  1  0  0  0  0
  5  6  1  0  0  0  0
  5 18  2  0  0  0  0
  6  7  2  0  0  0  0
  6 28  1  0  0  0  0
  7  8  1  0  0  0  0
  7 29  1  0  0  0  0
  8  9  1  0  0  0  0
  8 17  2  0  0  0  0
  9 10  1  0  0  0  0
 10 11  1  0  0  0  0
 10 30  1  0  0  0  0
 10 31  1  0  0  0  0
 11 12  1  0  0  0  0
 11 16  2  0  0  0  0
 12 13  2  0  0  0  0
 12 32  1  0  0  0  0
 13 14  1  0  0  0  0
 13 33  1  0  0  0  0
 14 15  2  0  0  0  0
 14 34  1  0  0  0  0
 15 16  1  0  0  0  0
 15 35  1  0  0  0  0
 17 18  1  0  0  0  0
 17 36  1  0  0  0  0
 18 37  1  0  0  0  0
M  END
>  <Energy>
65.6525

$$$$

 OpenBabel04232616063D

 36 39  0  0  0  0  0  0  0  0999 V2000
    1.0453    0.5039   -0.2570 C   0  0  0  0  0  0  0  0  0  0  0  0
    2.4204   -0.0555    0.0783 C   0  0  0  0  0  0  0  0  0  0  0  0
    2.8609   -1.0752   -0.9394 C   0  0  0  0  0  0  0  0  0  0  0  0
    2.5559   -2.4287   -0.7802 C   0  0  0  0  0  0  0  0  0  0  0  0
    2.9174   -3.3555   -1.7662 C   0  0  0  0  0  0  0  0  0  0  0  0
    3.5763   -2.9724   -2.9270 C   0  0  0  0  0  0  0  0  0  0  0  0
    3.8737   -3.8921   -3.8673 N   0  0  0  0  0  0  0  0  0  0  0  0
    4.5067   -3.4970   -5.0020 C   0  0  0  0  0  0  0  0  0  0  0  0
    4.7503   -4.5444   -6.0179 C   0  0  0  0  0  0  0  0  0  0  0  0
    3.8624   -5.6450   -6.1496 C   0  0  0  0  0  0  0  0  0  0  0  0
    4.0247   -6.6149   -7.1486 C   0  0  0  0  0  0  0  0  0  0  0  0
    5.0888   -6.4728   -8.0087 C   0  0  0  0  0  0  0  0  0  0  0  0
    5.9751   -5.4325   -7.8867 C   0  0  0  0  0  0  0  0  0  0  0  0
    5.8412   -4.4689   -6.9079 C   0  0  0  0  0  0  0  0  0  0  0  0
    6.9557   -5.4692   -8.8288 O   0  0  0  0  0  0  0  0  0  0  0  0
    6.5766   -6.6501   -9.5651 C   0  0  0  0  0  0  0  0  0  0  0  0
    5.3941   -7.2949   -9.0470 O   0  0  0  0  0  0  0  0  0  0  0  0
    4.8611   -2.1658   -5.2128 C   0  0  0  0  0  0  0  0  0  0  0  0
    4.5562   -1.2184   -4.2432 C   0  0  0  0  0  0  0  0  0  0  0  0
    3.8953   -1.6097   -3.0794 C   0  0  0  0  0  0  0  0  0  0  0  0
    3.5401   -0.6735   -2.0935 C   0  0  0  0  0  0  0  0  0  0  0  0
    0.7472    1.2509    0.4852 H   0  0  0  0  0  0  0  0  0  0  0  0
    0.2875   -0.2870   -0.2667 H   0  0  0  0  0  0  0  0  0  0  0  0
    1.0402    0.9838   -1.2418 H   0  0  0  0  0  0  0  0  0  0  0  0
    2.4061   -0.5073    1.0774 H   0  0  0  0  0  0  0  0  0  0  0  0
    3.1512    0.7615    0.1231 H   0  0  0  0  0  0  0  0  0  0  0  0
    2.0239   -2.7745    0.1034 H   0  0  0  0  0  0  0  0  0  0  0  0
    2.6662   -4.4047   -1.6291 H   0  0  0  0  0  0  0  0  0  0  0  0
    3.0170   -5.7348   -5.4673 H   0  0  0  0  0  0  0  0  0  0  0  0
    3.3301   -7.4412   -7.2463 H   0  0  0  0  0  0  0  0  0  0  0  0
    6.5777   -3.6752   -6.8463 H   0  0  0  0  0  0  0  0  0  0  0  0
    7.4079   -7.3637   -9.5332 H   0  0  0  0  0  0  0  0  0  0  0  0
    6.3955   -6.3678  -10.6088 H   0  0  0  0  0  0  0  0  0  0  0  0
    5.3404   -1.8458   -6.1315 H   0  0  0  0  0  0  0  0  0  0  0  0
    4.8203   -0.1780   -4.4125 H   0  0  0  0  0  0  0  0  0  0  0  0
    3.7796    0.3789   -2.2349 H   0  0  0  0  0  0  0  0  0  0  0  0
  1  2  1  0  0  0  0
  1 22  1  0  0  0  0
  1 23  1  0  0  0  0
  1 24  1  0  0  0  0
  2  3  1  0  0  0  0
  2 25  1  0  0  0  0
  2 26  1  0  0  0  0
  3  4  1  0  0  0  0
  3 21  2  0  0  0  0
  4  5  2  0  0  0  0
  4 27  1  0  0  0  0
  5  6  1  0  0  0  0
  5 28  1  0  0  0  0
  6  7  1  0  0  0  0
  6 20  2  0  0  0  0
  7  8  2  0  0  0  0
  8  9  1  0  0  0  0
  8 18  1  0  0  0  0
  9 10  1  0  0  0  0
  9 14  2  0  0  0  0
 10 11  2  0  0  0  0
 10 29  1  0  0  0  0
 11 12  1  0  0  0  0
 11 30  1  0  0  0  0
 12 13  2  0  0  0  0
 12 17  1  0  0  0  0
 13 14  1  0  0  0  0
 13 15  1  0  0  0  0
 14 31  1  0  0  0  0
 15 16  1  0  0  0  0
 16 17  1  0  0  0  0
 16 32  1  0  0  0  0
 16 33  1  0  0  0  0
 18 19  2  0  0  0  0
 18 34  1  0  0  0  0
 19 20  1  0  0  0  0
 19 35  1  0  0  0  0
 20 21  1  0  0  0  0
 21 36  1  0  0  0  0
M  END
>  <Energy>
58.503

$$$$

 OpenBabel04232616063D

 36 38  0  0  0  0  0  0  0  0999 V2000
    5.0119   -2.3067    1.3354 C   0  0  0  0  0  0  0  0  0  0  0  0
    4.3926   -1.1691    0.5826 C   0  0  0  0  0  0  0  0  0  0  0  0
    3.2404   -1.2893   -0.1036 C   0  0  0  0  0  0  0  0  0  0  0  0
    2.6865   -0.1239   -0.8437 C   0  0  0  0  0  0  0  0  0  0  0  0
    1.6429   -0.2195   -1.4870 O   0  0  0  0  0  0  0  0  0  0  0  0
    3.4267    1.0334   -0.7543 N   0  0  0  0  0  0  0  0  0  0  0  0
    2.9500    2.1614   -1.4559 O   0  0  0  0  0  0  0  0  0  0  0  0
    4.6002    1.1680   -0.0564 C   0  0  0  0  0  0  0  0  0  0  0  0
    5.3339    2.4394   -0.0300 C   0  0  0  0  0  0  0  0  0  0  0  0
    6.2967    2.7147   -1.0029 C   0  0  0  0  0  0  0  0  0  0  0  0
    7.0862    3.8659   -0.9077 C   0  0  0  0  0  0  0  0  0  0  0  0
    6.9334    4.7808    0.1502 C   0  0  0  0  0  0  0  0  0  0  0  0
    7.8424    5.9444    0.3033 C   0  0  0  0  0  0  0  0  0  0  0  0
    8.4313    6.5761   -0.8079 C   0  0  0  0  0  0  0  0  0  0  0  0
    9.3458    7.6239   -0.6543 C   0  0  0  0  0  0  0  0  0  0  0  0
    9.6777    8.0804    0.6166 C   0  0  0  0  0  0  0  0  0  0  0  0
    9.0933    7.4935    1.7328 C   0  0  0  0  0  0  0  0  0  0  0  0
    8.1921    6.4359    1.5755 C   0  0  0  0  0  0  0  0  0  0  0  0
    5.9154    4.5128    1.0846 C   0  0  0  0  0  0  0  0  0  0  0  0
    5.1347    3.3535    1.0057 C   0  0  0  0  0  0  0  0  0  0  0  0
    5.0929    0.1054    0.6065 C   0  0  0  0  0  0  0  0  0  0  0  0
    4.4081   -3.2180    1.2638 H   0  0  0  0  0  0  0  0  0  0  0  0
    5.1132   -2.0588    2.3972 H   0  0  0  0  0  0  0  0  0  0  0  0
    6.0061   -2.5359    0.9359 H   0  0  0  0  0  0  0  0  0  0  0  0
    2.6730   -2.2079   -0.1607 H   0  0  0  0  0  0  0  0  0  0  0  0
    2.1483    1.7973   -1.8845 H   0  0  0  0  0  0  0  0  0  0  0  0
    6.4535    2.0266   -1.8298 H   0  0  0  0  0  0  0  0  0  0  0  0
    7.8518    4.0149   -1.6656 H   0  0  0  0  0  0  0  0  0  0  0  0
    8.1875    6.2591   -1.8190 H   0  0  0  0  0  0  0  0  0  0  0  0
    9.7999    8.0777   -1.5313 H   0  0  0  0  0  0  0  0  0  0  0  0
   10.3912    8.8911    0.7372 H   0  0  0  0  0  0  0  0  0  0  0  0
    9.3446    7.8456    2.7296 H   0  0  0  0  0  0  0  0  0  0  0  0
    7.7840    5.9821    2.4759 H   0  0  0  0  0  0  0  0  0  0  0  0
    5.7193    5.2018    1.9030 H   0  0  0  0  0  0  0  0  0  0  0  0
    4.3792    3.1675    1.7653 H   0  0  0  0  0  0  0  0  0  0  0  0
    6.0231    0.1735    1.1657 H   0  0  0  0  0  0  0  0  0  0  0  0
  1  2  1  0  0  0  0
  1 22  1  0  0  0  0
  1 23  1  0  0  0  0
  1 24  1  0  0  0  0
  2  3  2  0  0  0  0
  2 21  1  0  0  0  0
  3  4  1  0  0  0  0
  3 25  1  0  0  0  0
  4  5  2  0  0  0  0
  4  6  1  0  0  0  0
  6  7  1  0  0  0  0
  6  8  1  0  0  0  0
  7 26  1  0  0  0  0
  8  9  1  0  0  0  0
  8 21  2  0  0  0  0
  9 10  1  0  0  0  0
  9 20  2  0  0  0  0
 10 11  2  0  0  0  0
 10 27  1  0  0  0  0
 11 12  1  0  0  0  0
 11 28  1  0  0  0  0
 12 13  1  0  0  0  0
 12 19  2  0  0  0  0
 13 14  1  0  0  0  0
 13 18  2  0  0  0  0
 14 15  2  0  0  0  0
 14 29  1  0  0  0  0
 15 16  1  0  0  0  0
 15 30  1  0  0  0  0
 16 17  2  0  0  0  0
 16 31  1  0  0  0  0
 17 18  1  0  0  0  0
 17 32  1  0  0  0  0
 18 33  1  0  0  0  0
 19 20  1  0  0  0  0
 19 34  1  0  0  0  0
 20 35  1  0  0  0  0
 21 36  1  0  0  0  0
M  END
>  <Energy>
85.0988

$$$$

 OpenBabel04232616063D

 33 33  0  0  0  0  0  0  0  0999 V2000
    2.4324    3.4393    1.3881 C   0  0  0  0  0  0  0  0  0  0  0  0
    2.2135    1.9441    1.3111 C   0  0  0  0  0  0  0  0  0  0  0  0
    2.9564    1.3508    0.2632 O   0  0  0  0  0  0  0  0  0  0  0  0
    4.6864    1.3508    0.2632 P   0  0  0  0  0  0  0  0  0  0  0  0
    4.6440    0.6111    1.6197 O   0  0  0  0  0  0  0  0  0  0  0  0
    4.6330    0.1904   -0.9264 O   0  0  0  0  0  0  0  0  0  0  0  0
    4.1553    0.5705   -2.2082 C   0  0  0  0  0  0  0  0  0  0  0  0
    4.3954   -0.5702   -3.1769 C   0  0  0  0  0  0  0  0  0  0  0  0
    6.5164    1.3508    0.2632 C   0  0  0  0  0  0  0  0  0  0  0  0
    7.1342    1.3048    1.4720 F   0  0  0  0  0  0  0  0  0  0  0  0
    7.2725    1.4555   -0.8457 C   0  0  0  0  0  0  0  0  0  0  0  0
    8.7378    1.4111   -0.8960 C   0  0  0  0  0  0  0  0  0  0  0  0
    9.4919    0.5972   -0.0431 C   0  0  0  0  0  0  0  0  0  0  0  0
   10.8810    0.5263   -0.1638 C   0  0  0  0  0  0  0  0  0  0  0  0
   11.5336    1.2623   -1.1504 C   0  0  0  0  0  0  0  0  0  0  0  0
   10.7965    2.0634   -2.0182 C   0  0  0  0  0  0  0  0  0  0  0  0
    9.4081    2.1369   -1.8975 C   0  0  0  0  0  0  0  0  0  0  0  0
    1.6283    3.9114    1.9617 H   0  0  0  0  0  0  0  0  0  0  0  0
    2.4675    3.8882    0.3909 H   0  0  0  0  0  0  0  0  0  0  0  0
    3.3806    3.6612    1.8852 H   0  0  0  0  0  0  0  0  0  0  0  0
    1.1603    1.7576    1.0760 H   0  0  0  0  0  0  0  0  0  0  0  0
    2.4142    1.4524    2.2675 H   0  0  0  0  0  0  0  0  0  0  0  0
    4.6757    1.4703   -2.5444 H   0  0  0  0  0  0  0  0  0  0  0  0
    3.0842    0.7898   -2.1571 H   0  0  0  0  0  0  0  0  0  0  0  0
    5.4322   -0.9175   -3.1278 H   0  0  0  0  0  0  0  0  0  0  0  0
    4.1701   -0.2630   -4.2023 H   0  0  0  0  0  0  0  0  0  0  0  0
    3.7595   -1.4258   -2.9247 H   0  0  0  0  0  0  0  0  0  0  0  0
    6.7932    1.5503   -1.8137 H   0  0  0  0  0  0  0  0  0  0  0  0
    9.0040   -0.0055    0.7236 H   0  0  0  0  0  0  0  0  0  0  0  0
   11.4511   -0.1095    0.5098 H   0  0  0  0  0  0  0  0  0  0  0  0
   12.6136    1.2009   -1.2478 H   0  0  0  0  0  0  0  0  0  0  0  0
   11.3037    2.6315   -2.7954 H   0  0  0  0  0  0  0  0  0  0  0  0
    8.8545    2.7648   -2.5891 H   0  0  0  0  0  0  0  0  0  0  0  0
  1  2  1  0  0  0  0
  1 18  1  0  0  0  0
  1 19  1  0  0  0  0
  1 20  1  0  0  0  0
  2  3  1  0  0  0  0
  2 21  1  0  0  0  0
  2 22  1  0  0  0  0
  3  4  1  0  0  0  0
  4  5  2  0  0  0  0
  4  6  1  0  0  0  0
  4  9  1  0  0  0  0
  6  7  1  0  0  0  0
  7  8  1  0  0  0  0
  7 23  1  0  0  0  0
  7 24  1  0  0  0  0
  8 25  1  0  0  0  0
  8 26  1  0  0  0  0
  8 27  1  0  0  0  0
  9 10  1  0  0  0  0
  9 11  2  0  0  0  0
 11 12  1  0  0  0  0
 11 28  1  0  0  0  0
 12 13  1  0  0  0  0
 12 17  2  0  0  0  0
 13 14  2  0  0  0  0
 13 29  1  0  0  0  0
 14 15  1  0  0  0  0
 14 30  1  0  0  0  0
 15 16  2  0  0  0  0
 15 31  1  0  0  0  0
 16 17  1  0  0  0  0
 16 32  1  0  0  0  0
 17 33  1  0  0  0  0
M  END
>  <Energy>
557.286

$$$$

 OpenBabel04232616063D

 36 38  0  0  0  0  0  0  0  0999 V2000
    1.2214    0.3025    0.3039 C   0  0  0  0  0  0  0  0  0  0  0  0
    2.5998    0.0689    0.0259 O   0  0  0  0  0  0  0  0  0  0  0  0
    3.1000    0.7674   -1.0386 C   0  0  0  0  0  0  0  0  0  0  0  0
    4.1570    0.1708   -1.7163 C   0  0  0  0  0  0  0  0  0  0  0  0
    4.7167    0.7933   -2.8374 C   0  0  0  0  0  0  0  0  0  0  0  0
    4.2355    2.0098   -3.3043 C   0  0  0  0  0  0  0  0  0  0  0  0
    4.7676    2.5549   -4.4056 N   0  0  0  0  0  0  0  0  0  0  0  0
    4.2456    3.7250   -4.8742 C   0  0  0  0  0  0  0  0  0  0  0  0
    4.9218    4.2541   -6.0975 C   0  0  0  0  0  0  0  0  0  0  0  0
    5.0625    5.4644   -6.2585 O   0  0  0  0  0  0  0  0  0  0  0  0
    5.4508    3.3177   -7.1300 C   0  0  0  0  0  0  0  0  0  0  0  0
    6.5500    3.7206   -7.8990 C   0  0  0  0  0  0  0  0  0  0  0  0
    7.0601    2.8796   -8.8904 C   0  0  0  0  0  0  0  0  0  0  0  0
    6.4679    1.6394   -9.1266 C   0  0  0  0  0  0  0  0  0  0  0  0
    5.3648    1.2381   -8.3745 C   0  0  0  0  0  0  0  0  0  0  0  0
    4.8528    2.0756   -7.3809 C   0  0  0  0  0  0  0  0  0  0  0  0
    3.1828    4.3905   -4.2648 C   0  0  0  0  0  0  0  0  0  0  0  0
    2.5536    5.6480   -4.7828 C   0  0  0  0  0  0  0  0  0  0  0  0
    2.6806    3.8320   -3.0853 C   0  0  0  0  0  0  0  0  0  0  0  0
    3.1847    2.6199   -2.5993 C   0  0  0  0  0  0  0  0  0  0  0  0
    2.6366    2.0116   -1.4582 C   0  0  0  0  0  0  0  0  0  0  0  0
    0.8950   -0.4428    1.0363 H   0  0  0  0  0  0  0  0  0  0  0  0
    0.6080    0.1798   -0.5953 H   0  0  0  0  0  0  0  0  0  0  0  0
    1.0705    1.2906    0.7491 H   0  0  0  0  0  0  0  0  0  0  0  0
    4.5407   -0.7930   -1.3879 H   0  0  0  0  0  0  0  0  0  0  0  0
    5.5338    0.3097   -3.3671 H   0  0  0  0  0  0  0  0  0  0  0  0
    7.0149    4.6884   -7.7228 H   0  0  0  0  0  0  0  0  0  0  0  0
    7.9187    3.1937   -9.4786 H   0  0  0  0  0  0  0  0  0  0  0  0
    6.8645    0.9861   -9.8998 H   0  0  0  0  0  0  0  0  0  0  0  0
    4.9011    0.2726   -8.5614 H   0  0  0  0  0  0  0  0  0  0  0  0
    3.9871    1.7440   -6.8142 H   0  0  0  0  0  0  0  0  0  0  0  0
    2.6498    5.7460   -5.8674 H   0  0  0  0  0  0  0  0  0  0  0  0
    2.9886    6.5244   -4.2938 H   0  0  0  0  0  0  0  0  0  0  0  0
    1.4754    5.6366   -4.5811 H   0  0  0  0  0  0  0  0  0  0  0  0
    1.8727    4.3332   -2.5568 H   0  0  0  0  0  0  0  0  0  0  0  0
    1.8478    2.5218   -0.9182 H   0  0  0  0  0  0  0  0  0  0  0  0
  1  2  1  0  0  0  0
  1 22  1  0  0  0  0
  1 23  1  0  0  0  0
  1 24  1  0  0  0  0
  2  3  1  0  0  0  0
  3  4  1  0  0  0  0
  3 21  2  0  0  0  0
  4  5  2  0  0  0  0
  4 25  1  0  0  0  0
  5  6  1  0  0  0  0
  5 26  1  0  0  0  0
  6  7  1  0  0  0  0
  6 20  2  0  0  0  0
  7  8  2  0  0  0  0
  8  9  1  0  0  0  0
  8 17  1  0  0  0  0
  9 10  2  0  0  0  0
  9 11  1  0  0  0  0
 11 12  1  0  0  0  0
 11 16  2  0  0  0  0
 12 13  2  0  0  0  0
 12 27  1  0  0  0  0
 13 14  1  0  0  0  0
 13 28  1  0  0  0  0
 14 15  2  0  0  0  0
 14 29  1  0  0  0  0
 15 16  1  0  0  0  0
 15 30  1  0  0  0  0
 16 31  1  0  0  0  0
 17 18  1  0  0  0  0
 17 19  2  0  0  0  0
 18 32  1  0  0  0  0
 18 33  1  0  0  0  0
 18 34  1  0  0  0  0
 19 20  1  0  0  0  0
 19 35  1  0  0  0  0
 20 21  1  0  0  0  0
 21 36  1  0  0  0  0
M  END
>  <Energy>
105.116

$$$$

 OpenBabel04232616063D

 34 36  0  0  0  0  0  0  0  0999 V2000
    1.5003    0.6181   -0.0309 C   0  0  0  0  0  0  0  0  0  0  0  0
    2.8063   -0.1398   -0.0314 C   0  0  0  0  0  0  0  0  0  0  0  0
    3.3507   -0.4760    1.0177 O   0  0  0  0  0  0  0  0  0  0  0  0
    3.4254   -0.4991   -1.3425 C   0  0  0  0  0  0  0  0  0  0  0  0
    2.8331   -0.1301   -2.5498 C   0  0  0  0  0  0  0  0  0  0  0  0
    3.4084   -0.5115   -3.7656 C   0  0  0  0  0  0  0  0  0  0  0  0
    4.5790   -1.2704   -3.8080 C   0  0  0  0  0  0  0  0  0  0  0  0
    5.1763   -1.6999   -5.0142 N   0  0  0  0  0  0  0  0  0  0  0  0
    4.6750   -1.5318   -6.2998 C   0  0  0  0  0  0  0  0  0  0  0  0
    3.5968   -1.0200   -6.5771 O   0  0  0  0  0  0  0  0  0  0  0  0
    5.5474   -2.0351   -7.3451 C   0  0  0  0  0  0  0  0  0  0  0  0
    5.3542   -2.0897   -8.7151 C   0  0  0  0  0  0  0  0  0  0  0  0
    6.5283   -2.6490   -9.2766 C   0  0  0  0  0  0  0  0  0  0  0  0
    6.9708   -2.9642  -10.5738 C   0  0  0  0  0  0  0  0  0  0  0  0
    8.2493   -3.5172  -10.7304 C   0  0  0  0  0  0  0  0  0  0  0  0
    9.0739   -3.7495   -9.6261 C   0  0  0  0  0  0  0  0  0  0  0  0
    8.6501   -3.4427   -8.3284 C   0  0  0  0  0  0  0  0  0  0  0  0
    7.3740   -2.9002   -8.2024 C   0  0  0  0  0  0  0  0  0  0  0  0
    6.7808   -2.5389   -7.0296 O   0  0  0  0  0  0  0  0  0  0  0  0
    5.1913   -1.6157   -2.5961 C   0  0  0  0  0  0  0  0  0  0  0  0
    4.6175   -1.2337   -1.3715 C   0  0  0  0  0  0  0  0  0  0  0  0
    1.2015    0.8314    0.9996 H   0  0  0  0  0  0  0  0  0  0  0  0
    0.7146    0.0150   -0.4950 H   0  0  0  0  0  0  0  0  0  0  0  0
    1.6128    1.5735   -0.5508 H   0  0  0  0  0  0  0  0  0  0  0  0
    1.9174    0.4517   -2.5876 H   0  0  0  0  0  0  0  0  0  0  0  0
    2.9006   -0.1870   -4.6682 H   0  0  0  0  0  0  0  0  0  0  0  0
    6.0519   -2.2073   -4.9534 H   0  0  0  0  0  0  0  0  0  0  0  0
    4.4671   -1.7540   -9.2334 H   0  0  0  0  0  0  0  0  0  0  0  0
    6.3413   -2.7830  -11.4400 H   0  0  0  0  0  0  0  0  0  0  0  0
    8.6054   -3.7680  -11.7282 H   0  0  0  0  0  0  0  0  0  0  0  0
   10.0637   -4.1759   -9.7766 H   0  0  0  0  0  0  0  0  0  0  0  0
    9.2789   -3.6132   -7.4637 H   0  0  0  0  0  0  0  0  0  0  0  0
    6.1119   -2.1942   -2.5784 H   0  0  0  0  0  0  0  0  0  0  0  0
    5.1026   -1.5210   -0.4390 H   0  0  0  0  0  0  0  0  0  0  0  0
  1  2  1  0  0  0  0
  1 22  1  0  0  0  0
  1 23  1  0  0  0  0
  1 24  1  0  0  0  0
  2  3  2  0  0  0  0
  2  4  1  0  0  0  0
  4  5  1  0  0  0  0
  4 21  2  0  0  0  0
  5  6  2  0  0  0  0
  5 25  1  0  0  0  0
  6  7  1  0  0  0  0
  6 26  1  0  0  0  0
  7  8  1  0  0  0  0
  7 20  2  0  0  0  0
  8  9  1  0  0  0  0
  8 27  1  0  0  0  0
  9 10  2  0  0  0  0
  9 11  1  0  0  0  0
 11 12  2  0  0  0  0
 11 19  1  0  0  0  0
 12 13  1  0  0  0  0
 12 28  1  0  0  0  0
 13 14  1  0  0  0  0
 13 18  2  0  0  0  0
 14 15  2  0  0  0  0
 14 29  1  0  0  0  0
 15 16  1  0  0  0  0
 15 30  1  0  0  0  0
 16 17  2  0  0  0  0
 16 31  1  0  0  0  0
 17 18  1  0  0  0  0
 17 32  1  0  0  0  0
 18 19  1  0  0  0  0
 20 21  1  0  0  0  0
 20 33  1  0  0  0  0
 21 34  1  0  0  0  0
M  END
>  <Energy>
44.1764

$$$$

 OpenBabel04232616063D

 38 40  0  0  1  0  0  0  0  0999 V2000
    1.2873    0.3729   -0.6127 O   0  0  0  0  0  0  0  0  0  0  0  0
    2.5121    0.2101   -0.5806 N   0  0  0  0  0  0  0  0  0  0  0  0
    2.8345   -1.0056   -0.9781 N   0  0  0  0  0  0  0  0  0  0  0  0
    4.1825   -1.4611   -0.5429 C   0  0  3  0  0  0  0  0  0  0  0  0
    4.4099   -1.3519    0.9727 C   0  0  0  0  0  0  0  0  0  0  0  0
    4.0403   -2.4181    1.8106 C   0  0  0  0  0  0  0  0  0  0  0  0
    4.2502   -2.3462    3.1918 C   0  0  0  0  0  0  0  0  0  0  0  0
    4.8210   -1.2067    3.7563 C   0  0  0  0  0  0  0  0  0  0  0  0
    5.1702   -0.1335    2.9451 C   0  0  0  0  0  0  0  0  0  0  0  0
    4.9609   -0.2037    1.5666 C   0  0  0  0  0  0  0  0  0  0  0  0
    5.3347   -0.8277   -1.3559 C   0  0  0  0  0  0  0  0  0  0  0  0
    5.1391   -0.9933   -2.8568 C   0  0  0  0  0  0  0  0  0  0  0  0
    3.7348   -0.5627   -3.2712 C   0  0  0  0  0  0  0  0  0  0  0  0
    2.6231   -1.2500   -2.4390 C   0  0  3  0  0  0  0  0  0  0  0  0
    2.3849   -2.7405   -2.7349 C   0  0  0  0  0  0  0  0  0  0  0  0
    3.0245   -3.4381   -3.7721 C   0  0  0  0  0  0  0  0  0  0  0  0
    2.7950   -4.8021   -3.9751 C   0  0  0  0  0  0  0  0  0  0  0  0
    1.8949   -5.4876   -3.1647 C   0  0  0  0  0  0  0  0  0  0  0  0
    1.2112   -4.8060   -2.1636 C   0  0  0  0  0  0  0  0  0  0  0  0
    1.4471   -3.4453   -1.9558 C   0  0  0  0  0  0  0  0  0  0  0  0
    4.2373   -2.5395   -0.7522 H   0  0  0  0  0  0  0  0  0  0  0  0
    3.5849   -3.3129    1.3943 H   0  0  0  0  0  0  0  0  0  0  0  0
    3.9646   -3.1801    3.8282 H   0  0  0  0  0  0  0  0  0  0  0  0
    4.9832   -1.1527    4.8296 H   0  0  0  0  0  0  0  0  0  0  0  0
    5.5992    0.7624    3.3826 H   0  0  0  0  0  0  0  0  0  0  0  0
    5.2241    0.6652    0.9685 H   0  0  0  0  0  0  0  0  0  0  0  0
    6.2883   -1.2888   -1.0680 H   0  0  0  0  0  0  0  0  0  0  0  0
    5.4275    0.2436   -1.1452 H   0  0  0  0  0  0  0  0  0  0  0  0
    5.3264   -2.0365   -3.1304 H   0  0  0  0  0  0  0  0  0  0  0  0
    5.8833   -0.3954   -3.3943 H   0  0  0  0  0  0  0  0  0  0  0  0
    3.5886   -0.7332   -4.3439 H   0  0  0  0  0  0  0  0  0  0  0  0
    3.6572    0.5254   -3.1376 H   0  0  0  0  0  0  0  0  0  0  0  0
    1.6779   -0.7810   -2.7558 H   0  0  0  0  0  0  0  0  0  0  0  0
    3.7198   -2.9483   -4.4467 H   0  0  0  0  0  0  0  0  0  0  0  0
    3.3195   -5.3271   -4.7690 H   0  0  0  0  0  0  0  0  0  0  0  0
    1.7216   -6.5488   -3.3204 H   0  0  0  0  0  0  0  0  0  0  0  0
    0.4923   -5.3316   -1.5403 H   0  0  0  0  0  0  0  0  0  0  0  0
    0.8937   -2.9321   -1.1699 H   0  0  0  0  0  0  0  0  0  0  0  0
  1  2  2  0  0  0  0
  2  3  1  0  0  0  0
  3  4  1  0  0  0  0
  3 14  1  0  0  0  0
  4  5  1  0  0  0  0
  4 11  1  0  0  0  0
  4 21  1  0  0  0  0
  5  6  1  0  0  0  0
  5 10  2  0  0  0  0
  6  7  2  0  0  0  0
  6 22  1  0  0  0  0
  7  8  1  0  0  0  0
  7 23  1  0  0  0  0
  8  9  2  0  0  0  0
  8 24  1  0  0  0  0
  9 10  1  0  0  0  0
  9 25  1  0  0  0  0
 10 26  1  0  0  0  0
 11 12  1  0  0  0  0
 11 27  1  0  0  0  0
 11 28  1  0  0  0  0
 12 13  1  0  0  0  0
 12 29  1  0  0  0  0
 12 30  1  0  0  0  0
 13 14  1  0  0  0  0
 13 31  1  0  0  0  0
 13 32  1  0  0  0  0
 14 15  1  0  0  0  0
 14 33  1  0  0  0  0
 15 16  1  0  0  0  0
 15 20  2  0  0  0  0
 16 17  2  0  0  0  0
 16 34  1  0  0  0  0
 17 18  1  0  0  0  0
 17 35  1  0  0  0  0
 18 19  2  0  0  0  0
 18 36  1  0  0  0  0
 19 20  1  0  0  0  0
 19 37  1  0  0  0  0
 20 38  1  0  0  0  0
M  END
>  <Energy>
59.2483

$$$$

 OpenBabel04232616063D

 35 37  0  0  0  0  0  0  0  0999 V2000
    3.6610    0.6983    0.5009 C   0  0  0  0  0  0  0  0  0  0  0  0
    2.4661   -0.0868   -0.0382 C   0  0  0  0  0  0  0  0  0  0  0  0
    1.9527    0.5262   -1.3427 C   0  0  0  0  0  0  0  0  0  0  0  0
    2.8089   -1.5327   -0.2345 C   0  0  0  0  0  0  0  0  0  0  0  0
    3.8356   -1.7847   -1.0957 O   0  0  0  0  0  0  0  0  0  0  0  0
    3.9808   -3.1301   -1.1780 C   0  0  0  0  0  0  0  0  0  0  0  0
    4.9385   -3.7821   -1.9532 C   0  0  0  0  0  0  0  0  0  0  0  0
    4.9199   -5.1786   -1.9333 C   0  0  0  0  0  0  0  0  0  0  0  0
    3.9907   -5.8703   -1.1574 C   0  0  0  0  0  0  0  0  0  0  0  0
    3.0614   -5.1834   -0.3612 C   0  0  0  0  0  0  0  0  0  0  0  0
    3.0408   -3.7699   -0.3776 C   0  0  0  0  0  0  0  0  0  0  0  0
    2.2835   -2.7241    0.2549 C   0  0  0  0  0  0  0  0  0  0  0  0
    1.2076   -2.7973    1.2369 C   0  0  0  0  0  0  0  0  0  0  0  0
    1.0236   -1.9219    2.0784 O   0  0  0  0  0  0  0  0  0  0  0  0
    0.3010   -3.9708    1.2561 C   0  0  0  0  0  0  0  0  0  0  0  0
   -0.1546   -4.5648    0.0796 C   0  0  0  0  0  0  0  0  0  0  0  0
   -0.9702   -5.6748    0.1954 C   0  0  0  0  0  0  0  0  0  0  0  0
   -1.3675   -6.1912    1.3778 N   0  0  0  0  0  0  0  0  0  0  0  0
   -0.9504   -5.5653    2.4985 C   0  0  0  0  0  0  0  0  0  0  0  0
   -0.1227   -4.4588    2.4926 C   0  0  0  0  0  0  0  0  0  0  0  0
    3.3814    1.7391    0.6969 H   0  0  0  0  0  0  0  0  0  0  0  0
    4.4968    0.7032   -0.2075 H   0  0  0  0  0  0  0  0  0  0  0  0
    4.0214    0.2655    1.4408 H   0  0  0  0  0  0  0  0  0  0  0  0
    1.6597    0.0020    0.6971 H   0  0  0  0  0  0  0  0  0  0  0  0
    2.6809    0.4250   -2.1553 H   0  0  0  0  0  0  0  0  0  0  0  0
    1.7356    1.5920   -1.2152 H   0  0  0  0  0  0  0  0  0  0  0  0
    1.0282    0.0326   -1.6642 H   0  0  0  0  0  0  0  0  0  0  0  0
    5.6591   -3.2258   -2.5406 H   0  0  0  0  0  0  0  0  0  0  0  0
    5.6440   -5.7323   -2.5274 H   0  0  0  0  0  0  0  0  0  0  0  0
    3.9905   -6.9587   -1.1614 H   0  0  0  0  0  0  0  0  0  0  0  0
    2.3716   -5.7571    0.2504 H   0  0  0  0  0  0  0  0  0  0  0  0
    0.1190   -4.1924   -0.9009 H   0  0  0  0  0  0  0  0  0  0  0  0
   -1.3328   -6.1991   -0.6845 H   0  0  0  0  0  0  0  0  0  0  0  0
   -1.3086   -5.9932    3.4306 H   0  0  0  0  0  0  0  0  0  0  0  0
    0.1851   -3.9939    3.4222 H   0  0  0  0  0  0  0  0  0  0  0  0
  1  2  1  0  0  0  0
  1 21  1  0  0  0  0
  1 22  1  0  0  0  0
  1 23  1  0  0  0  0
  2  3  1  0  0  0  0
  2  4  1  0  0  0  0
  2 24  1  0  0  0  0
  3 25  1  0  0  0  0
  3 26  1  0  0  0  0
  3 27  1  0  0  0  0
  4  5  1  0  0  0  0
  4 12  2  0  0  0  0
  5  6  1  0  0  0  0
  6  7  1  0  0  0  0
  6 11  2  0  0  0  0
  7  8  2  0  0  0  0
  7 28  1  0  0  0  0
  8  9  1  0  0  0  0
  8 29  1  0  0  0  0
  9 10  2  0  0  0  0
  9 30  1  0  0  0  0
 10 11  1  0  0  0  0
 10 31  1  0  0  0  0
 11 12  1  0  0  0  0
 12 13  1  0  0  0  0
 13 14  2  0  0  0  0
 13 15  1  0  0  0  0
 15 16  1  0  0  0  0
 15 20  2  0  0  0  0
 16 17  2  0  0  0  0
 16 32  1  0  0  0  0
 17 18  1  0  0  0  0
 17 33  1  0  0  0  0
 18 19  2  0  0  0  0
 19 20  1  0  0  0  0
 19 34  1  0  0  0  0
 20 35  1  0  0  0  0
M  END
>  <Energy>
46.805

$$$$

 OpenBabel04232616063D

 29 30  0  0  0  0  0  0  0  0999 V2000
    1.4045    0.6235    0.1554 O   0  0  0  0  0  0  0  0  0  0  0  0
    2.4113    0.0229   -0.2467 N   0  3  0  0  0  0  0  0  0  0  0  0
    2.8150    0.0326   -1.4161 O   0  5  0  0  0  0  0  0  0  0  0  0
    3.1827   -0.7503    0.7371 C   0  0  0  0  0  0  0  0  0  0  0  0
    2.7717   -0.7796    2.0747 C   0  0  0  0  0  0  0  0  0  0  0  0
    3.5226   -1.4973    3.0116 C   0  0  0  0  0  0  0  0  0  0  0  0
    4.6876   -2.1779    2.6229 C   0  0  0  0  0  0  0  0  0  0  0  0
    5.5206   -2.9217    3.6455 C   0  0  0  0  0  0  0  0  0  0  0  0
    5.0763   -4.3036    3.7431 N   0  0  0  0  0  0  0  0  0  0  0  0
    5.6327   -5.1516    4.7069 C   0  0  0  0  0  0  0  0  0  0  0  0
    6.8044   -4.8602    5.4197 C   0  0  0  0  0  0  0  0  0  0  0  0
    7.3450   -5.7698    6.3373 C   0  0  0  0  0  0  0  0  0  0  0  0
    6.7410   -7.0093    6.5294 C   0  0  0  0  0  0  0  0  0  0  0  0
    5.6110   -7.3358    5.7892 C   0  0  0  0  0  0  0  0  0  0  0  0
    4.8791   -8.8805    5.9918 Cl  0  0  0  0  0  0  0  0  0  0  0  0
    5.0679   -6.4235    4.8803 C   0  0  0  0  0  0  0  0  0  0  0  0
    5.0693   -2.1629    1.2718 C   0  0  0  0  0  0  0  0  0  0  0  0
    4.3279   -1.4450    0.3285 C   0  0  0  0  0  0  0  0  0  0  0  0
    1.8802   -0.2494    2.4042 H   0  0  0  0  0  0  0  0  0  0  0  0
    3.2003   -1.5118    4.0515 H   0  0  0  0  0  0  0  0  0  0  0  0
    5.4391   -2.4113    4.6128 H   0  0  0  0  0  0  0  0  0  0  0  0
    6.5733   -2.8782    3.3397 H   0  0  0  0  0  0  0  0  0  0  0  0
    4.0650   -4.4035    3.6854 H   0  0  0  0  0  0  0  0  0  0  0  0
    7.3211   -3.9142    5.2887 H   0  0  0  0  0  0  0  0  0  0  0  0
    8.2415   -5.5093    6.8941 H   0  0  0  0  0  0  0  0  0  0  0  0
    7.1629   -7.7139    7.2408 H   0  0  0  0  0  0  0  0  0  0  0  0
    4.1986   -6.7123    4.2958 H   0  0  0  0  0  0  0  0  0  0  0  0
    5.9572   -2.7065    0.9499 H   0  0  0  0  0  0  0  0  0  0  0  0
    4.6557   -1.4378   -0.7087 H   0  0  0  0  0  0  0  0  0  0  0  0
  1  2  2  0  0  0  0
  2  3  1  0  0  0  0
  2  4  1  0  0  0  0
  4  5  1  0  0  0  0
  4 18  2  0  0  0  0
  5  6  2  0  0  0  0
  5 19  1  0  0  0  0
  6  7  1  0  0  0  0
  6 20  1  0  0  0  0
  7  8  1  0  0  0  0
  7 17  2  0  0  0  0
  8  9  1  0  0  0  0
  8 21  1  0  0  0  0
  8 22  1  0  0  0  0
  9 10  1  0  0  0  0
  9 23  1  0  0  0  0
 10 11  1  0  0  0  0
 10 16  2  0  0  0  0
 11 12  2  0  0  0  0
 11 24  1  0  0  0  0
 12 13  1  0  0  0  0
 12 25  1  0  0  0  0
 13 14  2  0  0  0  0
 13 26  1  0  0  0  0
 14 15  1  0  0  0  0
 14 16  1  0  0  0  0
 16 27  1  0  0  0  0
 17 18  1  0  0  0  0
 17 28  1  0  0  0  0
 18 29  1  0  0  0  0
M  CHG  2   2   1   3  -1
M  END
>  <Energy>
61.6215

$$$$

 OpenBabel04232616063D

 31 33  0  0  0  0  0  0  0  0999 V2000
    2.4778   -0.1302   -0.6229 C   0  0  0  0  0  0  0  0  0  0  0  0
    0.9966   -0.0863   -0.3928 C   0  0  0  0  0  0  0  0  0  0  0  0
    0.3900   -0.8812    0.5850 C   0  0  0  0  0  0  0  0  0  0  0  0
   -0.9930   -0.8237    0.7874 C   0  0  0  0  0  0  0  0  0  0  0  0
   -1.7894    0.0496    0.0394 C   0  0  0  0  0  0  0  0  0  0  0  0
   -3.1829    0.0695    0.2586 N   0  0  0  0  0  0  0  0  0  0  0  0
   -3.9592    1.1891    0.0832 C   0  0  0  0  0  0  0  0  0  0  0  0
   -3.5370    2.3871    0.3336 N   0  0  0  0  0  0  0  0  0  0  0  0
   -4.3197    3.5239    0.1526 C   0  0  0  0  0  0  0  0  0  0  0  0
   -3.8589    4.7161    0.7227 C   0  0  0  0  0  0  0  0  0  0  0  0
   -4.5365    5.9200    0.5196 C   0  0  0  0  0  0  0  0  0  0  0  0
   -5.6815    5.9450   -0.2717 C   0  0  0  0  0  0  0  0  0  0  0  0
   -6.1525    4.7647   -0.8460 C   0  0  0  0  0  0  0  0  0  0  0  0
   -5.4755    3.5568   -0.6195 C   0  0  0  0  0  0  0  0  0  0  0  0
   -5.9811    2.3154   -1.2140 C   0  0  0  0  0  0  0  0  0  0  0  0
   -6.7436    2.3461   -2.1726 O   0  0  0  0  0  0  0  0  0  0  0  0
   -5.5749    0.8001   -0.4517 S   0  0  0  0  0  0  0  0  0  0  0  0
   -1.1789    0.8264   -0.9527 C   0  0  0  0  0  0  0  0  0  0  0  0
    0.1993    0.7605   -1.1676 C   0  0  0  0  0  0  0  0  0  0  0  0
    2.9757   -0.7978    0.0874 H   0  0  0  0  0  0  0  0  0  0  0  0
    2.9077    0.8694   -0.5003 H   0  0  0  0  0  0  0  0  0  0  0  0
    2.6902   -0.4912   -1.6342 H   0  0  0  0  0  0  0  0  0  0  0  0
    0.9886   -1.5458    1.2038 H   0  0  0  0  0  0  0  0  0  0  0  0
   -1.4405   -1.4409    1.5626 H   0  0  0  0  0  0  0  0  0  0  0  0
   -3.6235   -0.7975   -0.0245 H   0  0  0  0  0  0  0  0  0  0  0  0
   -2.9508    4.7019    1.3220 H   0  0  0  0  0  0  0  0  0  0  0  0
   -4.1591    6.8356    0.9687 H   0  0  0  0  0  0  0  0  0  0  0  0
   -6.2045    6.8828   -0.4438 H   0  0  0  0  0  0  0  0  0  0  0  0
   -7.0456    4.7859   -1.4671 H   0  0  0  0  0  0  0  0  0  0  0  0
   -1.7690    1.4949   -1.5746 H   0  0  0  0  0  0  0  0  0  0  0  0
    0.6455    1.3807   -1.9418 H   0  0  0  0  0  0  0  0  0  0  0  0
  1  2  1  0  0  0  0
  1 20  1  0  0  0  0
  1 21  1  0  0  0  0
  1 22  1  0  0  0  0
  2  3  1  0  0  0  0
  2 19  2  0  0  0  0
  3  4  2  0  0  0  0
  3 23  1  0  0  0  0
  4  5  1  0  0  0  0
  4 24  1  0  0  0  0
  5  6  1  0  0  0  0
  5 18  2  0  0  0  0
  6  7  1  0  0  0  0
  6 25  1  0  0  0  0
  7  8  2  0  0  0  0
  7 17  1  0  0  0  0
  8  9  1  0  0  0  0
  9 10  1  0  0  0  0
  9 14  2  0  0  0  0
 10 11  2  0  0  0  0
 10 26  1  0  0  0  0
 11 12  1  0  0  0  0
 11 27  1  0  0  0  0
 12 13  2  0  0  0  0
 12 28  1  0  0  0  0
 13 14  1  0  0  0  0
 13 29  1  0  0  0  0
 14 15  1  0  0  0  0
 15 16  2  0  0  0  0
 15 17  1  0  0  0  0
 18 19  1  0  0  0  0
 18 30  1  0  0  0  0
 19 31  1  0  0  0  0
M  END
>  <Energy>
0.282249

$$$$

 OpenBabel04232616063D

 28 30  0  0  0  0  0  0  0  0999 V2000
    0.9484   -0.0122    0.1702 O   0  0  0  0  0  0  0  0  0  0  0  0
    2.3231   -0.0534    0.1213 C   0  0  0  0  0  0  0  0  0  0  0  0
    2.9502   -1.3002    0.1046 C   0  0  0  0  0  0  0  0  0  0  0  0
    4.3357   -1.3613    0.0586 C   0  0  0  0  0  0  0  0  0  0  0  0
    5.0807   -0.1812    0.0229 C   0  0  0  0  0  0  0  0  0  0  0  0
    6.8051   -0.3507   -0.0319 Cl  0  0  0  0  0  0  0  0  0  0  0  0
    4.4501    1.0887    0.0229 C   0  0  0  0  0  0  0  0  0  0  0  0
    5.1491    2.3159   -0.0406 C   0  0  0  0  0  0  0  0  0  0  0  0
    4.4596    3.5217   -0.0872 C   0  0  0  0  0  0  0  0  0  0  0  0
    3.0839    3.4746   -0.0611 C   0  0  0  0  0  0  0  0  0  0  0  0
    2.4154    4.6877   -0.0889 O   0  0  0  0  0  0  0  0  0  0  0  0
    1.2102    4.6929   -0.7717 C   0  0  0  0  0  0  0  0  0  0  0  0
    0.1908    5.4638   -0.2312 C   0  0  0  0  0  0  0  0  0  0  0  0
   -1.0268    5.5095   -0.9028 C   0  0  0  0  0  0  0  0  0  0  0  0
   -1.1784    4.7899   -2.0834 C   0  0  0  0  0  0  0  0  0  0  0  0
   -0.0893    4.0801   -2.5651 C   0  0  0  0  0  0  0  0  0  0  0  0
    1.1142    4.0466   -1.9574 N   0  0  0  0  0  0  0  0  0  0  0  0
    2.3803    2.3307    0.0827 N   0  0  0  0  0  0  0  0  0  0  0  0
    3.0385    1.1534    0.0814 C   0  0  0  0  0  0  0  0  0  0  0  0
    0.5881   -0.9024    0.0452 H   0  0  0  0  0  0  0  0  0  0  0  0
    2.3750   -2.2202    0.1304 H   0  0  0  0  0  0  0  0  0  0  0  0
    4.8319   -2.3289    0.0482 H   0  0  0  0  0  0  0  0  0  0  0  0
    6.2350    2.3432   -0.0733 H   0  0  0  0  0  0  0  0  0  0  0  0
    4.9841    4.4671   -0.1556 H   0  0  0  0  0  0  0  0  0  0  0  0
    0.3396    6.0030    0.6964 H   0  0  0  0  0  0  0  0  0  0  0  0
   -1.8520    6.0910   -0.5029 H   0  0  0  0  0  0  0  0  0  0  0  0
   -2.1219    4.7817   -2.6171 H   0  0  0  0  0  0  0  0  0  0  0  0
   -0.1596    3.4985   -3.4793 H   0  0  0  0  0  0  0  0  0  0  0  0
  1  2  1  0  0  0  0
  1 20  1  0  0  0  0
  2  3  1  0  0  0  0
  2 19  2  0  0  0  0
  3  4  2  0  0  0  0
  3 21  1  0  0  0  0
  4  5  1  0  0  0  0
  4 22  1  0  0  0  0
  5  6  1  0  0  0  0
  5  7  2  0  0  0  0
  7  8  1  0  0  0  0
  7 19  1  0  0  0  0
  8  9  2  0  0  0  0
  8 23  1  0  0  0  0
  9 10  1  0  0  0  0
  9 24  1  0  0  0  0
 10 11  1  0  0  0  0
 10 18  2  0  0  0  0
 11 12  1  0  0  0  0
 12 13  1  0  0  0  0
 12 17  2  0  0  0  0
 13 14  2  0  0  0  0
 13 25  1  0  0  0  0
 14 15  1  0  0  0  0
 14 26  1  0  0  0  0
 15 16  2  0  0  0  0
 15 27  1  0  0  0  0
 16 17  1  0  0  0  0
 16 28  1  0  0  0  0
 18 19  1  0  0  0  0
M  END
>  <Energy>
63.7474

$$$$

 OpenBabel04232616063D

 38 40  0  0  0  0  0  0  0  0999 V2000
    7.2227    0.9249   -1.6826 C   0  0  0  0  0  0  0  0  0  0  0  0
    6.6875    0.7898   -0.2638 C   0  0  0  0  0  0  0  0  0  0  0  0
    5.1630    0.8846   -0.2519 C   0  0  0  0  0  0  0  0  0  0  0  0
    4.5435    0.8230    1.1482 C   0  0  0  0  0  0  0  0  0  0  0  0
    5.0019    1.8186    2.1029 N   0  0  0  0  0  0  0  0  0  0  0  0
    4.8281    3.1925    2.0379 C   0  0  0  0  0  0  0  0  0  0  0  0
    4.2214    3.7944    0.9074 C   0  0  0  0  0  0  0  0  0  0  0  0
    4.5812    5.0279    0.5217 C   0  0  0  0  0  0  0  0  0  0  0  0
    4.0590    5.5872   -0.6771 C   0  0  0  0  0  0  0  0  0  0  0  0
    4.2780    6.8492   -1.2185 C   0  0  0  0  0  0  0  0  0  0  0  0
    3.5724    6.9298   -2.4432 C   0  0  0  0  0  0  0  0  0  0  0  0
    2.9542    5.7165   -2.5984 C   0  0  0  0  0  0  0  0  0  0  0  0
    3.2343    4.9064   -1.5503 O   0  0  0  0  0  0  0  0  0  0  0  0
    5.3245    3.7727    3.1135 N   0  0  0  0  0  0  0  0  0  0  0  0
    5.7995    2.7651    3.9101 C   0  0  0  0  0  0  0  0  0  0  0  0
    6.3832    2.8359    5.1837 C   0  0  0  0  0  0  0  0  0  0  0  0
    6.8064    1.6536    5.8016 C   0  0  0  0  0  0  0  0  0  0  0  0
    6.6631    0.4250    5.1576 C   0  0  0  0  0  0  0  0  0  0  0  0
    6.0790    0.3346    3.8884 C   0  0  0  0  0  0  0  0  0  0  0  0
    5.6421    1.5276    3.2936 C   0  0  0  0  0  0  0  0  0  0  0  0
    8.3131    0.8297   -1.6890 H   0  0  0  0  0  0  0  0  0  0  0  0
    6.9660    1.9022   -2.1043 H   0  0  0  0  0  0  0  0  0  0  0  0
    6.8078    0.1512   -2.3360 H   0  0  0  0  0  0  0  0  0  0  0  0
    7.1283    1.5808    0.3525 H   0  0  0  0  0  0  0  0  0  0  0  0
    7.0041   -0.1707    0.1577 H   0  0  0  0  0  0  0  0  0  0  0  0
    4.7489    0.0557   -0.8403 H   0  0  0  0  0  0  0  0  0  0  0  0
    4.8558    1.7982   -0.7699 H   0  0  0  0  0  0  0  0  0  0  0  0
    4.7235   -0.1703    1.5720 H   0  0  0  0  0  0  0  0  0  0  0  0
    3.4545    0.9326    1.0819 H   0  0  0  0  0  0  0  0  0  0  0  0
    3.4914    3.2363    0.3314 H   0  0  0  0  0  0  0  0  0  0  0  0
    5.3079    5.6016    1.0928 H   0  0  0  0  0  0  0  0  0  0  0  0
    4.8897    7.6217   -0.7727 H   0  0  0  0  0  0  0  0  0  0  0  0
    3.5249    7.7652   -3.1269 H   0  0  0  0  0  0  0  0  0  0  0  0
    2.3150    5.2917   -3.3595 H   0  0  0  0  0  0  0  0  0  0  0  0
    6.4918    3.7953    5.6759 H   0  0  0  0  0  0  0  0  0  0  0  0
    7.2519    1.6969    6.7926 H   0  0  0  0  0  0  0  0  0  0  0  0
    7.0070   -0.4812    5.6524 H   0  0  0  0  0  0  0  0  0  0  0  0
    5.9723   -0.6284    3.4015 H   0  0  0  0  0  0  0  0  0  0  0  0
  1  2  1  0  0  0  0
  1 21  1  0  0  0  0
  1 22  1  0  0  0  0
  1 23  1  0  0  0  0
  2  3  1  0  0  0  0
  2 24  1  0  0  0  0
  2 25  1  0  0  0  0
  3  4  1  0  0  0  0
  3 26  1  0  0  0  0
  3 27  1  0  0  0  0
  4  5  1  0  0  0  0
  4 28  1  0  0  0  0
  4 29  1  0  0  0  0
  5  6  1  0  0  0  0
  5 20  1  0  0  0  0
  6  7  1  0  0  0  0
  6 14  2  0  0  0  0
  7  8  2  0  0  0  0
  7 30  1  0  0  0  0
  8  9  1  0  0  0  0
  8 31  1  0  0  0  0
  9 10  2  0  0  0  0
  9 13  1  0  0  0  0
 10 11  1  0  0  0  0
 10 32  1  0  0  0  0
 11 12  2  0  0  0  0
 11 33  1  0  0  0  0
 12 13  1  0  0  0  0
 12 34  1  0  0  0  0
 14 15  1  0  0  0  0
 15 16  1  0  0  0  0
 15 20  2  0  0  0  0
 16 17  2  0  0  0  0
 16 35  1  0  0  0  0
 17 18  1  0  0  0  0
 17 36  1  0  0  0  0
 18 19  2  0  0  0  0
 18 37  1  0  0  0  0
 19 20  1  0  0  0  0
 19 38  1  0  0  0  0
M  END
>  <Energy>
10.741

$$$$

 OpenBabel04232616063D

 30 32  0  0  0  0  0  0  0  0999 V2000
   -2.3376    1.6164    0.1866 C   0  0  0  0  0  0  0  0  0  0  0  0
   -1.4981    0.4455    0.1134 N   0  0  0  0  0  0  0  0  0  0  0  0
   -1.9023   -0.8680   -0.0350 C   0  0  0  0  0  0  0  0  0  0  0  0
   -3.2114   -1.2019   -0.1468 N   0  0  0  0  0  0  0  0  0  0  0  0
   -3.7393   -2.3325   -0.8148 C   0  0  0  0  0  0  0  0  0  0  0  0
   -2.9521   -3.2719   -1.4959 C   0  0  0  0  0  0  0  0  0  0  0  0
   -3.5270   -4.3620   -2.1604 C   0  0  0  0  0  0  0  0  0  0  0  0
   -4.9062   -4.5405   -2.1392 C   0  0  0  0  0  0  0  0  0  0  0  0
   -5.6997   -3.6378   -1.4392 C   0  0  0  0  0  0  0  0  0  0  0  0
   -7.4072   -3.8561   -1.3998 Cl  0  0  0  0  0  0  0  0  0  0  0  0
   -5.1261   -2.5503   -0.7752 C   0  0  0  0  0  0  0  0  0  0  0  0
   -0.8526   -1.6623   -0.0552 N   0  0  0  0  0  0  0  0  0  0  0  0
    0.2493   -0.8539    0.0029 C   0  0  0  0  0  0  0  0  0  0  0  0
    1.6083   -1.1983   -0.0291 C   0  0  0  0  0  0  0  0  0  0  0  0
    2.5619   -0.1744   -0.0084 C   0  0  0  0  0  0  0  0  0  0  0  0
    2.1687    1.1636    0.0480 C   0  0  0  0  0  0  0  0  0  0  0  0
    0.8162    1.5233    0.1005 C   0  0  0  0  0  0  0  0  0  0  0  0
   -0.1201    0.4819    0.0810 C   0  0  0  0  0  0  0  0  0  0  0  0
   -3.3055    1.3637    0.6217 H   0  0  0  0  0  0  0  0  0  0  0  0
   -2.4636    2.0098   -0.8256 H   0  0  0  0  0  0  0  0  0  0  0  0
   -1.8598    2.3625    0.8270 H   0  0  0  0  0  0  0  0  0  0  0  0
   -3.9278   -0.5205    0.0639 H   0  0  0  0  0  0  0  0  0  0  0  0
   -1.8717   -3.1652   -1.5416 H   0  0  0  0  0  0  0  0  0  0  0  0
   -2.8900   -5.0611   -2.6941 H   0  0  0  0  0  0  0  0  0  0  0  0
   -5.3507   -5.3818   -2.6628 H   0  0  0  0  0  0  0  0  0  0  0  0
   -5.7712   -1.8668   -0.2300 H   0  0  0  0  0  0  0  0  0  0  0  0
    1.9028   -2.2401   -0.0821 H   0  0  0  0  0  0  0  0  0  0  0  0
    3.6186   -0.4273   -0.0457 H   0  0  0  0  0  0  0  0  0  0  0  0
    2.9277    1.9429    0.0504 H   0  0  0  0  0  0  0  0  0  0  0  0
    0.5200    2.5658    0.1418 H   0  0  0  0  0  0  0  0  0  0  0  0
  1  2  1  0  0  0  0
  1 19  1  0  0  0  0
  1 20  1  0  0  0  0
  1 21  1  0  0  0  0
  2  3  1  0  0  0  0
  2 18  1  0  0  0  0
  3  4  1  0  0  0  0
  3 12  2  0  0  0  0
  4  5  1  0  0  0  0
  4 22  1  0  0  0  0
  5  6  1  0  0  0  0
  5 11  2  0  0  0  0
  6  7  2  0  0  0  0
  6 23  1  0  0  0  0
  7  8  1  0  0  0  0
  7 24  1  0  0  0  0
  8  9  2  0  0  0  0
  8 25  1  0  0  0  0
  9 10  1  0  0  0  0
  9 11  1  0  0  0  0
 11 26  1  0  0  0  0
 12 13  1  0  0  0  0
 13 14  1  0  0  0  0
 13 18  2  0  0  0  0
 14 15  2  0  0  0  0
 14 27  1  0  0  0  0
 15 16  1  0  0  0  0
 15 28  1  0  0  0  0
 16 17  2  0  0  0  0
 16 29  1  0  0  0  0
 17 18  1  0  0  0  0
 17 30  1  0  0  0  0
M  END
>  <Energy>
9.99559

$$$$

 OpenBabel04232616063D

 29 32  0  0  0  0  0  0  0  0999 V2000
    0.5857    0.5608   -2.2114 C   0  0  0  0  0  0  0  0  0  0  0  0
   -0.3474    0.8839   -1.2365 C   0  0  0  0  0  0  0  0  0  0  0  0
   -0.9773   -0.1399   -0.5312 C   0  0  0  0  0  0  0  0  0  0  0  0
   -0.6481   -1.4607   -0.8228 C   0  0  0  0  0  0  0  0  0  0  0  0
   -1.4857   -2.7688    0.0514 S   0  0  0  0  0  0  0  0  0  0  0  0
   -0.2775   -4.0486    0.0090 C   0  0  0  0  0  0  0  0  0  0  0  0
    0.6029   -4.1704    1.0360 N   0  0  0  0  0  0  0  0  0  0  0  0
    1.4873   -5.1860    0.9948 C   0  0  0  0  0  0  0  0  0  0  0  0
    1.6102   -6.1426    0.0591 N   0  0  0  0  0  0  0  0  0  0  0  0
    0.7065   -6.0203   -0.9430 C   0  0  0  0  0  0  0  0  0  0  0  0
   -0.2349   -5.0033   -0.9907 C   0  0  0  0  0  0  0  0  0  0  0  0
   -1.0263   -5.1382   -2.0939 O   0  0  0  0  0  0  0  0  0  0  0  0
   -0.5804   -6.2406   -2.7619 C   0  0  0  0  0  0  0  0  0  0  0  0
   -1.1146   -6.7323   -3.9513 C   0  0  0  0  0  0  0  0  0  0  0  0
   -0.5180   -7.8835   -4.4781 C   0  0  0  0  0  0  0  0  0  0  0  0
    0.5579   -8.5005   -3.8339 C   0  0  0  0  0  0  0  0  0  0  0  0
    1.0747   -7.9839   -2.6374 C   0  0  0  0  0  0  0  0  0  0  0  0
    0.4906   -6.8252   -2.0918 C   0  0  0  0  0  0  0  0  0  0  0  0
    0.2549   -1.7907   -1.7746 N   0  0  0  0  0  0  0  0  0  0  0  0
    0.8506   -0.7783   -2.4422 C   0  0  0  0  0  0  0  0  0  0  0  0
    1.0934    1.3318   -2.7805 H   0  0  0  0  0  0  0  0  0  0  0  0
   -0.5875    1.9226   -1.0262 H   0  0  0  0  0  0  0  0  0  0  0  0
   -1.7126    0.0982    0.2307 H   0  0  0  0  0  0  0  0  0  0  0  0
    2.1840   -5.2423    1.8264 H   0  0  0  0  0  0  0  0  0  0  0  0
   -1.9500   -6.2441   -4.4382 H   0  0  0  0  0  0  0  0  0  0  0  0
   -0.9003   -8.3052   -5.4057 H   0  0  0  0  0  0  0  0  0  0  0  0
    1.0021   -9.3955   -4.2653 H   0  0  0  0  0  0  0  0  0  0  0  0
    1.9100   -8.4670   -2.1384 H   0  0  0  0  0  0  0  0  0  0  0  0
    1.5706   -1.0843   -3.1960 H   0  0  0  0  0  0  0  0  0  0  0  0
  1  2  1  0  0  0  0
  1 20  2  0  0  0  0
  1 21  1  0  0  0  0
  2  3  2  0  0  0  0
  2 22  1  0  0  0  0
  3  4  1  0  0  0  0
  3 23  1  0  0  0  0
  4  5  1  0  0  0  0
  4 19  2  0  0  0  0
  5  6  1  0  0  0  0
  6  7  1  0  0  0  0
  6 11  2  0  0  0  0
  7  8  2  0  0  0  0
  8  9  1  0  0  0  0
  8 24  1  0  0  0  0
  9 10  2  0  0  0  0
 10 11  1  0  0  0  0
 10 18  1  0  0  0  0
 11 12  1  0  0  0  0
 12 13  1  0  0  0  0
 13 14  1  0  0  0  0
 13 18  2  0  0  0  0
 14 15  2  0  0  0  0
 14 25  1  0  0  0  0
 15 16  1  0  0  0  0
 15 26  1  0  0  0  0
 16 17  2  0  0  0  0
 16 27  1  0  0  0  0
 17 18  1  0  0  0  0
 17 28  1  0  0  0  0
 19 20  1  0  0  0  0
 20 29  1  0  0  0  0
M  END
>  <Energy>
26.3049

$$$$

 OpenBabel04232616063D

 33 35  0  0  0  0  0  0  0  0999 V2000
    1.1359    0.0228   -0.2854 C   0  0  0  0  0  0  0  0  0  0  0  0
    2.5587   -0.0047   -0.2232 O   0  0  0  0  0  0  0  0  0  0  0  0
    3.1407   -1.1586    0.2329 C   0  0  0  0  0  0  0  0  0  0  0  0
    4.2742   -0.9313    1.0379 C   0  0  0  0  0  0  0  0  0  0  0  0
    5.0122   -1.9847    1.6003 C   0  0  0  0  0  0  0  0  0  0  0  0
    4.6556   -3.2931    1.2651 C   0  0  0  0  0  0  0  0  0  0  0  0
    3.5437   -3.5271    0.4368 C   0  0  0  0  0  0  0  0  0  0  0  0
    2.7840   -2.4731   -0.0783 C   0  0  0  0  0  0  0  0  0  0  0  0
    1.5109   -2.9153   -1.1569 Cl  0  0  0  0  0  0  0  0  0  0  0  0
    5.4685   -4.4701    1.7047 C   0  0  0  0  0  0  0  0  0  0  0  0
    6.6625   -4.1741    2.5945 C   0  0  0  0  0  0  0  0  0  0  0  0
    6.9079   -2.7816    2.9233 N   0  0  0  0  0  0  0  0  0  0  0  0
    6.1902   -1.7991    2.5060 C   0  0  0  0  0  0  0  0  0  0  0  0
    6.6262   -0.4482    2.9979 C   0  0  0  0  0  0  0  0  0  0  0  0
    8.0056   -0.2005    3.0984 C   0  0  0  0  0  0  0  0  0  0  0  0
    8.4771    1.0163    3.5939 C   0  0  0  0  0  0  0  0  0  0  0  0
    7.5771    1.9975    3.9929 C   0  0  0  0  0  0  0  0  0  0  0  0
    6.2039    1.7519    3.9260 C   0  0  0  0  0  0  0  0  0  0  0  0
    5.7301    0.5219    3.4550 C   0  0  0  0  0  0  0  0  0  0  0  0
    0.8190    1.0658   -0.1845 H   0  0  0  0  0  0  0  0  0  0  0  0
    0.6662   -0.5452    0.5251 H   0  0  0  0  0  0  0  0  0  0  0  0
    0.7910   -0.3147   -1.2660 H   0  0  0  0  0  0  0  0  0  0  0  0
    4.5656    0.1035    1.1946 H   0  0  0  0  0  0  0  0  0  0  0  0
    3.2887   -4.5509    0.1684 H   0  0  0  0  0  0  0  0  0  0  0  0
    5.8329   -4.9857    0.8058 H   0  0  0  0  0  0  0  0  0  0  0  0
    4.8115   -5.1830    2.2210 H   0  0  0  0  0  0  0  0  0  0  0  0
    7.5671   -4.5805    2.1240 H   0  0  0  0  0  0  0  0  0  0  0  0
    6.5507   -4.7301    3.5323 H   0  0  0  0  0  0  0  0  0  0  0  0
    8.7192   -0.9683    2.8057 H   0  0  0  0  0  0  0  0  0  0  0  0
    9.5485    1.1870    3.6806 H   0  0  0  0  0  0  0  0  0  0  0  0
    7.9413    2.9480    4.3746 H   0  0  0  0  0  0  0  0  0  0  0  0
    5.5033    2.5141    4.2539 H   0  0  0  0  0  0  0  0  0  0  0  0
    4.6599    0.3355    3.4750 H   0  0  0  0  0  0  0  0  0  0  0  0
  1  2  1  0  0  0  0
  1 20  1  0  0  0  0
  1 21  1  0  0  0  0
  1 22  1  0  0  0  0
  2  3  1  0  0  0  0
  3  4  1  0  0  0  0
  3  8  2  0  0  0  0
  4  5  2  0  0  0  0
  4 23  1  0  0  0  0
  5  6  1  0  0  0  0
  5 13  1  0  0  0  0
  6  7  2  0  0  0  0
  6 10  1  0  0  0  0
  7  8  1  0  0  0  0
  7 24  1  0  0  0  0
  8  9  1  0  0  0  0
 10 11  1  0  0  0  0
 10 25  1  0  0  0  0
 10 26  1  0  0  0  0
 11 12  1  0  0  0  0
 11 27  1  0  0  0  0
 11 28  1  0  0  0  0
 12 13  2  0  0  0  0
 13 14  1  0  0  0  0
 14 15  1  0  0  0  0
 14 19  2  0  0  0  0
 15 16  2  0  0  0  0
 15 29  1  0  0  0  0
 16 17  1  0  0  0  0
 16 30  1  0  0  0  0
 17 18  2  0  0  0  0
 17 31  1  0  0  0  0
 18 19  1  0  0  0  0
 18 32  1  0  0  0  0
 19 33  1  0  0  0  0
M  END
>  <Energy>
110.7

$$$$

 OpenBabel04232616063D

 38 40  0  0  0  0  0  0  0  0999 V2000
    1.2569   -0.0498   -0.3186 C   0  0  0  0  0  0  0  0  0  0  0  0
    2.7092   -0.1527   -0.2365 N   0  0  0  0  0  0  0  0  0  0  0  0
    3.3941    0.7094    0.7172 C   0  0  0  0  0  0  0  0  0  0  0  0
    3.3960   -1.1474   -0.9231 C   0  0  0  0  0  0  0  0  0  0  0  0
    2.7318   -2.0977   -1.7108 C   0  0  0  0  0  0  0  0  0  0  0  0
    3.4161   -3.0902   -2.4281 C   0  0  0  0  0  0  0  0  0  0  0  0
    4.8115   -3.1567   -2.4217 C   0  0  0  0  0  0  0  0  0  0  0  0
    5.5765   -4.1164   -3.2445 C   0  0  0  0  0  0  0  0  0  0  0  0
    5.0675   -4.6771   -4.3543 C   0  0  0  0  0  0  0  0  0  0  0  0
    5.7684   -5.5354   -5.3263 C   0  0  0  0  0  0  0  0  0  0  0  0
    6.6581   -6.5157   -4.9150 C   0  0  0  0  0  0  0  0  0  0  0  0
    7.2443   -7.3747   -5.7690 N   0  0  0  0  0  0  0  0  0  0  0  0
    6.9446   -7.3061   -7.1003 N   0  0  0  0  0  0  0  0  0  0  0  0
    6.0883   -6.3827   -7.5699 C   0  0  0  0  0  0  0  0  0  0  0  0
    5.7957   -6.3510   -8.9306 C   0  0  0  0  0  0  0  0  0  0  0  0
    4.9178   -5.4106   -9.4780 C   0  0  0  0  0  0  0  0  0  0  0  0
    4.3260   -4.4682   -8.6531 C   0  0  0  0  0  0  0  0  0  0  0  0
    4.6044   -4.4842   -7.2892 C   0  0  0  0  0  0  0  0  0  0  0  0
    5.4745   -5.4505   -6.7133 C   0  0  0  0  0  0  0  0  0  0  0  0
    5.4928   -2.2434   -1.6166 C   0  0  0  0  0  0  0  0  0  0  0  0
    4.7957   -1.2621   -0.8870 C   0  0  0  0  0  0  0  0  0  0  0  0
    0.8701    0.7828    0.2789 H   0  0  0  0  0  0  0  0  0  0  0  0
    0.7764   -0.9609    0.0546 H   0  0  0  0  0  0  0  0  0  0  0  0
    0.9386    0.1321   -1.3515 H   0  0  0  0  0  0  0  0  0  0  0  0
    2.7042    1.4061    1.2062 H   0  0  0  0  0  0  0  0  0  0  0  0
    4.1532    1.3201    0.2168 H   0  0  0  0  0  0  0  0  0  0  0  0
    3.8654    0.1173    1.5091 H   0  0  0  0  0  0  0  0  0  0  0  0
    1.6492   -2.0943   -1.7951 H   0  0  0  0  0  0  0  0  0  0  0  0
    2.8183   -3.7946   -2.9990 H   0  0  0  0  0  0  0  0  0  0  0  0
    6.6114   -4.2814   -2.9548 H   0  0  0  0  0  0  0  0  0  0  0  0
    4.0383   -4.4702   -4.6322 H   0  0  0  0  0  0  0  0  0  0  0  0
    6.9219   -6.6652   -3.8745 H   0  0  0  0  0  0  0  0  0  0  0  0
    6.2628   -7.0829   -9.5850 H   0  0  0  0  0  0  0  0  0  0  0  0
    4.7071   -5.4164  -10.5438 H   0  0  0  0  0  0  0  0  0  0  0  0
    3.6504   -3.7221   -9.0641 H   0  0  0  0  0  0  0  0  0  0  0  0
    4.1379   -3.7171   -6.6763 H   0  0  0  0  0  0  0  0  0  0  0  0
    6.5790   -2.2554   -1.5612 H   0  0  0  0  0  0  0  0  0  0  0  0
    5.3925   -0.5691   -0.3009 H   0  0  0  0  0  0  0  0  0  0  0  0
  1  2  1  0  0  0  0
  1 22  1  0  0  0  0
  1 23  1  0  0  0  0
  1 24  1  0  0  0  0
  2  3  1  0  0  0  0
  2  4  1  0  0  0  0
  3 25  1  0  0  0  0
  3 26  1  0  0  0  0
  3 27  1  0  0  0  0
  4  5  1  0  0  0  0
  4 21  2  0  0  0  0
  5  6  2  0  0  0  0
  5 28  1  0  0  0  0
  6  7  1  0  0  0  0
  6 29  1  0  0  0  0
  7  8  1  0  0  0  0
  7 20  2  0  0  0  0
  8  9  2  0  0  0  0
  8 30  1  0  0  0  0
  9 10  1  0  0  0  0
  9 31  1  0  0  0  0
 10 11  1  0  0  0  0
 10 19  2  0  0  0  0
 11 12  2  0  0  0  0
 11 32  1  0  0  0  0
 12 13  1  0  0  0  0
 13 14  2  0  0  0  0
 14 15  1  0  0  0  0
 14 19  1  0  0  0  0
 15 16  2  0  0  0  0
 15 33  1  0  0  0  0
 16 17  1  0  0  0  0
 16 34  1  0  0  0  0
 17 18  2  0  0  0  0
 17 35  1  0  0  0  0
 18 19  1  0  0  0  0
 18 36  1  0  0  0  0
 20 21  1  0  0  0  0
 20 37  1  0  0  0  0
 21 38  1  0  0  0  0
M  END
>  <Energy>
77.0962

$$$$

 OpenBabel04232616063D

 35 36  0  0  1  0  0  0  0  0999 V2000
    1.1169    0.6990    1.5158 C   0  0  0  0  0  0  0  0  0  0  0  0
    2.5424    0.6631    1.4301 O   0  0  0  0  0  0  0  0  0  0  0  0
    3.0375    1.2871    0.3274 C   0  0  0  0  0  0  0  0  0  0  0  0
    2.3642    1.8247   -0.5426 O   0  0  0  0  0  0  0  0  0  0  0  0
    4.5215    1.2641    0.3059 C   0  0  1  0  0  0  0  0  0  0  0  0
    5.2791    1.6247   -0.9555 C   0  0  2  0  0  0  0  0  0  0  0  0
    6.4882    0.8880   -1.3480 C   0  0  0  0  0  0  0  0  0  0  0  0
    6.5667   -0.4280   -1.6024 C   0  0  0  0  0  0  0  0  0  0  0  0
    7.7985   -1.1268   -2.0028 C   0  0  0  0  0  0  0  0  0  0  0  0
    9.0701   -0.7002   -1.5921 C   0  0  0  0  0  0  0  0  0  0  0  0
   10.2185   -1.3987   -1.9767 C   0  0  0  0  0  0  0  0  0  0  0  0
   10.1019   -2.5397   -2.7646 C   0  0  0  0  0  0  0  0  0  0  0  0
   11.5151   -3.3973   -3.2405 Cl  0  0  0  0  0  0  0  0  0  0  0  0
    8.8471   -2.9921   -3.1638 C   0  0  0  0  0  0  0  0  0  0  0  0
    7.6996   -2.2900   -2.7796 C   0  0  0  0  0  0  0  0  0  0  0  0
    5.3386    2.5514    0.2511 C   0  0  0  0  0  0  0  0  0  0  0  0
    4.6643    3.8940    0.1014 C   0  0  0  0  0  0  0  0  0  0  0  0
    6.5650    2.6066    1.1340 C   0  0  0  0  0  0  0  0  0  0  0  0
    0.8197    0.2472    2.4665 H   0  0  0  0  0  0  0  0  0  0  0  0
    0.6706    0.1194    0.7016 H   0  0  0  0  0  0  0  0  0  0  0  0
    0.7539    1.7318    1.4990 H   0  0  0  0  0  0  0  0  0  0  0  0
    4.9328    0.4554    0.9042 H   0  0  0  0  0  0  0  0  0  0  0  0
    4.6873    1.9484   -1.8086 H   0  0  0  0  0  0  0  0  0  0  0  0
    7.3764    1.5061   -1.4673 H   0  0  0  0  0  0  0  0  0  0  0  0
    5.6693   -1.0390   -1.5311 H   0  0  0  0  0  0  0  0  0  0  0  0
    9.1867    0.1768   -0.9601 H   0  0  0  0  0  0  0  0  0  0  0  0
   11.1948   -1.0473   -1.6541 H   0  0  0  0  0  0  0  0  0  0  0  0
    8.7530   -3.8871   -3.7728 H   0  0  0  0  0  0  0  0  0  0  0  0
    6.7274   -2.6577   -3.1019 H   0  0  0  0  0  0  0  0  0  0  0  0
    3.8231    3.8739   -0.5972 H   0  0  0  0  0  0  0  0  0  0  0  0
    5.3798    4.6297   -0.2818 H   0  0  0  0  0  0  0  0  0  0  0  0
    4.2958    4.2457    1.0702 H   0  0  0  0  0  0  0  0  0  0  0  0
    7.0396    1.6279    1.2612 H   0  0  0  0  0  0  0  0  0  0  0  0
    6.2940    2.9709    2.1308 H   0  0  0  0  0  0  0  0  0  0  0  0
    7.3080    3.2903    0.7098 H   0  0  0  0  0  0  0  0  0  0  0  0
  1  2  1  0  0  0  0
  1 19  1  0  0  0  0
  1 20  1  0  0  0  0
  1 21  1  0  0  0  0
  2  3  1  0  0  0  0
  3  4  2  0  0  0  0
  3  5  1  0  0  0  0
  5  6  1  0  0  0  0
  5 16  1  0  0  0  0
  5 22  1  1  0  0  0
  6  7  1  0  0  0  0
  6 16  1  0  0  0  0
  6 23  1  6  0  0  0
  7  8  2  0  0  0  0
  7 24  1  0  0  0  0
  8  9  1  0  0  0  0
  8 25  1  0  0  0  0
  9 10  1  0  0  0  0
  9 15  2  0  0  0  0
 10 11  2  0  0  0  0
 10 26  1  0  0  0  0
 11 12  1  0  0  0  0
 11 27  1  0  0  0  0
 12 13  1  0  0  0  0
 12 14  2  0  0  0  0
 14 15  1  0  0  0  0
 14 28  1  0  0  0  0
 15 29  1  0  0  0  0
 16 17  1  0  0  0  0
 16 18  1  0  0  0  0
 17 30  1  0  0  0  0
 17 31  1  0  0  0  0
 17 32  1  0  0  0  0
 18 33  1  0  0  0  0
 18 34  1  0  0  0  0
 18 35  1  0  0  0  0
M  END
>  <Energy>
30.1842

$$$$

 OpenBabel04232616063D

 35 37  0  0  0  0  0  0  0  0999 V2000
    1.1570    0.3392    0.0014 C   0  0  0  0  0  0  0  0  0  0  0  0
    2.6311    0.1663   -0.0185 C   0  0  0  0  0  0  0  0  0  0  0  0
    3.1387   -1.1016   -0.1526 N   0  0  0  0  0  0  0  0  0  0  0  0
    4.4381   -0.9443   -0.1604 C   0  0  0  0  0  0  0  0  0  0  0  0
    5.5444   -2.2484   -0.4352 S   0  0  0  0  0  0  0  0  0  0  0  0
    4.8185    0.3684    0.0595 N   0  0  0  0  0  0  0  0  0  0  0  0
    6.1224    0.8755    0.1536 N   0  0  0  0  0  0  0  0  0  0  0  0
    7.0755    0.3705    1.0732 C   0  0  0  0  0  0  0  0  0  0  0  0
    8.4404    0.4927    0.7819 C   0  0  0  0  0  0  0  0  0  0  0  0
    9.4076   -0.0453    1.6370 C   0  0  0  0  0  0  0  0  0  0  0  0
    9.0206   -0.6837    2.8125 C   0  0  0  0  0  0  0  0  0  0  0  0
    7.6716   -0.7496    3.1505 C   0  0  0  0  0  0  0  0  0  0  0  0
    6.7067   -0.2045    2.2977 C   0  0  0  0  0  0  0  0  0  0  0  0
    3.6459    1.1236    0.0483 C   0  0  0  0  0  0  0  0  0  0  0  0
    3.5619    2.5938    0.0592 C   0  0  0  0  0  0  0  0  0  0  0  0
    2.5977    3.2450   -0.7297 C   0  0  0  0  0  0  0  0  0  0  0  0
    2.4774    4.6363   -0.7309 C   0  0  0  0  0  0  0  0  0  0  0  0
    3.3331    5.4082    0.0470 C   0  0  0  0  0  0  0  0  0  0  0  0
    4.3049    4.7834    0.8277 C   0  0  0  0  0  0  0  0  0  0  0  0
    4.4119    3.3876    0.8385 C   0  0  0  0  0  0  0  0  0  0  0  0
    0.6605   -0.6147    0.2073 H   0  0  0  0  0  0  0  0  0  0  0  0
    0.7977    0.6953   -0.9683 H   0  0  0  0  0  0  0  0  0  0  0  0
    0.8547    1.0486    0.7773 H   0  0  0  0  0  0  0  0  0  0  0  0
    4.6400   -3.2284   -0.3077 H   0  0  0  0  0  0  0  0  0  0  0  0
    6.5135    0.9871   -0.7768 H   0  0  0  0  0  0  0  0  0  0  0  0
    8.7673    0.9794   -0.1336 H   0  0  0  0  0  0  0  0  0  0  0  0
   10.4605    0.0235    1.3778 H   0  0  0  0  0  0  0  0  0  0  0  0
    9.7686   -1.1233    3.4665 H   0  0  0  0  0  0  0  0  0  0  0  0
    7.3655   -1.2361    4.0737 H   0  0  0  0  0  0  0  0  0  0  0  0
    5.6623   -0.2692    2.5901 H   0  0  0  0  0  0  0  0  0  0  0  0
    1.9288    2.6777   -1.3700 H   0  0  0  0  0  0  0  0  0  0  0  0
    1.7141    5.1169   -1.3409 H   0  0  0  0  0  0  0  0  0  0  0  0
    3.2476    6.4914    0.0459 H   0  0  0  0  0  0  0  0  0  0  0  0
    4.9800    5.3835    1.4319 H   0  0  0  0  0  0  0  0  0  0  0  0
    5.1700    2.9354    1.4728 H   0  0  0  0  0  0  0  0  0  0  0  0
  1  2  1  0  0  0  0
  1 21  1  0  0  0  0
  1 22  1  0  0  0  0
  1 23  1  0  0  0  0
  2  3  1  0  0  0  0
  2 14  2  0  0  0  0
  3  4  2  0  0  0  0
  4  5  1  0  0  0  0
  4  6  1  0  0  0  0
  5 24  1  0  0  0  0
  6  7  1  0  0  0  0
  6 14  1  0  0  0  0
  7  8  1  0  0  0  0
  7 25  1  0  0  0  0
  8  9  1  0  0  0  0
  8 13  2  0  0  0  0
  9 10  2  0  0  0  0
  9 26  1  0  0  0  0
 10 11  1  0  0  0  0
 10 27  1  0  0  0  0
 11 12  2  0  0  0  0
 11 28  1  0  0  0  0
 12 13  1  0  0  0  0
 12 29  1  0  0  0  0
 13 30  1  0  0  0  0
 14 15  1  0  0  0  0
 15 16  1  0  0  0  0
 15 20  2  0  0  0  0
 16 17  2  0  0  0  0
 16 31  1  0  0  0  0
 17 18  1  0  0  0  0
 17 32  1  0  0  0  0
 18 19  2  0  0  0  0
 18 33  1  0  0  0  0
 19 20  1  0  0  0  0
 19 34  1  0  0  0  0
 20 35  1  0  0  0  0
M  END
>  <Energy>
45.1726

$$$$

 OpenBabel04232616063D

 25 26  0  0  0  0  0  0  0  0999 V2000
   -1.6089    0.2280   -0.1300 Br  0  0  0  0  0  0  0  0  0  0  0  0
    0.2742    0.0714   -0.0688 C   0  0  0  0  0  0  0  0  0  0  0  0
    0.8555   -1.0068    0.5913 C   0  0  0  0  0  0  0  0  0  0  0  0
    2.2490   -1.1212    0.6415 C   0  0  0  0  0  0  0  0  0  0  0  0
    3.0745   -0.1798    0.0067 C   0  0  0  0  0  0  0  0  0  0  0  0
    4.5915   -0.2446    0.0651 C   0  0  0  0  0  0  0  0  0  0  0  0
    5.2780   -1.9347    0.0066 S   0  0  0  0  0  0  0  0  0  0  0  0
    7.0243   -1.5879    0.1093 C   0  0  0  0  0  0  0  0  0  0  0  0
    7.9139   -2.6567    0.1715 C   0  0  0  0  0  0  0  0  0  0  0  0
    9.2806   -2.3939    0.2219 C   0  0  0  0  0  0  0  0  0  0  0  0
    9.7188   -1.0765    0.2112 C   0  0  0  0  0  0  0  0  0  0  0  0
    8.7651   -0.0745    0.1556 C   0  0  0  0  0  0  0  0  0  0  0  0
    7.4331   -0.3001    0.1053 N   0  0  0  0  0  0  0  0  0  0  0  0
    2.4639    0.9137   -0.6335 C   0  0  0  0  0  0  0  0  0  0  0  0
    1.0699    1.0374   -0.6740 C   0  0  0  0  0  0  0  0  0  0  0  0
    0.2408   -1.7613    1.0732 H   0  0  0  0  0  0  0  0  0  0  0  0
    2.6762   -1.9634    1.1814 H   0  0  0  0  0  0  0  0  0  0  0  0
    4.9182    0.2587    0.9818 H   0  0  0  0  0  0  0  0  0  0  0  0
    4.9980    0.2998   -0.7951 H   0  0  0  0  0  0  0  0  0  0  0  0
    7.5563   -3.6815    0.1757 H   0  0  0  0  0  0  0  0  0  0  0  0
    9.9950   -3.2115    0.2652 H   0  0  0  0  0  0  0  0  0  0  0  0
   10.7750   -0.8359    0.2443 H   0  0  0  0  0  0  0  0  0  0  0  0
    9.0564    0.9723    0.1469 H   0  0  0  0  0  0  0  0  0  0  0  0
    3.0717    1.6838   -1.1043 H   0  0  0  0  0  0  0  0  0  0  0  0
    0.6225    1.8902   -1.1772 H   0  0  0  0  0  0  0  0  0  0  0  0
  1  2  1  0  0  0  0
  2  3  1  0  0  0  0
  2 15  2  0  0  0  0
  3  4  2  0  0  0  0
  3 16  1  0  0  0  0
  4  5  1  0  0  0  0
  4 17  1  0  0  0  0
  5  6  1  0  0  0  0
  5 14  2  0  0  0  0
  6  7  1  0  0  0  0
  6 18  1  0  0  0  0
  6 19  1  0  0  0  0
  7  8  1  0  0  0  0
  8  9  1  0  0  0  0
  8 13  2  0  0  0  0
  9 10  2  0  0  0  0
  9 20  1  0  0  0  0
 10 11  1  0  0  0  0
 10 21  1  0  0  0  0
 11 12  2  0  0  0  0
 11 22  1  0  0  0  0
 12 13  1  0  0  0  0
 12 23  1  0  0  0  0
 14 15  1  0  0  0  0
 14 24  1  0  0  0  0
 15 25  1  0  0  0  0
M  END
>  <Energy>
23.4225

$$$$

 OpenBabel04232616063D

 35 37  0  0  0  0  0  0  0  0999 V2000
    1.8265   -0.7991   -1.0760 C   0  0  0  0  0  0  0  0  0  0  0  0
    3.0730   -0.3540   -0.5554 O   0  0  0  0  0  0  0  0  0  0  0  0
    3.5057   -0.9433    0.6014 C   0  0  0  0  0  0  0  0  0  0  0  0
    2.8171   -1.9086    1.3343 C   0  0  0  0  0  0  0  0  0  0  0  0
    3.3776   -2.4289    2.5021 C   0  0  0  0  0  0  0  0  0  0  0  0
    4.6286   -1.9901    2.9399 C   0  0  0  0  0  0  0  0  0  0  0  0
    5.3418   -1.0331    2.2091 C   0  0  0  0  0  0  0  0  0  0  0  0
    6.6462   -0.5108    2.6502 C   0  0  0  0  0  0  0  0  0  0  0  0
    7.5638   -1.2223    3.3265 C   0  0  0  0  0  0  0  0  0  0  0  0
    8.8331   -0.7021    3.8076 C   0  0  0  0  0  0  0  0  0  0  0  0
    9.6431   -1.4439    4.5773 C   0  0  0  0  0  0  0  0  0  0  0  0
   10.8824   -0.8516    5.1079 C   0  0  0  0  0  0  0  0  0  0  0  0
   11.6599   -1.5122    5.7812 O   0  0  0  0  0  0  0  0  0  0  0  0
   11.1103    0.5679    4.8011 C   0  0  0  0  0  0  0  0  0  0  0  0
   12.1890    1.2599    5.3590 C   0  0  0  0  0  0  0  0  0  0  0  0
   12.3817    2.6051    5.0404 C   0  0  0  0  0  0  0  0  0  0  0  0
   11.5106    3.2458    4.1565 C   0  0  0  0  0  0  0  0  0  0  0  0
   10.4305    2.5507    3.6081 C   0  0  0  0  0  0  0  0  0  0  0  0
   10.2220    1.2141    3.9465 C   0  0  0  0  0  0  0  0  0  0  0  0
    9.1149    0.5992    3.4202 O   0  0  0  0  0  0  0  0  0  0  0  0
    4.7577   -0.5046    1.0496 C   0  0  0  0  0  0  0  0  0  0  0  0
    1.6659   -0.2970   -2.0349 H   0  0  0  0  0  0  0  0  0  0  0  0
    1.0040   -0.5202   -0.4092 H   0  0  0  0  0  0  0  0  0  0  0  0
    1.8338   -1.8776   -1.2659 H   0  0  0  0  0  0  0  0  0  0  0  0
    1.8420   -2.2733    1.0299 H   0  0  0  0  0  0  0  0  0  0  0  0
    2.8351   -3.1756    3.0773 H   0  0  0  0  0  0  0  0  0  0  0  0
    5.0266   -2.3970    3.8659 H   0  0  0  0  0  0  0  0  0  0  0  0
    6.8370    0.5286    2.3898 H   0  0  0  0  0  0  0  0  0  0  0  0
    7.3619   -2.2643    3.5652 H   0  0  0  0  0  0  0  0  0  0  0  0
    9.4313   -2.4645    4.8699 H   0  0  0  0  0  0  0  0  0  0  0  0
   12.8692    0.7579    6.0436 H   0  0  0  0  0  0  0  0  0  0  0  0
   13.2119    3.1534    5.4796 H   0  0  0  0  0  0  0  0  0  0  0  0
   11.6693    4.2908    3.8998 H   0  0  0  0  0  0  0  0  0  0  0  0
    9.7498    3.0533    2.9260 H   0  0  0  0  0  0  0  0  0  0  0  0
    5.2792    0.2560    0.4717 H   0  0  0  0  0  0  0  0  0  0  0  0
  1  2  1  0  0  0  0
  1 22  1  0  0  0  0
  1 23  1  0  0  0  0
  1 24  1  0  0  0  0
  2  3  1  0  0  0  0
  3  4  1  0  0  0  0
  3 21  2  0  0  0  0
  4  5  2  0  0  0  0
  4 25  1  0  0  0  0
  5  6  1  0  0  0  0
  5 26  1  0  0  0  0
  6  7  2  0  0  0  0
  6 27  1  0  0  0  0
  7  8  1  0  0  0  0
  7 21  1  0  0  0  0
  8  9  2  0  0  0  0
  8 28  1  0  0  0  0
  9 10  1  0  0  0  0
  9 29  1  0  0  0  0
 10 11  2  0  0  0  0
 10 20  1  0  0  0  0
 11 12  1  0  0  0  0
 11 30  1  0  0  0  0
 12 13  2  0  0  0  0
 12 14  1  0  0  0  0
 14 15  1  0  0  0  0
 14 19  2  0  0  0  0
 15 16  2  0  0  0  0
 15 31  1  0  0  0  0
 16 17  1  0  0  0  0
 16 32  1  0  0  0  0
 17 18  2  0  0  0  0
 17 33  1  0  0  0  0
 18 19  1  0  0  0  0
 18 34  1  0  0  0  0
 19 20  1  0  0  0  0
 21 35  1  0  0  0  0
M  END
>  <Energy>
51.6485

$$$$

 OpenBabel04232616063D

 30 31  0  0  0  0  0  0  0  0999 V2000
    0.9236    0.0819    0.0565 C   0  0  0  0  0  0  0  0  0  0  0  0
    2.3282   -0.0882   -0.1023 O   0  0  0  0  0  0  0  0  0  0  0  0
    2.8700    0.3874   -1.2678 C   0  0  0  0  0  0  0  0  0  0  0  0
    2.2831    1.3875   -2.0413 C   0  0  0  0  0  0  0  0  0  0  0  0
    2.9037    1.8368   -3.2119 C   0  0  0  0  0  0  0  0  0  0  0  0
    4.1233    1.3027   -3.6351 C   0  0  0  0  0  0  0  0  0  0  0  0
    4.7780    1.7181   -4.8182 N   0  0  0  0  0  0  0  0  0  0  0  0
    4.4626    2.8366   -5.5717 C   0  0  0  0  0  0  0  0  0  0  0  0
    3.6446    3.6968   -5.2491 O   0  0  0  0  0  0  0  0  0  0  0  0
    5.1781    3.0309   -6.8642 C   0  0  0  0  0  0  0  0  0  0  0  0
    4.9008    4.1981   -7.5982 C   0  0  0  0  0  0  0  0  0  0  0  0
    5.5006    4.4237   -8.8377 C   0  0  0  0  0  0  0  0  0  0  0  0
    6.3861    3.4848   -9.3615 C   0  0  0  0  0  0  0  0  0  0  0  0
    6.6755    2.3259   -8.6406 C   0  0  0  0  0  0  0  0  0  0  0  0
    6.0743    2.1058   -7.3996 C   0  0  0  0  0  0  0  0  0  0  0  0
    6.3815    0.9790   -6.7386 F   0  0  0  0  0  0  0  0  0  0  0  0
    4.7131    0.2961   -2.8676 C   0  0  0  0  0  0  0  0  0  0  0  0
    4.0997   -0.1437   -1.6845 C   0  0  0  0  0  0  0  0  0  0  0  0
    4.9022   -1.3705   -0.7634 Cl  0  0  0  0  0  0  0  0  0  0  0  0
    0.6150   -0.4816    0.9417 H   0  0  0  0  0  0  0  0  0  0  0  0
    0.3765   -0.3198   -0.8038 H   0  0  0  0  0  0  0  0  0  0  0  0
    0.6678    1.1325    0.2296 H   0  0  0  0  0  0  0  0  0  0  0  0
    1.3449    1.8560   -1.7623 H   0  0  0  0  0  0  0  0  0  0  0  0
    2.3880    2.6015   -3.7828 H   0  0  0  0  0  0  0  0  0  0  0  0
    5.5736    1.1618   -5.1154 H   0  0  0  0  0  0  0  0  0  0  0  0
    4.2041    4.9384   -7.2062 H   0  0  0  0  0  0  0  0  0  0  0  0
    5.2689    5.3301   -9.3923 H   0  0  0  0  0  0  0  0  0  0  0  0
    6.8476    3.6569  -10.3309 H   0  0  0  0  0  0  0  0  0  0  0  0
    7.3640    1.5884   -9.0426 H   0  0  0  0  0  0  0  0  0  0  0  0
    5.6613   -0.1423   -3.1653 H   0  0  0  0  0  0  0  0  0  0  0  0
  1  2  1  0  0  0  0
  1 20  1  0  0  0  0
  1 21  1  0  0  0  0
  1 22  1  0  0  0  0
  2  3  1  0  0  0  0
  3  4  1  0  0  0  0
  3 18  2  0  0  0  0
  4  5  2  0  0  0  0
  4 23  1  0  0  0  0
  5  6  1  0  0  0  0
  5 24  1  0  0  0  0
  6  7  1  0  0  0  0
  6 17  2  0  0  0  0
  7  8  1  0  0  0  0
  7 25  1  0  0  0  0
  8  9  2  0  0  0  0
  8 10  1  0  0  0  0
 10 11  1  0  0  0  0
 10 15  2  0  0  0  0
 11 12  2  0  0  0  0
 11 26  1  0  0  0  0
 12 13  1  0  0  0  0
 12 27  1  0  0  0  0
 13 14  2  0  0  0  0
 13 28  1  0  0  0  0
 14 15  1  0  0  0  0
 14 29  1  0  0  0  0
 15 16  1  0  0  0  0
 17 18  1  0  0  0  0
 17 30  1  0  0  0  0
 18 19  1  0  0  0  0
M  END
>  <Energy>
40.577

$$$$

 OpenBabel04232616063D

 26 27  0  0  0  0  0  0  0  0999 V2000
   -2.5254   -0.2754   -0.1275 C   0  0  0  0  0  0  0  0  0  0  0  0
   -1.0558   -0.0735   -0.1691 C   0  0  0  0  0  0  0  0  0  0  0  0
   -0.0999   -1.0578   -0.3087 C   0  0  0  0  0  0  0  0  0  0  0  0
    1.4593   -0.3648   -0.3066 S   0  0  0  0  0  0  0  0  0  0  0  0
    0.7633    1.2106   -0.1215 C   0  0  0  0  0  0  0  0  0  0  0  0
    1.5164    2.3410   -0.0415 N   0  0  0  0  0  0  0  0  0  0  0  0
    2.8725    2.3390   -0.1001 N   0  0  0  0  0  0  0  0  0  0  0  0
    3.4727    3.4744    0.0441 C   0  0  0  0  0  0  0  0  0  0  0  0
    4.9465    3.5407    0.0218 C   0  0  0  0  0  0  0  0  0  0  0  0
    5.6753    2.5820   -0.6910 C   0  0  0  0  0  0  0  0  0  0  0  0
    5.0647    1.6483   -1.4349 F   0  0  0  0  0  0  0  0  0  0  0  0
    7.0686    2.5811   -0.6804 C   0  0  0  0  0  0  0  0  0  0  0  0
    7.7563    3.5472    0.0472 C   0  0  0  0  0  0  0  0  0  0  0  0
    7.0429    4.5208    0.7482 C   0  0  0  0  0  0  0  0  0  0  0  0
    5.6409    4.5240    0.7336 C   0  0  0  0  0  0  0  0  0  0  0  0
    4.8425    5.7508    1.6526 Cl  0  0  0  0  0  0  0  0  0  0  0  0
   -0.5533    1.2158   -0.0612 N   0  0  0  0  0  0  0  0  0  0  0  0
   -2.7832   -1.3354   -0.2222 H   0  0  0  0  0  0  0  0  0  0  0  0
   -3.0061    0.2660   -0.9478 H   0  0  0  0  0  0  0  0  0  0  0  0
   -2.9327    0.0905    0.8197 H   0  0  0  0  0  0  0  0  0  0  0  0
   -0.2376   -2.1241   -0.4102 H   0  0  0  0  0  0  0  0  0  0  0  0
    0.9936    3.2053    0.0762 H   0  0  0  0  0  0  0  0  0  0  0  0
    2.9090    4.4073    0.2165 H   0  0  0  0  0  0  0  0  0  0  0  0
    7.6031    1.8190   -1.2407 H   0  0  0  0  0  0  0  0  0  0  0  0
    8.8437    3.5415    0.0681 H   0  0  0  0  0  0  0  0  0  0  0  0
    7.5885    5.2713    1.3170 H   0  0  0  0  0  0  0  0  0  0  0  0
  1  2  1  0  0  0  0
  1 18  1  0  0  0  0
  1 19  1  0  0  0  0
  1 20  1  0  0  0  0
  2  3  2  0  0  0  0
  2 17  1  0  0  0  0
  3  4  1  0  0  0  0
  3 21  1  0  0  0  0
  4  5  1  0  0  0  0
  5  6  1  0  0  0  0
  5 17  2  0  0  0  0
  6  7  1  0  0  0  0
  6 22  1  0  0  0  0
  7  8  2  0  0  0  0
  8  9  1  0  0  0  0
  8 23  1  0  0  0  0
  9 10  1  0  0  0  0
  9 15  2  0  0  0  0
 10 11  1  0  0  0  0
 10 12  2  0  0  0  0
 12 13  1  0  0  0  0
 12 24  1  0  0  0  0
 13 14  2  0  0  0  0
 13 25  1  0  0  0  0
 14 15  1  0  0  0  0
 14 26  1  0  0  0  0
 15 16  1  0  0  0  0
M  END
>  <Energy>
41.3381

$$$$

 OpenBabel04232616063D

 38 40  0  0  0  0  0  0  0  0999 V2000
    0.9720    0.0927    2.5378 C   0  0  0  0  0  0  0  0  0  0  0  0
    2.1113   -0.9143    2.3720 C   0  0  0  0  0  0  0  0  0  0  0  0
    1.5394   -2.2435    1.8795 C   0  0  0  0  0  0  0  0  0  0  0  0
    3.0273   -0.3658    1.4070 O   0  0  0  0  0  0  0  0  0  0  0  0
    4.3555   -0.5813    1.6354 C   0  0  0  0  0  0  0  0  0  0  0  0
    4.8941   -1.7771    2.1179 C   0  0  0  0  0  0  0  0  0  0  0  0
    6.2795   -1.9267    2.3176 C   0  0  0  0  0  0  0  0  0  0  0  0
    7.1556   -0.8800    2.0392 C   0  0  0  0  0  0  0  0  0  0  0  0
    6.6102    0.2837    1.5317 C   0  0  0  0  0  0  0  0  0  0  0  0
    5.2393    0.4354    1.3056 C   0  0  0  0  0  0  0  0  0  0  0  0
    4.9318    1.7662    0.6957 C   0  0  0  0  0  0  0  0  0  0  0  0
    6.2872    2.4262    0.5636 C   0  0  0  0  0  0  0  0  0  0  0  0
    6.5870    3.5994   -0.0117 C   0  0  0  0  0  0  0  0  0  0  0  0
    5.5300    4.3722   -0.6626 C   0  0  0  0  0  0  0  0  0  0  0  0
    4.7804    5.3052    0.0495 C   0  0  0  0  0  0  0  0  0  0  0  0
    3.6891    5.8796   -0.5811 C   0  0  0  0  0  0  0  0  0  0  0  0
    3.3098    5.5894   -1.8453 N   0  0  0  0  0  0  0  0  0  0  0  0
    4.0628    4.6923   -2.5158 C   0  0  0  0  0  0  0  0  0  0  0  0
    5.1733    4.0678   -1.9769 C   0  0  0  0  0  0  0  0  0  0  0  0
    7.3154    1.5086    1.1270 C   0  0  0  0  0  0  0  0  0  0  0  0
    8.5113    1.7101    1.2210 O   0  0  0  0  0  0  0  0  0  0  0  0
    0.2184   -0.2763    3.2425 H   0  0  0  0  0  0  0  0  0  0  0  0
    0.4824    0.2976    1.5793 H   0  0  0  0  0  0  0  0  0  0  0  0
    1.3530    1.0482    2.9130 H   0  0  0  0  0  0  0  0  0  0  0  0
    2.5863   -1.0360    3.3543 H   0  0  0  0  0  0  0  0  0  0  0  0
    1.4117   -2.2460    0.7927 H   0  0  0  0  0  0  0  0  0  0  0  0
    0.5789   -2.4707    2.3539 H   0  0  0  0  0  0  0  0  0  0  0  0
    2.2082   -3.0729    2.1241 H   0  0  0  0  0  0  0  0  0  0  0  0
    4.2623   -2.6314    2.3279 H   0  0  0  0  0  0  0  0  0  0  0  0
    6.6659   -2.8742    2.6860 H   0  0  0  0  0  0  0  0  0  0  0  0
    8.2252   -0.9782    2.1924 H   0  0  0  0  0  0  0  0  0  0  0  0
    4.2808    2.3480    1.3559 H   0  0  0  0  0  0  0  0  0  0  0  0
    4.4671    1.6300   -0.2864 H   0  0  0  0  0  0  0  0  0  0  0  0
    7.6051    3.9753   -0.0671 H   0  0  0  0  0  0  0  0  0  0  0  0
    5.0146    5.5587    1.0774 H   0  0  0  0  0  0  0  0  0  0  0  0
    3.0586    6.5977   -0.0650 H   0  0  0  0  0  0  0  0  0  0  0  0
    3.7293    4.4652   -3.5245 H   0  0  0  0  0  0  0  0  0  0  0  0
    5.7221    3.3336   -2.5569 H   0  0  0  0  0  0  0  0  0  0  0  0
  1  2  1  0  0  0  0
  1 22  1  0  0  0  0
  1 23  1  0  0  0  0
  1 24  1  0  0  0  0
  2  3  1  0  0  0  0
  2  4  1  0  0  0  0
  2 25  1  0  0  0  0
  3 26  1  0  0  0  0
  3 27  1  0  0  0  0
  3 28  1  0  0  0  0
  4  5  1  0  0  0  0
  5  6  1  0  0  0  0
  5 10  2  0  0  0  0
  6  7  2  0  0  0  0
  6 29  1  0  0  0  0
  7  8  1  0  0  0  0
  7 30  1  0  0  0  0
  8  9  2  0  0  0  0
  8 31  1  0  0  0  0
  9 10  1  0  0  0  0
  9 20  1  0  0  0  0
 10 11  1  0  0  0  0
 11 12  1  0  0  0  0
 11 32  1  0  0  0  0
 11 33  1  0  0  0  0
 12 13  2  0  0  0  0
 12 20  1  0  0  0  0
 13 14  1  0  0  0  0
 13 34  1  0  0  0  0
 14 15  1  0  0  0  0
 14 19  2  0  0  0  0
 15 16  2  0  0  0  0
 15 35  1  0  0  0  0
 16 17  1  0  0  0  0
 16 36  1  0  0  0  0
 17 18  2  0  0  0  0
 18 19  1  0  0  0  0
 18 37  1  0  0  0  0
 19 38  1  0  0  0  0
 20 21  2  0  0  0  0
M  END
>  <Energy>
56.2729

$$$$

 OpenBabel04232616063D

 34 36  0  0  0  0  0  0  0  0999 V2000
    0.9773   -0.1193    0.1145 C   0  0  0  0  0  0  0  0  0  0  0  0
    2.4743   -0.1454    0.1171 C   0  0  0  0  0  0  0  0  0  0  0  0
    3.0862   -1.3414    0.1792 N   0  0  0  0  0  0  0  0  0  0  0  0
    4.4285   -1.3475    0.1078 C   0  0  0  0  0  0  0  0  0  0  0  0
    5.1149   -2.5782    0.1705 N   0  0  0  0  0  0  0  0  0  0  0  0
    4.2953   -3.7667    0.3510 C   0  0  0  0  0  0  0  0  0  0  0  0
    5.2123   -4.9750    0.3716 C   0  0  0  0  0  0  0  0  0  0  0  0
    6.1664   -5.1237    1.3949 C   0  0  0  0  0  0  0  0  0  0  0  0
    7.0337   -6.2181    1.4026 C   0  0  0  0  0  0  0  0  0  0  0  0
    6.9493   -7.1653    0.3916 C   0  0  0  0  0  0  0  0  0  0  0  0
    7.7857   -8.2112    0.3946 F   0  0  0  0  0  0  0  0  0  0  0  0
    6.0118   -7.0412   -0.6265 C   0  0  0  0  0  0  0  0  0  0  0  0
    5.1440   -5.9469   -0.6396 C   0  0  0  0  0  0  0  0  0  0  0  0
    5.1775   -0.1617   -0.0070 C   0  0  0  0  0  0  0  0  0  0  0  0
    6.5937   -0.0951   -0.0897 C   0  0  0  0  0  0  0  0  0  0  0  0
    7.2486    1.1277   -0.2022 C   0  0  0  0  0  0  0  0  0  0  0  0
    6.5039    2.2985   -0.2137 C   0  0  0  0  0  0  0  0  0  0  0  0
    5.1108    2.2343   -0.1239 C   0  0  0  0  0  0  0  0  0  0  0  0
    4.4337    1.0237   -0.0322 C   0  0  0  0  0  0  0  0  0  0  0  0
    3.1004    1.0376    0.0249 N   0  0  0  0  0  0  0  0  0  0  0  0
    0.5627   -1.1305    0.1028 H   0  0  0  0  0  0  0  0  0  0  0  0
    0.6199    0.4102   -0.7746 H   0  0  0  0  0  0  0  0  0  0  0  0
    0.6110    0.4015    1.0043 H   0  0  0  0  0  0  0  0  0  0  0  0
    5.7138   -2.6640   -0.6459 H   0  0  0  0  0  0  0  0  0  0  0  0
    3.5675   -3.8673   -0.4647 H   0  0  0  0  0  0  0  0  0  0  0  0
    3.7437   -3.7311    1.2986 H   0  0  0  0  0  0  0  0  0  0  0  0
    6.2397   -4.3737    2.1803 H   0  0  0  0  0  0  0  0  0  0  0  0
    7.7761   -6.3305    2.1863 H   0  0  0  0  0  0  0  0  0  0  0  0
    5.9653   -7.7948   -1.4069 H   0  0  0  0  0  0  0  0  0  0  0  0
    4.4181   -5.8556   -1.4445 H   0  0  0  0  0  0  0  0  0  0  0  0
    7.1868   -1.0062   -0.0590 H   0  0  0  0  0  0  0  0  0  0  0  0
    8.3321    1.1636   -0.2730 H   0  0  0  0  0  0  0  0  0  0  0  0
    6.9996    3.2629   -0.2903 H   0  0  0  0  0  0  0  0  0  0  0  0
    4.5356    3.1575   -0.1285 H   0  0  0  0  0  0  0  0  0  0  0  0
  1  2  1  0  0  0  0
  1 21  1  0  0  0  0
  1 22  1  0  0  0  0
  1 23  1  0  0  0  0
  2  3  1  0  0  0  0
  2 20  2  0  0  0  0
  3  4  2  0  0  0  0
  4  5  1  0  0  0  0
  4 14  1  0  0  0  0
  5  6  1  0  0  0  0
  5 24  1  0  0  0  0
  6  7  1  0  0  0  0
  6 25  1  0  0  0  0
  6 26  1  0  0  0  0
  7  8  1  0  0  0  0
  7 13  2  0  0  0  0
  8  9  2  0  0  0  0
  8 27  1  0  0  0  0
  9 10  1  0  0  0  0
  9 28  1  0  0  0  0
 10 11  1  0  0  0  0
 10 12  2  0  0  0  0
 12 13  1  0  0  0  0
 12 29  1  0  0  0  0
 13 30  1  0  0  0  0
 14 15  1  0  0  0  0
 14 19  2  0  0  0  0
 15 16  2  0  0  0  0
 15 31  1  0  0  0  0
 16 17  1  0  0  0  0
 16 32  1  0  0  0  0
 17 18  2  0  0  0  0
 17 33  1  0  0  0  0
 18 19  1  0  0  0  0
 18 34  1  0  0  0  0
 19 20  1  0  0  0  0
M  END
>  <Energy>
-4.34435

$$$$

 OpenBabel04232616063D

 36 38  0  0  0  0  0  0  0  0999 V2000
    3.2581   -0.4657   -1.6161 C   0  0  0  0  0  0  0  0  0  0  0  0
    2.6581   -1.1871   -0.5451 O   0  0  0  0  0  0  0  0  0  0  0  0
    3.4431   -1.4248    0.5496 C   0  0  0  0  0  0  0  0  0  0  0  0
    4.7626   -1.0174    0.6981 C   0  0  0  0  0  0  0  0  0  0  0  0
    5.4464   -1.3111    1.8772 C   0  0  0  0  0  0  0  0  0  0  0  0
    4.8190   -2.0165    2.9202 C   0  0  0  0  0  0  0  0  0  0  0  0
    5.6050   -2.1996    4.1724 C   0  0  0  0  0  0  0  0  0  0  0  0
    6.5858   -1.4573    4.2822 O   0  0  0  0  0  0  0  0  0  0  0  0
    5.2251   -3.1767    5.0818 N   0  0  0  0  0  0  0  0  0  0  0  0
    5.8855   -3.3655    6.3288 C   0  0  0  0  0  0  0  0  0  0  0  0
    6.7259   -2.3750    6.8418 C   0  0  0  0  0  0  0  0  0  0  0  0
    7.5677   -2.6265    7.9128 C   0  0  0  0  0  0  0  0  0  0  0  0
    7.4675   -3.8185    8.6136 C   0  0  0  0  0  0  0  0  0  0  0  0
    8.3276   -4.0400    9.6894 C   0  0  0  0  0  0  0  0  0  0  0  0
    8.0780   -5.0739   10.5750 C   0  0  0  0  0  0  0  0  0  0  0  0
    7.0086   -5.9391   10.3384 C   0  0  0  0  0  0  0  0  0  0  0  0
    6.2438   -5.8128    9.1675 C   0  0  0  0  0  0  0  0  0  0  0  0
    6.4599   -4.7509    8.2717 C   0  0  0  0  0  0  0  0  0  0  0  0
    5.7127   -4.5386    7.0752 C   0  0  0  0  0  0  0  0  0  0  0  0
    3.4991   -2.4220    2.7758 C   0  0  0  0  0  0  0  0  0  0  0  0
    2.8182   -2.1265    1.5892 C   0  0  0  0  0  0  0  0  0  0  0  0
    2.4989   -0.3225   -2.3917 H   0  0  0  0  0  0  0  0  0  0  0  0
    4.0839   -1.0340   -2.0570 H   0  0  0  0  0  0  0  0  0  0  0  0
    3.5905    0.5270   -1.2928 H   0  0  0  0  0  0  0  0  0  0  0  0
    5.2934   -0.4594   -0.0644 H   0  0  0  0  0  0  0  0  0  0  0  0
    6.4724   -0.9614    1.9892 H   0  0  0  0  0  0  0  0  0  0  0  0
    4.5878   -3.8959    4.7821 H   0  0  0  0  0  0  0  0  0  0  0  0
    6.7664   -1.3801    6.4174 H   0  0  0  0  0  0  0  0  0  0  0  0
    8.2616   -1.8484    8.2237 H   0  0  0  0  0  0  0  0  0  0  0  0
    9.1757   -3.3801    9.8617 H   0  0  0  0  0  0  0  0  0  0  0  0
    8.6965   -5.1860   11.4633 H   0  0  0  0  0  0  0  0  0  0  0  0
    6.7629   -6.6957   11.0762 H   0  0  0  0  0  0  0  0  0  0  0  0
    5.4426   -6.5282    8.9922 H   0  0  0  0  0  0  0  0  0  0  0  0
    5.0196   -5.3048    6.7464 H   0  0  0  0  0  0  0  0  0  0  0  0
    2.9626   -2.9210    3.5798 H   0  0  0  0  0  0  0  0  0  0  0  0
    1.7790   -2.4259    1.4760 H   0  0  0  0  0  0  0  0  0  0  0  0
  1  2  1  0  0  0  0
  1 22  1  0  0  0  0
  1 23  1  0  0  0  0
  1 24  1  0  0  0  0
  2  3  1  0  0  0  0
  3  4  1  0  0  0  0
  3 21  2  0  0  0  0
  4  5  2  0  0  0  0
  4 25  1  0  0  0  0
  5  6  1  0  0  0  0
  5 26  1  0  0  0  0
  6  7  1  0  0  0  0
  6 20  2  0  0  0  0
  7  8  2  0  0  0  0
  7  9  1  0  0  0  0
  9 10  1  0  0  0  0
  9 27  1  0  0  0  0
 10 11  1  0  0  0  0
 10 19  2  0  0  0  0
 11 12  2  0  0  0  0
 11 28  1  0  0  0  0
 12 13  1  0  0  0  0
 12 29  1  0  0  0  0
 13 14  1  0  0  0  0
 13 18  2  0  0  0  0
 14 15  2  0  0  0  0
 14 30  1  0  0  0  0
 15 16  1  0  0  0  0
 15 31  1  0  0  0  0
 16 17  2  0  0  0  0
 16 32  1  0  0  0  0
 17 18  1  0  0  0  0
 17 33  1  0  0  0  0
 18 19  1  0  0  0  0
 19 34  1  0  0  0  0
 20 21  1  0  0  0  0
 20 35  1  0  0  0  0
 21 36  1  0  0  0  0
M  END
>  <Energy>
60.5179

$$$$

 OpenBabel04232616063D

 45 46  0  0  1  0  0  0  0  0999 V2000
    0.8351    0.6992    0.3919 C   0  0  0  0  0  0  0  0  0  0  0  0
    2.3546    0.7189    0.3972 C   0  0  0  0  0  0  0  0  0  0  0  0
    2.9129    1.3541   -0.8755 C   0  0  0  0  0  0  0  0  0  0  0  0
    4.4410    1.3697   -0.8564 C   0  0  0  0  0  0  0  0  0  0  0  0
    5.0077    2.0079   -2.1227 C   0  0  0  0  0  0  0  0  0  0  0  0
    6.5402    2.0209   -2.0988 C   0  0  0  0  0  0  0  0  0  0  0  0
    7.0963    2.6512   -3.3799 C   0  0  0  0  0  0  0  0  0  0  0  0
    8.6294    2.6799   -3.4766 C   0  0  3  0  0  0  0  0  0  0  0  0
    9.0451    3.3170   -4.8178 C   0  0  0  0  0  0  0  0  0  0  0  0
    9.2120    1.3767   -3.3559 N   0  0  0  0  0  0  0  0  0  0  0  0
   10.4463    1.4571   -2.7284 C   0  0  0  0  0  0  0  0  0  0  0  0
   11.2757    0.5671   -2.7752 O   0  0  0  0  0  0  0  0  0  0  0  0
   10.4928    2.7324   -2.1304 N   0  0  0  0  0  0  0  0  0  0  0  0
   11.6560    3.4339   -1.7205 C   0  0  0  0  0  0  0  0  0  0  0  0
   12.9391    2.9572   -2.0152 C   0  0  0  0  0  0  0  0  0  0  0  0
   14.0728    3.7235   -1.7286 C   0  0  0  0  0  0  0  0  0  0  0  0
   13.9405    4.9677   -1.1188 C   0  0  0  0  0  0  0  0  0  0  0  0
   12.6763    5.4373   -0.7764 C   0  0  0  0  0  0  0  0  0  0  0  0
   11.5427    4.6761   -1.0741 C   0  0  0  0  0  0  0  0  0  0  0  0
    9.2659    3.4316   -2.3778 N   0  0  0  0  0  0  0  0  0  0  0  0
    0.4591    0.2428    1.3129 H   0  0  0  0  0  0  0  0  0  0  0  0
    0.4531    0.1202   -0.4550 H   0  0  0  0  0  0  0  0  0  0  0  0
    0.4297    1.7140    0.3255 H   0  0  0  0  0  0  0  0  0  0  0  0
    2.7271   -0.3075    0.4954 H   0  0  0  0  0  0  0  0  0  0  0  0
    2.7037    1.2757    1.2748 H   0  0  0  0  0  0  0  0  0  0  0  0
    2.5346    2.3792   -0.9722 H   0  0  0  0  0  0  0  0  0  0  0  0
    2.5605    0.7953   -1.7516 H   0  0  0  0  0  0  0  0  0  0  0  0
    4.8178    0.3441   -0.7616 H   0  0  0  0  0  0  0  0  0  0  0  0
    4.7915    1.9250    0.0222 H   0  0  0  0  0  0  0  0  0  0  0  0
    4.6340    3.0339   -2.2193 H   0  0  0  0  0  0  0  0  0  0  0  0
    4.6594    1.4520   -3.0021 H   0  0  0  0  0  0  0  0  0  0  0  0
    6.9071    0.9928   -1.9971 H   0  0  0  0  0  0  0  0  0  0  0  0
    6.8866    2.5806   -1.2221 H   0  0  0  0  0  0  0  0  0  0  0  0
    6.7072    3.6749   -3.4680 H   0  0  0  0  0  0  0  0  0  0  0  0
    6.6983    2.0924   -4.2381 H   0  0  0  0  0  0  0  0  0  0  0  0
    8.6643    2.7329   -5.6629 H   0  0  0  0  0  0  0  0  0  0  0  0
   10.1368    3.3610   -4.9305 H   0  0  0  0  0  0  0  0  0  0  0  0
    8.6614    4.3392   -4.9096 H   0  0  0  0  0  0  0  0  0  0  0  0
    9.0551    0.6151   -3.9998 H   0  0  0  0  0  0  0  0  0  0  0  0
   13.0889    2.0027   -2.5122 H   0  0  0  0  0  0  0  0  0  0  0  0
   15.0571    3.3488   -1.9978 H   0  0  0  0  0  0  0  0  0  0  0  0
   14.8231    5.5657   -0.9065 H   0  0  0  0  0  0  0  0  0  0  0  0
   12.5696    6.3991   -0.2812 H   0  0  0  0  0  0  0  0  0  0  0  0
   10.5691    5.0600   -0.7820 H   0  0  0  0  0  0  0  0  0  0  0  0
    9.5005    4.3641   -2.7130 H   0  0  0  0  0  0  0  0  0  0  0  0
  1  2  1  0  0  0  0
  1 21  1  0  0  0  0
  1 22  1  0  0  0  0
  1 23  1  0  0  0  0
  2  3  1  0  0  0  0
  2 24  1  0  0  0  0
  2 25  1  0  0  0  0
  3  4  1  0  0  0  0
  3 26  1  0  0  0  0
  3 27  1  0  0  0  0
  4  5  1  0  0  0  0
  4 28  1  0  0  0  0
  4 29  1  0  0  0  0
  5  6  1  0  0  0  0
  5 30  1  0  0  0  0
  5 31  1  0  0  0  0
  6  7  1  0  0  0  0
  6 32  1  0  0  0  0
  6 33  1  0  0  0  0
  7  8  1  0  0  0  0
  7 34  1  0  0  0  0
  7 35  1  0  0  0  0
  8  9  1  0  0  0  0
  8 10  1  0  0  0  0
  8 20  1  0  0  0  0
  9 36  1  0  0  0  0
  9 37  1  0  0  0  0
  9 38  1  0  0  0  0
 10 11  1  0  0  0  0
 10 39  1  0  0  0  0
 11 12  2  0  0  0  0
 11 13  1  0  0  0  0
 13 14  1  0  0  0  0
 13 20  1  0  0  0  0
 14 15  1  0  0  0  0
 14 19  2  0  0  0  0
 15 16  2  0  0  0  0
 15 40  1  0  0  0  0
 16 17  1  0  0  0  0
 16 41  1  0  0  0  0
 17 18  2  0  0  0  0
 17 42  1  0  0  0  0
 18 19  1  0  0  0  0
 18 43  1  0  0  0  0
 19 44  1  0  0  0  0
 20 45  1  0  0  0  0
M  END
>  <Energy>
-7.85343

$$$$

 OpenBabel04232616063D

 25 26  0  0  0  0  0  0  0  0999 V2000
   -1.5923   -0.1543   -0.4294 Br  0  0  0  0  0  0  0  0  0  0  0  0
    0.2925   -0.1190   -0.2934 C   0  0  0  0  0  0  0  0  0  0  0  0
    0.9591   -1.1283    0.3962 C   0  0  0  0  0  0  0  0  0  0  0  0
    2.3546   -1.0898    0.5176 C   0  0  0  0  0  0  0  0  0  0  0  0
    3.0891   -0.0461   -0.0549 C   0  0  0  0  0  0  0  0  0  0  0  0
    4.8567    0.1518    0.1278 S   0  0  0  0  0  0  0  0  0  0  0  0
    5.4745   -1.5715    0.0975 C   0  0  0  0  0  0  0  0  0  0  0  0
    6.9869   -1.6378    0.1612 C   0  0  0  0  0  0  0  0  0  0  0  0
    7.7743   -1.1203   -0.8694 C   0  0  0  0  0  0  0  0  0  0  0  0
    9.1612   -1.2037   -0.7697 C   0  0  0  0  0  0  0  0  0  0  0  0
    9.7309   -1.8061    0.3445 C   0  0  0  0  0  0  0  0  0  0  0  0
    8.8827   -2.3046    1.3191 C   0  0  0  0  0  0  0  0  0  0  0  0
    7.5333   -2.2382    1.2502 N   0  0  0  0  0  0  0  0  0  0  0  0
    2.3997    0.9623   -0.7445 C   0  0  0  0  0  0  0  0  0  0  0  0
    1.0074    0.9278   -0.8685 C   0  0  0  0  0  0  0  0  0  0  0  0
    0.4038   -1.9387    0.8593 H   0  0  0  0  0  0  0  0  0  0  0  0
    2.8396   -1.8717    1.0935 H   0  0  0  0  0  0  0  0  0  0  0  0
    5.1321   -2.0765   -0.8122 H   0  0  0  0  0  0  0  0  0  0  0  0
    5.0673   -2.1106    0.9587 H   0  0  0  0  0  0  0  0  0  0  0  0
    7.3194   -0.6473   -1.7341 H   0  0  0  0  0  0  0  0  0  0  0  0
    9.7927   -0.7965   -1.5549 H   0  0  0  0  0  0  0  0  0  0  0  0
   10.8057   -1.8848    0.4524 H   0  0  0  0  0  0  0  0  0  0  0  0
    9.2771   -2.7853    2.2097 H   0  0  0  0  0  0  0  0  0  0  0  0
    2.9433    1.7979   -1.1821 H   0  0  0  0  0  0  0  0  0  0  0  0
    0.4958    1.7265   -1.3999 H   0  0  0  0  0  0  0  0  0  0  0  0
  1  2  1  0  0  0  0
  2  3  1  0  0  0  0
  2 15  2  0  0  0  0
  3  4  2  0  0  0  0
  3 16  1  0  0  0  0
  4  5  1  0  0  0  0
  4 17  1  0  0  0  0
  5  6  1  0  0  0  0
  5 14  2  0  0  0  0
  6  7  1  0  0  0  0
  7  8  1  0  0  0  0
  7 18  1  0  0  0  0
  7 19  1  0  0  0  0
  8  9  1  0  0  0  0
  8 13  2  0  0  0  0
  9 10  2  0  0  0  0
  9 20  1  0  0  0  0
 10 11  1  0  0  0  0
 10 21  1  0  0  0  0
 11 12  2  0  0  0  0
 11 22  1  0  0  0  0
 12 13  1  0  0  0  0
 12 23  1  0  0  0  0
 14 15  1  0  0  0  0
 14 24  1  0  0  0  0
 15 25  1  0  0  0  0
M  END
>  <Energy>
45.8625

$$$$

 OpenBabel04232616063D

 41 42  0  0  0  0  0  0  0  0999 V2000
    2.0372   -0.8549    1.0636 C   0  0  0  0  0  0  0  0  0  0  0  0
    2.5970   -0.0052   -0.0670 C   0  0  0  0  0  0  0  0  0  0  0  0
    3.0877   -0.8218   -1.1810 N   0  0  0  0  0  0  0  0  0  0  0  0
    2.1155   -1.3775   -2.1255 C   0  0  0  0  0  0  0  0  0  0  0  0
    2.0171   -2.8903   -1.9744 C   0  0  0  0  0  0  0  0  0  0  0  0
    4.4493   -1.0097   -1.3598 C   0  0  0  0  0  0  0  0  0  0  0  0
    5.3055   -1.2089   -0.2685 C   0  0  0  0  0  0  0  0  0  0  0  0
    6.6776   -1.4232   -0.4307 C   0  0  0  0  0  0  0  0  0  0  0  0
    7.2545   -1.4399   -1.7030 C   0  0  0  0  0  0  0  0  0  0  0  0
    8.6964   -1.6298   -1.9034 C   0  0  0  0  0  0  0  0  0  0  0  0
    9.4489   -2.4120   -1.1149 C   0  0  0  0  0  0  0  0  0  0  0  0
   10.9119   -2.5327   -1.3466 C   0  0  0  0  0  0  0  0  0  0  0  0
   11.5328   -1.7408   -2.0460 O   0  0  0  0  0  0  0  0  0  0  0  0
   11.6169   -3.6267   -0.6453 C   0  0  0  0  0  0  0  0  0  0  0  0
   11.0216   -4.8586   -0.3584 C   0  0  0  0  0  0  0  0  0  0  0  0
   11.7584   -5.8340    0.3087 C   0  0  0  0  0  0  0  0  0  0  0  0
   13.0679   -5.5451    0.6615 C   0  0  0  0  0  0  0  0  0  0  0  0
   13.6757   -4.3705    0.3884 N   0  0  0  0  0  0  0  0  0  0  0  0
   12.9406   -3.4390   -0.2693 C   0  0  0  0  0  0  0  0  0  0  0  0
    6.4243   -1.2104   -2.8017 C   0  0  0  0  0  0  0  0  0  0  0  0
    5.0473   -1.0119   -2.6292 C   0  0  0  0  0  0  0  0  0  0  0  0
    1.6935   -0.2110    1.8798 H   0  0  0  0  0  0  0  0  0  0  0  0
    2.7874   -1.5394    1.4698 H   0  0  0  0  0  0  0  0  0  0  0  0
    1.1859   -1.4546    0.7283 H   0  0  0  0  0  0  0  0  0  0  0  0
    3.3840    0.6537    0.3209 H   0  0  0  0  0  0  0  0  0  0  0  0
    1.8099    0.6664   -0.4310 H   0  0  0  0  0  0  0  0  0  0  0  0
    2.3616   -1.1182   -3.1601 H   0  0  0  0  0  0  0  0  0  0  0  0
    1.1235   -0.9463   -1.9440 H   0  0  0  0  0  0  0  0  0  0  0  0
    2.9793   -3.3787   -2.1592 H   0  0  0  0  0  0  0  0  0  0  0  0
    1.2906   -3.2960   -2.6852 H   0  0  0  0  0  0  0  0  0  0  0  0
    1.6935   -3.1653   -0.9653 H   0  0  0  0  0  0  0  0  0  0  0  0
    4.9093   -1.2305    0.7417 H   0  0  0  0  0  0  0  0  0  0  0  0
    7.2821   -1.5650    0.4616 H   0  0  0  0  0  0  0  0  0  0  0  0
    9.1426   -1.1036   -2.7459 H   0  0  0  0  0  0  0  0  0  0  0  0
    9.0243   -2.9604   -0.2834 H   0  0  0  0  0  0  0  0  0  0  0  0
   10.0030   -5.0813   -0.6628 H   0  0  0  0  0  0  0  0  0  0  0  0
   11.3247   -6.8005    0.5422 H   0  0  0  0  0  0  0  0  0  0  0  0
   13.6810   -6.2748    1.1833 H   0  0  0  0  0  0  0  0  0  0  0  0
   13.4617   -2.5080   -0.4795 H   0  0  0  0  0  0  0  0  0  0  0  0
    6.8363   -1.1818   -3.8092 H   0  0  0  0  0  0  0  0  0  0  0  0
    4.4526   -0.8140   -3.5171 H   0  0  0  0  0  0  0  0  0  0  0  0
  1  2  1  0  0  0  0
  1 22  1  0  0  0  0
  1 23  1  0  0  0  0
  1 24  1  0  0  0  0
  2  3  1  0  0  0  0
  2 25  1  0  0  0  0
  2 26  1  0  0  0  0
  3  4  1  0  0  0  0
  3  6  1  0  0  0  0
  4  5  1  0  0  0  0
  4 27  1  0  0  0  0
  4 28  1  0  0  0  0
  5 29  1  0  0  0  0
  5 30  1  0  0  0  0
  5 31  1  0  0  0  0
  6  7  1  0  0  0  0
  6 21  2  0  0  0  0
  7  8  2  0  0  0  0
  7 32  1  0  0  0  0
  8  9  1  0  0  0  0
  8 33  1  0  0  0  0
  9 10  1  0  0  0  0
  9 20  2  0  0  0  0
 10 11  2  0  0  0  0
 10 34  1  0  0  0  0
 11 12  1  0  0  0  0
 11 35  1  0  0  0  0
 12 13  2  0  0  0  0
 12 14  1  0  0  0  0
 14 15  1  0  0  0  0
 14 19  2  0  0  0  0
 15 16  2  0  0  0  0
 15 36  1  0  0  0  0
 16 17  1  0  0  0  0
 16 37  1  0  0  0  0
 17 18  2  0  0  0  0
 17 38  1  0  0  0  0
 18 19  1  0  0  0  0
 19 39  1  0  0  0  0
 20 21  1  0  0  0  0
 20 40  1  0  0  0  0
 21 41  1  0  0  0  0
M  END
>  <Energy>
61.2964

$$$$

 OpenBabel04232616063D

 34 35  0  0  0  0  0  0  0  0999 V2000
    1.1442    0.0653    0.0990 C   0  0  0  0  0  0  0  0  0  0  0  0
    2.5972    0.0125    0.0992 N   0  0  0  0  0  0  0  0  0  0  0  0
    3.2705    0.5106   -1.0972 C   0  0  0  0  0  0  0  0  0  0  0  0
    3.6083    1.9866   -1.0497 C   0  0  0  0  0  0  0  0  0  0  0  0
    3.8801    2.6631    0.1497 C   0  0  0  0  0  0  0  0  0  0  0  0
    4.2718    4.0042    0.1425 C   0  0  0  0  0  0  0  0  0  0  0  0
    4.3940    4.6907   -1.0628 C   0  0  0  0  0  0  0  0  0  0  0  0
    4.1185    4.0389   -2.2617 C   0  0  0  0  0  0  0  0  0  0  0  0
    3.7332    2.6960   -2.2562 C   0  0  0  0  0  0  0  0  0  0  0  0
    3.1939   -0.7353    1.1131 C   0  0  0  0  0  0  0  0  0  0  0  0
    2.5056   -1.3514    1.9223 O   0  0  0  0  0  0  0  0  0  0  0  0
    4.5711   -0.6899    1.1381 N   0  0  0  0  0  0  0  0  0  0  0  0
    5.4136   -1.4022    2.0207 C   0  0  0  0  0  0  0  0  0  0  0  0
    4.9901   -2.5063    2.7673 C   0  0  0  0  0  0  0  0  0  0  0  0
    5.8627   -3.1463    3.6531 C   0  0  0  0  0  0  0  0  0  0  0  0
    7.1697   -2.6901    3.7887 C   0  0  0  0  0  0  0  0  0  0  0  0
    8.2353   -3.4603    4.8970 Cl  0  0  0  0  0  0  0  0  0  0  0  0
    7.6161   -1.6104    3.0309 C   0  0  0  0  0  0  0  0  0  0  0  0
    6.7424   -0.9730    2.1431 C   0  0  0  0  0  0  0  0  0  0  0  0
    0.7882    0.8837   -0.5319 H   0  0  0  0  0  0  0  0  0  0  0  0
    0.7725    0.2184    1.1174 H   0  0  0  0  0  0  0  0  0  0  0  0
    0.7618   -0.8884   -0.2778 H   0  0  0  0  0  0  0  0  0  0  0  0
    2.6144    0.3048   -1.9527 H   0  0  0  0  0  0  0  0  0  0  0  0
    4.1944   -0.0516   -1.2734 H   0  0  0  0  0  0  0  0  0  0  0  0
    3.7846    2.1604    1.1095 H   0  0  0  0  0  0  0  0  0  0  0  0
    4.4813    4.5128    1.0803 H   0  0  0  0  0  0  0  0  0  0  0  0
    4.7024    5.7330   -1.0667 H   0  0  0  0  0  0  0  0  0  0  0  0
    4.2089    4.5752   -3.2031 H   0  0  0  0  0  0  0  0  0  0  0  0
    3.5328    2.2054   -3.2066 H   0  0  0  0  0  0  0  0  0  0  0  0
    4.9957    0.0885    0.6556 H   0  0  0  0  0  0  0  0  0  0  0  0
    3.9811   -2.8990    2.6795 H   0  0  0  0  0  0  0  0  0  0  0  0
    5.5082   -3.9940    4.2339 H   0  0  0  0  0  0  0  0  0  0  0  0
    8.6382   -1.2547    3.1323 H   0  0  0  0  0  0  0  0  0  0  0  0
    7.1095   -0.1272    1.5686 H   0  0  0  0  0  0  0  0  0  0  0  0
  1  2  1  0  0  0  0
  1 20  1  0  0  0  0
  1 21  1  0  0  0  0
  1 22  1  0  0  0  0
  2  3  1  0  0  0  0
  2 10  1  0  0  0  0
  3  4  1  0  0  0  0
  3 23  1  0  0  0  0
  3 24  1  0  0  0  0
  4  5  1  0  0  0  0
  4  9  2  0  0  0  0
  5  6  2  0  0  0  0
  5 25  1  0  0  0  0
  6  7  1  0  0  0  0
  6 26  1  0  0  0  0
  7  8  2  0  0  0  0
  7 27  1  0  0  0  0
  8  9  1  0  0  0  0
  8 28  1  0  0  0  0
  9 29  1  0  0  0  0
 10 11  2  0  0  0  0
 10 12  1  0  0  0  0
 12 13  1  0  0  0  0
 12 30  1  0  0  0  0
 13 14  1  0  0  0  0
 13 19  2  0  0  0  0
 14 15  2  0  0  0  0
 14 31  1  0  0  0  0
 15 16  1  0  0  0  0
 15 32  1  0  0  0  0
 16 17  1  0  0  0  0
 16 18  2  0  0  0  0
 18 19  1  0  0  0  0
 18 33  1  0  0  0  0
 19 34  1  0  0  0  0
M  END
>  <Energy>
-30.4278

$$$$

 OpenBabel04232616063D

 41 43  0  0  0  0  0  0  0  0999 V2000
    2.1177    1.0689   -1.8397 C   0  0  0  0  0  0  0  0  0  0  0  0
    0.6553    0.8976   -1.5553 C   0  0  0  0  0  0  0  0  0  0  0  0
   -0.0005    1.6861   -0.6041 C   0  0  0  0  0  0  0  0  0  0  0  0
   -1.3675    1.5046   -0.3409 C   0  0  0  0  0  0  0  0  0  0  0  0
   -2.0874    0.5282   -1.0299 C   0  0  0  0  0  0  0  0  0  0  0  0
   -3.4090    0.2213   -0.8637 O   0  0  0  0  0  0  0  0  0  0  0  0
   -4.1744    1.0291    0.0293 C   0  0  0  0  0  0  0  0  0  0  0  0
   -5.6056    0.4891    0.0230 C   0  0  0  0  0  0  0  0  0  0  0  0
   -6.5177    1.3673    0.7198 N   0  0  0  0  0  0  0  0  0  0  0  0
   -7.2518    2.3568    0.1268 C   0  0  0  0  0  0  0  0  0  0  0  0
   -7.7969    3.1514    1.0181 N   0  0  0  0  0  0  0  0  0  0  0  0
   -7.4359    2.6252    2.2345 C   0  0  0  0  0  0  0  0  0  0  0  0
   -7.6893    3.1061    3.5253 C   0  0  0  0  0  0  0  0  0  0  0  0
   -7.2125    2.3929    4.6437 C   0  0  0  0  0  0  0  0  0  0  0  0
   -7.4147    2.9970    6.0073 C   0  0  0  0  0  0  0  0  0  0  0  0
   -6.5595    1.1551    4.4615 C   0  0  0  0  0  0  0  0  0  0  0  0
   -6.1795    0.2632    5.6176 C   0  0  0  0  0  0  0  0  0  0  0  0
   -6.2753    0.6821    3.1624 C   0  0  0  0  0  0  0  0  0  0  0  0
   -6.6962    1.4586    2.0776 C   0  0  0  0  0  0  0  0  0  0  0  0
   -1.4353   -0.2505   -1.9861 C   0  0  0  0  0  0  0  0  0  0  0  0
   -0.0757   -0.0703   -2.2498 C   0  0  0  0  0  0  0  0  0  0  0  0
    2.5669    1.8349   -1.2005 H   0  0  0  0  0  0  0  0  0  0  0  0
    2.2676    1.3668   -2.8829 H   0  0  0  0  0  0  0  0  0  0  0  0
    2.6496    0.1276   -1.6573 H   0  0  0  0  0  0  0  0  0  0  0  0
    0.5466    2.4481   -0.0526 H   0  0  0  0  0  0  0  0  0  0  0  0
   -1.8298    2.1361    0.4086 H   0  0  0  0  0  0  0  0  0  0  0  0
   -4.1628    2.0731   -0.3097 H   0  0  0  0  0  0  0  0  0  0  0  0
   -3.7631    0.9733    1.0448 H   0  0  0  0  0  0  0  0  0  0  0  0
   -5.6517   -0.5038    0.4838 H   0  0  0  0  0  0  0  0  0  0  0  0
   -5.9663    0.3700   -1.0058 H   0  0  0  0  0  0  0  0  0  0  0  0
   -7.3260    2.4729   -0.9470 H   0  0  0  0  0  0  0  0  0  0  0  0
   -8.2325    4.0388    3.6366 H   0  0  0  0  0  0  0  0  0  0  0  0
   -7.7762    4.0292    5.9371 H   0  0  0  0  0  0  0  0  0  0  0  0
   -6.4606    3.0393    6.5451 H   0  0  0  0  0  0  0  0  0  0  0  0
   -8.1404    2.4182    6.5837 H   0  0  0  0  0  0  0  0  0  0  0  0
   -6.2595    0.7597    6.5859 H   0  0  0  0  0  0  0  0  0  0  0  0
   -5.1419   -0.0749    5.5106 H   0  0  0  0  0  0  0  0  0  0  0  0
   -6.8369   -0.6102    5.6351 H   0  0  0  0  0  0  0  0  0  0  0  0
   -5.7490   -0.2560    3.0144 H   0  0  0  0  0  0  0  0  0  0  0  0
   -1.9895   -1.0107   -2.5311 H   0  0  0  0  0  0  0  0  0  0  0  0
    0.4093   -0.6954   -2.9955 H   0  0  0  0  0  0  0  0  0  0  0  0
  1  2  1  0  0  0  0
  1 22  1  0  0  0  0
  1 23  1  0  0  0  0
  1 24  1  0  0  0  0
  2  3  1  0  0  0  0
  2 21  2  0  0  0  0
  3  4  2  0  0  0  0
  3 25  1  0  0  0  0
  4  5  1  0  0  0  0
  4 26  1  0  0  0  0
  5  6  1  0  0  0  0
  5 20  2  0  0  0  0
  6  7  1  0  0  0  0
  7  8  1  0  0  0  0
  7 27  1  0  0  0  0
  7 28  1  0  0  0  0
  8  9  1  0  0  0  0
  8 29  1  0  0  0  0
  8 30  1  0  0  0  0
  9 10  1  0  0  0  0
  9 19  1  0  0  0  0
 10 11  2  0  0  0  0
 10 31  1  0  0  0  0
 11 12  1  0  0  0  0
 12 13  1  0  0  0  0
 12 19  2  0  0  0  0
 13 14  2  0  0  0  0
 13 32  1  0  0  0  0
 14 15  1  0  0  0  0
 14 16  1  0  0  0  0
 15 33  1  0  0  0  0
 15 34  1  0  0  0  0
 15 35  1  0  0  0  0
 16 17  1  0  0  0  0
 16 18  2  0  0  0  0
 17 36  1  0  0  0  0
 17 37  1  0  0  0  0
 17 38  1  0  0  0  0
 18 19  1  0  0  0  0
 18 39  1  0  0  0  0
 20 21  1  0  0  0  0
 20 40  1  0  0  0  0
 21 41  1  0  0  0  0
M  END
>  <Energy>
42.9211

$$$$

 OpenBabel04232616063D

 37 39  0  0  0  0  0  0  0  0999 V2000
    1.3880   -0.1100    0.7985 C   0  0  0  0  0  0  0  0  0  0  0  0
    2.4759   -0.0827   -0.1201 O   0  0  0  0  0  0  0  0  0  0  0  0
    3.0377    1.1396   -0.3667 C   0  0  0  0  0  0  0  0  0  0  0  0
    2.6186    2.3478    0.1748 C   0  0  0  0  0  0  0  0  0  0  0  0
    3.2826    3.5298   -0.1638 C   0  0  0  0  0  0  0  0  0  0  0  0
    4.3626    3.5452   -1.0315 C   0  0  0  0  0  0  0  0  0  0  0  0
    4.9381    4.7286   -1.2873 N   0  0  0  0  0  0  0  0  0  0  0  0
    5.9985    4.7658   -2.1198 C   0  0  0  0  0  0  0  0  0  0  0  0
    6.6317    6.1014   -2.3668 C   0  0  0  0  0  0  0  0  0  0  0  0
    6.5110    3.6298   -2.7221 C   0  0  0  0  0  0  0  0  0  0  0  0
    5.9401    2.3851   -2.4382 C   0  0  0  0  0  0  0  0  0  0  0  0
    6.4628    1.2052   -3.0374 N   0  0  0  0  0  0  0  0  0  0  0  0
    7.8175    0.9374   -3.3414 C   0  0  0  0  0  0  0  0  0  0  0  0
    8.1505    0.1070   -4.4198 C   0  0  0  0  0  0  0  0  0  0  0  0
    9.4883   -0.1902   -4.7091 C   0  0  0  0  0  0  0  0  0  0  0  0
   10.5110    0.3265   -3.9145 C   0  0  0  0  0  0  0  0  0  0  0  0
   10.1846    1.1312   -2.8311 C   0  0  0  0  0  0  0  0  0  0  0  0
   11.1451    1.6541   -2.0160 O   0  0  0  0  0  0  0  0  0  0  0  0
    8.8571    1.4278   -2.5380 C   0  0  0  0  0  0  0  0  0  0  0  0
    4.8082    2.3280   -1.5876 C   0  0  0  0  0  0  0  0  0  0  0  0
    4.1288    1.1333   -1.2414 C   0  0  0  0  0  0  0  0  0  0  0  0
    1.0496   -1.1465    0.8910 H   0  0  0  0  0  0  0  0  0  0  0  0
    0.5439    0.4826    0.4294 H   0  0  0  0  0  0  0  0  0  0  0  0
    1.7021    0.2277    1.7920 H   0  0  0  0  0  0  0  0  0  0  0  0
    1.7861    2.4157    0.8664 H   0  0  0  0  0  0  0  0  0  0  0  0
    2.9503    4.4698    0.2720 H   0  0  0  0  0  0  0  0  0  0  0  0
    6.1179    6.8853   -1.8017 H   0  0  0  0  0  0  0  0  0  0  0  0
    6.5795    6.3546   -3.4301 H   0  0  0  0  0  0  0  0  0  0  0  0
    7.6784    6.0847   -2.0491 H   0  0  0  0  0  0  0  0  0  0  0  0
    7.3541    3.7134   -3.4011 H   0  0  0  0  0  0  0  0  0  0  0  0
    5.8096    0.8246   -3.7164 H   0  0  0  0  0  0  0  0  0  0  0  0
    7.3734   -0.3128   -5.0531 H   0  0  0  0  0  0  0  0  0  0  0  0
    9.7307   -0.8293   -5.5544 H   0  0  0  0  0  0  0  0  0  0  0  0
   11.5435    0.0868   -4.1476 H   0  0  0  0  0  0  0  0  0  0  0  0
   12.0137    1.3364   -2.3143 H   0  0  0  0  0  0  0  0  0  0  0  0
    8.6386    2.0355   -1.6641 H   0  0  0  0  0  0  0  0  0  0  0  0
    4.4652    0.1807   -1.6445 H   0  0  0  0  0  0  0  0  0  0  0  0
  1  2  1  0  0  0  0
  1 22  1  0  0  0  0
  1 23  1  0  0  0  0
  1 24  1  0  0  0  0
  2  3  1  0  0  0  0
  3  4  1  0  0  0  0
  3 21  2  0  0  0  0
  4  5  2  0  0  0  0
  4 25  1  0  0  0  0
  5  6  1  0  0  0  0
  5 26  1  0  0  0  0
  6  7  1  0  0  0  0
  6 20  2  0  0  0  0
  7  8  2  0  0  0  0
  8  9  1  0  0  0  0
  8 10  1  0  0  0  0
  9 27  1  0  0  0  0
  9 28  1  0  0  0  0
  9 29  1  0  0  0  0
 10 11  2  0  0  0  0
 10 30  1  0  0  0  0
 11 12  1  0  0  0  0
 11 20  1  0  0  0  0
 12 13  1  0  0  0  0
 12 31  1  0  0  0  0
 13 14  1  0  0  0  0
 13 19  2  0  0  0  0
 14 15  2  0  0  0  0
 14 32  1  0  0  0  0
 15 16  1  0  0  0  0
 15 33  1  0  0  0  0
 16 17  2  0  0  0  0
 16 34  1  0  0  0  0
 17 18  1  0  0  0  0
 17 19  1  0  0  0  0
 18 35  1  0  0  0  0
 19 36  1  0  0  0  0
 20 21  1  0  0  0  0
 21 37  1  0  0  0  0
M  END
>  <Energy>
42.2126

$$$$

 OpenBabel04232616063D

 35 36  0  0  0  0  0  0  0  0999 V2000
    1.4238    0.6147    0.7041 C   0  0  0  0  0  0  0  0  0  0  0  0
    2.3766   -0.0499    0.0244 C   0  0  0  0  0  0  0  0  0  0  0  0
    3.1592   -1.0488    0.7893 C   0  0  0  0  0  0  0  0  0  0  0  0
    2.7150   -2.3718    0.8912 C   0  0  0  0  0  0  0  0  0  0  0  0
    3.4748   -3.3477    1.5584 C   0  0  0  0  0  0  0  0  0  0  0  0
    3.0700   -4.6553    1.6426 O   0  0  0  0  0  0  0  0  0  0  0  0
    1.8503   -5.0380    1.0218 C   0  0  0  0  0  0  0  0  0  0  0  0
    4.7044   -2.9860    2.1585 C   0  0  0  0  0  0  0  0  0  0  0  0
    5.5258   -3.8089    2.8863 O   0  0  0  0  0  0  0  0  0  0  0  0
    5.1947   -5.1714    3.0925 C   0  0  0  0  0  0  0  0  0  0  0  0
    5.1499   -1.6484    2.0430 C   0  0  0  0  0  0  0  0  0  0  0  0
    6.3030   -1.1138    2.5699 O   0  0  0  0  0  0  0  0  0  0  0  0
    7.4468   -1.9598    2.6042 C   0  0  0  0  0  0  0  0  0  0  0  0
    4.3698   -0.6931    1.3793 C   0  0  0  0  0  0  0  0  0  0  0  0
    2.5679    0.2363   -1.3741 C   0  0  0  0  0  0  0  0  0  0  0  0
    2.3718    1.4168   -2.0786 C   0  0  0  0  0  0  0  0  0  0  0  0
    2.6634    1.3062   -3.4695 C   0  0  0  0  0  0  0  0  0  0  0  0
    3.0841    0.0427   -3.8043 C   0  0  0  0  0  0  0  0  0  0  0  0
    3.1351   -0.9933   -2.4521 S   0  0  0  0  0  0  0  0  0  0  0  0
    1.2442    0.4324    1.7604 H   0  0  0  0  0  0  0  0  0  0  0  0
    0.7806    1.3512    0.2357 H   0  0  0  0  0  0  0  0  0  0  0  0
    1.7686   -2.6176    0.4194 H   0  0  0  0  0  0  0  0  0  0  0  0
    1.7415   -6.1200    1.1445 H   0  0  0  0  0  0  0  0  0  0  0  0
    1.8635   -4.8297   -0.0529 H   0  0  0  0  0  0  0  0  0  0  0  0
    0.9971   -4.5591    1.5127 H   0  0  0  0  0  0  0  0  0  0  0  0
    5.9870   -5.6111    3.7071 H   0  0  0  0  0  0  0  0  0  0  0  0
    5.1800   -5.7256    2.1490 H   0  0  0  0  0  0  0  0  0  0  0  0
    4.2613   -5.2757    3.6539 H   0  0  0  0  0  0  0  0  0  0  0  0
    8.3330   -1.3173    2.6198 H   0  0  0  0  0  0  0  0  0  0  0  0
    7.5221   -2.5994    1.7179 H   0  0  0  0  0  0  0  0  0  0  0  0
    7.4625   -2.5464    3.5275 H   0  0  0  0  0  0  0  0  0  0  0  0
    4.7300    0.3313    1.3111 H   0  0  0  0  0  0  0  0  0  0  0  0
    2.0350    2.3358   -1.6126 H   0  0  0  0  0  0  0  0  0  0  0  0
    2.5704    2.1148   -4.1852 H   0  0  0  0  0  0  0  0  0  0  0  0
    3.3717   -0.3242   -4.7801 H   0  0  0  0  0  0  0  0  0  0  0  0
  1  2  2  0  0  0  0
  1 20  1  0  0  0  0
  1 21  1  0  0  0  0
  2  3  1  0  0  0  0
  2 15  1  0  0  0  0
  3  4  1  0  0  0  0
  3 14  2  0  0  0  0
  4  5  2  0  0  0  0
  4 22  1  0  0  0  0
  5  6  1  0  0  0  0
  5  8  1  0  0  0  0
  6  7  1  0  0  0  0
  7 23  1  0  0  0  0
  7 24  1  0  0  0  0
  7 25  1  0  0  0  0
  8  9  1  0  0  0  0
  8 11  2  0  0  0  0
  9 10  1  0  0  0  0
 10 26  1  0  0  0  0
 10 27  1  0  0  0  0
 10 28  1  0  0  0  0
 11 12  1  0  0  0  0
 11 14  1  0  0  0  0
 12 13  1  0  0  0  0
 13 29  1  0  0  0  0
 13 30  1  0  0  0  0
 13 31  1  0  0  0  0
 14 32  1  0  0  0  0
 15 16  2  0  0  0  0
 15 19  1  0  0  0  0
 16 17  1  0  0  0  0
 16 33  1  0  0  0  0
 17 18  2  0  0  0  0
 17 34  1  0  0  0  0
 18 19  1  0  0  0  0
 18 35  1  0  0  0  0
M  END
>  <Energy>
74.7557

$$$$

 OpenBabel04232616063D

 38 40  0  0  0  0  0  0  0  0999 V2000
    1.8822    1.4427   -0.0229 C   0  0  0  0  0  0  0  0  0  0  0  0
    0.5890    0.6712   -0.0324 C   0  0  0  0  0  0  0  0  0  0  0  0
   -0.6172    1.3839   -0.0699 C   0  0  0  0  0  0  0  0  0  0  0  0
   -1.8338    0.7122   -0.0890 C   0  0  0  0  0  0  0  0  0  0  0  0
   -1.8621   -0.6803   -0.0696 C   0  0  0  0  0  0  0  0  0  0  0  0
   -0.6730   -1.4216   -0.0251 C   0  0  0  0  0  0  0  0  0  0  0  0
   -0.6301   -2.7964    0.0114 O   0  0  0  0  0  0  0  0  0  0  0  0
   -1.8795   -3.4800   -0.0658 C   0  0  0  0  0  0  0  0  0  0  0  0
   -1.6126   -4.9320    0.0352 C   0  0  0  0  0  0  0  0  0  0  0  0
   -1.4899   -5.8069    1.0849 C   0  0  0  0  0  0  0  0  0  0  0  0
   -1.3764   -7.0894    0.4835 C   0  0  0  0  0  0  0  0  0  0  0  0
   -1.2851   -8.3876    1.1524 C   0  0  0  0  0  0  0  0  0  0  0  0
   -1.7386   -9.5532    0.5177 C   0  0  0  0  0  0  0  0  0  0  0  0
   -1.6865  -10.7875    1.1718 C   0  0  0  0  0  0  0  0  0  0  0  0
   -1.1734  -10.8713    2.4644 C   0  0  0  0  0  0  0  0  0  0  0  0
   -0.7101   -9.7236    3.1032 C   0  0  0  0  0  0  0  0  0  0  0  0
   -0.7654   -8.4888    2.4524 C   0  0  0  0  0  0  0  0  0  0  0  0
   -1.4038   -6.9738   -0.8549 N   0  0  0  0  0  0  0  0  0  0  0  0
   -1.5420   -5.6269   -1.1291 O   0  0  0  0  0  0  0  0  0  0  0  0
    0.5660   -0.7462   -0.0079 C   0  0  0  0  0  0  0  0  0  0  0  0
    1.8680   -1.5088    0.0325 C   0  0  0  0  0  0  0  0  0  0  0  0
    1.7051    2.5241   -0.0405 H   0  0  0  0  0  0  0  0  0  0  0  0
    2.4798    1.1953   -0.9055 H   0  0  0  0  0  0  0  0  0  0  0  0
    2.4532    1.2201    0.8834 H   0  0  0  0  0  0  0  0  0  0  0  0
   -0.6160    2.4715   -0.0867 H   0  0  0  0  0  0  0  0  0  0  0  0
   -2.7632    1.2745   -0.1198 H   0  0  0  0  0  0  0  0  0  0  0  0
   -2.8390   -1.1512   -0.0886 H   0  0  0  0  0  0  0  0  0  0  0  0
   -2.3810   -3.2580   -1.0149 H   0  0  0  0  0  0  0  0  0  0  0  0
   -2.5230   -3.1908    0.7743 H   0  0  0  0  0  0  0  0  0  0  0  0
   -1.5317   -5.5612    2.1354 H   0  0  0  0  0  0  0  0  0  0  0  0
   -2.1491   -9.5074   -0.4898 H   0  0  0  0  0  0  0  0  0  0  0  0
   -2.0484  -11.6818    0.6707 H   0  0  0  0  0  0  0  0  0  0  0  0
   -1.1317  -11.8315    2.9723 H   0  0  0  0  0  0  0  0  0  0  0  0
   -0.3026   -9.7886    4.1092 H   0  0  0  0  0  0  0  0  0  0  0  0
   -0.3884   -7.6110    2.9714 H   0  0  0  0  0  0  0  0  0  0  0  0
    1.7286   -2.5934    0.0472 H   0  0  0  0  0  0  0  0  0  0  0  0
    2.4304   -1.2443    0.9338 H   0  0  0  0  0  0  0  0  0  0  0  0
    2.4690   -1.2738   -0.8524 H   0  0  0  0  0  0  0  0  0  0  0  0
  1  2  1  0  0  0  0
  1 22  1  0  0  0  0
  1 23  1  0  0  0  0
  1 24  1  0  0  0  0
  2  3  1  0  0  0  0
  2 20  2  0  0  0  0
  3  4  2  0  0  0  0
  3 25  1  0  0  0  0
  4  5  1  0  0  0  0
  4 26  1  0  0  0  0
  5  6  2  0  0  0  0
  5 27  1  0  0  0  0
  6  7  1  0  0  0  0
  6 20  1  0  0  0  0
  7  8  1  0  0  0  0
  8  9  1  0  0  0  0
  8 28  1  0  0  0  0
  8 29  1  0  0  0  0
  9 10  2  0  0  0  0
  9 19  1  0  0  0  0
 10 11  1  0  0  0  0
 10 30  1  0  0  0  0
 11 12  1  0  0  0  0
 11 18  2  0  0  0  0
 12 13  1  0  0  0  0
 12 17  2  0  0  0  0
 13 14  2  0  0  0  0
 13 31  1  0  0  0  0
 14 15  1  0  0  0  0
 14 32  1  0  0  0  0
 15 16  2  0  0  0  0
 15 33  1  0  0  0  0
 16 17  1  0  0  0  0
 16 34  1  0  0  0  0
 17 35  1  0  0  0  0
 18 19  1  0  0  0  0
 20 21  1  0  0  0  0
 21 36  1  0  0  0  0
 21 37  1  0  0  0  0
 21 38  1  0  0  0  0
M  END
>  <Energy>
58.1037

$$$$

 OpenBabel04232616063D

 40 42  0  0  0  0  0  0  0  0999 V2000
    5.8061    0.1223   -1.9530 C   0  0  0  0  0  0  0  0  0  0  0  0
    5.3963    0.3445   -0.5072 C   0  0  0  0  0  0  0  0  0  0  0  0
    5.5092   -0.9091    0.1780 O   0  0  0  0  0  0  0  0  0  0  0  0
    4.4130   -1.7055    0.1045 C   0  0  0  0  0  0  0  0  0  0  0  0
    3.2925   -1.3618   -0.2300 O   0  0  0  0  0  0  0  0  0  0  0  0
    4.8440   -3.1027    0.3215 C   0  0  0  0  0  0  0  0  0  0  0  0
    5.8747   -3.3990    1.2177 C   0  0  0  0  0  0  0  0  0  0  0  0
    6.3140   -4.7140    1.3521 C   0  0  0  0  0  0  0  0  0  0  0  0
    5.7086   -5.7182    0.5999 C   0  0  0  0  0  0  0  0  0  0  0  0
    6.1046   -7.1384    0.6968 C   0  0  0  0  0  0  0  0  0  0  0  0
    6.0068   -7.9955   -0.4260 C   0  0  0  0  0  0  0  0  0  0  0  0
    6.3698   -9.3477   -0.3661 C   0  0  0  0  0  0  0  0  0  0  0  0
    6.8458   -9.8439    0.8349 C   0  0  0  0  0  0  0  0  0  0  0  0
    6.9444   -9.0222    1.9571 C   0  0  0  0  0  0  0  0  0  0  0  0
    6.5738   -7.6874    1.9071 C   0  0  0  0  0  0  0  0  0  0  0  0
    7.4181   -9.7975    3.1469 C   0  0  0  0  0  0  0  0  0  0  0  0
    8.0289  -11.0311    2.4691 C   0  0  0  0  0  0  0  0  0  0  0  0
    7.2467  -11.2466    1.1645 C   0  0  0  0  0  0  0  0  0  0  0  0
    4.7103   -5.4370   -0.2774 N   0  0  0  0  0  0  0  0  0  0  0  0
    4.2859   -4.1492   -0.4126 C   0  0  0  0  0  0  0  0  0  0  0  0
    3.2089   -3.9353   -1.4378 C   0  0  0  0  0  0  0  0  0  0  0  0
    5.7679    1.0527   -2.5243 H   0  0  0  0  0  0  0  0  0  0  0  0
    5.1544   -0.6151   -2.4335 H   0  0  0  0  0  0  0  0  0  0  0  0
    6.8226   -0.2837   -1.9998 H   0  0  0  0  0  0  0  0  0  0  0  0
    4.3873    0.7652   -0.4343 H   0  0  0  0  0  0  0  0  0  0  0  0
    6.0823    1.0483   -0.0254 H   0  0  0  0  0  0  0  0  0  0  0  0
    6.3514   -2.6148    1.7999 H   0  0  0  0  0  0  0  0  0  0  0  0
    7.1357   -4.9343    2.0258 H   0  0  0  0  0  0  0  0  0  0  0  0
    5.6321   -7.6006   -1.3706 H   0  0  0  0  0  0  0  0  0  0  0  0
    6.2717   -9.9836   -1.2383 H   0  0  0  0  0  0  0  0  0  0  0  0
    6.6299   -7.0891    2.8108 H   0  0  0  0  0  0  0  0  0  0  0  0
    6.5676  -10.0712    3.7797 H   0  0  0  0  0  0  0  0  0  0  0  0
    8.1629   -9.2515    3.7329 H   0  0  0  0  0  0  0  0  0  0  0  0
    8.0153  -11.9130    3.1169 H   0  0  0  0  0  0  0  0  0  0  0  0
    9.0808  -10.8236    2.2271 H   0  0  0  0  0  0  0  0  0  0  0  0
    6.3575  -11.8624    1.3348 H   0  0  0  0  0  0  0  0  0  0  0  0
    7.8750  -11.6979    0.3918 H   0  0  0  0  0  0  0  0  0  0  0  0
    2.9813   -4.8698   -1.9608 H   0  0  0  0  0  0  0  0  0  0  0  0
    3.5329   -3.2095   -2.1913 H   0  0  0  0  0  0  0  0  0  0  0  0
    2.2861   -3.5906   -0.9615 H   0  0  0  0  0  0  0  0  0  0  0  0
  1  2  1  0  0  0  0
  1 22  1  0  0  0  0
  1 23  1  0  0  0  0
  1 24  1  0  0  0  0
  2  3  1  0  0  0  0
  2 25  1  0  0  0  0
  2 26  1  0  0  0  0
  3  4  1  0  0  0  0
  4  5  2  0  0  0  0
  4  6  1  0  0  0  0
  6  7  1  0  0  0  0
  6 20  2  0  0  0  0
  7  8  2  0  0  0  0
  7 27  1  0  0  0  0
  8  9  1  0  0  0  0
  8 28  1  0  0  0  0
  9 10  1  0  0  0  0
  9 19  2  0  0  0  0
 10 11  1  0  0  0  0
 10 15  2  0  0  0  0
 11 12  2  0  0  0  0
 11 29  1  0  0  0  0
 12 13  1  0  0  0  0
 12 30  1  0  0  0  0
 13 14  2  0  0  0  0
 13 18  1  0  0  0  0
 14 15  1  0  0  0  0
 14 16  1  0  0  0  0
 15 31  1  0  0  0  0
 16 17  1  0  0  0  0
 16 32  1  0  0  0  0
 16 33  1  0  0  0  0
 17 18  1  0  0  0  0
 17 34  1  0  0  0  0
 17 35  1  0  0  0  0
 18 36  1  0  0  0  0
 18 37  1  0  0  0  0
 19 20  1  0  0  0  0
 20 21  1  0  0  0  0
 21 38  1  0  0  0  0
 21 39  1  0  0  0  0
 21 40  1  0  0  0  0
M  END
>  <Energy>
63.4365

$$$$

 OpenBabel04232616063D

 37 39  0  0  0  0  0  0  0  0999 V2000
    1.1626   -0.5729    0.4013 C   0  0  0  0  0  0  0  0  0  0  0  0
    2.4636   -1.3628    0.2882 C   0  0  0  0  0  0  0  0  0  0  0  0
    2.1817   -2.8599    0.3807 C   0  0  0  0  0  0  0  0  0  0  0  0
    3.0532   -1.0576   -0.9858 O   0  0  0  0  0  0  0  0  0  0  0  0
    4.4094   -1.1813   -1.1353 C   0  0  0  0  0  0  0  0  0  0  0  0
    5.3132   -1.4746   -0.1124 C   0  0  0  0  0  0  0  0  0  0  0  0
    6.6822   -1.5378   -0.3763 C   0  0  0  0  0  0  0  0  0  0  0  0
    7.1450   -1.3362   -1.6759 C   0  0  0  0  0  0  0  0  0  0  0  0
    8.5813   -1.4003   -1.9610 C   0  0  0  0  0  0  0  0  0  0  0  0
    9.4211   -1.5423   -1.0838 O   0  0  0  0  0  0  0  0  0  0  0  0
    8.9673   -1.3181   -3.3732 C   0  0  0  0  0  0  0  0  0  0  0  0
    8.0216   -1.1519   -4.3101 C   0  0  0  0  0  0  0  0  0  0  0  0
    8.3720   -1.1746   -5.7501 C   0  0  0  0  0  0  0  0  0  0  0  0
    9.3940   -2.0161   -6.2308 C   0  0  0  0  0  0  0  0  0  0  0  0
    9.7293   -2.0484   -7.5873 C   0  0  0  0  0  0  0  0  0  0  0  0
    9.0386   -1.2501   -8.4908 C   0  0  0  0  0  0  0  0  0  0  0  0
    8.0098   -0.4230   -8.0382 C   0  0  0  0  0  0  0  0  0  0  0  0
    7.6783   -0.3881   -6.6788 C   0  0  0  0  0  0  0  0  0  0  0  0
    6.6714   -0.9570   -4.0242 O   0  0  0  0  0  0  0  0  0  0  0  0
    6.2575   -1.0877   -2.7174 C   0  0  0  0  0  0  0  0  0  0  0  0
    4.8893   -0.9873   -2.4407 C   0  0  0  0  0  0  0  0  0  0  0  0
    0.6668   -0.7700    1.3578 H   0  0  0  0  0  0  0  0  0  0  0  0
    0.4718   -0.8192   -0.4116 H   0  0  0  0  0  0  0  0  0  0  0  0
    1.3654    0.5017    0.3356 H   0  0  0  0  0  0  0  0  0  0  0  0
    3.0895   -1.0299    1.1218 H   0  0  0  0  0  0  0  0  0  0  0  0
    1.6136   -3.2061   -0.4899 H   0  0  0  0  0  0  0  0  0  0  0  0
    1.6194   -3.1047    1.2873 H   0  0  0  0  0  0  0  0  0  0  0  0
    3.1138   -3.4340    0.3946 H   0  0  0  0  0  0  0  0  0  0  0  0
    5.0006   -1.6614    0.9082 H   0  0  0  0  0  0  0  0  0  0  0  0
    7.3802   -1.7557    0.4284 H   0  0  0  0  0  0  0  0  0  0  0  0
   10.0233   -1.4309   -3.5813 H   0  0  0  0  0  0  0  0  0  0  0  0
    9.9417   -2.6705   -5.5580 H   0  0  0  0  0  0  0  0  0  0  0  0
   10.5275   -2.7019   -7.9323 H   0  0  0  0  0  0  0  0  0  0  0  0
    9.2964   -1.2759   -9.5464 H   0  0  0  0  0  0  0  0  0  0  0  0
    7.4661    0.1951   -8.7474 H   0  0  0  0  0  0  0  0  0  0  0  0
    6.8730    0.2693   -6.3542 H   0  0  0  0  0  0  0  0  0  0  0  0
    4.1896   -0.7699   -3.2447 H   0  0  0  0  0  0  0  0  0  0  0  0
  1  2  1  0  0  0  0
  1 22  1  0  0  0  0
  1 23  1  0  0  0  0
  1 24  1  0  0  0  0
  2  3  1  0  0  0  0
  2  4  1  0  0  0  0
  2 25  1  0  0  0  0
  3 26  1  0  0  0  0
  3 27  1  0  0  0  0
  3 28  1  0  0  0  0
  4  5  1  0  0  0  0
  5  6  1  0  0  0  0
  5 21  2  0  0  0  0
  6  7  2  0  0  0  0
  6 29  1  0  0  0  0
  7  8  1  0  0  0  0
  7 30  1  0  0  0  0
  8  9  1  0  0  0  0
  8 20  2  0  0  0  0
  9 10  2  0  0  0  0
  9 11  1  0  0  0  0
 11 12  2  0  0  0  0
 11 31  1  0  0  0  0
 12 13  1  0  0  0  0
 12 19  1  0  0  0  0
 13 14  1  0  0  0  0
 13 18  2  0  0  0  0
 14 15  2  0  0  0  0
 14 32  1  0  0  0  0
 15 16  1  0  0  0  0
 15 33  1  0  0  0  0
 16 17  2  0  0  0  0
 16 34  1  0  0  0  0
 17 18  1  0  0  0  0
 17 35  1  0  0  0  0
 18 36  1  0  0  0  0
 19 20  1  0  0  0  0
 20 21  1  0  0  0  0
 21 37  1  0  0  0  0
M  END
>  <Energy>
56.2069

$$$$

 OpenBabel04232616063D

 43 44  0  0  0  0  0  0  0  0999 V2000
    0.7360   -0.0581    0.1703 C   0  0  0  0  0  0  0  0  0  0  0  0
    2.2455   -0.0019   -0.0164 C   0  0  0  0  0  0  0  0  0  0  0  0
    2.9671    0.2803    1.3021 C   0  0  0  0  0  0  0  0  0  0  0  0
    4.4961    0.3309    1.2146 N   0  3  0  0  0  0  0  0  0  0  0  0
    4.9493   -0.8865    0.7498 O   0  5  0  0  0  0  0  0  0  0  0  0
    4.9782    1.4212    0.2593 C   0  0  0  0  0  0  0  0  0  0  0  0
    4.6552    2.8565    0.6658 C   0  0  0  0  0  0  0  0  0  0  0  0
    5.2111    3.8565   -0.3363 C   0  0  0  0  0  0  0  0  0  0  0  0
    5.0426    0.5371    2.6282 C   0  0  0  0  0  0  0  0  0  0  0  0
    6.5677    0.5852    2.7406 C   0  0  0  0  0  0  0  0  0  0  0  0
    7.0161    0.8496    4.1474 C   0  0  0  0  0  0  0  0  0  0  0  0
    6.7937    0.0369    5.2431 C   0  0  0  0  0  0  0  0  0  0  0  0
    7.3533    0.6275    6.3412 N   0  0  0  0  0  0  0  0  0  0  0  0
    7.9482    1.8167    5.9931 C   0  0  0  0  0  0  0  0  0  0  0  0
    8.6382    2.7445    6.7793 C   0  0  0  0  0  0  0  0  0  0  0  0
    9.1540    3.8787    6.1458 C   0  0  0  0  0  0  0  0  0  0  0  0
    8.9856    4.0724    4.7788 C   0  0  0  0  0  0  0  0  0  0  0  0
    8.2921    3.1356    4.0053 C   0  0  0  0  0  0  0  0  0  0  0  0
    7.7590    1.9815    4.6188 C   0  0  0  0  0  0  0  0  0  0  0  0
    0.2439   -0.2346   -0.7918 H   0  0  0  0  0  0  0  0  0  0  0  0
    0.3548    0.8853    0.5750 H   0  0  0  0  0  0  0  0  0  0  0  0
    0.4489   -0.8665    0.8502 H   0  0  0  0  0  0  0  0  0  0  0  0
    2.4662    0.7763   -0.7532 H   0  0  0  0  0  0  0  0  0  0  0  0
    2.5900   -0.9518   -0.4401 H   0  0  0  0  0  0  0  0  0  0  0  0
    2.7465   -0.5212    2.0178 H   0  0  0  0  0  0  0  0  0  0  0  0
    2.6442    1.2302    1.7399 H   0  0  0  0  0  0  0  0  0  0  0  0
    4.5545    1.1799   -0.7209 H   0  0  0  0  0  0  0  0  0  0  0  0
    6.0599    1.2750    0.1609 H   0  0  0  0  0  0  0  0  0  0  0  0
    5.0823    3.0864    1.6468 H   0  0  0  0  0  0  0  0  0  0  0  0
    3.5731    2.9997    0.7458 H   0  0  0  0  0  0  0  0  0  0  0  0
    6.2982    3.7620   -0.4239 H   0  0  0  0  0  0  0  0  0  0  0  0
    4.9861    4.8777   -0.0122 H   0  0  0  0  0  0  0  0  0  0  0  0
    4.7694    3.7087   -1.3266 H   0  0  0  0  0  0  0  0  0  0  0  0
    4.6533   -0.3082    3.2109 H   0  0  0  0  0  0  0  0  0  0  0  0
    4.5786    1.4497    3.0176 H   0  0  0  0  0  0  0  0  0  0  0  0
    6.9720    1.3697    2.0930 H   0  0  0  0  0  0  0  0  0  0  0  0
    7.0075   -0.3559    2.3901 H   0  0  0  0  0  0  0  0  0  0  0  0
    6.2832   -0.9136    5.3301 H   0  0  0  0  0  0  0  0  0  0  0  0
    7.3405    0.2478    7.2786 H   0  0  0  0  0  0  0  0  0  0  0  0
    8.7757    2.5945    7.8451 H   0  0  0  0  0  0  0  0  0  0  0  0
    9.6981    4.6174    6.7302 H   0  0  0  0  0  0  0  0  0  0  0  0
    9.4003    4.9588    4.3026 H   0  0  0  0  0  0  0  0  0  0  0  0
    8.1773    3.2964    2.9376 H   0  0  0  0  0  0  0  0  0  0  0  0
  1  2  1  0  0  0  0
  1 20  1  0  0  0  0
  1 21  1  0  0  0  0
  1 22  1  0  0  0  0
  2  3  1  0  0  0  0
  2 23  1  0  0  0  0
  2 24  1  0  0  0  0
  3  4  1  0  0  0  0
  3 25  1  0  0  0  0
  3 26  1  0  0  0  0
  4  5  1  0  0  0  0
  4  6  1  0  0  0  0
  4  9  1  0  0  0  0
  6  7  1  0  0  0  0
  6 27  1  0  0  0  0
  6 28  1  0  0  0  0
  7  8  1  0  0  0  0
  7 29  1  0  0  0  0
  7 30  1  0  0  0  0
  8 31  1  0  0  0  0
  8 32  1  0  0  0  0
  8 33  1  0  0  0  0
  9 10  1  0  0  0  0
  9 34  1  0  0  0  0
  9 35  1  0  0  0  0
 10 11  1  0  0  0  0
 10 36  1  0  0  0  0
 10 37  1  0  0  0  0
 11 12  2  0  0  0  0
 11 19  1  0  0  0  0
 12 13  1  0  0  0  0
 12 38  1  0  0  0  0
 13 14  1  0  0  0  0
 13 39  1  0  0  0  0
 14 15  1  0  0  0  0
 14 19  2  0  0  0  0
 15 16  2  0  0  0  0
 15 40  1  0  0  0  0
 16 17  1  0  0  0  0
 16 41  1  0  0  0  0
 17 18  2  0  0  0  0
 17 42  1  0  0  0  0
 18 19  1  0  0  0  0
 18 43  1  0  0  0  0
M  CHG  2   4   1   5  -1
M  END
>  <Energy>
32.5553

$$$$

 OpenBabel04232616063D

 36 37  0  0  0  0  0  0  0  0999 V2000
    1.7653   -2.4399   -2.4102 C   0  0  0  0  0  0  0  0  0  0  0  0
    2.7225   -1.5593   -2.0991 C   0  0  0  0  0  0  0  0  0  0  0  0
    3.1636   -1.2767   -0.6910 C   0  0  0  0  0  0  0  0  0  0  0  0
    4.6004   -0.8055   -0.6007 C   0  0  0  0  0  0  0  0  0  0  0  0
    5.5547   -1.8482   -0.4755 C   0  0  0  0  0  0  0  0  0  0  0  0
    6.9172   -1.5892   -0.3560 C   0  0  0  0  0  0  0  0  0  0  0  0
    8.0273   -2.8919   -0.1951 Cl  0  0  0  0  0  0  0  0  0  0  0  0
    7.3724   -0.2823   -0.3633 C   0  0  0  0  0  0  0  0  0  0  0  0
    6.4528    0.7581   -0.5102 C   0  0  0  0  0  0  0  0  0  0  0  0
    5.0680    0.5230   -0.6426 C   0  0  0  0  0  0  0  0  0  0  0  0
    4.3944    1.7059   -0.7978 O   0  0  0  0  0  0  0  0  0  0  0  0
    2.9940    1.7275   -1.0158 C   0  0  0  0  0  0  0  0  0  0  0  0
    2.5241    3.1468   -1.3186 C   0  0  0  0  0  0  0  0  0  0  0  0
    3.1787    3.7158   -2.5727 C   0  0  0  0  0  0  0  0  0  0  0  0
    2.6304    5.0124   -2.9188 N   0  0  0  0  0  0  0  0  0  0  0  0
    1.5811    5.2504   -3.7631 C   0  0  0  0  0  0  0  0  0  0  0  0
    1.4422    6.6192   -3.7756 C   0  0  0  0  0  0  0  0  0  0  0  0
    2.3725    7.2112   -2.9592 N   0  0  0  0  0  0  0  0  0  0  0  0
    3.0748    6.2179   -2.4585 C   0  0  0  0  0  0  0  0  0  0  0  0
    1.4798   -2.6146   -3.4434 H   0  0  0  0  0  0  0  0  0  0  0  0
    1.2411   -3.0078   -1.6456 H   0  0  0  0  0  0  0  0  0  0  0  0
    3.2093   -1.0173   -2.9060 H   0  0  0  0  0  0  0  0  0  0  0  0
    3.0570   -2.1881   -0.0872 H   0  0  0  0  0  0  0  0  0  0  0  0
    2.4844   -0.5757   -0.2072 H   0  0  0  0  0  0  0  0  0  0  0  0
    5.2190   -2.8851   -0.4687 H   0  0  0  0  0  0  0  0  0  0  0  0
    8.4315   -0.0632   -0.2620 H   0  0  0  0  0  0  0  0  0  0  0  0
    6.8248    1.7819   -0.5231 H   0  0  0  0  0  0  0  0  0  0  0  0
    2.4816    1.4101   -0.1039 H   0  0  0  0  0  0  0  0  0  0  0  0
    2.7280    1.0977   -1.8666 H   0  0  0  0  0  0  0  0  0  0  0  0
    2.7461    3.7984   -0.4653 H   0  0  0  0  0  0  0  0  0  0  0  0
    1.4332    3.1335   -1.4389 H   0  0  0  0  0  0  0  0  0  0  0  0
    3.0225    3.0553   -3.4338 H   0  0  0  0  0  0  0  0  0  0  0  0
    4.2585    3.8412   -2.4384 H   0  0  0  0  0  0  0  0  0  0  0  0
    1.0396    4.4632   -4.2684 H   0  0  0  0  0  0  0  0  0  0  0  0
    0.7228    7.2104   -4.3263 H   0  0  0  0  0  0  0  0  0  0  0  0
    3.9010    6.3166   -1.7667 H   0  0  0  0  0  0  0  0  0  0  0  0
  1  2  2  0  0  0  0
  1 20  1  0  0  0  0
  1 21  1  0  0  0  0
  2  3  1  0  0  0  0
  2 22  1  0  0  0  0
  3  4  1  0  0  0  0
  3 23  1  0  0  0  0
  3 24  1  0  0  0  0
  4  5  1  0  0  0  0
  4 10  2  0  0  0  0
  5  6  2  0  0  0  0
  5 25  1  0  0  0  0
  6  7  1  0  0  0  0
  6  8  1  0  0  0  0
  8  9  2  0  0  0  0
  8 26  1  0  0  0  0
  9 10  1  0  0  0  0
  9 27  1  0  0  0  0
 10 11  1  0  0  0  0
 11 12  1  0  0  0  0
 12 13  1  0  0  0  0
 12 28  1  0  0  0  0
 12 29  1  0  0  0  0
 13 14  1  0  0  0  0
 13 30  1  0  0  0  0
 13 31  1  0  0  0  0
 14 15  1  0  0  0  0
 14 32  1  0  0  0  0
 14 33  1  0  0  0  0
 15 16  1  0  0  0  0
 15 19  1  0  0  0  0
 16 17  2  0  0  0  0
 16 34  1  0  0  0  0
 17 18  1  0  0  0  0
 17 35  1  0  0  0  0
 18 19  2  0  0  0  0
 19 36  1  0  0  0  0
M  END
>  <Energy>
37.4172

$$$$

 OpenBabel04232616063D

 38 38  0  0  1  0  0  0  0  0999 V2000
    1.0604    0.1536   -0.5672 C   0  0  0  0  0  0  0  0  0  0  0  0
    2.5055   -0.0071   -0.0711 C   0  0  3  0  0  0  0  0  0  0  0  0
    3.0165   -1.3624   -0.3187 N   0  0  0  0  0  0  0  0  0  0  0  0
    2.7386   -2.3941    0.5583 C   0  0  0  0  0  0  0  0  0  0  0  0
    2.0942   -2.1830    1.5898 O   0  0  0  0  0  0  0  0  0  0  0  0
    3.1984   -3.8147    0.1552 C   0  0  3  0  0  0  0  0  0  0  0  0
    3.5810   -4.5330    1.4389 C   0  0  0  0  0  0  0  0  0  0  0  0
    3.8984   -5.1289    2.5039 N   0  0  0  0  0  0  0  0  0  0  0  0
    2.0315   -4.6160   -0.5443 C   0  0  0  0  0  0  0  0  0  0  0  0
    1.5732   -3.9426   -1.8530 C   0  0  0  0  0  0  0  0  0  0  0  0
    2.5062   -6.0470   -0.8932 C   0  0  0  0  0  0  0  0  0  0  0  0
    0.7900   -4.7447    0.3720 C   0  0  0  0  0  0  0  0  0  0  0  0
    3.4081    1.0431   -0.6969 C   0  0  0  0  0  0  0  0  0  0  0  0
    4.0986    1.9620    0.1133 C   0  0  0  0  0  0  0  0  0  0  0  0
    4.9481    2.9172   -0.4556 C   0  0  0  0  0  0  0  0  0  0  0  0
    5.1139    2.9607   -1.8373 C   0  0  0  0  0  0  0  0  0  0  0  0
    6.1969    4.0987   -2.5384 Cl  0  0  0  0  0  0  0  0  0  0  0  0
    4.4161    2.0784   -2.6576 C   0  0  0  0  0  0  0  0  0  0  0  0
    3.5655    1.1274   -2.0903 C   0  0  0  0  0  0  0  0  0  0  0  0
    0.3967   -0.5885   -0.1120 H   0  0  0  0  0  0  0  0  0  0  0  0
    0.9815    0.0305   -1.6537 H   0  0  0  0  0  0  0  0  0  0  0  0
    0.6738    1.1495   -0.3197 H   0  0  0  0  0  0  0  0  0  0  0  0
    2.4919    0.1455    1.0161 H   0  0  0  0  0  0  0  0  0  0  0  0
    3.7112   -1.4834   -1.0446 H   0  0  0  0  0  0  0  0  0  0  0  0
    4.0734   -3.7465   -0.5010 H   0  0  0  0  0  0  0  0  0  0  0  0
    2.3871   -3.8805   -2.5822 H   0  0  0  0  0  0  0  0  0  0  0  0
    1.1874   -2.9331   -1.6808 H   0  0  0  0  0  0  0  0  0  0  0  0
    0.7581   -4.5135   -2.3170 H   0  0  0  0  0  0  0  0  0  0  0  0
    3.3592   -6.0273   -1.5797 H   0  0  0  0  0  0  0  0  0  0  0  0
    1.7050   -6.6230   -1.3710 H   0  0  0  0  0  0  0  0  0  0  0  0
    2.8058   -6.6077   -0.0010 H   0  0  0  0  0  0  0  0  0  0  0  0
    0.3515   -3.7678    0.5987 H   0  0  0  0  0  0  0  0  0  0  0  0
    1.0307   -5.2360    1.3206 H   0  0  0  0  0  0  0  0  0  0  0  0
    0.0067   -5.3427   -0.1072 H   0  0  0  0  0  0  0  0  0  0  0  0
    3.9809    1.9451    1.1962 H   0  0  0  0  0  0  0  0  0  0  0  0
    5.4795    3.6180    0.1837 H   0  0  0  0  0  0  0  0  0  0  0  0
    4.5305    2.1221   -3.7368 H   0  0  0  0  0  0  0  0  0  0  0  0
    3.0200    0.4543   -2.7479 H   0  0  0  0  0  0  0  0  0  0  0  0
  1  2  1  0  0  0  0
  1 20  1  0  0  0  0
  1 21  1  0  0  0  0
  1 22  1  0  0  0  0
  2  3  1  0  0  0  0
  2 13  1  0  0  0  0
  2 23  1  0  0  0  0
  3  4  1  0  0  0  0
  3 24  1  0  0  0  0
  4  5  2  0  0  0  0
  4  6  1  0  0  0  0
  6  7  1  0  0  0  0
  6  9  1  0  0  0  0
  6 25  1  0  0  0  0
  7  8  3  0  0  0  0
  9 10  1  0  0  0  0
  9 11  1  0  0  0  0
  9 12  1  0  0  0  0
 10 26  1  0  0  0  0
 10 27  1  0  0  0  0
 10 28  1  0  0  0  0
 11 29  1  0  0  0  0
 11 30  1  0  0  0  0
 11 31  1  0  0  0  0
 12 32  1  0  0  0  0
 12 33  1  0  0  0  0
 12 34  1  0  0  0  0
 13 14  1  0  0  0  0
 13 19  2  0  0  0  0
 14 15  2  0  0  0  0
 14 35  1  0  0  0  0
 15 16  1  0  0  0  0
 15 36  1  0  0  0  0
 16 17  1  0  0  0  0
 16 18  2  0  0  0  0
 18 19  1  0  0  0  0
 18 37  1  0  0  0  0
 19 38  1  0  0  0  0
M  END
>  <Energy>
162.454

$$$$

 OpenBabel04232616063D

 37 38  0  0  0  0  0  0  0  0999 V2000
    1.1924   -0.4046   -0.7386 C   0  0  0  0  0  0  0  0  0  0  0  0
    2.6308   -0.1609   -0.3106 C   0  0  0  0  0  0  0  0  0  0  0  0
    3.1383    1.1974   -0.7948 C   0  0  0  0  0  0  0  0  0  0  0  0
    4.4901    1.5385   -0.1606 C   0  0  0  0  0  0  0  0  0  0  0  0
    4.9792    2.8531   -0.5153 N   0  0  0  0  0  0  0  0  0  0  0  0
    6.0256    3.1677   -1.3488 C   0  0  0  0  0  0  0  0  0  0  0  0
    7.1186    2.0680   -2.1179 S   0  0  0  0  0  0  0  0  0  0  0  0
    6.0865    4.4655   -1.5168 N   0  0  0  0  0  0  0  0  0  0  0  0
    5.0797    5.0284   -0.7803 N   0  0  0  0  0  0  0  0  0  0  0  0
    4.4322    4.0704   -0.1433 C   0  0  0  0  0  0  0  0  0  0  0  0
    3.2792    4.3915    0.7669 C   0  0  0  0  0  0  0  0  0  0  0  0
    2.6539    3.5380    1.6463 C   0  0  0  0  0  0  0  0  0  0  0  0
    1.3387    4.2715    2.4600 S   0  0  0  0  0  0  0  0  0  0  0  0
    1.6063    5.7703    1.6774 C   0  0  0  0  0  0  0  0  0  0  0  0
    0.7079    6.9474    1.9797 C   0  0  0  0  0  0  0  0  0  0  0  0
    1.4774    8.0376    2.7236 C   0  0  0  0  0  0  0  0  0  0  0  0
    0.0739    7.5033    0.7020 C   0  0  0  0  0  0  0  0  0  0  0  0
    2.6906    5.6970    0.8230 C   0  0  0  0  0  0  0  0  0  0  0  0
    0.8668   -1.4010   -0.4239 H   0  0  0  0  0  0  0  0  0  0  0  0
    1.0855   -0.3361   -1.8255 H   0  0  0  0  0  0  0  0  0  0  0  0
    0.5213    0.3293   -0.2799 H   0  0  0  0  0  0  0  0  0  0  0  0
    3.2709   -0.9557   -0.7103 H   0  0  0  0  0  0  0  0  0  0  0  0
    2.6869   -0.2173    0.7829 H   0  0  0  0  0  0  0  0  0  0  0  0
    2.3934    1.9648   -0.5632 H   0  0  0  0  0  0  0  0  0  0  0  0
    3.2327    1.1905   -1.8879 H   0  0  0  0  0  0  0  0  0  0  0  0
    5.2173    0.7827   -0.4590 H   0  0  0  0  0  0  0  0  0  0  0  0
    4.4616    1.4875    0.9318 H   0  0  0  0  0  0  0  0  0  0  0  0
    6.8746    0.9291   -1.4656 H   0  0  0  0  0  0  0  0  0  0  0  0
    2.8668    2.5098    1.8849 H   0  0  0  0  0  0  0  0  0  0  0  0
   -0.1130    6.6210    2.6299 H   0  0  0  0  0  0  0  0  0  0  0  0
    2.3001    8.4376    2.1207 H   0  0  0  0  0  0  0  0  0  0  0  0
    1.9060    7.6471    3.6537 H   0  0  0  0  0  0  0  0  0  0  0  0
    0.8147    8.8699    2.9839 H   0  0  0  0  0  0  0  0  0  0  0  0
    0.8266    7.9010    0.0124 H   0  0  0  0  0  0  0  0  0  0  0  0
   -0.6229    8.3143    0.9402 H   0  0  0  0  0  0  0  0  0  0  0  0
   -0.4869    6.7254    0.1717 H   0  0  0  0  0  0  0  0  0  0  0  0
    3.0367    6.5377    0.2306 H   0  0  0  0  0  0  0  0  0  0  0  0
  1  2  1  0  0  0  0
  1 19  1  0  0  0  0
  1 20  1  0  0  0  0
  1 21  1  0  0  0  0
  2  3  1  0  0  0  0
  2 22  1  0  0  0  0
  2 23  1  0  0  0  0
  3  4  1  0  0  0  0
  3 24  1  0  0  0  0
  3 25  1  0  0  0  0
  4  5  1  0  0  0  0
  4 26  1  0  0  0  0
  4 27  1  0  0  0  0
  5  6  1  0  0  0  0
  5 10  1  0  0  0  0
  6  7  1  0  0  0  0
  6  8  2  0  0  0  0
  7 28  1  0  0  0  0
  8  9  1  0  0  0  0
  9 10  2  0  0  0  0
 10 11  1  0  0  0  0
 11 12  2  0  0  0  0
 11 18  1  0  0  0  0
 12 13  1  0  0  0  0
 12 29  1  0  0  0  0
 13 14  1  0  0  0  0
 14 15  1  0  0  0  0
 14 18  2  0  0  0  0
 15 16  1  0  0  0  0
 15 17  1  0  0  0  0
 15 30  1  0  0  0  0
 16 31  1  0  0  0  0
 16 32  1  0  0  0  0
 16 33  1  0  0  0  0
 17 34  1  0  0  0  0
 17 35  1  0  0  0  0
 17 36  1  0  0  0  0
 18 37  1  0  0  0  0
M  END
>  <Energy>
7.83907

$$$$

 OpenBabel04232616063D

 38 39  0  0  0  0  0  0  0  0999 V2000
    0.9942   -1.6765    1.4023 C   0  0  0  0  0  0  0  0  0  0  0  0
    2.3673   -1.2580    1.9050 C   0  0  0  0  0  0  0  0  0  0  0  0
    3.4395   -1.4354    0.8259 C   0  0  0  0  0  0  0  0  0  0  0  0
    4.8349   -1.0334    1.3114 C   0  0  0  0  0  0  0  0  0  0  0  0
    5.2364   -1.9662    2.3597 N   0  0  0  0  0  0  0  0  0  0  0  0
    6.3097   -1.6649    2.9954 C   0  0  0  0  0  0  0  0  0  0  0  0
    6.7610   -2.5688    4.0277 C   0  0  0  0  0  0  0  0  0  0  0  0
    6.4337   -3.9395    4.2109 C   0  0  0  0  0  0  0  0  0  0  0  0
    5.4988   -4.7963    3.4388 C   0  0  0  0  0  0  0  0  0  0  0  0
    7.1249   -4.4824    5.2180 N   0  0  0  0  0  0  0  0  0  0  0  0
    7.7820   -3.4491    5.8088 N   0  0  0  0  0  0  0  0  0  0  0  0
    8.4472   -3.6984    7.0441 C   0  0  0  0  0  0  0  0  0  0  0  0
    8.9401   -4.9903    7.2900 C   0  0  0  0  0  0  0  0  0  0  0  0
    9.6084   -5.2765    8.4823 C   0  0  0  0  0  0  0  0  0  0  0  0
    9.7602   -4.2897    9.4516 C   0  0  0  0  0  0  0  0  0  0  0  0
    9.2328   -3.0161    9.2365 C   0  0  0  0  0  0  0  0  0  0  0  0
    8.5735   -2.7194    8.0373 C   0  0  0  0  0  0  0  0  0  0  0  0
    7.6616   -2.2901    5.0429 C   0  0  0  0  0  0  0  0  0  0  0  0
    8.5782   -0.8239    5.2972 S   0  0  0  0  0  0  0  0  0  0  0  0
    0.2467   -1.5489    2.1922 H   0  0  0  0  0  0  0  0  0  0  0  0
    0.9910   -2.7293    1.1011 H   0  0  0  0  0  0  0  0  0  0  0  0
    0.6879   -1.0715    0.5435 H   0  0  0  0  0  0  0  0  0  0  0  0
    2.6140   -1.8566    2.7890 H   0  0  0  0  0  0  0  0  0  0  0  0
    2.3313   -0.2094    2.2235 H   0  0  0  0  0  0  0  0  0  0  0  0
    3.1797   -0.8260   -0.0485 H   0  0  0  0  0  0  0  0  0  0  0  0
    3.4547   -2.4816    0.4969 H   0  0  0  0  0  0  0  0  0  0  0  0
    4.8290    0.0031    1.6687 H   0  0  0  0  0  0  0  0  0  0  0  0
    5.5349   -1.1071    0.4714 H   0  0  0  0  0  0  0  0  0  0  0  0
    6.8982   -0.7529    2.7855 H   0  0  0  0  0  0  0  0  0  0  0  0
    5.3058   -4.4136    2.4367 H   0  0  0  0  0  0  0  0  0  0  0  0
    4.5446   -4.8846    3.9661 H   0  0  0  0  0  0  0  0  0  0  0  0
    5.9159   -5.8053    3.3159 H   0  0  0  0  0  0  0  0  0  0  0  0
    8.8339   -5.7789    6.5455 H   0  0  0  0  0  0  0  0  0  0  0  0
   10.0075   -6.2761    8.6518 H   0  0  0  0  0  0  0  0  0  0  0  0
   10.2709   -4.5147   10.3815 H   0  0  0  0  0  0  0  0  0  0  0  0
    9.3174   -2.2588   10.0083 H   0  0  0  0  0  0  0  0  0  0  0  0
    8.1152   -1.7383    7.9350 H   0  0  0  0  0  0  0  0  0  0  0  0
    9.5285   -1.2797    6.1284 H   0  0  0  0  0  0  0  0  0  0  0  0
  1  2  1  0  0  0  0
  1 20  1  0  0  0  0
  1 21  1  0  0  0  0
  1 22  1  0  0  0  0
  2  3  1  0  0  0  0
  2 23  1  0  0  0  0
  2 24  1  0  0  0  0
  3  4  1  0  0  0  0
  3 25  1  0  0  0  0
  3 26  1  0  0  0  0
  4  5  1  0  0  0  0
  4 27  1  0  0  0  0
  4 28  1  0  0  0  0
  5  6  2  0  0  0  0
  6  7  1  0  0  0  0
  6 29  1  0  0  0  0
  7  8  1  0  0  0  0
  7 18  2  0  0  0  0
  8  9  1  0  0  0  0
  8 10  2  0  0  0  0
  9 30  1  0  0  0  0
  9 31  1  0  0  0  0
  9 32  1  0  0  0  0
 10 11  1  0  0  0  0
 11 12  1  0  0  0  0
 11 18  1  0  0  0  0
 12 13  1  0  0  0  0
 12 17  2  0  0  0  0
 13 14  2  0  0  0  0
 13 33  1  0  0  0  0
 14 15  1  0  0  0  0
 14 34  1  0  0  0  0
 15 16  2  0  0  0  0
 15 35  1  0  0  0  0
 16 17  1  0  0  0  0
 16 36  1  0  0  0  0
 17 37  1  0  0  0  0
 18 19  1  0  0  0  0
 19 38  1  0  0  0  0
M  END
>  <Energy>
70.6854

$$$$

 OpenBabel04232616063D

 36 38  0  0  0  0  0  0  0  0999 V2000
    1.1460   -0.3531   -0.1386 C   0  0  0  0  0  0  0  0  0  0  0  0
    2.4897    0.0788    0.0095 O   0  0  0  0  0  0  0  0  0  0  0  0
    3.1585   -0.3627    1.1151 C   0  0  0  0  0  0  0  0  0  0  0  0
    2.8207   -1.4714    1.8929 C   0  0  0  0  0  0  0  0  0  0  0  0
    3.6023   -1.8541    2.9926 C   0  0  0  0  0  0  0  0  0  0  0  0
    4.7794   -1.1649    3.3686 C   0  0  0  0  0  0  0  0  0  0  0  0
    5.6259   -1.6119    4.4972 C   0  0  0  0  0  0  0  0  0  0  0  0
    5.8617   -2.9809    4.7255 C   0  0  0  0  0  0  0  0  0  0  0  0
    6.6978   -3.4181    5.7593 C   0  0  0  0  0  0  0  0  0  0  0  0
    7.3299   -2.4934    6.5835 C   0  0  0  0  0  0  0  0  0  0  0  0
    7.0974   -1.1356    6.3965 C   0  0  0  0  0  0  0  0  0  0  0  0
    6.2383   -0.7044    5.3799 C   0  0  0  0  0  0  0  0  0  0  0  0
    5.1308   -0.0392    2.5803 C   0  0  0  0  0  0  0  0  0  0  0  0
    6.1930    0.9178    2.5587 C   0  0  0  0  0  0  0  0  0  0  0  0
    5.9206    1.8135    1.5512 C   0  0  0  0  0  0  0  0  0  0  0  0
    6.6120    2.9377    1.1960 N   0  0  0  0  0  0  0  0  0  0  0  0
    6.3669    3.8579    0.2284 C   0  0  0  0  0  0  0  0  0  0  0  0
    5.2203    3.7799   -0.7444 C   0  0  0  0  0  0  0  0  0  0  0  0
    7.1468    4.8147    0.1547 O   0  0  0  0  0  0  0  0  0  0  0  0
    4.7967    1.4435    0.9031 O   0  0  0  0  0  0  0  0  0  0  0  0
    4.3142    0.3213    1.5114 C   0  0  0  0  0  0  0  0  0  0  0  0
    0.7270    0.1544   -1.0120 H   0  0  0  0  0  0  0  0  0  0  0  0
    0.5442   -0.0724    0.7343 H   0  0  0  0  0  0  0  0  0  0  0  0
    1.0914   -1.4299   -0.3266 H   0  0  0  0  0  0  0  0  0  0  0  0
    1.9493   -2.0766    1.6571 H   0  0  0  0  0  0  0  0  0  0  0  0
    3.2786   -2.7209    3.5689 H   0  0  0  0  0  0  0  0  0  0  0  0
    5.4082   -3.7334    4.0839 H   0  0  0  0  0  0  0  0  0  0  0  0
    6.8618   -4.4818    5.9102 H   0  0  0  0  0  0  0  0  0  0  0  0
    7.9975   -2.8306    7.3721 H   0  0  0  0  0  0  0  0  0  0  0  0
    7.5835   -0.4074    7.0411 H   0  0  0  0  0  0  0  0  0  0  0  0
    6.0533    0.3633    5.2911 H   0  0  0  0  0  0  0  0  0  0  0  0
    7.0459    0.9617    3.2199 H   0  0  0  0  0  0  0  0  0  0  0  0
    7.4321    3.1621    1.7449 H   0  0  0  0  0  0  0  0  0  0  0  0
    4.5718    2.9174   -0.6490 H   0  0  0  0  0  0  0  0  0  0  0  0
    5.6343    3.7663   -1.7581 H   0  0  0  0  0  0  0  0  0  0  0  0
    4.6042    4.6759   -0.6245 H   0  0  0  0  0  0  0  0  0  0  0  0
  1  2  1  0  0  0  0
  1 22  1  0  0  0  0
  1 23  1  0  0  0  0
  1 24  1  0  0  0  0
  2  3  1  0  0  0  0
  3  4  1  0  0  0  0
  3 21  2  0  0  0  0
  4  5  2  0  0  0  0
  4 25  1  0  0  0  0
  5  6  1  0  0  0  0
  5 26  1  0  0  0  0
  6  7  1  0  0  0  0
  6 13  2  0  0  0  0
  7  8  1  0  0  0  0
  7 12  2  0  0  0  0
  8  9  2  0  0  0  0
  8 27  1  0  0  0  0
  9 10  1  0  0  0  0
  9 28  1  0  0  0  0
 10 11  2  0  0  0  0
 10 29  1  0  0  0  0
 11 12  1  0  0  0  0
 11 30  1  0  0  0  0
 12 31  1  0  0  0  0
 13 14  1  0  0  0  0
 13 21  1  0  0  0  0
 14 15  2  0  0  0  0
 14 32  1  0  0  0  0
 15 16  1  0  0  0  0
 15 20  1  0  0  0  0
 16 17  1  0  0  0  0
 16 33  1  0  0  0  0
 17 18  1  0  0  0  0
 17 19  2  0  0  0  0
 18 34  1  0  0  0  0
 18 35  1  0  0  0  0
 18 36  1  0  0  0  0
 20 21  1  0  0  0  0
M  END
>  <Energy>
33.5303

$$$$

 OpenBabel04232616063D

 37 38  0  0  0  0  0  0  0  0999 V2000
    0.9359   -0.3783   -0.0975 C   0  0  0  0  0  0  0  0  0  0  0  0
    2.4333   -0.0556    0.0734 C   0  0  0  0  0  0  0  0  0  0  0  0
    3.2426   -0.7659   -1.0296 C   0  0  0  0  0  0  0  0  0  0  0  0
    2.6194    1.4659   -0.1139 C   0  0  0  0  0  0  0  0  0  0  0  0
    2.8964   -0.5096    1.4631 C   0  0  0  0  0  0  0  0  0  0  0  0
    2.8475   -1.8404    1.8340 C   0  0  0  0  0  0  0  0  0  0  0  0
    3.2620   -2.1310    3.1101 C   0  0  0  0  0  0  0  0  0  0  0  0
    3.2432   -3.4135    3.5778 O   0  0  0  0  0  0  0  0  0  0  0  0
    3.7066   -1.2220    3.9813 N   0  0  0  0  0  0  0  0  0  0  0  0
    3.7278    0.0423    3.5490 C   0  0  0  0  0  0  0  0  0  0  0  0
    4.4111    1.2450    4.6613 S   0  0  0  0  0  0  0  0  0  0  0  0
    3.5243    2.7437    4.1278 C   0  0  0  0  0  0  0  0  0  0  0  0
    4.0141    3.9545    4.8954 C   0  0  0  0  0  0  0  0  0  0  0  0
    5.1149    4.6917    4.4305 C   0  0  0  0  0  0  0  0  0  0  0  0
    5.6227    5.7594    5.1746 C   0  0  0  0  0  0  0  0  0  0  0  0
    5.0336    6.1080    6.3884 C   0  0  0  0  0  0  0  0  0  0  0  0
    3.9279    5.3986    6.8523 C   0  0  0  0  0  0  0  0  0  0  0  0
    3.4219    4.3249    6.1125 C   0  0  0  0  0  0  0  0  0  0  0  0
    3.3347    0.4379    2.3244 N   0  0  0  0  0  0  0  0  0  0  0  0
    0.5688   -0.0447   -1.0747 H   0  0  0  0  0  0  0  0  0  0  0  0
    0.3342    0.1166    0.6739 H   0  0  0  0  0  0  0  0  0  0  0  0
    0.7374   -1.4537   -0.0274 H   0  0  0  0  0  0  0  0  0  0  0  0
    2.9305   -0.4274   -2.0243 H   0  0  0  0  0  0  0  0  0  0  0  0
    3.1117   -1.8531   -1.0046 H   0  0  0  0  0  0  0  0  0  0  0  0
    4.3149   -0.5609   -0.9293 H   0  0  0  0  0  0  0  0  0  0  0  0
    2.2782    1.7869   -1.1046 H   0  0  0  0  0  0  0  0  0  0  0  0
    3.6734    1.7540   -0.0194 H   0  0  0  0  0  0  0  0  0  0  0  0
    2.0501    2.0361    0.6298 H   0  0  0  0  0  0  0  0  0  0  0  0
    2.4948   -2.6101    1.1605 H   0  0  0  0  0  0  0  0  0  0  0  0
    2.9226   -3.9986    2.8786 H   0  0  0  0  0  0  0  0  0  0  0  0
    2.4485    2.6119    4.2920 H   0  0  0  0  0  0  0  0  0  0  0  0
    3.6695    2.9198    3.0561 H   0  0  0  0  0  0  0  0  0  0  0  0
    5.5955    4.4253    3.4917 H   0  0  0  0  0  0  0  0  0  0  0  0
    6.4886    6.3086    4.8147 H   0  0  0  0  0  0  0  0  0  0  0  0
    5.4398    6.9270    6.9751 H   0  0  0  0  0  0  0  0  0  0  0  0
    3.4673    5.6703    7.7984 H   0  0  0  0  0  0  0  0  0  0  0  0
    2.5732    3.7674    6.5027 H   0  0  0  0  0  0  0  0  0  0  0  0
  1  2  1  0  0  0  0
  1 20  1  0  0  0  0
  1 21  1  0  0  0  0
  1 22  1  0  0  0  0
  2  3  1  0  0  0  0
  2  4  1  0  0  0  0
  2  5  1  0  0  0  0
  3 23  1  0  0  0  0
  3 24  1  0  0  0  0
  3 25  1  0  0  0  0
  4 26  1  0  0  0  0
  4 27  1  0  0  0  0
  4 28  1  0  0  0  0
  5  6  1  0  0  0  0
  5 19  2  0  0  0  0
  6  7  2  0  0  0  0
  6 29  1  0  0  0  0
  7  8  1  0  0  0  0
  7  9  1  0  0  0  0
  8 30  1  0  0  0  0
  9 10  2  0  0  0  0
 10 11  1  0  0  0  0
 10 19  1  0  0  0  0
 11 12  1  0  0  0  0
 12 13  1  0  0  0  0
 12 31  1  0  0  0  0
 12 32  1  0  0  0  0
 13 14  1  0  0  0  0
 13 18  2  0  0  0  0
 14 15  2  0  0  0  0
 14 33  1  0  0  0  0
 15 16  1  0  0  0  0
 15 34  1  0  0  0  0
 16 17  2  0  0  0  0
 16 35  1  0  0  0  0
 17 18  1  0  0  0  0
 17 36  1  0  0  0  0
 18 37  1  0  0  0  0
M  END
>  <Energy>
-32.775

$$$$

 OpenBabel04232616063D

 34 36  0  0  0  0  0  0  0  0999 V2000
    6.3249   -3.3037   -1.9409 C   0  0  0  0  0  0  0  0  0  0  0  0
    5.3020   -2.7758   -1.1019 O   0  0  0  0  0  0  0  0  0  0  0  0
    4.2446   -2.1538   -1.7279 C   0  0  0  0  0  0  0  0  0  0  0  0
    3.9038   -2.4164   -3.0638 C   0  0  0  0  0  0  0  0  0  0  0  0
    2.8501   -1.7390   -3.6708 C   0  0  0  0  0  0  0  0  0  0  0  0
    2.1217   -0.8070   -2.9434 C   0  0  0  0  0  0  0  0  0  0  0  0
    2.4254   -0.5705   -1.5986 C   0  0  0  0  0  0  0  0  0  0  0  0
    3.4755   -1.2423   -0.9561 C   0  0  0  0  0  0  0  0  0  0  0  0
    3.8053   -1.0316    0.4768 C   0  0  0  0  0  0  0  0  0  0  0  0
    3.2547   -0.2991    1.4622 C   0  0  0  0  0  0  0  0  0  0  0  0
    2.0934    0.5994    1.4686 C   0  0  0  0  0  0  0  0  0  0  0  0
    0.9017    0.1281    1.9976 C   0  0  0  0  0  0  0  0  0  0  0  0
   -0.1932    0.8971    2.1287 N   0  0  0  0  0  0  0  0  0  0  0  0
   -0.1406    2.2026    1.7339 N   0  0  0  0  0  0  0  0  0  0  0  0
    0.9801    2.7207    1.2060 C   0  0  0  0  0  0  0  0  0  0  0  0
    0.9954    4.0546    0.8111 C   0  0  0  0  0  0  0  0  0  0  0  0
    2.1266    4.6402    0.2407 C   0  0  0  0  0  0  0  0  0  0  0  0
    3.2762    3.8830    0.0646 C   0  0  0  0  0  0  0  0  0  0  0  0
    3.2893    2.5486    0.4697 C   0  0  0  0  0  0  0  0  0  0  0  0
    2.1467    1.9443    1.0440 C   0  0  0  0  0  0  0  0  0  0  0  0
    7.2250   -3.4302   -1.3313 H   0  0  0  0  0  0  0  0  0  0  0  0
    6.5800   -2.6254   -2.7621 H   0  0  0  0  0  0  0  0  0  0  0  0
    6.0334   -4.2877   -2.3200 H   0  0  0  0  0  0  0  0  0  0  0  0
    4.4394   -3.1542   -3.6523 H   0  0  0  0  0  0  0  0  0  0  0  0
    2.5964   -1.9403   -4.7076 H   0  0  0  0  0  0  0  0  0  0  0  0
    1.3035   -0.2675   -3.4141 H   0  0  0  0  0  0  0  0  0  0  0  0
    1.8104    0.1537   -1.0776 H   0  0  0  0  0  0  0  0  0  0  0  0
    4.6724   -1.6116    0.7964 H   0  0  0  0  0  0  0  0  0  0  0  0
    3.7233   -0.3672    2.4461 H   0  0  0  0  0  0  0  0  0  0  0  0
    0.7883   -0.8916    2.3491 H   0  0  0  0  0  0  0  0  0  0  0  0
    0.0971    4.6530    0.9495 H   0  0  0  0  0  0  0  0  0  0  0  0
    2.1043    5.6829   -0.0653 H   0  0  0  0  0  0  0  0  0  0  0  0
    4.1611    4.3244   -0.3868 H   0  0  0  0  0  0  0  0  0  0  0  0
    4.2004    1.9727    0.3190 H   0  0  0  0  0  0  0  0  0  0  0  0
  1  2  1  0  0  0  0
  1 21  1  0  0  0  0
  1 22  1  0  0  0  0
  1 23  1  0  0  0  0
  2  3  1  0  0  0  0
  3  4  1  0  0  0  0
  3  8  2  0  0  0  0
  4  5  2  0  0  0  0
  4 24  1  0  0  0  0
  5  6  1  0  0  0  0
  5 25  1  0  0  0  0
  6  7  2  0  0  0  0
  6 26  1  0  0  0  0
  7  8  1  0  0  0  0
  7 27  1  0  0  0  0
  8  9  1  0  0  0  0
  9 10  2  0  0  0  0
  9 28  1  0  0  0  0
 10 11  1  0  0  0  0
 10 29  1  0  0  0  0
 11 12  1  0  0  0  0
 11 20  2  0  0  0  0
 12 13  2  0  0  0  0
 12 30  1  0  0  0  0
 13 14  1  0  0  0  0
 14 15  2  0  0  0  0
 15 16  1  0  0  0  0
 15 20  1  0  0  0  0
 16 17  2  0  0  0  0
 16 31  1  0  0  0  0
 17 18  1  0  0  0  0
 17 32  1  0  0  0  0
 18 19  2  0  0  0  0
 18 33  1  0  0  0  0
 19 20  1  0  0  0  0
 19 34  1  0  0  0  0
M  END
>  <Energy>
93.7567

$$$$

 OpenBabel04232616063D

 40 42  0  0  0  0  0  0  0  0999 V2000
    3.5704    0.0973   -0.9301 C   0  0  0  0  0  0  0  0  0  0  0  0
    2.4529    0.1013    0.0974 C   0  0  0  0  0  0  0  0  0  0  0  0
    2.9202   -0.2540    1.4209 N   0  0  0  0  0  0  0  0  0  0  0  0
    3.3697    0.6292    2.3647 C   0  0  0  0  0  0  0  0  0  0  0  0
    3.7022    0.0200    3.4788 N   0  0  0  0  0  0  0  0  0  0  0  0
    3.4592   -1.3134    3.2497 C   0  0  0  0  0  0  0  0  0  0  0  0
    3.6406   -2.4199    4.0948 C   0  0  0  0  0  0  0  0  0  0  0  0
    3.2977   -3.7131    3.6556 C   0  0  0  0  0  0  0  0  0  0  0  0
    3.5557   -4.8027    4.5042 N   0  0  0  0  0  0  0  0  0  0  0  0
    2.6928   -5.9780    4.4134 C   0  0  0  0  0  0  0  0  0  0  0  0
    3.1415   -7.0199    5.4146 C   0  0  0  0  0  0  0  0  0  0  0  0
    2.2695   -7.5127    6.3953 C   0  0  0  0  0  0  0  0  0  0  0  0
    2.7070   -8.4786    7.3074 C   0  0  0  0  0  0  0  0  0  0  0  0
    4.0074   -8.9845    7.2450 C   0  0  0  0  0  0  0  0  0  0  0  0
    4.3310   -9.8862    8.2206 O   0  0  0  0  0  0  0  0  0  0  0  0
    5.3367  -10.8371    7.8894 C   0  0  0  0  0  0  0  0  0  0  0  0
    4.8783   -8.5050    6.2675 C   0  0  0  0  0  0  0  0  0  0  0  0
    4.4446   -7.5351    5.3586 C   0  0  0  0  0  0  0  0  0  0  0  0
    2.8462   -3.8693    2.3373 C   0  0  0  0  0  0  0  0  0  0  0  0
    2.6613   -2.7840    1.4667 C   0  0  0  0  0  0  0  0  0  0  0  0
    2.9680   -1.5154    1.9611 C   0  0  0  0  0  0  0  0  0  0  0  0
    3.1808    0.3702   -1.9157 H   0  0  0  0  0  0  0  0  0  0  0  0
    4.0335   -0.8920   -1.0079 H   0  0  0  0  0  0  0  0  0  0  0  0
    4.3546    0.8131   -0.6623 H   0  0  0  0  0  0  0  0  0  0  0  0
    1.6665   -0.6069   -0.1860 H   0  0  0  0  0  0  0  0  0  0  0  0
    1.9916    1.0930    0.1604 H   0  0  0  0  0  0  0  0  0  0  0  0
    3.4381    1.6948    2.1853 H   0  0  0  0  0  0  0  0  0  0  0  0
    4.0372   -2.2493    5.0895 H   0  0  0  0  0  0  0  0  0  0  0  0
    3.6795   -4.5076    5.4700 H   0  0  0  0  0  0  0  0  0  0  0  0
    2.7386   -6.4397    3.4216 H   0  0  0  0  0  0  0  0  0  0  0  0
    1.6523   -5.6891    4.6078 H   0  0  0  0  0  0  0  0  0  0  0  0
    1.2476   -7.1474    6.4642 H   0  0  0  0  0  0  0  0  0  0  0  0
    2.0261   -8.8465    8.0718 H   0  0  0  0  0  0  0  0  0  0  0  0
    5.5280  -11.4412    8.7819 H   0  0  0  0  0  0  0  0  0  0  0  0
    6.2860  -10.3701    7.6132 H   0  0  0  0  0  0  0  0  0  0  0  0
    4.9824  -11.5053    7.0978 H   0  0  0  0  0  0  0  0  0  0  0  0
    5.9061   -8.8410    6.1991 H   0  0  0  0  0  0  0  0  0  0  0  0
    5.1388   -7.1601    4.6068 H   0  0  0  0  0  0  0  0  0  0  0  0
    2.6461   -4.8590    1.9379 H   0  0  0  0  0  0  0  0  0  0  0  0
    2.3104   -2.9372    0.4529 H   0  0  0  0  0  0  0  0  0  0  0  0
  1  2  1  0  0  0  0
  1 22  1  0  0  0  0
  1 23  1  0  0  0  0
  1 24  1  0  0  0  0
  2  3  1  0  0  0  0
  2 25  1  0  0  0  0
  2 26  1  0  0  0  0
  3  4  1  0  0  0  0
  3 21  1  0  0  0  0
  4  5  2  0  0  0  0
  4 27  1  0  0  0  0
  5  6  1  0  0  0  0
  6  7  1  0  0  0  0
  6 21  2  0  0  0  0
  7  8  2  0  0  0  0
  7 28  1  0  0  0  0
  8  9  1  0  0  0  0
  8 19  1  0  0  0  0
  9 10  1  0  0  0  0
  9 29  1  0  0  0  0
 10 11  1  0  0  0  0
 10 30  1  0  0  0  0
 10 31  1  0  0  0  0
 11 12  1  0  0  0  0
 11 18  2  0  0  0  0
 12 13  2  0  0  0  0
 12 32  1  0  0  0  0
 13 14  1  0  0  0  0
 13 33  1  0  0  0  0
 14 15  1  0  0  0  0
 14 17  2  0  0  0  0
 15 16  1  0  0  0  0
 16 34  1  0  0  0  0
 16 35  1  0  0  0  0
 16 36  1  0  0  0  0
 17 18  1  0  0  0  0
 17 37  1  0  0  0  0
 18 38  1  0  0  0  0
 19 20  2  0  0  0  0
 19 39  1  0  0  0  0
 20 21  1  0  0  0  0
 20 40  1  0  0  0  0
M  END
>  <Energy>
30.6102

$$$$

 OpenBabel04232616063D

 34 37  0  0  0  0  0  0  0  0999 V2000
   -2.3836   -0.7117    0.0492 C   0  0  0  0  0  0  0  0  0  0  0  0
   -2.3294    0.6668    0.0496 C   0  0  0  0  0  0  0  0  0  0  0  0
   -1.1797    1.3784    0.0305 N   0  0  0  0  0  0  0  0  0  0  0  0
    0.0021    0.7126    0.0129 C   0  0  0  0  0  0  0  0  0  0  0  0
    1.2354    1.3965   -0.0074 C   0  0  0  0  0  0  0  0  0  0  0  0
    1.1519    2.7738   -0.0134 O   0  0  0  0  0  0  0  0  0  0  0  0
    2.3712    3.5184   -0.0338 C   0  0  0  0  0  0  0  0  0  0  0  0
    2.0206    4.9717   -0.0350 C   0  0  0  0  0  0  0  0  0  0  0  0
    2.8615    5.9903   -0.0545 N   0  0  0  0  0  0  0  0  0  0  0  0
    2.0754    7.1191   -0.0493 C   0  0  0  0  0  0  0  0  0  0  0  0
    2.4450    8.4722   -0.0632 C   0  0  0  0  0  0  0  0  0  0  0  0
    1.4371    9.4457   -0.0540 C   0  0  0  0  0  0  0  0  0  0  0  0
    0.0885    9.0797   -0.0338 C   0  0  0  0  0  0  0  0  0  0  0  0
   -0.2997    7.7344   -0.0201 C   0  0  0  0  0  0  0  0  0  0  0  0
    0.7259    6.7860   -0.0269 C   0  0  0  0  0  0  0  0  0  0  0  0
    0.7198    5.4169   -0.0148 N   0  0  0  0  0  0  0  0  0  0  0  0
    2.4492    0.6928   -0.0204 C   0  0  0  0  0  0  0  0  0  0  0  0
    2.4552   -0.6992   -0.0146 C   0  0  0  0  0  0  0  0  0  0  0  0
    1.2524   -1.3949    0.0014 C   0  0  0  0  0  0  0  0  0  0  0  0
    0.0321   -0.7026    0.0149 C   0  0  0  0  0  0  0  0  0  0  0  0
   -1.1816   -1.4040    0.0312 C   0  0  0  0  0  0  0  0  0  0  0  0
   -3.3337   -1.2337    0.0634 H   0  0  0  0  0  0  0  0  0  0  0  0
   -3.2388    1.2607    0.0660 H   0  0  0  0  0  0  0  0  0  0  0  0
    2.9417    3.2921   -0.9419 H   0  0  0  0  0  0  0  0  0  0  0  0
    2.9663    3.2998    0.8601 H   0  0  0  0  0  0  0  0  0  0  0  0
    3.4932    8.7477   -0.0810 H   0  0  0  0  0  0  0  0  0  0  0  0
    1.7108   10.4981   -0.0637 H   0  0  0  0  0  0  0  0  0  0  0  0
   -0.6754    9.8548   -0.0286 H   0  0  0  0  0  0  0  0  0  0  0  0
   -1.3458    7.4491   -0.0050 H   0  0  0  0  0  0  0  0  0  0  0  0
   -0.0910    4.8114    0.0050 H   0  0  0  0  0  0  0  0  0  0  0  0
    3.4091    1.1983   -0.0345 H   0  0  0  0  0  0  0  0  0  0  0  0
    3.3982   -1.2409   -0.0227 H   0  0  0  0  0  0  0  0  0  0  0  0
    1.2719   -2.4828    0.0047 H   0  0  0  0  0  0  0  0  0  0  0  0
   -1.1954   -2.4914    0.0303 H   0  0  0  0  0  0  0  0  0  0  0  0
  1  2  1  0  0  0  0
  1 21  2  0  0  0  0
  1 22  1  0  0  0  0
  2  3  2  0  0  0  0
  2 23  1  0  0  0  0
  3  4  1  0  0  0  0
  4  5  1  0  0  0  0
  4 20  2  0  0  0  0
  5  6  1  0  0  0  0
  5 17  2  0  0  0  0
  6  7  1  0  0  0  0
  7  8  1  0  0  0  0
  7 24  1  0  0  0  0
  7 25  1  0  0  0  0
  8  9  2  0  0  0  0
  8 16  1  0  0  0  0
  9 10  1  0  0  0  0
 10 11  1  0  0  0  0
 10 15  2  0  0  0  0
 11 12  2  0  0  0  0
 11 26  1  0  0  0  0
 12 13  1  0  0  0  0
 12 27  1  0  0  0  0
 13 14  2  0  0  0  0
 13 28  1  0  0  0  0
 14 15  1  0  0  0  0
 14 29  1  0  0  0  0
 15 16  1  0  0  0  0
 16 30  1  0  0  0  0
 17 18  1  0  0  0  0
 17 31  1  0  0  0  0
 18 19  2  0  0  0  0
 18 32  1  0  0  0  0
 19 20  1  0  0  0  0
 19 33  1  0  0  0  0
 20 21  1  0  0  0  0
 21 34  1  0  0  0  0
M  END
>  <Energy>
77.1079

$$$$

 OpenBabel04232616063D

 35 37  0  0  0  0  0  0  0  0999 V2000
    1.6683    2.3340   -0.0005 C   0  0  0  0  0  0  0  0  0  0  0  0
    1.3077    0.8725   -0.0016 C   0  0  0  0  0  0  0  0  0  0  0  0
    2.3308   -0.0913    0.0040 C   0  0  0  0  0  0  0  0  0  0  0  0
    2.0205   -1.4467    0.0044 C   0  0  0  0  0  0  0  0  0  0  0  0
    0.6883   -1.8457   -0.0004 C   0  0  0  0  0  0  0  0  0  0  0  0
   -0.3408   -0.8907   -0.0076 C   0  0  0  0  0  0  0  0  0  0  0  0
   -1.6877   -1.2742   -0.0137 C   0  0  0  0  0  0  0  0  0  0  0  0
   -2.6864   -0.3066   -0.0234 C   0  0  0  0  0  0  0  0  0  0  0  0
   -2.3116    1.0267   -0.0248 C   0  0  0  0  0  0  0  0  0  0  0  0
   -3.3275    2.0869   -0.0126 C   0  0  0  0  0  0  0  0  0  0  0  0
   -3.0070    3.3889    0.0140 C   0  0  0  0  0  0  0  0  0  0  0  0
   -4.0643    4.4264    0.0893 C   0  0  0  0  0  0  0  0  0  0  0  0
   -5.2144    4.2193   -0.2811 O   0  0  0  0  0  0  0  0  0  0  0  0
   -3.6651    5.7550    0.6213 C   0  0  0  0  0  0  0  0  0  0  0  0
   -4.3469    6.8885    0.1808 C   0  0  0  0  0  0  0  0  0  0  0  0
   -3.9645    8.1140    0.6958 C   0  0  0  0  0  0  0  0  0  0  0  0
   -2.9781    8.2712    1.6057 N   0  0  0  0  0  0  0  0  0  0  0  0
   -2.3510    7.1550    2.0310 C   0  0  0  0  0  0  0  0  0  0  0  0
   -2.6549    5.8850    1.5766 C   0  0  0  0  0  0  0  0  0  0  0  0
   -1.0153    1.4201   -0.0123 N   0  0  0  0  0  0  0  0  0  0  0  0
   -0.0397    0.4887   -0.0080 C   0  0  0  0  0  0  0  0  0  0  0  0
    2.7533    2.4810   -0.0037 H   0  0  0  0  0  0  0  0  0  0  0  0
    1.2703    2.8219    0.8955 H   0  0  0  0  0  0  0  0  0  0  0  0
    1.2650    2.8254   -0.8920 H   0  0  0  0  0  0  0  0  0  0  0  0
    3.3746    0.2149    0.0077 H   0  0  0  0  0  0  0  0  0  0  0  0
    2.8146   -2.1884    0.0084 H   0  0  0  0  0  0  0  0  0  0  0  0
    0.4545   -2.9087   -0.0006 H   0  0  0  0  0  0  0  0  0  0  0  0
   -1.9653   -2.3250   -0.0099 H   0  0  0  0  0  0  0  0  0  0  0  0
   -3.7305   -0.6003   -0.0254 H   0  0  0  0  0  0  0  0  0  0  0  0
   -4.3685    1.7767    0.0015 H   0  0  0  0  0  0  0  0  0  0  0  0
   -1.9738    3.7179    0.0013 H   0  0  0  0  0  0  0  0  0  0  0  0
   -5.1503    6.8203   -0.5451 H   0  0  0  0  0  0  0  0  0  0  0  0
   -4.4551    9.0319    0.3842 H   0  0  0  0  0  0  0  0  0  0  0  0
   -1.5757    7.3124    2.7758 H   0  0  0  0  0  0  0  0  0  0  0  0
   -2.1248    5.0309    1.9829 H   0  0  0  0  0  0  0  0  0  0  0  0
  1  2  1  0  0  0  0
  1 22  1  0  0  0  0
  1 23  1  0  0  0  0
  1 24  1  0  0  0  0
  2  3  1  0  0  0  0
  2 21  2  0  0  0  0
  3  4  2  0  0  0  0
  3 25  1  0  0  0  0
  4  5  1  0  0  0  0
  4 26  1  0  0  0  0
  5  6  2  0  0  0  0
  5 27  1  0  0  0  0
  6  7  1  0  0  0  0
  6 21  1  0  0  0  0
  7  8  2  0  0  0  0
  7 28  1  0  0  0  0
  8  9  1  0  0  0  0
  8 29  1  0  0  0  0
  9 10  1  0  0  0  0
  9 20  2  0  0  0  0
 10 11  2  0  0  0  0
 10 30  1  0  0  0  0
 11 12  1  0  0  0  0
 11 31  1  0  0  0  0
 12 13  2  0  0  0  0
 12 14  1  0  0  0  0
 14 15  1  0  0  0  0
 14 19  2  0  0  0  0
 15 16  2  0  0  0  0
 15 32  1  0  0  0  0
 16 17  1  0  0  0  0
 16 33  1  0  0  0  0
 17 18  2  0  0  0  0
 18 19  1  0  0  0  0
 18 34  1  0  0  0  0
 19 35  1  0  0  0  0
 20 21  1  0  0  0  0
M  END
>  <Energy>
49.0566

$$$$

 OpenBabel04232616063D

 36 38  0  0  0  0  0  0  0  0999 V2000
    1.0532   -0.1437    0.1202 C   0  0  0  0  0  0  0  0  0  0  0  0
    2.5563   -0.0503    0.1004 C   0  0  0  0  0  0  0  0  0  0  0  0
    3.2232   -1.2327    0.1020 N   0  0  0  0  0  0  0  0  0  0  0  0
    4.5749   -1.2267    0.0708 C   0  0  0  0  0  0  0  0  0  0  0  0
    5.2558   -2.4537    0.1691 N   0  0  0  0  0  0  0  0  0  0  0  0
    4.4747   -3.6553   -0.0934 C   0  0  0  0  0  0  0  0  0  0  0  0
    5.3903   -4.8519    0.0816 C   0  0  0  0  0  0  0  0  0  0  0  0
    5.8151   -5.2278    1.3658 C   0  0  0  0  0  0  0  0  0  0  0  0
    6.6869   -6.3037    1.5424 C   0  0  0  0  0  0  0  0  0  0  0  0
    7.1487   -7.0151    0.4371 C   0  0  0  0  0  0  0  0  0  0  0  0
    6.7410   -6.6490   -0.8449 C   0  0  0  0  0  0  0  0  0  0  0  0
    5.8684   -5.5717   -1.0238 C   0  0  0  0  0  0  0  0  0  0  0  0
    5.3217   -0.0178    0.0298 C   0  0  0  0  0  0  0  0  0  0  0  0
    6.7395    0.0234   -0.0264 C   0  0  0  0  0  0  0  0  0  0  0  0
    7.4444    1.2225   -0.1218 C   0  0  0  0  0  0  0  0  0  0  0  0
    6.7544    2.4224   -0.1251 C   0  0  0  0  0  0  0  0  0  0  0  0
    5.3620    2.4190   -0.0401 C   0  0  0  0  0  0  0  0  0  0  0  0
    4.6168    1.2131    0.0235 C   0  0  0  0  0  0  0  0  0  0  0  0
    3.2056    1.1852    0.0737 C   0  0  0  0  0  0  0  0  0  0  0  0
    2.4355    2.3973    0.0931 C   0  0  0  0  0  0  0  0  0  0  0  0
    1.8120    3.3738    0.1068 N   0  0  0  0  0  0  0  0  0  0  0  0
    0.7257   -1.1879    0.1182 H   0  0  0  0  0  0  0  0  0  0  0  0
    0.6324    0.3393   -0.7681 H   0  0  0  0  0  0  0  0  0  0  0  0
    0.6493    0.3344    1.0186 H   0  0  0  0  0  0  0  0  0  0  0  0
    6.0779   -2.4536   -0.4215 H   0  0  0  0  0  0  0  0  0  0  0  0
    4.0880   -3.6359   -1.1205 H   0  0  0  0  0  0  0  0  0  0  0  0
    3.6217   -3.7591    0.5880 H   0  0  0  0  0  0  0  0  0  0  0  0
    5.4735   -4.6667    2.2338 H   0  0  0  0  0  0  0  0  0  0  0  0
    7.0098   -6.5817    2.5424 H   0  0  0  0  0  0  0  0  0  0  0  0
    7.8290   -7.8515    0.5749 H   0  0  0  0  0  0  0  0  0  0  0  0
    7.1070   -7.2025   -1.7062 H   0  0  0  0  0  0  0  0  0  0  0  0
    5.5688   -5.2980   -2.0328 H   0  0  0  0  0  0  0  0  0  0  0  0
    7.3239   -0.8939   -0.0036 H   0  0  0  0  0  0  0  0  0  0  0  0
    8.5291    1.2118   -0.1912 H   0  0  0  0  0  0  0  0  0  0  0  0
    7.2951    3.3630   -0.1921 H   0  0  0  0  0  0  0  0  0  0  0  0
    4.8632    3.3883   -0.0349 H   0  0  0  0  0  0  0  0  0  0  0  0
  1  2  1  0  0  0  0
  1 22  1  0  0  0  0
  1 23  1  0  0  0  0
  1 24  1  0  0  0  0
  2  3  1  0  0  0  0
  2 19  2  0  0  0  0
  3  4  2  0  0  0  0
  4  5  1  0  0  0  0
  4 13  1  0  0  0  0
  5  6  1  0  0  0  0
  5 25  1  0  0  0  0
  6  7  1  0  0  0  0
  6 26  1  0  0  0  0
  6 27  1  0  0  0  0
  7  8  1  0  0  0  0
  7 12  2  0  0  0  0
  8  9  2  0  0  0  0
  8 28  1  0  0  0  0
  9 10  1  0  0  0  0
  9 29  1  0  0  0  0
 10 11  2  0  0  0  0
 10 30  1  0  0  0  0
 11 12  1  0  0  0  0
 11 31  1  0  0  0  0
 12 32  1  0  0  0  0
 13 14  1  0  0  0  0
 13 18  2  0  0  0  0
 14 15  2  0  0  0  0
 14 33  1  0  0  0  0
 15 16  1  0  0  0  0
 15 34  1  0  0  0  0
 16 17  2  0  0  0  0
 16 35  1  0  0  0  0
 17 18  1  0  0  0  0
 17 36  1  0  0  0  0
 18 19  1  0  0  0  0
 19 20  1  0  0  0  0
 20 21  3  0  0  0  0
M  END
>  <Energy>
34.1892

$$$$

 OpenBabel04232616063D

 26 27  0  0  1  0  0  0  0  0999 V2000
    0.9386   -0.0181    0.0768 N   0  0  0  0  0  0  0  0  0  0  0  0
    2.1995   -0.0181    0.0768 C   0  0  0  0  0  0  0  0  0  0  0  0
    3.7195   -0.0181    0.0768 C   0  0  3  0  0  0  0  0  0  0  0  0
    4.4397    1.0924   -1.2102 S   0  0  0  0  0  0  0  0  0  0  0  0
    3.7003    0.4098   -2.6748 C   0  0  0  0  0  0  0  0  0  0  0  0
    3.5211    1.2243   -3.7871 C   0  0  0  0  0  0  0  0  0  0  0  0
    2.9231    0.6856   -4.9229 C   0  0  0  0  0  0  0  0  0  0  0  0
    2.5315   -0.6465   -4.9154 C   0  0  0  0  0  0  0  0  0  0  0  0
    2.7641   -1.3891   -3.7695 C   0  0  0  0  0  0  0  0  0  0  0  0
    3.3459   -0.8936   -2.6533 N   0  0  0  0  0  0  0  0  0  0  0  0
    4.2032    0.4365    1.4586 C   0  0  0  0  0  0  0  0  0  0  0  0
    5.0145   -0.4006    2.2411 C   0  0  0  0  0  0  0  0  0  0  0  0
    5.4093   -0.0079    3.5247 C   0  0  0  0  0  0  0  0  0  0  0  0
    5.0023    1.2234    4.0357 C   0  0  0  0  0  0  0  0  0  0  0  0
    5.4753    1.6926    5.6217 Cl  0  0  0  0  0  0  0  0  0  0  0  0
    4.2083    2.0727    3.2728 C   0  0  0  0  0  0  0  0  0  0  0  0
    3.8113    1.6832    1.9926 C   0  0  0  0  0  0  0  0  0  0  0  0
    4.0727   -1.0387   -0.1110 H   0  0  0  0  0  0  0  0  0  0  0  0
    3.8279    2.2652   -3.7757 H   0  0  0  0  0  0  0  0  0  0  0  0
    2.7594    1.3027   -5.8019 H   0  0  0  0  0  0  0  0  0  0  0  0
    2.0548   -1.0956   -5.7793 H   0  0  0  0  0  0  0  0  0  0  0  0
    2.4769   -2.4351   -3.7161 H   0  0  0  0  0  0  0  0  0  0  0  0
    5.3375   -1.3703    1.8671 H   0  0  0  0  0  0  0  0  0  0  0  0
    6.0277   -0.6703    4.1249 H   0  0  0  0  0  0  0  0  0  0  0  0
    3.8865    3.0332    3.6684 H   0  0  0  0  0  0  0  0  0  0  0  0
    3.1802    2.3613    1.4179 H   0  0  0  0  0  0  0  0  0  0  0  0
  1  2  3  0  0  0  0
  2  3  1  0  0  0  0
  3  4  1  0  0  0  0
  3 11  1  0  0  0  0
  3 18  1  0  0  0  0
  4  5  1  0  0  0  0
  5  6  1  0  0  0  0
  5 10  2  0  0  0  0
  6  7  2  0  0  0  0
  6 19  1  0  0  0  0
  7  8  1  0  0  0  0
  7 20  1  0  0  0  0
  8  9  2  0  0  0  0
  8 21  1  0  0  0  0
  9 10  1  0  0  0  0
  9 22  1  0  0  0  0
 11 12  1  0  0  0  0
 11 17  2  0  0  0  0
 12 13  2  0  0  0  0
 12 23  1  0  0  0  0
 13 14  1  0  0  0  0
 13 24  1  0  0  0  0
 14 15  1  0  0  0  0
 14 16  2  0  0  0  0
 16 17  1  0  0  0  0
 16 25  1  0  0  0  0
 17 26  1  0  0  0  0
M  END
>  <Energy>
184.024

$$$$

 OpenBabel04232616063D

 30 32  0  0  0  0  0  0  0  0999 V2000
    2.7463    0.2780   -0.9402 O   0  0  0  0  0  0  0  0  0  0  0  0
    2.1955   -0.0019    0.1234 C   0  0  0  0  0  0  0  0  0  0  0  0
    0.7213   -0.2360    0.0952 C   0  0  0  0  0  0  0  0  0  0  0  0
    0.1444   -0.7860   -1.0570 C   0  0  0  0  0  0  0  0  0  0  0  0
   -1.2295   -1.0213   -1.1065 C   0  0  0  0  0  0  0  0  0  0  0  0
   -2.0335   -0.7012   -0.0113 C   0  0  0  0  0  0  0  0  0  0  0  0
   -1.4694   -0.1296    1.1272 C   0  0  0  0  0  0  0  0  0  0  0  0
   -0.0974    0.1146    1.1783 C   0  0  0  0  0  0  0  0  0  0  0  0
    2.8948   -0.1194    1.3860 C   0  0  0  0  0  0  0  0  0  0  0  0
    2.6537   -0.9413    2.4675 C   0  0  0  0  0  0  0  0  0  0  0  0
    3.4973   -0.7770    3.5462 N   0  0  0  0  0  0  0  0  0  0  0  0
    4.3908    0.1586    3.2848 C   0  0  0  0  0  0  0  0  0  0  0  0
    5.4602    0.5584    4.2122 C   0  0  0  0  0  0  0  0  0  0  0  0
    5.9882   -0.3991    5.0932 C   0  0  0  0  0  0  0  0  0  0  0  0
    7.0176   -0.0715    5.9779 C   0  0  0  0  0  0  0  0  0  0  0  0
    7.5250    1.2257    6.0046 C   0  0  0  0  0  0  0  0  0  0  0  0
    6.9969    2.1951    5.1548 C   0  0  0  0  0  0  0  0  0  0  0  0
    5.9698    1.8655    4.2659 C   0  0  0  0  0  0  0  0  0  0  0  0
    4.2702    0.8470    1.7085 S   0  0  0  0  0  0  0  0  0  0  0  0
    0.7636   -1.0325   -1.9181 H   0  0  0  0  0  0  0  0  0  0  0  0
   -1.6763   -1.4510   -2.0004 H   0  0  0  0  0  0  0  0  0  0  0  0
   -3.1043   -0.8876   -0.0518 H   0  0  0  0  0  0  0  0  0  0  0  0
   -2.1004    0.1333    1.9738 H   0  0  0  0  0  0  0  0  0  0  0  0
    0.3115    0.5929    2.0664 H   0  0  0  0  0  0  0  0  0  0  0  0
    1.8671   -1.6844    2.5331 H   0  0  0  0  0  0  0  0  0  0  0  0
    5.5993   -1.4164    5.0847 H   0  0  0  0  0  0  0  0  0  0  0  0
    7.4222   -0.8299    6.6429 H   0  0  0  0  0  0  0  0  0  0  0  0
    8.3286    1.4807    6.6899 H   0  0  0  0  0  0  0  0  0  0  0  0
    7.3844    3.2105    5.1831 H   0  0  0  0  0  0  0  0  0  0  0  0
    5.5696    2.6484    3.6259 H   0  0  0  0  0  0  0  0  0  0  0  0
  1  2  2  0  0  0  0
  2  3  1  0  0  0  0
  2  9  1  0  0  0  0
  3  4  1  0  0  0  0
  3  8  2  0  0  0  0
  4  5  2  0  0  0  0
  4 20  1  0  0  0  0
  5  6  1  0  0  0  0
  5 21  1  0  0  0  0
  6  7  2  0  0  0  0
  6 22  1  0  0  0  0
  7  8  1  0  0  0  0
  7 23  1  0  0  0  0
  8 24  1  0  0  0  0
  9 10  2  0  0  0  0
  9 19  1  0  0  0  0
 10 11  1  0  0  0  0
 10 25  1  0  0  0  0
 11 12  2  0  0  0  0
 12 13  1  0  0  0  0
 12 19  1  0  0  0  0
 13 14  1  0  0  0  0
 13 18  2  0  0  0  0
 14 15  2  0  0  0  0
 14 26  1  0  0  0  0
 15 16  1  0  0  0  0
 15 27  1  0  0  0  0
 16 17  2  0  0  0  0
 16 28  1  0  0  0  0
 17 18  1  0  0  0  0
 17 29  1  0  0  0  0
 18 30  1  0  0  0  0
M  END
>  <Energy>
81.0292

$$$$

 OpenBabel04232616063D

 34 36  0  0  0  0  0  0  0  0999 V2000
    2.0196    0.9920    2.2270 O   0  0  0  0  0  0  0  0  0  0  0  0
    0.8753    1.7325    2.2727 C   0  0  0  0  0  0  0  0  0  0  0  0
    0.5192    2.4430    3.4156 C   0  0  0  0  0  0  0  0  0  0  0  0
   -0.6469    3.2090    3.4103 C   0  0  0  0  0  0  0  0  0  0  0  0
   -1.4505    3.2533    2.2689 C   0  0  0  0  0  0  0  0  0  0  0  0
   -1.1113    2.4932    1.1439 C   0  0  0  0  0  0  0  0  0  0  0  0
   -1.8470    2.4744   -0.0192 O   0  0  0  0  0  0  0  0  0  0  0  0
   -3.2167    2.4768    0.0499 C   0  0  0  0  0  0  0  0  0  0  0  0
   -3.9674    1.8736    1.0521 C   0  0  0  0  0  0  0  0  0  0  0  0
   -5.3587    1.9673    1.0163 C   0  0  0  0  0  0  0  0  0  0  0  0
   -5.9789    2.6294   -0.0446 C   0  0  0  0  0  0  0  0  0  0  0  0
   -7.4434    2.7866   -0.1336 C   0  0  0  0  0  0  0  0  0  0  0  0
   -8.0983    2.7779   -1.3791 C   0  0  0  0  0  0  0  0  0  0  0  0
   -9.4886    2.9102   -1.4747 C   0  0  0  0  0  0  0  0  0  0  0  0
  -10.2558    3.0610   -0.3241 C   0  0  0  0  0  0  0  0  0  0  0  0
   -9.6235    3.0862    0.9124 C   0  0  0  0  0  0  0  0  0  0  0  0
  -10.3272    3.2411    2.0709 O   0  0  0  0  0  0  0  0  0  0  0  0
   -8.2402    2.9533    1.0136 C   0  0  0  0  0  0  0  0  0  0  0  0
   -5.2583    3.1616   -1.0653 N   0  0  0  0  0  0  0  0  0  0  0  0
   -3.9068    3.0733   -0.9944 C   0  0  0  0  0  0  0  0  0  0  0  0
    0.0721    1.7544    1.1379 C   0  0  0  0  0  0  0  0  0  0  0  0
    2.4810    1.0782    3.0772 H   0  0  0  0  0  0  0  0  0  0  0  0
    1.1363    2.4207    4.3083 H   0  0  0  0  0  0  0  0  0  0  0  0
   -0.9299    3.7766    4.2933 H   0  0  0  0  0  0  0  0  0  0  0  0
   -2.3399    3.8777    2.2728 H   0  0  0  0  0  0  0  0  0  0  0  0
   -3.4930    1.3366    1.8677 H   0  0  0  0  0  0  0  0  0  0  0  0
   -5.9424    1.5120    1.8099 H   0  0  0  0  0  0  0  0  0  0  0  0
   -7.5156    2.6620   -2.2924 H   0  0  0  0  0  0  0  0  0  0  0  0
   -9.9649    2.8958   -2.4520 H   0  0  0  0  0  0  0  0  0  0  0  0
  -11.3341    3.1643   -0.4101 H   0  0  0  0  0  0  0  0  0  0  0  0
  -11.2670    3.3439    1.8492 H   0  0  0  0  0  0  0  0  0  0  0  0
   -7.7912    3.0007    2.0022 H   0  0  0  0  0  0  0  0  0  0  0  0
   -3.3743    3.5177   -1.8304 H   0  0  0  0  0  0  0  0  0  0  0  0
    0.3659    1.1959    0.2541 H   0  0  0  0  0  0  0  0  0  0  0  0
  1  2  1  0  0  0  0
  1 22  1  0  0  0  0
  2  3  1  0  0  0  0
  2 21  2  0  0  0  0
  3  4  2  0  0  0  0
  3 23  1  0  0  0  0
  4  5  1  0  0  0  0
  4 24  1  0  0  0  0
  5  6  2  0  0  0  0
  5 25  1  0  0  0  0
  6  7  1  0  0  0  0
  6 21  1  0  0  0  0
  7  8  1  0  0  0  0
  8  9  1  0  0  0  0
  8 20  2  0  0  0  0
  9 10  2  0  0  0  0
  9 26  1  0  0  0  0
 10 11  1  0  0  0  0
 10 27  1  0  0  0  0
 11 12  1  0  0  0  0
 11 19  2  0  0  0  0
 12 13  1  0  0  0  0
 12 18  2  0  0  0  0
 13 14  2  0  0  0  0
 13 28  1  0  0  0  0
 14 15  1  0  0  0  0
 14 29  1  0  0  0  0
 15 16  2  0  0  0  0
 15 30  1  0  0  0  0
 16 17  1  0  0  0  0
 16 18  1  0  0  0  0
 17 31  1  0  0  0  0
 18 32  1  0  0  0  0
 19 20  1  0  0  0  0
 20 33  1  0  0  0  0
 21 34  1  0  0  0  0
M  END
>  <Energy>
52.7638

$$$$

 OpenBabel04232616063D

 32 34  0  0  0  0  0  0  0  0999 V2000
    2.5615    0.6538    0.9239 O   0  0  0  0  0  0  0  0  0  0  0  0
    2.1641   -0.0288   -0.0158 C   0  0  0  0  0  0  0  0  0  0  0  0
    1.0434    0.2155   -0.7885 N   0  0  0  0  0  0  0  0  0  0  0  0
    0.1562    1.3055   -0.6479 C   0  0  0  0  0  0  0  0  0  0  0  0
    0.4373    2.4222    0.1465 C   0  0  0  0  0  0  0  0  0  0  0  0
   -0.4897    3.4586    0.2837 C   0  0  0  0  0  0  0  0  0  0  0  0
   -1.7104    3.3929   -0.3755 C   0  0  0  0  0  0  0  0  0  0  0  0
   -1.9963    2.2972   -1.1876 C   0  0  0  0  0  0  0  0  0  0  0  0
   -1.0633    1.2627   -1.3327 C   0  0  0  0  0  0  0  0  0  0  0  0
    2.8830   -1.2525   -0.3894 C   0  0  0  0  0  0  0  0  0  0  0  0
    3.9889   -1.6998    0.3087 C   0  0  0  0  0  0  0  0  0  0  0  0
    4.5912   -3.1341   -0.3817 S   0  0  0  0  0  0  0  0  0  0  0  0
    3.3644   -3.0669   -1.5945 C   0  0  0  0  0  0  0  0  0  0  0  0
    3.2914   -4.1006   -2.6426 C   0  0  0  0  0  0  0  0  0  0  0  0
    2.0484   -4.4028   -3.2201 C   0  0  0  0  0  0  0  0  0  0  0  0
    1.9390   -5.3678   -4.2248 C   0  0  0  0  0  0  0  0  0  0  0  0
    3.0730   -6.0407   -4.6730 C   0  0  0  0  0  0  0  0  0  0  0  0
    4.3163   -5.7531   -4.1161 C   0  0  0  0  0  0  0  0  0  0  0  0
    4.4251   -4.7893   -3.1096 C   0  0  0  0  0  0  0  0  0  0  0  0
    2.5117   -2.0607   -1.4675 N   0  0  0  0  0  0  0  0  0  0  0  0
    0.8206   -0.5067   -1.4653 H   0  0  0  0  0  0  0  0  0  0  0  0
    1.3818    2.5295    0.6698 H   0  0  0  0  0  0  0  0  0  0  0  0
   -0.2483    4.3126    0.9122 H   0  0  0  0  0  0  0  0  0  0  0  0
   -2.4347    4.1944   -0.2568 H   0  0  0  0  0  0  0  0  0  0  0  0
   -2.9524    2.2455   -1.7035 H   0  0  0  0  0  0  0  0  0  0  0  0
   -1.3190    0.4166   -1.9646 H   0  0  0  0  0  0  0  0  0  0  0  0
    4.4491   -1.2475    1.1770 H   0  0  0  0  0  0  0  0  0  0  0  0
    1.1522   -3.8867   -2.8818 H   0  0  0  0  0  0  0  0  0  0  0  0
    0.9669   -5.5898   -4.6587 H   0  0  0  0  0  0  0  0  0  0  0  0
    2.9888   -6.7864   -5.4594 H   0  0  0  0  0  0  0  0  0  0  0  0
    5.2036   -6.2731   -4.4677 H   0  0  0  0  0  0  0  0  0  0  0  0
    5.4145   -4.5815   -2.7089 H   0  0  0  0  0  0  0  0  0  0  0  0
  1  2  2  0  0  0  0
  2  3  1  0  0  0  0
  2 10  1  0  0  0  0
  3  4  1  0  0  0  0
  3 21  1  0  0  0  0
  4  5  1  0  0  0  0
  4  9  2  0  0  0  0
  5  6  2  0  0  0  0
  5 22  1  0  0  0  0
  6  7  1  0  0  0  0
  6 23  1  0  0  0  0
  7  8  2  0  0  0  0
  7 24  1  0  0  0  0
  8  9  1  0  0  0  0
  8 25  1  0  0  0  0
  9 26  1  0  0  0  0
 10 11  2  0  0  0  0
 10 20  1  0  0  0  0
 11 12  1  0  0  0  0
 11 27  1  0  0  0  0
 12 13  1  0  0  0  0
 13 14  1  0  0  0  0
 13 20  2  0  0  0  0
 14 15  1  0  0  0  0
 14 19  2  0  0  0  0
 15 16  2  0  0  0  0
 15 28  1  0  0  0  0
 16 17  1  0  0  0  0
 16 29  1  0  0  0  0
 17 18  2  0  0  0  0
 17 30  1  0  0  0  0
 18 19  1  0  0  0  0
 18 31  1  0  0  0  0
 19 32  1  0  0  0  0
M  END
>  <Energy>
54.4945

$$$$

 OpenBabel04232616063D

 39 40  0  0  0  0  0  0  0  0999 V2000
    1.0472   -0.6259    0.0142 C   0  0  0  0  0  0  0  0  0  0  0  0
    2.5313   -0.4193    0.0226 C   0  0  0  0  0  0  0  0  0  0  0  0
    2.9596    0.8625    0.0171 N   0  0  0  0  0  0  0  0  0  0  0  0
    4.3050    1.0786    0.0240 C   0  0  0  0  0  0  0  0  0  0  0  0
    4.6905    2.5251    0.0174 C   0  0  0  0  0  0  0  0  0  0  0  0
    5.2212    0.0197    0.0348 C   0  0  0  0  0  0  0  0  0  0  0  0
    6.6963    0.1859    0.0396 C   0  0  0  0  0  0  0  0  0  0  0  0
    7.5513   -0.8518    0.0497 C   0  0  0  0  0  0  0  0  0  0  0  0
    9.0398   -0.6878    0.0522 C   0  0  0  0  0  0  0  0  0  0  0  0
    9.5927    0.4067    0.0382 O   0  0  0  0  0  0  0  0  0  0  0  0
    9.7842   -1.9863    0.0733 C   0  0  0  0  0  0  0  0  0  0  0  0
   11.1244   -2.0557    0.0739 C   0  0  0  0  0  0  0  0  0  0  0  0
   11.8905   -3.3209    0.1100 C   0  0  0  0  0  0  0  0  0  0  0  0
   11.4097   -4.5163   -0.4468 C   0  0  0  0  0  0  0  0  0  0  0  0
   12.1734   -5.6892   -0.4054 C   0  0  0  0  0  0  0  0  0  0  0  0
   13.4356   -5.6809    0.1812 C   0  0  0  0  0  0  0  0  0  0  0  0
   13.9361   -4.4999    0.7227 C   0  0  0  0  0  0  0  0  0  0  0  0
   13.1707   -3.3275    0.6827 C   0  0  0  0  0  0  0  0  0  0  0  0
    4.7822   -1.2694    0.0411 N   0  0  0  0  0  0  0  0  0  0  0  0
    3.4363   -1.4779    0.0350 C   0  0  0  0  0  0  0  0  0  0  0  0
    2.9691   -2.9021    0.0435 C   0  0  0  0  0  0  0  0  0  0  0  0
    0.5222    0.3354    0.0032 H   0  0  0  0  0  0  0  0  0  0  0  0
    0.7295   -1.1685    0.9096 H   0  0  0  0  0  0  0  0  0  0  0  0
    0.7418   -1.1821   -0.8772 H   0  0  0  0  0  0  0  0  0  0  0  0
    3.7904    3.1534    0.0158 H   0  0  0  0  0  0  0  0  0  0  0  0
    5.2608    2.7720   -0.8817 H   0  0  0  0  0  0  0  0  0  0  0  0
    5.2629    2.7805    0.9129 H   0  0  0  0  0  0  0  0  0  0  0  0
    7.0840    1.2008    0.0343 H   0  0  0  0  0  0  0  0  0  0  0  0
    7.1810   -1.8722    0.0558 H   0  0  0  0  0  0  0  0  0  0  0  0
    9.1847   -2.8890    0.1038 H   0  0  0  0  0  0  0  0  0  0  0  0
   11.7174   -1.1403    0.0704 H   0  0  0  0  0  0  0  0  0  0  0  0
   10.4387   -4.5570   -0.9324 H   0  0  0  0  0  0  0  0  0  0  0  0
   11.7829   -6.6071   -0.8379 H   0  0  0  0  0  0  0  0  0  0  0  0
   14.0300   -6.5910    0.2104 H   0  0  0  0  0  0  0  0  0  0  0  0
   14.9242   -4.4884    1.1763 H   0  0  0  0  0  0  0  0  0  0  0  0
   13.5872   -2.4198    1.1140 H   0  0  0  0  0  0  0  0  0  0  0  0
    3.8171   -3.5936    0.0557 H   0  0  0  0  0  0  0  0  0  0  0  0
    2.3750   -3.1121   -0.8516 H   0  0  0  0  0  0  0  0  0  0  0  0
    2.3616   -3.0976    0.9330 H   0  0  0  0  0  0  0  0  0  0  0  0
  1  2  1  0  0  0  0
  1 22  1  0  0  0  0
  1 23  1  0  0  0  0
  1 24  1  0  0  0  0
  2  3  1  0  0  0  0
  2 20  2  0  0  0  0
  3  4  2  0  0  0  0
  4  5  1  0  0  0  0
  4  6  1  0  0  0  0
  5 25  1  0  0  0  0
  5 26  1  0  0  0  0
  5 27  1  0  0  0  0
  6  7  1  0  0  0  0
  6 19  2  0  0  0  0
  7  8  2  0  0  0  0
  7 28  1  0  0  0  0
  8  9  1  0  0  0  0
  8 29  1  0  0  0  0
  9 10  2  0  0  0  0
  9 11  1  0  0  0  0
 11 12  2  0  0  0  0
 11 30  1  0  0  0  0
 12 13  1  0  0  0  0
 12 31  1  0  0  0  0
 13 14  1  0  0  0  0
 13 18  2  0  0  0  0
 14 15  2  0  0  0  0
 14 32  1  0  0  0  0
 15 16  1  0  0  0  0
 15 33  1  0  0  0  0
 16 17  2  0  0  0  0
 16 34  1  0  0  0  0
 17 18  1  0  0  0  0
 17 35  1  0  0  0  0
 18 36  1  0  0  0  0
 19 20  1  0  0  0  0
 20 21  1  0  0  0  0
 21 37  1  0  0  0  0
 21 38  1  0  0  0  0
 21 39  1  0  0  0  0
M  END
>  <Energy>
87.561

$$$$

 OpenBabel04232616063D

 37 39  0  0  0  0  0  0  0  0999 V2000
    3.6378   -0.6096   -0.0142 C   0  0  0  0  0  0  0  0  0  0  0  0
    2.2235   -0.1133    0.0056 C   0  0  0  0  0  0  0  0  0  0  0  0
    1.9213    1.2491   -0.0166 C   0  0  0  0  0  0  0  0  0  0  0  0
    0.5853    1.6765   -0.0244 C   0  0  0  0  0  0  0  0  0  0  0  0
   -0.4741    0.7782   -0.0106 C   0  0  0  0  0  0  0  0  0  0  0  0
   -1.7487    1.2181   -0.0210 N   0  0  0  0  0  0  0  0  0  0  0  0
   -2.7435    0.2923   -0.0112 C   0  0  0  0  0  0  0  0  0  0  0  0
   -2.5269   -1.0766    0.0037 C   0  0  0  0  0  0  0  0  0  0  0  0
   -3.6620   -2.0027    0.0922 C   0  0  0  0  0  0  0  0  0  0  0  0
   -3.6732   -3.2080   -0.4395 N   0  3  0  0  0  0  0  0  0  0  0  0
   -2.7248   -3.6195   -1.1909 O   0  5  0  0  0  0  0  0  0  0  0  0
   -4.8056   -4.1462   -0.2008 C   0  0  0  0  0  0  0  0  0  0  0  0
   -4.5830   -5.0022    1.0239 C   0  0  0  0  0  0  0  0  0  0  0  0
   -5.4775   -4.9596    2.1009 C   0  0  0  0  0  0  0  0  0  0  0  0
   -5.2557   -5.7426    3.2365 C   0  0  0  0  0  0  0  0  0  0  0  0
   -4.1421   -6.5782    3.3063 C   0  0  0  0  0  0  0  0  0  0  0  0
   -3.2536   -6.6408    2.2361 C   0  0  0  0  0  0  0  0  0  0  0  0
   -3.4747   -5.8617    1.0996 C   0  0  0  0  0  0  0  0  0  0  0  0
   -1.2103   -1.5187    0.0409 C   0  0  0  0  0  0  0  0  0  0  0  0
   -0.1613   -0.5966    0.0199 C   0  0  0  0  0  0  0  0  0  0  0  0
    1.1726   -1.0311    0.0295 C   0  0  0  0  0  0  0  0  0  0  0  0
    4.3563    0.2153   -0.0030 H   0  0  0  0  0  0  0  0  0  0  0  0
    3.8128   -1.1993   -0.9205 H   0  0  0  0  0  0  0  0  0  0  0  0
    3.8296   -1.2375    0.8623 H   0  0  0  0  0  0  0  0  0  0  0  0
    2.7156    1.9914   -0.0330 H   0  0  0  0  0  0  0  0  0  0  0  0
    0.3677    2.7418   -0.0442 H   0  0  0  0  0  0  0  0  0  0  0  0
   -3.7463    0.7096   -0.0202 H   0  0  0  0  0  0  0  0  0  0  0  0
   -4.5649   -1.6907    0.6403 H   0  0  0  0  0  0  0  0  0  0  0  0
   -4.9039   -4.7836   -1.0876 H   0  0  0  0  0  0  0  0  0  0  0  0
   -5.7238   -3.5536   -0.1217 H   0  0  0  0  0  0  0  0  0  0  0  0
   -6.3554   -4.3186    2.0683 H   0  0  0  0  0  0  0  0  0  0  0  0
   -5.9529   -5.7018    4.0695 H   0  0  0  0  0  0  0  0  0  0  0  0
   -3.9686   -7.1829    4.1928 H   0  0  0  0  0  0  0  0  0  0  0  0
   -2.3871   -7.2958    2.2851 H   0  0  0  0  0  0  0  0  0  0  0  0
   -2.7691   -5.9259    0.2717 H   0  0  0  0  0  0  0  0  0  0  0  0
   -0.9867   -2.5814    0.0970 H   0  0  0  0  0  0  0  0  0  0  0  0
    1.3934   -2.0975    0.0453 H   0  0  0  0  0  0  0  0  0  0  0  0
  1  2  1  0  0  0  0
  1 22  1  0  0  0  0
  1 23  1  0  0  0  0
  1 24  1  0  0  0  0
  2  3  1  0  0  0  0
  2 21  2  0  0  0  0
  3  4  2  0  0  0  0
  3 25  1  0  0  0  0
  4  5  1  0  0  0  0
  4 26  1  0  0  0  0
  5  6  1  0  0  0  0
  5 20  2  0  0  0  0
  6  7  2  0  0  0  0
  7  8  1  0  0  0  0
  7 27  1  0  0  0  0
  8  9  1  0  0  0  0
  8 19  2  0  0  0  0
  9 10  2  0  0  0  0
  9 28  1  0  0  0  0
 10 11  1  0  0  0  0
 10 12  1  0  0  0  0
 12 13  1  0  0  0  0
 12 29  1  0  0  0  0
 12 30  1  0  0  0  0
 13 14  1  0  0  0  0
 13 18  2  0  0  0  0
 14 15  2  0  0  0  0
 14 31  1  0  0  0  0
 15 16  1  0  0  0  0
 15 32  1  0  0  0  0
 16 17  2  0  0  0  0
 16 33  1  0  0  0  0
 17 18  1  0  0  0  0
 17 34  1  0  0  0  0
 18 35  1  0  0  0  0
 19 20  1  0  0  0  0
 19 36  1  0  0  0  0
 20 21  1  0  0  0  0
 21 37  1  0  0  0  0
M  CHG  2  10   1  11  -1
M  END
>  <Energy>
83.2057

$$$$

 OpenBabel04232616063D

 39 40  0  0  1  0  0  0  0  0999 V2000
    1.6838    1.5474   -0.4793 C   0  0  0  0  0  0  0  0  0  0  0  0
    2.1947    0.1754   -0.0407 C   0  0  0  0  0  0  0  0  0  0  0  0
    2.9684    0.1369    1.3150 C   0  0  0  0  0  0  0  0  0  0  0  0
    1.9686    0.5364    2.4537 C   0  0  0  0  0  0  0  0  0  0  0  0
    2.4899    0.4546    3.8871 C   0  0  0  0  0  0  0  0  0  0  0  0
    4.1169    1.1588    1.2516 C   0  0  0  0  0  0  0  0  0  0  0  0
    3.9510    2.3040    1.6854 O   0  0  0  0  0  0  0  0  0  0  0  0
    5.4159    0.7851    0.5453 C   0  0  0  0  0  0  0  0  0  0  0  0
    5.3058    1.0050   -0.9716 C   0  0  0  0  0  0  0  0  0  0  0  0
    6.5418    1.6901    1.0797 C   0  0  0  0  0  0  0  0  0  0  0  0
    5.7813   -0.6636    0.7597 C   0  0  0  0  0  0  0  0  0  0  0  0
    6.9320   -1.0818    0.7979 O   0  0  0  0  0  0  0  0  0  0  0  0
    4.7284   -1.5090    0.6972 O   0  0  0  0  0  0  0  0  0  0  0  0
    3.6287   -1.2418    1.5850 C   0  0  3  0  0  0  0  0  0  0  0  0
    2.6888   -2.4211    1.3851 C   0  0  0  0  0  0  0  0  0  0  0  0
    2.4757   -3.1682    0.2361 C   0  0  0  0  0  0  0  0  0  0  0  0
    1.4683   -4.1607    0.3995 C   0  0  0  0  0  0  0  0  0  0  0  0
    0.9599   -4.1676    1.6775 C   0  0  0  0  0  0  0  0  0  0  0  0
    1.7293   -3.0179    2.6787 S   0  0  0  0  0  0  0  0  0  0  0  0
    1.1685    1.4573   -1.4413 H   0  0  0  0  0  0  0  0  0  0  0  0
    2.4959    2.2659   -0.6110 H   0  0  0  0  0  0  0  0  0  0  0  0
    0.9674    1.9617    0.2349 H   0  0  0  0  0  0  0  0  0  0  0  0
    2.8088   -0.2338   -0.8468 H   0  0  0  0  0  0  0  0  0  0  0  0
    1.3177   -0.4806    0.0235 H   0  0  0  0  0  0  0  0  0  0  0  0
    1.0661   -0.0826    2.3841 H   0  0  0  0  0  0  0  0  0  0  0  0
    1.6265    1.5673    2.3062 H   0  0  0  0  0  0  0  0  0  0  0  0
    2.7463   -0.5628    4.1831 H   0  0  0  0  0  0  0  0  0  0  0  0
    1.7124    0.7991    4.5771 H   0  0  0  0  0  0  0  0  0  0  0  0
    3.3701    1.0889    4.0338 H   0  0  0  0  0  0  0  0  0  0  0  0
    4.7893    1.9401   -1.2108 H   0  0  0  0  0  0  0  0  0  0  0  0
    4.7746    0.1889   -1.4707 H   0  0  0  0  0  0  0  0  0  0  0  0
    6.2977    1.0403   -1.4390 H   0  0  0  0  0  0  0  0  0  0  0  0
    6.3358    2.7471    0.8681 H   0  0  0  0  0  0  0  0  0  0  0  0
    7.5077    1.4525    0.6177 H   0  0  0  0  0  0  0  0  0  0  0  0
    6.6589    1.5842    2.1637 H   0  0  0  0  0  0  0  0  0  0  0  0
    4.0505   -1.2894    2.5941 H   0  0  0  0  0  0  0  0  0  0  0  0
    3.0089   -2.9962   -0.6920 H   0  0  0  0  0  0  0  0  0  0  0  0
    1.1331   -4.8326   -0.3811 H   0  0  0  0  0  0  0  0  0  0  0  0
    0.1837   -4.8059    2.0770 H   0  0  0  0  0  0  0  0  0  0  0  0
  1  2  1  0  0  0  0
  1 20  1  0  0  0  0
  1 21  1  0  0  0  0
  1 22  1  0  0  0  0
  2  3  1  0  0  0  0
  2 23  1  0  0  0  0
  2 24  1  0  0  0  0
  3  4  1  0  0  0  0
  3  6  1  0  0  0  0
  3 14  1  0  0  0  0
  4  5  1  0  0  0  0
  4 25  1  0  0  0  0
  4 26  1  0  0  0  0
  5 27  1  0  0  0  0
  5 28  1  0  0  0  0
  5 29  1  0  0  0  0
  6  7  2  0  0  0  0
  6  8  1  0  0  0  0
  8  9  1  0  0  0  0
  8 10  1  0  0  0  0
  8 11  1  0  0  0  0
  9 30  1  0  0  0  0
  9 31  1  0  0  0  0
  9 32  1  0  0  0  0
 10 33  1  0  0  0  0
 10 34  1  0  0  0  0
 10 35  1  0  0  0  0
 11 12  2  0  0  0  0
 11 13  1  0  0  0  0
 13 14  1  0  0  0  0
 14 15  1  0  0  0  0
 14 36  1  0  0  0  0
 15 16  2  0  0  0  0
 15 19  1  0  0  0  0
 16 17  1  0  0  0  0
 16 37  1  0  0  0  0
 17 18  2  0  0  0  0
 17 38  1  0  0  0  0
 18 19  1  0  0  0  0
 18 39  1  0  0  0  0
M  END
>  <Energy>
7.67212

$$$$

 OpenBabel04232616063D

 40 41  0  0  1  0  0  0  0  0999 V2000
    7.2570   -3.9200    0.3622 C   0  0  0  0  0  0  0  0  0  0  0  0
    6.6234   -2.5515    0.1680 C   0  0  0  0  0  0  0  0  0  0  0  0
    7.1517   -1.5554    1.1970 C   0  0  0  0  0  0  0  0  0  0  0  0
    6.5275   -0.1708    1.0232 C   0  0  0  0  0  0  0  0  0  0  0  0
    7.0777    0.7943    2.0726 C   0  0  0  0  0  0  0  0  0  0  0  0
    6.4829    2.1981    1.9296 C   0  0  0  0  0  0  0  0  0  0  0  0
    7.0614    3.1424    2.9914 C   0  0  3  0  0  0  0  0  0  0  0  0
    6.5168    4.5499    2.9119 C   0  0  0  0  0  0  0  0  0  0  0  0
    7.4565    5.2011    2.0514 N   0  0  0  0  0  0  0  0  0  0  0  0
    7.2331    6.4745    1.4630 C   0  0  0  0  0  0  0  0  0  0  0  0
    8.0471    6.9187    0.4092 C   0  0  0  0  0  0  0  0  0  0  0  0
    7.8222    8.1510   -0.2123 C   0  0  0  0  0  0  0  0  0  0  0  0
    6.7833    8.9700    0.2141 C   0  0  0  0  0  0  0  0  0  0  0  0
    5.9685    8.5619    1.2655 C   0  0  0  0  0  0  0  0  0  0  0  0
    6.1896    7.3250    1.8811 C   0  0  0  0  0  0  0  0  0  0  0  0
    5.3840    6.9811    2.9374 O   0  0  0  0  0  0  0  0  0  0  0  0
    8.6312    4.4707    2.0333 C   0  0  0  0  0  0  0  0  0  0  0  0
    9.7036    4.7522    1.5189 O   0  0  0  0  0  0  0  0  0  0  0  0
    8.4636    3.3103    2.7527 O   0  0  0  0  0  0  0  0  0  0  0  0
    6.8749   -4.6262   -0.3812 H   0  0  0  0  0  0  0  0  0  0  0  0
    7.0318   -4.3174    1.3572 H   0  0  0  0  0  0  0  0  0  0  0  0
    8.3451   -3.8663    0.2537 H   0  0  0  0  0  0  0  0  0  0  0  0
    5.5346   -2.6404    0.2584 H   0  0  0  0  0  0  0  0  0  0  0  0
    6.8386   -2.1929   -0.8451 H   0  0  0  0  0  0  0  0  0  0  0  0
    8.2424   -1.4790    1.1051 H   0  0  0  0  0  0  0  0  0  0  0  0
    6.9398   -1.9267    2.2072 H   0  0  0  0  0  0  0  0  0  0  0  0
    5.4374   -0.2392    1.1186 H   0  0  0  0  0  0  0  0  0  0  0  0
    6.7438    0.2108    0.0179 H   0  0  0  0  0  0  0  0  0  0  0  0
    8.1695    0.8420    1.9803 H   0  0  0  0  0  0  0  0  0  0  0  0
    6.8570    0.4076    3.0752 H   0  0  0  0  0  0  0  0  0  0  0  0
    5.3919    2.1498    2.0247 H   0  0  0  0  0  0  0  0  0  0  0  0
    6.7113    2.5728    0.9237 H   0  0  0  0  0  0  0  0  0  0  0  0
    6.9055    2.7297    3.9935 H   0  0  0  0  0  0  0  0  0  0  0  0
    6.5725    5.0253    3.8968 H   0  0  0  0  0  0  0  0  0  0  0  0
    5.4943    4.5777    2.5240 H   0  0  0  0  0  0  0  0  0  0  0  0
    8.8584    6.3055    0.0236 H   0  0  0  0  0  0  0  0  0  0  0  0
    8.4630    8.4633   -1.0342 H   0  0  0  0  0  0  0  0  0  0  0  0
    6.6117    9.9274   -0.2697 H   0  0  0  0  0  0  0  0  0  0  0  0
    5.1732    9.2205    1.6012 H   0  0  0  0  0  0  0  0  0  0  0  0
    4.7009    7.6605    3.0538 H   0  0  0  0  0  0  0  0  0  0  0  0
  1  2  1  0  0  0  0
  1 20  1  0  0  0  0
  1 21  1  0  0  0  0
  1 22  1  0  0  0  0
  2  3  1  0  0  0  0
  2 23  1  0  0  0  0
  2 24  1  0  0  0  0
  3  4  1  0  0  0  0
  3 25  1  0  0  0  0
  3 26  1  0  0  0  0
  4  5  1  0  0  0  0
  4 27  1  0  0  0  0
  4 28  1  0  0  0  0
  5  6  1  0  0  0  0
  5 29  1  0  0  0  0
  5 30  1  0  0  0  0
  6  7  1  0  0  0  0
  6 31  1  0  0  0  0
  6 32  1  0  0  0  0
  7  8  1  0  0  0  0
  7 19  1  0  0  0  0
  7 33  1  0  0  0  0
  8  9  1  0  0  0  0
  8 34  1  0  0  0  0
  8 35  1  0  0  0  0
  9 10  1  0  0  0  0
  9 17  1  0  0  0  0
 10 11  1  0  0  0  0
 10 15  2  0  0  0  0
 11 12  2  0  0  0  0
 11 36  1  0  0  0  0
 12 13  1  0  0  0  0
 12 37  1  0  0  0  0
 13 14  2  0  0  0  0
 13 38  1  0  0  0  0
 14 15  1  0  0  0  0
 14 39  1  0  0  0  0
 15 16  1  0  0  0  0
 16 40  1  0  0  0  0
 17 18  2  0  0  0  0
 17 19  1  0  0  0  0
M  END
>  <Energy>
5.52548

$$$$

 OpenBabel04232616063D

 38 39  0  0  0  0  0  0  0  0999 V2000
    0.5161   -0.7074   -1.8021 C   0  0  0  0  0  0  0  0  0  0  0  0
    1.9105   -0.9417   -1.6434 O   0  0  0  0  0  0  0  0  0  0  0  0
    2.7490    0.0908   -1.9673 C   0  0  0  0  0  0  0  0  0  0  0  0
    2.3575    1.3153   -2.5066 C   0  0  0  0  0  0  0  0  0  0  0  0
    3.3046    2.3171   -2.7608 C   0  0  0  0  0  0  0  0  0  0  0  0
    2.9203    3.6473   -3.2529 C   0  0  0  0  0  0  0  0  0  0  0  0
    1.7858    4.2608   -2.8834 C   0  0  0  0  0  0  0  0  0  0  0  0
    1.5156    5.6496   -3.2516 C   0  0  0  0  0  0  0  0  0  0  0  0
    1.8777    6.6050   -2.2837 C   0  0  0  0  0  0  0  0  0  0  0  0
    1.7505    7.9708   -2.5327 C   0  0  0  0  0  0  0  0  0  0  0  0
    1.2645    8.4005   -3.7608 C   0  0  0  0  0  0  0  0  0  0  0  0
    0.8967    7.4638   -4.7283 C   0  0  0  0  0  0  0  0  0  0  0  0
    1.0028    6.0863   -4.4851 C   0  0  0  0  0  0  0  0  0  0  0  0
    0.6254    5.3175   -5.5538 O   0  0  0  0  0  0  0  0  0  0  0  0
   -0.0070    4.0769   -5.2662 C   0  0  0  0  0  0  0  0  0  0  0  0
    4.6620    2.0568   -2.5252 C   0  0  0  0  0  0  0  0  0  0  0  0
    5.0644    0.8352   -1.9853 C   0  0  0  0  0  0  0  0  0  0  0  0
    6.3482    0.4840   -1.6669 O   0  0  0  0  0  0  0  0  0  0  0  0
    7.3569    1.4655   -1.8777 C   0  0  0  0  0  0  0  0  0  0  0  0
    4.1019   -0.1395   -1.7099 C   0  0  0  0  0  0  0  0  0  0  0  0
   -0.0165   -1.5942   -1.4458 H   0  0  0  0  0  0  0  0  0  0  0  0
    0.2612   -0.5668   -2.8579 H   0  0  0  0  0  0  0  0  0  0  0  0
    0.1833    0.1438   -1.1979 H   0  0  0  0  0  0  0  0  0  0  0  0
    1.3151    1.5132   -2.7292 H   0  0  0  0  0  0  0  0  0  0  0  0
    3.6446    4.1641   -3.8796 H   0  0  0  0  0  0  0  0  0  0  0  0
    1.0609    3.8074   -2.2142 H   0  0  0  0  0  0  0  0  0  0  0  0
    2.2844    6.2830   -1.3265 H   0  0  0  0  0  0  0  0  0  0  0  0
    2.0457    8.6916   -1.7752 H   0  0  0  0  0  0  0  0  0  0  0  0
    1.1724    9.4628   -3.9702 H   0  0  0  0  0  0  0  0  0  0  0  0
    0.5211    7.8095   -5.6889 H   0  0  0  0  0  0  0  0  0  0  0  0
   -0.6567    3.8336   -6.1128 H   0  0  0  0  0  0  0  0  0  0  0  0
   -0.6381    4.1195   -4.3719 H   0  0  0  0  0  0  0  0  0  0  0  0
    0.7371    3.2801   -5.1939 H   0  0  0  0  0  0  0  0  0  0  0  0
    5.3857    2.8350   -2.7458 H   0  0  0  0  0  0  0  0  0  0  0  0
    8.2950    1.0737   -1.4721 H   0  0  0  0  0  0  0  0  0  0  0  0
    7.1336    2.3955   -1.3454 H   0  0  0  0  0  0  0  0  0  0  0  0
    7.5019    1.6467   -2.9475 H   0  0  0  0  0  0  0  0  0  0  0  0
    4.4109   -1.0897   -1.2804 H   0  0  0  0  0  0  0  0  0  0  0  0
  1  2  1  0  0  0  0
  1 21  1  0  0  0  0
  1 22  1  0  0  0  0
  1 23  1  0  0  0  0
  2  3  1  0  0  0  0
  3  4  1  0  0  0  0
  3 20  2  0  0  0  0
  4  5  2  0  0  0  0
  4 24  1  0  0  0  0
  5  6  1  0  0  0  0
  5 16  1  0  0  0  0
  6  7  2  0  0  0  0
  6 25  1  0  0  0  0
  7  8  1  0  0  0  0
  7 26  1  0  0  0  0
  8  9  1  0  0  0  0
  8 13  2  0  0  0  0
  9 10  2  0  0  0  0
  9 27  1  0  0  0  0
 10 11  1  0  0  0  0
 10 28  1  0  0  0  0
 11 12  2  0  0  0  0
 11 29  1  0  0  0  0
 12 13  1  0  0  0  0
 12 30  1  0  0  0  0
 13 14  1  0  0  0  0
 14 15  1  0  0  0  0
 15 31  1  0  0  0  0
 15 32  1  0  0  0  0
 15 33  1  0  0  0  0
 16 17  2  0  0  0  0
 16 34  1  0  0  0  0
 17 18  1  0  0  0  0
 17 20  1  0  0  0  0
 18 19  1  0  0  0  0
 19 35  1  0  0  0  0
 19 36  1  0  0  0  0
 19 37  1  0  0  0  0
 20 38  1  0  0  0  0
M  END
>  <Energy>
63.1464

$$$$

 OpenBabel04232616063D

 36 37  0  0  0  0  0  0  0  0999 V2000
    1.7383   -1.4710   -0.2530 C   0  0  0  0  0  0  0  0  0  0  0  0
    2.5373   -0.3065   -0.0721 O   0  0  0  0  0  0  0  0  0  0  0  0
    3.0519    0.2403   -1.2166 C   0  0  0  0  0  0  0  0  0  0  0  0
    2.4799    0.1328   -2.4845 C   0  0  0  0  0  0  0  0  0  0  0  0
    3.0941    0.7398   -3.5857 C   0  0  0  0  0  0  0  0  0  0  0  0
    4.2790    1.4665   -3.4301 C   0  0  0  0  0  0  0  0  0  0  0  0
    4.9148    2.0848   -4.5998 C   0  0  0  0  0  0  0  0  0  0  0  0
    4.6725    3.3263   -5.0571 C   0  0  0  0  0  0  0  0  0  0  0  0
    3.7487    4.2615   -4.4131 C   0  0  0  0  0  0  0  0  0  0  0  0
    4.2377    5.1771   -3.4754 C   0  0  0  0  0  0  0  0  0  0  0  0
    3.3566    5.9512   -2.7159 C   0  0  0  0  0  0  0  0  0  0  0  0
    1.9851    5.8029   -2.8981 C   0  0  0  0  0  0  0  0  0  0  0  0
    0.9947    6.4172   -2.0934 O   0  0  0  0  0  0  0  0  0  0  0  0
    1.2272    7.1192   -0.9081 C   0  0  0  0  0  0  0  0  0  0  0  0
   -0.0865    7.3883   -0.2345 C   0  0  0  0  0  0  0  0  0  0  0  0
    2.3099    7.4303   -0.4299 O   0  0  0  0  0  0  0  0  0  0  0  0
    1.4902    4.9530   -3.8909 C   0  0  0  0  0  0  0  0  0  0  0  0
    2.3730    4.1838   -4.6507 C   0  0  0  0  0  0  0  0  0  0  0  0
    4.8365    1.5952   -2.1562 C   0  0  0  0  0  0  0  0  0  0  0  0
    4.2205    0.9881   -1.0533 C   0  0  0  0  0  0  0  0  0  0  0  0
    1.5002   -1.8709    0.7374 H   0  0  0  0  0  0  0  0  0  0  0  0
    2.2876   -2.2431   -0.8033 H   0  0  0  0  0  0  0  0  0  0  0  0
    0.7905   -1.2349   -0.7466 H   0  0  0  0  0  0  0  0  0  0  0  0
    1.5495   -0.3995   -2.6469 H   0  0  0  0  0  0  0  0  0  0  0  0
    2.6348    0.6497   -4.5668 H   0  0  0  0  0  0  0  0  0  0  0  0
    5.6289    1.4500   -5.1185 H   0  0  0  0  0  0  0  0  0  0  0  0
    5.1915    3.6968   -5.9361 H   0  0  0  0  0  0  0  0  0  0  0  0
    5.3070    5.2602   -3.2958 H   0  0  0  0  0  0  0  0  0  0  0  0
    3.7735    6.6226   -1.9742 H   0  0  0  0  0  0  0  0  0  0  0  0
   -0.8748    7.5473   -0.9750 H   0  0  0  0  0  0  0  0  0  0  0  0
   -0.0021    8.2980    0.3665 H   0  0  0  0  0  0  0  0  0  0  0  0
   -0.3421    6.5431    0.4091 H   0  0  0  0  0  0  0  0  0  0  0  0
    0.4195    4.8536   -4.0439 H   0  0  0  0  0  0  0  0  0  0  0  0
    1.9813    3.4912   -5.3910 H   0  0  0  0  0  0  0  0  0  0  0  0
    5.7488    2.1661   -2.0057 H   0  0  0  0  0  0  0  0  0  0  0  0
    4.6585    1.0923   -0.0658 H   0  0  0  0  0  0  0  0  0  0  0  0
  1  2  1  0  0  0  0
  1 21  1  0  0  0  0
  1 22  1  0  0  0  0
  1 23  1  0  0  0  0
  2  3  1  0  0  0  0
  3  4  1  0  0  0  0
  3 20  2  0  0  0  0
  4  5  2  0  0  0  0
  4 24  1  0  0  0  0
  5  6  1  0  0  0  0
  5 25  1  0  0  0  0
  6  7  1  0  0  0  0
  6 19  2  0  0  0  0
  7  8  2  0  0  0  0
  7 26  1  0  0  0  0
  8  9  1  0  0  0  0
  8 27  1  0  0  0  0
  9 10  1  0  0  0  0
  9 18  2  0  0  0  0
 10 11  2  0  0  0  0
 10 28  1  0  0  0  0
 11 12  1  0  0  0  0
 11 29  1  0  0  0  0
 12 13  1  0  0  0  0
 12 17  2  0  0  0  0
 13 14  1  0  0  0  0
 14 15  1  0  0  0  0
 14 16  2  0  0  0  0
 15 30  1  0  0  0  0
 15 31  1  0  0  0  0
 15 32  1  0  0  0  0
 17 18  1  0  0  0  0
 17 33  1  0  0  0  0
 18 34  1  0  0  0  0
 19 20  1  0  0  0  0
 19 35  1  0  0  0  0
 20 36  1  0  0  0  0
M  END
>  <Energy>
56.586

$$$$

 OpenBabel04232616063D

 36 39  0  0  0  0  0  0  0  0999 V2000
    1.3169    0.5371    0.5625 C   0  0  0  0  0  0  0  0  0  0  0  0
    2.4406   -0.0321   -0.0988 O   0  0  0  0  0  0  0  0  0  0  0  0
    3.1148    0.7786   -0.9659 C   0  0  0  0  0  0  0  0  0  0  0  0
    2.7732    2.0846   -1.3231 C   0  0  0  0  0  0  0  0  0  0  0  0
    3.5666    2.8270   -2.2294 C   0  0  0  0  0  0  0  0  0  0  0  0
    4.7248    2.2866   -2.8017 C   0  0  0  0  0  0  0  0  0  0  0  0
    5.0740    0.9939   -2.4581 C   0  0  0  0  0  0  0  0  0  0  0  0
    4.2570    0.2643   -1.5513 C   0  0  0  0  0  0  0  0  0  0  0  0
    4.9132   -0.9848   -1.4190 C   0  0  0  0  0  0  0  0  0  0  0  0
    4.7844   -2.1361   -0.7458 N   0  0  0  0  0  0  0  0  0  0  0  0
    5.8209   -2.9649   -0.9948 N   0  0  0  0  0  0  0  0  0  0  0  0
    6.6155   -2.2986   -1.8595 C   0  0  0  0  0  0  0  0  0  0  0  0
    7.7771   -2.7487   -2.3879 N   0  0  0  0  0  0  0  0  0  0  0  0
    8.5776   -3.8187   -1.9310 C   0  0  0  0  0  0  0  0  0  0  0  0
    9.3080   -4.5863   -2.8481 C   0  0  0  0  0  0  0  0  0  0  0  0
   10.0126   -5.7216   -2.4307 C   0  0  0  0  0  0  0  0  0  0  0  0
   10.0024   -6.1007   -1.0896 C   0  0  0  0  0  0  0  0  0  0  0  0
    9.2936   -5.3428   -0.1640 C   0  0  0  0  0  0  0  0  0  0  0  0
    8.5824   -4.2187   -0.5867 C   0  0  0  0  0  0  0  0  0  0  0  0
    6.0566   -1.0466   -2.1636 C   0  0  0  0  0  0  0  0  0  0  0  0
    6.3114    0.1993   -2.9385 C   0  0  0  0  0  0  0  0  0  0  0  0
    0.9110   -0.2175    1.2431 H   0  0  0  0  0  0  0  0  0  0  0  0
    0.5301    0.7981   -0.1530 H   0  0  0  0  0  0  0  0  0  0  0  0
    1.6089    1.4046    1.1639 H   0  0  0  0  0  0  0  0  0  0  0  0
    1.8917    2.5705   -0.9166 H   0  0  0  0  0  0  0  0  0  0  0  0
    3.2703    3.8427   -2.4816 H   0  0  0  0  0  0  0  0  0  0  0  0
    5.3263    2.8725   -3.4895 H   0  0  0  0  0  0  0  0  0  0  0  0
    4.0537   -2.4300   -0.1063 H   0  0  0  0  0  0  0  0  0  0  0  0
    8.1526   -2.2946   -3.2115 H   0  0  0  0  0  0  0  0  0  0  0  0
    9.3037   -4.3305   -3.9033 H   0  0  0  0  0  0  0  0  0  0  0  0
   10.5513   -6.3233   -3.1575 H   0  0  0  0  0  0  0  0  0  0  0  0
   10.5332   -6.9919   -0.7669 H   0  0  0  0  0  0  0  0  0  0  0  0
    9.2720   -5.6288    0.8838 H   0  0  0  0  0  0  0  0  0  0  0  0
    8.0254   -3.6470    0.1523 H   0  0  0  0  0  0  0  0  0  0  0  0
    6.2709    0.0337   -4.0175 H   0  0  0  0  0  0  0  0  0  0  0  0
    7.2341    0.6954   -2.6285 H   0  0  0  0  0  0  0  0  0  0  0  0
  1  2  1  0  0  0  0
  1 22  1  0  0  0  0
  1 23  1  0  0  0  0
  1 24  1  0  0  0  0
  2  3  1  0  0  0  0
  3  4  1  0  0  0  0
  3  8  2  0  0  0  0
  4  5  2  0  0  0  0
  4 25  1  0  0  0  0
  5  6  1  0  0  0  0
  5 26  1  0  0  0  0
  6  7  2  0  0  0  0
  6 27  1  0  0  0  0
  7  8  1  0  0  0  0
  7 21  1  0  0  0  0
  8  9  1  0  0  0  0
  9 10  1  0  0  0  0
  9 20  2  0  0  0  0
 10 11  1  0  0  0  0
 10 28  1  0  0  0  0
 11 12  2  0  0  0  0
 12 13  1  0  0  0  0
 12 20  1  0  0  0  0
 13 14  1  0  0  0  0
 13 29  1  0  0  0  0
 14 15  1  0  0  0  0
 14 19  2  0  0  0  0
 15 16  2  0  0  0  0
 15 30  1  0  0  0  0
 16 17  1  0  0  0  0
 16 31  1  0  0  0  0
 17 18  2  0  0  0  0
 17 32  1  0  0  0  0
 18 19  1  0  0  0  0
 18 33  1  0  0  0  0
 19 34  1  0  0  0  0
 20 21  1  0  0  0  0
 21 35  1  0  0  0  0
 21 36  1  0  0  0  0
M  END
>  <Energy>
46.8378

$$$$

 OpenBabel04232616063D

 36 38  0  0  0  0  0  0  0  0999 V2000
    1.0943    0.1119    0.1427 C   0  0  0  0  0  0  0  0  0  0  0  0
    2.5975    0.0538   -0.0365 C   0  0  0  0  0  0  0  0  0  0  0  0
    3.2920    0.8740   -0.7647 N   0  0  0  0  0  0  0  0  0  0  0  0
    2.7026    1.9257   -1.3948 N   0  0  0  0  0  0  0  0  0  0  0  0
    3.4186    2.7510   -2.2094 C   0  0  0  0  0  0  0  0  0  0  0  0
    3.0973    4.0150   -2.4120 N   0  0  0  0  0  0  0  0  0  0  0  0
    4.0237    4.6083   -3.2447 C   0  0  0  0  0  0  0  0  0  0  0  0
    5.0235    3.7792   -3.7064 C   0  0  0  0  0  0  0  0  0  0  0  0
    4.8367    2.2220   -3.0625 S   0  0  0  0  0  0  0  0  0  0  0  0
    6.0991    4.1650   -4.6615 C   0  0  0  0  0  0  0  0  0  0  0  0
    6.1805    5.6972   -4.7863 C   0  0  0  0  0  0  0  0  0  0  0  0
    4.7899    6.3558   -4.8513 C   0  0  0  0  0  0  0  0  0  0  0  0
    3.9534    6.0547   -3.5948 C   0  0  0  0  0  0  0  0  0  0  0  0
    3.3520   -1.0452    0.6631 C   0  0  0  0  0  0  0  0  0  0  0  0
    2.7207   -1.9868    1.4834 C   0  0  0  0  0  0  0  0  0  0  0  0
    3.4681   -2.9956    2.1009 C   0  0  0  0  0  0  0  0  0  0  0  0
    4.8472   -3.0692    1.9075 C   0  0  0  0  0  0  0  0  0  0  0  0
    5.4861   -2.1329    1.1013 C   0  0  0  0  0  0  0  0  0  0  0  0
    4.7432   -1.1256    0.4831 C   0  0  0  0  0  0  0  0  0  0  0  0
    0.6276    0.9126   -0.4324 H   0  0  0  0  0  0  0  0  0  0  0  0
    0.8552    0.2689    1.1987 H   0  0  0  0  0  0  0  0  0  0  0  0
    0.6518   -0.8301   -0.1952 H   0  0  0  0  0  0  0  0  0  0  0  0
    1.9520    2.4144   -0.9136 H   0  0  0  0  0  0  0  0  0  0  0  0
    5.8714    3.7346   -5.6444 H   0  0  0  0  0  0  0  0  0  0  0  0
    7.0716    3.7712   -4.3451 H   0  0  0  0  0  0  0  0  0  0  0  0
    6.7591    5.9579   -5.6799 H   0  0  0  0  0  0  0  0  0  0  0  0
    6.7255    6.1039   -3.9245 H   0  0  0  0  0  0  0  0  0  0  0  0
    4.2621    5.9855   -5.7393 H   0  0  0  0  0  0  0  0  0  0  0  0
    4.8963    7.4400   -4.9688 H   0  0  0  0  0  0  0  0  0  0  0  0
    2.9146    6.3620   -3.7553 H   0  0  0  0  0  0  0  0  0  0  0  0
    4.3440    6.6362   -2.7508 H   0  0  0  0  0  0  0  0  0  0  0  0
    1.6498   -1.9626    1.6599 H   0  0  0  0  0  0  0  0  0  0  0  0
    2.9731   -3.7276    2.7341 H   0  0  0  0  0  0  0  0  0  0  0  0
    5.4248   -3.8564    2.3853 H   0  0  0  0  0  0  0  0  0  0  0  0
    6.5612   -2.1818    0.9472 H   0  0  0  0  0  0  0  0  0  0  0  0
    5.2626   -0.4038   -0.1445 H   0  0  0  0  0  0  0  0  0  0  0  0
  1  2  1  0  0  0  0
  1 20  1  0  0  0  0
  1 21  1  0  0  0  0
  1 22  1  0  0  0  0
  2  3  2  0  0  0  0
  2 14  1  0  0  0  0
  3  4  1  0  0  0  0
  4  5  1  0  0  0  0
  4 23  1  0  0  0  0
  5  6  2  0  0  0  0
  5  9  1  0  0  0  0
  6  7  1  0  0  0  0
  7  8  2  0  0  0  0
  7 13  1  0  0  0  0
  8  9  1  0  0  0  0
  8 10  1  0  0  0  0
 10 11  1  0  0  0  0
 10 24  1  0  0  0  0
 10 25  1  0  0  0  0
 11 12  1  0  0  0  0
 11 26  1  0  0  0  0
 11 27  1  0  0  0  0
 12 13  1  0  0  0  0
 12 28  1  0  0  0  0
 12 29  1  0  0  0  0
 13 30  1  0  0  0  0
 13 31  1  0  0  0  0
 14 15  1  0  0  0  0
 14 19  2  0  0  0  0
 15 16  2  0  0  0  0
 15 32  1  0  0  0  0
 16 17  1  0  0  0  0
 16 33  1  0  0  0  0
 17 18  2  0  0  0  0
 17 34  1  0  0  0  0
 18 19  1  0  0  0  0
 18 35  1  0  0  0  0
 19 36  1  0  0  0  0
M  END
>  <Energy>
63.8357

$$$$

 OpenBabel04232616063D

 38 39  0  0  0  0  0  0  0  0999 V2000
    1.1424   -0.2251    0.2649 C   0  0  0  0  0  0  0  0  0  0  0  0
    2.5456   -0.1757    0.0347 O   0  0  0  0  0  0  0  0  0  0  0  0
    3.1007    1.0659   -0.1041 C   0  0  0  0  0  0  0  0  0  0  0  0
    2.4160    2.2781   -0.0568 C   0  0  0  0  0  0  0  0  0  0  0  0
    3.1059    3.4852   -0.2249 C   0  0  0  0  0  0  0  0  0  0  0  0
    4.4906    3.5014   -0.4314 C   0  0  0  0  0  0  0  0  0  0  0  0
    5.2269    4.7453   -0.7040 C   0  0  0  0  0  0  0  0  0  0  0  0
    4.8908    5.9558   -0.2268 C   0  0  0  0  0  0  0  0  0  0  0  0
    5.5646    7.2092   -0.6034 C   0  0  0  0  0  0  0  0  0  0  0  0
    6.1343    7.3913   -1.8662 C   0  0  0  0  0  0  0  0  0  0  0  0
    6.7142    8.6125   -2.2247 C   0  0  0  0  0  0  0  0  0  0  0  0
    6.7213    9.6947   -1.3353 C   0  0  0  0  0  0  0  0  0  0  0  0
    7.3133   10.8964   -1.6184 O   0  0  0  0  0  0  0  0  0  0  0  0
    7.9563   11.0427   -2.8771 C   0  0  0  0  0  0  0  0  0  0  0  0
    6.1098    9.5349   -0.0798 C   0  0  0  0  0  0  0  0  0  0  0  0
    6.0172   10.4789    0.9135 O   0  0  0  0  0  0  0  0  0  0  0  0
    5.8560   11.8279    0.4895 C   0  0  0  0  0  0  0  0  0  0  0  0
    5.5558    8.2944    0.2795 C   0  0  0  0  0  0  0  0  0  0  0  0
    5.1703    2.2792   -0.4872 C   0  0  0  0  0  0  0  0  0  0  0  0
    4.4798    1.0733   -0.3211 C   0  0  0  0  0  0  0  0  0  0  0  0
    0.8607   -1.2748    0.3916 H   0  0  0  0  0  0  0  0  0  0  0  0
    0.5897    0.1683   -0.5942 H   0  0  0  0  0  0  0  0  0  0  0  0
    0.8728    0.3039    1.1853 H   0  0  0  0  0  0  0  0  0  0  0  0
    1.3429    2.3260    0.0945 H   0  0  0  0  0  0  0  0  0  0  0  0
    2.5360    4.4105   -0.2152 H   0  0  0  0  0  0  0  0  0  0  0  0
    6.0870    4.6304   -1.3604 H   0  0  0  0  0  0  0  0  0  0  0  0
    4.0636    6.0667    0.4704 H   0  0  0  0  0  0  0  0  0  0  0  0
    6.1284    6.5893   -2.6004 H   0  0  0  0  0  0  0  0  0  0  0  0
    7.1519    8.6806   -3.2140 H   0  0  0  0  0  0  0  0  0  0  0  0
    8.3998   12.0426   -2.9112 H   0  0  0  0  0  0  0  0  0  0  0  0
    7.2345   10.9708   -3.6973 H   0  0  0  0  0  0  0  0  0  0  0  0
    8.7677   10.3172   -2.9962 H   0  0  0  0  0  0  0  0  0  0  0  0
    5.4143   12.3857    1.3216 H   0  0  0  0  0  0  0  0  0  0  0  0
    5.1734   11.9164   -0.3632 H   0  0  0  0  0  0  0  0  0  0  0  0
    6.8261   12.2865    0.2773 H   0  0  0  0  0  0  0  0  0  0  0  0
    5.1036    8.1938    1.2647 H   0  0  0  0  0  0  0  0  0  0  0  0
    6.2427    2.2487   -0.6651 H   0  0  0  0  0  0  0  0  0  0  0  0
    5.0217    0.1328   -0.3691 H   0  0  0  0  0  0  0  0  0  0  0  0
  1  2  1  0  0  0  0
  1 21  1  0  0  0  0
  1 22  1  0  0  0  0
  1 23  1  0  0  0  0
  2  3  1  0  0  0  0
  3  4  1  0  0  0  0
  3 20  2  0  0  0  0
  4  5  2  0  0  0  0
  4 24  1  0  0  0  0
  5  6  1  0  0  0  0
  5 25  1  0  0  0  0
  6  7  1  0  0  0  0
  6 19  2  0  0  0  0
  7  8  2  0  0  0  0
  7 26  1  0  0  0  0
  8  9  1  0  0  0  0
  8 27  1  0  0  0  0
  9 10  1  0  0  0  0
  9 18  2  0  0  0  0
 10 11  2  0  0  0  0
 10 28  1  0  0  0  0
 11 12  1  0  0  0  0
 11 29  1  0  0  0  0
 12 13  1  0  0  0  0
 12 15  2  0  0  0  0
 13 14  1  0  0  0  0
 14 30  1  0  0  0  0
 14 31  1  0  0  0  0
 14 32  1  0  0  0  0
 15 16  1  0  0  0  0
 15 18  1  0  0  0  0
 16 17  1  0  0  0  0
 17 33  1  0  0  0  0
 17 34  1  0  0  0  0
 17 35  1  0  0  0  0
 18 36  1  0  0  0  0
 19 20  1  0  0  0  0
 19 37  1  0  0  0  0
 20 38  1  0  0  0  0
M  END
>  <Energy>
63.9906

$$$$

 OpenBabel04232616063D

 40 42  0  0  0  0  0  0  0  0999 V2000
    1.1381   -0.0809    0.0424 C   0  0  0  0  0  0  0  0  0  0  0  0
    2.5710   -0.1029   -0.2267 N   0  0  0  0  0  0  0  0  0  0  0  0
    3.3950   -0.9032    0.6746 C   0  0  0  0  0  0  0  0  0  0  0  0
    3.1659    0.9291   -0.9536 C   0  0  0  0  0  0  0  0  0  0  0  0
    2.4336    2.0165   -1.4560 C   0  0  0  0  0  0  0  0  0  0  0  0
    3.0234    3.0303   -2.2293 C   0  0  0  0  0  0  0  0  0  0  0  0
    4.3833    2.9967   -2.5341 C   0  0  0  0  0  0  0  0  0  0  0  0
    5.0385    3.9754   -3.4157 C   0  0  0  0  0  0  0  0  0  0  0  0
    4.5648    5.1862   -3.7583 C   0  0  0  0  0  0  0  0  0  0  0  0
    5.2923    6.0570   -4.7016 C   0  0  0  0  0  0  0  0  0  0  0  0
    5.6538    7.3304   -4.2376 C   0  0  0  0  0  0  0  0  0  0  0  0
    6.4154    8.1844   -5.0297 C   0  0  0  0  0  0  0  0  0  0  0  0
    6.8431    7.7650   -6.2880 C   0  0  0  0  0  0  0  0  0  0  0  0
    6.4720    6.5120   -6.7950 C   0  0  0  0  0  0  0  0  0  0  0  0
    6.9072    6.1062   -8.0687 C   0  0  0  0  0  0  0  0  0  0  0  0
    6.5017    4.8898   -8.6149 C   0  0  0  0  0  0  0  0  0  0  0  0
    5.6420    4.0671   -7.9017 C   0  0  0  0  0  0  0  0  0  0  0  0
    5.2246    4.4445   -6.6242 C   0  0  0  0  0  0  0  0  0  0  0  0
    5.6485    5.6534   -6.0229 C   0  0  0  0  0  0  0  0  0  0  0  0
    5.1314    1.9235   -2.0456 C   0  0  0  0  0  0  0  0  0  0  0  0
    4.5334    0.9163   -1.2712 C   0  0  0  0  0  0  0  0  0  0  0  0
    0.8100   -1.0110    0.5200 H   0  0  0  0  0  0  0  0  0  0  0  0
    0.5647   -0.0005   -0.8878 H   0  0  0  0  0  0  0  0  0  0  0  0
    0.8742    0.7475    0.7086 H   0  0  0  0  0  0  0  0  0  0  0  0
    2.7852   -1.5769    1.2871 H   0  0  0  0  0  0  0  0  0  0  0  0
    3.9628   -0.2659    1.3617 H   0  0  0  0  0  0  0  0  0  0  0  0
    4.0857   -1.5398    0.1114 H   0  0  0  0  0  0  0  0  0  0  0  0
    1.3686    2.1075   -1.2633 H   0  0  0  0  0  0  0  0  0  0  0  0
    2.3852    3.8258   -2.6026 H   0  0  0  0  0  0  0  0  0  0  0  0
    5.9858    3.6424   -3.8392 H   0  0  0  0  0  0  0  0  0  0  0  0
    3.6501    5.5951   -3.3421 H   0  0  0  0  0  0  0  0  0  0  0  0
    5.3565    7.6591   -3.2432 H   0  0  0  0  0  0  0  0  0  0  0  0
    6.6904    9.1693   -4.6631 H   0  0  0  0  0  0  0  0  0  0  0  0
    7.4602    8.4365   -6.8812 H   0  0  0  0  0  0  0  0  0  0  0  0
    7.5709    6.7428   -8.6497 H   0  0  0  0  0  0  0  0  0  0  0  0
    6.8470    4.5924   -9.6017 H   0  0  0  0  0  0  0  0  0  0  0  0
    5.2944    3.1316   -8.3305 H   0  0  0  0  0  0  0  0  0  0  0  0
    4.5405    3.7788   -6.0991 H   0  0  0  0  0  0  0  0  0  0  0  0
    6.1923    1.8399   -2.2727 H   0  0  0  0  0  0  0  0  0  0  0  0
    5.1708    0.0981   -0.9489 H   0  0  0  0  0  0  0  0  0  0  0  0
  1  2  1  0  0  0  0
  1 22  1  0  0  0  0
  1 23  1  0  0  0  0
  1 24  1  0  0  0  0
  2  3  1  0  0  0  0
  2  4  1  0  0  0  0
  3 25  1  0  0  0  0
  3 26  1  0  0  0  0
  3 27  1  0  0  0  0
  4  5  1  0  0  0  0
  4 21  2  0  0  0  0
  5  6  2  0  0  0  0
  5 28  1  0  0  0  0
  6  7  1  0  0  0  0
  6 29  1  0  0  0  0
  7  8  1  0  0  0  0
  7 20  2  0  0  0  0
  8  9  2  0  0  0  0
  8 30  1  0  0  0  0
  9 10  1  0  0  0  0
  9 31  1  0  0  0  0
 10 11  1  0  0  0  0
 10 19  2  0  0  0  0
 11 12  2  0  0  0  0
 11 32  1  0  0  0  0
 12 13  1  0  0  0  0
 12 33  1  0  0  0  0
 13 14  2  0  0  0  0
 13 34  1  0  0  0  0
 14 15  1  0  0  0  0
 14 19  1  0  0  0  0
 15 16  2  0  0  0  0
 15 35  1  0  0  0  0
 16 17  1  0  0  0  0
 16 36  1  0  0  0  0
 17 18  2  0  0  0  0
 17 37  1  0  0  0  0
 18 19  1  0  0  0  0
 18 38  1  0  0  0  0
 20 21  1  0  0  0  0
 20 39  1  0  0  0  0
 21 40  1  0  0  0  0
M  END
>  <Energy>
64.5406

$$$$

 OpenBabel04232616063D

 40 42  0  0  0  0  0  0  0  0999 V2000
    1.2893    0.1940   -1.3352 C   0  0  0  0  0  0  0  0  0  0  0  0
    2.7857   -0.0507   -1.2728 C   0  0  0  0  0  0  0  0  0  0  0  0
    3.0402   -1.1960   -0.4482 O   0  0  0  0  0  0  0  0  0  0  0  0
    4.3085   -1.2345    0.0663 C   0  0  0  0  0  0  0  0  0  0  0  0
    5.4222   -0.6889   -0.5634 C   0  0  0  0  0  0  0  0  0  0  0  0
    6.6276   -0.5836    0.1288 C   0  0  0  0  0  0  0  0  0  0  0  0
    6.7461   -1.0159    1.4602 C   0  0  0  0  0  0  0  0  0  0  0  0
    7.9159   -0.5490    2.3666 C   0  0  0  0  0  0  0  0  0  0  0  0
    7.4852    0.5664    3.2455 N   0  0  0  0  0  0  0  0  0  0  0  0
    6.2999    0.5119    4.0637 C   0  0  0  0  0  0  0  0  0  0  0  0
    7.7353    1.6868    2.4478 C   0  0  0  0  0  0  0  0  0  0  0  0
    7.1435    2.9344    2.4493 C   0  0  0  0  0  0  0  0  0  0  0  0
    7.5243    3.8544    1.4647 C   0  0  0  0  0  0  0  0  0  0  0  0
    8.5153    3.5327    0.5211 C   0  0  0  0  0  0  0  0  0  0  0  0
    9.1339    2.2812    0.5400 C   0  0  0  0  0  0  0  0  0  0  0  0
    8.7125    1.3705    1.4926 C   0  0  0  0  0  0  0  0  0  0  0  0
    9.0567   -0.0271    1.5381 N   0  0  0  0  0  0  0  0  0  0  0  0
   10.3709   -0.1871    2.1569 C   0  0  0  0  0  0  0  0  0  0  0  0
    5.6712   -1.7441    2.0052 C   0  0  0  0  0  0  0  0  0  0  0  0
    4.4569   -1.8403    1.3146 C   0  0  0  0  0  0  0  0  0  0  0  0
    1.0631    1.0150   -2.0242 H   0  0  0  0  0  0  0  0  0  0  0  0
    0.9036    0.4567   -0.3441 H   0  0  0  0  0  0  0  0  0  0  0  0
    0.7588   -0.7035   -1.6631 H   0  0  0  0  0  0  0  0  0  0  0  0
    3.2608    0.8496   -0.8704 H   0  0  0  0  0  0  0  0  0  0  0  0
    3.1619   -0.2468   -2.2846 H   0  0  0  0  0  0  0  0  0  0  0  0
    5.3693   -0.2796   -1.5665 H   0  0  0  0  0  0  0  0  0  0  0  0
    7.4535   -0.0824   -0.3680 H   0  0  0  0  0  0  0  0  0  0  0  0
    8.2489   -1.4059    2.9675 H   0  0  0  0  0  0  0  0  0  0  0  0
    6.2614   -0.4319    4.6177 H   0  0  0  0  0  0  0  0  0  0  0  0
    5.3811    0.6170    3.4770 H   0  0  0  0  0  0  0  0  0  0  0  0
    6.3152    1.3116    4.8130 H   0  0  0  0  0  0  0  0  0  0  0  0
    6.3642    3.1881    3.1576 H   0  0  0  0  0  0  0  0  0  0  0  0
    7.0292    4.8203    1.4139 H   0  0  0  0  0  0  0  0  0  0  0  0
    8.7784    4.2527   -0.2503 H   0  0  0  0  0  0  0  0  0  0  0  0
    9.8600    2.0030   -0.2138 H   0  0  0  0  0  0  0  0  0  0  0  0
   11.1196    0.4765    1.7048 H   0  0  0  0  0  0  0  0  0  0  0  0
   10.7198   -1.2131    2.0012 H   0  0  0  0  0  0  0  0  0  0  0  0
   10.3506    0.0029    3.2373 H   0  0  0  0  0  0  0  0  0  0  0  0
    5.7375   -2.1546    3.0104 H   0  0  0  0  0  0  0  0  0  0  0  0
    3.6039   -2.3149    1.7876 H   0  0  0  0  0  0  0  0  0  0  0  0
  1  2  1  0  0  0  0
  1 21  1  0  0  0  0
  1 22  1  0  0  0  0
  1 23  1  0  0  0  0
  2  3  1  0  0  0  0
  2 24  1  0  0  0  0
  2 25  1  0  0  0  0
  3  4  1  0  0  0  0
  4  5  1  0  0  0  0
  4 20  2  0  0  0  0
  5  6  2  0  0  0  0
  5 26  1  0  0  0  0
  6  7  1  0  0  0  0
  6 27  1  0  0  0  0
  7  8  1  0  0  0  0
  7 19  2  0  0  0  0
  8  9  1  0  0  0  0
  8 17  1  0  0  0  0
  8 28  1  0  0  0  0
  9 10  1  0  0  0  0
  9 11  1  0  0  0  0
 10 29  1  0  0  0  0
 10 30  1  0  0  0  0
 10 31  1  0  0  0  0
 11 12  1  0  0  0  0
 11 16  2  0  0  0  0
 12 13  2  0  0  0  0
 12 32  1  0  0  0  0
 13 14  1  0  0  0  0
 13 33  1  0  0  0  0
 14 15  2  0  0  0  0
 14 34  1  0  0  0  0
 15 16  1  0  0  0  0
 15 35  1  0  0  0  0
 16 17  1  0  0  0  0
 17 18  1  0  0  0  0
 18 36  1  0  0  0  0
 18 37  1  0  0  0  0
 18 38  1  0  0  0  0
 19 20  1  0  0  0  0
 19 39  1  0  0  0  0
 20 40  1  0  0  0  0
M  END
>  <Energy>
45.2395

$$$$

 OpenBabel04232616063D

 36 38  0  0  0  0  0  0  0  0999 V2000
    0.8696   -0.0585   -0.1010 C   0  0  0  0  0  0  0  0  0  0  0  0
    2.3805   -0.1109   -0.0265 C   0  0  0  0  0  0  0  0  0  0  0  0
    3.0852   -1.2032   -0.1305 N   0  0  0  0  0  0  0  0  0  0  0  0
    2.4607   -2.3970   -0.3102 N   0  0  0  0  0  0  0  0  0  0  0  0
    3.2618   -3.5460   -0.4745 C   0  0  0  0  0  0  0  0  0  0  0  0
    4.5660   -3.4328   -0.9432 C   0  0  0  0  0  0  0  0  0  0  0  0
    5.3521   -4.5681   -1.0741 C   0  0  0  0  0  0  0  0  0  0  0  0
    4.8107   -5.8117   -0.7563 C   0  0  0  0  0  0  0  0  0  0  0  0
    5.5815   -6.9832   -0.8598 C   0  0  0  0  0  0  0  0  0  0  0  0
    5.0215   -8.2182   -0.5547 C   0  0  0  0  0  0  0  0  0  0  0  0
    3.6909   -8.2859   -0.1540 C   0  0  0  0  0  0  0  0  0  0  0  0
    2.9320   -7.1124   -0.0462 C   0  0  0  0  0  0  0  0  0  0  0  0
    3.4688   -5.8600   -0.3293 C   0  0  0  0  0  0  0  0  0  0  0  0
    2.7095   -4.7502   -0.1901 N   0  0  0  0  0  0  0  0  0  0  0  0
    3.1337    1.1879    0.1034 C   0  0  0  0  0  0  0  0  0  0  0  0
    4.4381    1.2352   -0.4226 C   0  0  0  0  0  0  0  0  0  0  0  0
    5.1865    2.4144   -0.3896 C   0  0  0  0  0  0  0  0  0  0  0  0
    4.6454    3.5633    0.1781 C   0  0  0  0  0  0  0  0  0  0  0  0
    3.3623    3.5304    0.7233 C   0  0  0  0  0  0  0  0  0  0  0  0
    2.6108    2.3489    0.6890 C   0  0  0  0  0  0  0  0  0  0  0  0
    1.3692    2.3565    1.2593 O   0  0  0  0  0  0  0  0  0  0  0  0
    0.4295   -1.0043   -0.4199 H   0  0  0  0  0  0  0  0  0  0  0  0
    0.5705    0.6994   -0.8323 H   0  0  0  0  0  0  0  0  0  0  0  0
    0.4509    0.1821    0.8789 H   0  0  0  0  0  0  0  0  0  0  0  0
    1.6098   -2.6374    0.1880 H   0  0  0  0  0  0  0  0  0  0  0  0
    4.9771   -2.4587   -1.1891 H   0  0  0  0  0  0  0  0  0  0  0  0
    6.3767   -4.4692   -1.4201 H   0  0  0  0  0  0  0  0  0  0  0  0
    6.6213   -6.9327   -1.1734 H   0  0  0  0  0  0  0  0  0  0  0  0
    5.6194   -9.1226   -0.6316 H   0  0  0  0  0  0  0  0  0  0  0  0
    3.2420   -9.2475    0.0772 H   0  0  0  0  0  0  0  0  0  0  0  0
    1.8934   -7.1806    0.2706 H   0  0  0  0  0  0  0  0  0  0  0  0
    4.8781    0.3502   -0.8785 H   0  0  0  0  0  0  0  0  0  0  0  0
    6.1882    2.4334   -0.8125 H   0  0  0  0  0  0  0  0  0  0  0  0
    5.2239    4.4837    0.1992 H   0  0  0  0  0  0  0  0  0  0  0  0
    2.9636    4.4365    1.1707 H   0  0  0  0  0  0  0  0  0  0  0  0
    1.1977    3.2301    1.6485 H   0  0  0  0  0  0  0  0  0  0  0  0
  1  2  1  0  0  0  0
  1 22  1  0  0  0  0
  1 23  1  0  0  0  0
  1 24  1  0  0  0  0
  2  3  2  0  0  0  0
  2 15  1  0  0  0  0
  3  4  1  0  0  0  0
  4  5  1  0  0  0  0
  4 25  1  0  0  0  0
  5  6  1  0  0  0  0
  5 14  2  0  0  0  0
  6  7  2  0  0  0  0
  6 26  1  0  0  0  0
  7  8  1  0  0  0  0
  7 27  1  0  0  0  0
  8  9  1  0  0  0  0
  8 13  2  0  0  0  0
  9 10  2  0  0  0  0
  9 28  1  0  0  0  0
 10 11  1  0  0  0  0
 10 29  1  0  0  0  0
 11 12  2  0  0  0  0
 11 30  1  0  0  0  0
 12 13  1  0  0  0  0
 12 31  1  0  0  0  0
 13 14  1  0  0  0  0
 15 16  1  0  0  0  0
 15 20  2  0  0  0  0
 16 17  2  0  0  0  0
 16 32  1  0  0  0  0
 17 18  1  0  0  0  0
 17 33  1  0  0  0  0
 18 19  2  0  0  0  0
 18 34  1  0  0  0  0
 19 20  1  0  0  0  0
 19 35  1  0  0  0  0
 20 21  1  0  0  0  0
 21 36  1  0  0  0  0
M  END
>  <Energy>
76.7976

$$$$

 OpenBabel04232616063D

 23 24  0  0  0  0  0  0  0  0999 V2000
   -2.5464   -0.9322   -0.1026 Cl  0  0  0  0  0  0  0  0  0  0  0  0
   -1.0815   -0.0418   -0.0568 C   0  0  0  0  0  0  0  0  0  0  0  0
   -1.0304    1.2185    0.5153 C   0  0  0  0  0  0  0  0  0  0  0  0
    0.0948    1.9683    0.5858 N   0  0  0  0  0  0  0  0  0  0  0  0
    1.2416    1.4579    0.0655 C   0  0  0  0  0  0  0  0  0  0  0  0
    2.4640    2.1821    0.1857 N   0  0  0  0  0  0  0  0  0  0  0  0
    2.3418    3.5386    0.3306 N   0  0  0  0  0  0  0  0  0  0  0  0
    3.4616    4.1845    0.4020 C   0  0  0  0  0  0  0  0  0  0  0  0
    3.4685    5.6230    0.4950 C   0  0  0  0  0  0  0  0  0  0  0  0
    2.3959    6.4921    0.5101 C   0  0  0  0  0  0  0  0  0  0  0  0
    2.8052    7.8538    0.5979 C   0  0  0  0  0  0  0  0  0  0  0  0
    4.1762    7.9759    0.6478 C   0  0  0  0  0  0  0  0  0  0  0  0
    4.9587    6.4548    0.5854 S   0  0  0  0  0  0  0  0  0  0  0  0
    1.2595    0.1773   -0.5187 C   0  0  0  0  0  0  0  0  0  0  0  0
    2.7033   -0.4826   -1.2038 Cl  0  0  0  0  0  0  0  0  0  0  0  0
    0.0841   -0.5716   -0.5892 C   0  0  0  0  0  0  0  0  0  0  0  0
   -1.9126    1.6789    0.9509 H   0  0  0  0  0  0  0  0  0  0  0  0
    3.1186    1.8646   -0.5318 H   0  0  0  0  0  0  0  0  0  0  0  0
    4.4313    3.6534    0.3803 H   0  0  0  0  0  0  0  0  0  0  0  0
    1.3651    6.1586    0.4578 H   0  0  0  0  0  0  0  0  0  0  0  0
    2.1274    8.6983    0.6232 H   0  0  0  0  0  0  0  0  0  0  0  0
    4.7576    8.8850    0.7173 H   0  0  0  0  0  0  0  0  0  0  0  0
    0.0820   -1.5534   -1.0544 H   0  0  0  0  0  0  0  0  0  0  0  0
  1  2  1  0  0  0  0
  2  3  1  0  0  0  0
  2 16  2  0  0  0  0
  3  4  2  0  0  0  0
  3 17  1  0  0  0  0
  4  5  1  0  0  0  0
  5  6  1  0  0  0  0
  5 14  2  0  0  0  0
  6  7  1  0  0  0  0
  6 18  1  0  0  0  0
  7  8  2  0  0  0  0
  8  9  1  0  0  0  0
  8 19  1  0  0  0  0
  9 10  2  0  0  0  0
  9 13  1  0  0  0  0
 10 11  1  0  0  0  0
 10 20  1  0  0  0  0
 11 12  2  0  0  0  0
 11 21  1  0  0  0  0
 12 13  1  0  0  0  0
 12 22  1  0  0  0  0
 14 15  1  0  0  0  0
 14 16  1  0  0  0  0
 16 23  1  0  0  0  0
M  END
>  <Energy>
75.7372

$$$$

 OpenBabel04232616063D

 36 38  0  0  0  0  0  0  0  0999 V2000
    1.3239   -0.6453   -0.2634 C   0  0  0  0  0  0  0  0  0  0  0  0
    2.4625    0.1942   -0.1206 O   0  0  0  0  0  0  0  0  0  0  0  0
    3.0149    0.2831    1.1274 C   0  0  0  0  0  0  0  0  0  0  0  0
    2.5739   -0.3798    2.2655 C   0  0  0  0  0  0  0  0  0  0  0  0
    3.2504   -0.2019    3.4748 C   0  0  0  0  0  0  0  0  0  0  0  0
    4.3795    0.6443    3.5672 C   0  0  0  0  0  0  0  0  0  0  0  0
    5.1307    0.8270    4.7557 C   0  0  0  0  0  0  0  0  0  0  0  0
    4.7715    0.1532    5.9516 N   0  0  0  0  0  0  0  0  0  0  0  0
    5.7547   -0.0750    6.8543 N   0  0  0  0  0  0  0  0  0  0  0  0
    5.3891   -0.5965    7.9792 C   0  0  0  0  0  0  0  0  0  0  0  0
    6.3952   -1.0180    8.9752 C   0  0  0  0  0  0  0  0  0  0  0  0
    7.7600   -0.9118    8.6823 C   0  0  0  0  0  0  0  0  0  0  0  0
    8.7060   -1.3848    9.5921 C   0  0  0  0  0  0  0  0  0  0  0  0
    8.2895   -1.9593   10.7924 C   0  0  0  0  0  0  0  0  0  0  0  0
    6.9282   -2.0559   11.0889 C   0  0  0  0  0  0  0  0  0  0  0  0
    5.9760   -1.5856   10.1806 C   0  0  0  0  0  0  0  0  0  0  0  0
    6.2636    1.6429    4.7176 C   0  0  0  0  0  0  0  0  0  0  0  0
    6.5943    2.2649    3.5332 C   0  0  0  0  0  0  0  0  0  0  0  0
    5.8953    2.1206    2.3907 N   0  0  0  0  0  0  0  0  0  0  0  0
    4.8208    1.3147    2.4052 C   0  0  0  0  0  0  0  0  0  0  0  0
    4.1294    1.1215    1.2172 C   0  0  0  0  0  0  0  0  0  0  0  0
    1.0057   -0.6031   -1.3095 H   0  0  0  0  0  0  0  0  0  0  0  0
    0.4923   -0.2878    0.3527 H   0  0  0  0  0  0  0  0  0  0  0  0
    1.5690   -1.6871   -0.0316 H   0  0  0  0  0  0  0  0  0  0  0  0
    1.7217   -1.0503    2.2477 H   0  0  0  0  0  0  0  0  0  0  0  0
    2.9062   -0.7553    4.3449 H   0  0  0  0  0  0  0  0  0  0  0  0
    3.8217    0.3580    6.2592 H   0  0  0  0  0  0  0  0  0  0  0  0
    4.3266   -0.7779    8.2226 H   0  0  0  0  0  0  0  0  0  0  0  0
    8.0913   -0.4837    7.7398 H   0  0  0  0  0  0  0  0  0  0  0  0
    9.7651   -1.3161    9.3558 H   0  0  0  0  0  0  0  0  0  0  0  0
    9.0283   -2.3388   11.4942 H   0  0  0  0  0  0  0  0  0  0  0  0
    6.6117   -2.5102   12.0246 H   0  0  0  0  0  0  0  0  0  0  0  0
    4.9202   -1.6814   10.4180 H   0  0  0  0  0  0  0  0  0  0  0  0
    6.8706    1.8001    5.6022 H   0  0  0  0  0  0  0  0  0  0  0  0
    7.4612    2.9154    3.4683 H   0  0  0  0  0  0  0  0  0  0  0  0
    4.4818    1.6319    0.3234 H   0  0  0  0  0  0  0  0  0  0  0  0
  1  2  1  0  0  0  0
  1 22  1  0  0  0  0
  1 23  1  0  0  0  0
  1 24  1  0  0  0  0
  2  3  1  0  0  0  0
  3  4  1  0  0  0  0
  3 21  2  0  0  0  0
  4  5  2  0  0  0  0
  4 25  1  0  0  0  0
  5  6  1  0  0  0  0
  5 26  1  0  0  0  0
  6  7  1  0  0  0  0
  6 20  2  0  0  0  0
  7  8  1  0  0  0  0
  7 17  2  0  0  0  0
  8  9  1  0  0  0  0
  8 27  1  0  0  0  0
  9 10  2  3  0  0  0
 10 11  1  0  0  0  0
 10 28  1  0  0  0  0
 11 12  1  0  0  0  0
 11 16  2  0  0  0  0
 12 13  2  0  0  0  0
 12 29  1  0  0  0  0
 13 14  1  0  0  0  0
 13 30  1  0  0  0  0
 14 15  2  0  0  0  0
 14 31  1  0  0  0  0
 15 16  1  0  0  0  0
 15 32  1  0  0  0  0
 16 33  1  0  0  0  0
 17 18  1  0  0  0  0
 17 34  1  0  0  0  0
 18 19  2  0  0  0  0
 18 35  1  0  0  0  0
 19 20  1  0  0  0  0
 20 21  1  0  0  0  0
 21 36  1  0  0  0  0
M  END
>  <Energy>
85.485

$$$$

 OpenBabel04232616063D

 40 40  0  0  0  0  0  0  0  0999 V2000
    3.1662    0.1848    1.3179 C   0  0  0  0  0  0  0  0  0  0  0  0
    2.4861    0.0028   -0.0202 C   0  0  0  0  0  0  0  0  0  0  0  0
    1.3769    0.5045   -0.2028 O   0  0  0  0  0  0  0  0  0  0  0  0
    3.2075   -0.7744   -1.1044 C   0  0  0  0  0  0  0  0  0  0  0  0
    2.5419   -1.4519   -2.0675 C   0  0  0  0  0  0  0  0  0  0  0  0
    1.0993   -1.5727   -2.2188 C   0  0  0  0  0  0  0  0  0  0  0  0
    0.4756   -2.1550   -3.2560 C   0  0  0  0  0  0  0  0  0  0  0  0
   -0.9923   -2.1448   -3.3313 C   0  0  0  0  0  0  0  0  0  0  0  0
   -1.6571   -1.1089   -4.0007 C   0  0  0  0  0  0  0  0  0  0  0  0
   -3.0543   -1.0648   -4.0300 C   0  0  0  0  0  0  0  0  0  0  0  0
   -3.7975   -2.0545   -3.3884 C   0  0  0  0  0  0  0  0  0  0  0  0
   -3.1439   -3.0874   -2.7193 C   0  0  0  0  0  0  0  0  0  0  0  0
   -1.7466   -3.1331   -2.6893 C   0  0  0  0  0  0  0  0  0  0  0  0
    4.6936   -0.6744   -1.1182 C   0  0  0  0  0  0  0  0  0  0  0  0
    5.2689    0.2056   -0.4862 O   0  0  0  0  0  0  0  0  0  0  0  0
    5.3358   -1.6208   -1.8559 O   0  0  0  0  0  0  0  0  0  0  0  0
    6.7986   -1.5965   -1.8893 C   0  0  0  0  0  0  0  0  0  0  0  0
    7.3914   -1.9082   -0.5049 C   0  0  0  0  0  0  0  0  0  0  0  0
    7.2351   -2.7149   -2.8493 C   0  0  0  0  0  0  0  0  0  0  0  0
    7.3364   -0.2703   -2.4543 C   0  0  0  0  0  0  0  0  0  0  0  0
    2.4163    0.4610    2.0662 H   0  0  0  0  0  0  0  0  0  0  0  0
    3.8938    0.9988    1.2682 H   0  0  0  0  0  0  0  0  0  0  0  0
    3.6403   -0.7437    1.6455 H   0  0  0  0  0  0  0  0  0  0  0  0
    3.1179   -1.9495   -2.8520 H   0  0  0  0  0  0  0  0  0  0  0  0
    0.4682   -1.1319   -1.4490 H   0  0  0  0  0  0  0  0  0  0  0  0
    1.0018   -2.6138   -4.0864 H   0  0  0  0  0  0  0  0  0  0  0  0
   -1.0914   -0.3191   -4.4905 H   0  0  0  0  0  0  0  0  0  0  0  0
   -3.5618   -0.2519   -4.5438 H   0  0  0  0  0  0  0  0  0  0  0  0
   -4.8842   -2.0143   -3.4037 H   0  0  0  0  0  0  0  0  0  0  0  0
   -3.7225   -3.8540   -2.2103 H   0  0  0  0  0  0  0  0  0  0  0  0
   -1.2517   -3.9375   -2.1511 H   0  0  0  0  0  0  0  0  0  0  0  0
    7.0354   -2.8792   -0.1414 H   0  0  0  0  0  0  0  0  0  0  0  0
    7.1045   -1.1723    0.2512 H   0  0  0  0  0  0  0  0  0  0  0  0
    8.4864   -1.9346   -0.5371 H   0  0  0  0  0  0  0  0  0  0  0  0
    6.8843   -3.6944   -2.5034 H   0  0  0  0  0  0  0  0  0  0  0  0
    8.3269   -2.7574   -2.9420 H   0  0  0  0  0  0  0  0  0  0  0  0
    6.8126   -2.5625   -3.8486 H   0  0  0  0  0  0  0  0  0  0  0  0
    7.1255    0.5846   -1.8066 H   0  0  0  0  0  0  0  0  0  0  0  0
    6.8760   -0.0495   -3.4236 H   0  0  0  0  0  0  0  0  0  0  0  0
    8.4237   -0.3042   -2.5842 H   0  0  0  0  0  0  0  0  0  0  0  0
  1  2  1  0  0  0  0
  1 21  1  0  0  0  0
  1 22  1  0  0  0  0
  1 23  1  0  0  0  0
  2  3  2  0  0  0  0
  2  4  1  0  0  0  0
  4  5  2  0  0  0  0
  4 14  1  0  0  0  0
  5  6  1  0  0  0  0
  5 24  1  0  0  0  0
  6  7  2  0  0  0  0
  6 25  1  0  0  0  0
  7  8  1  0  0  0  0
  7 26  1  0  0  0  0
  8  9  1  0  0  0  0
  8 13  2  0  0  0  0
  9 10  2  0  0  0  0
  9 27  1  0  0  0  0
 10 11  1  0  0  0  0
 10 28  1  0  0  0  0
 11 12  2  0  0  0  0
 11 29  1  0  0  0  0
 12 13  1  0  0  0  0
 12 30  1  0  0  0  0
 13 31  1  0  0  0  0
 14 15  2  0  0  0  0
 14 16  1  0  0  0  0
 16 17  1  0  0  0  0
 17 18  1  0  0  0  0
 17 19  1  0  0  0  0
 17 20  1  0  0  0  0
 18 32  1  0  0  0  0
 18 33  1  0  0  0  0
 18 34  1  0  0  0  0
 19 35  1  0  0  0  0
 19 36  1  0  0  0  0
 19 37  1  0  0  0  0
 20 38  1  0  0  0  0
 20 39  1  0  0  0  0
 20 40  1  0  0  0  0
M  END
>  <Energy>
40.2885

$$$$

 OpenBabel04232616063D

 31 34  0  0  0  0  0  0  0  0999 V2000
    2.4712   -0.6732   -0.0021 C   0  0  0  0  0  0  0  0  0  0  0  0
    2.4390    0.7164   -0.0000 C   0  0  0  0  0  0  0  0  0  0  0  0
    1.2108    1.3840    0.0024 C   0  0  0  0  0  0  0  0  0  0  0  0
    0.0061    0.6943    0.0036 C   0  0  0  0  0  0  0  0  0  0  0  0
   -1.1486    1.3767    0.0180 N   0  0  0  0  0  0  0  0  0  0  0  0
   -2.3055    0.6674    0.0222 C   0  0  0  0  0  0  0  0  0  0  0  0
   -2.4043   -0.7235   -0.0026 C   0  0  0  0  0  0  0  0  0  0  0  0
   -3.7047   -1.4278   -0.0089 C   0  0  0  0  0  0  0  0  0  0  0  0
   -4.8367   -0.8830   -0.6361 C   0  0  0  0  0  0  0  0  0  0  0  0
   -6.0674   -1.5569   -0.6406 C   0  0  0  0  0  0  0  0  0  0  0  0
   -6.2245   -2.7964   -0.0412 C   0  0  0  0  0  0  0  0  0  0  0  0
   -7.4128   -3.4138   -0.0786 N   0  0  0  0  0  0  0  0  0  0  0  0
   -7.4896   -4.6149    0.5149 C   0  0  0  0  0  0  0  0  0  0  0  0
   -6.4928   -5.2543    1.1421 N   0  0  0  0  0  0  0  0  0  0  0  0
   -5.3165   -4.6007    1.1623 C   0  0  0  0  0  0  0  0  0  0  0  0
   -5.1081   -3.3554    0.5848 C   0  0  0  0  0  0  0  0  0  0  0  0
   -3.8689   -2.6788    0.6087 C   0  0  0  0  0  0  0  0  0  0  0  0
   -1.1800   -1.4058   -0.0215 C   0  0  0  0  0  0  0  0  0  0  0  0
    0.0422   -0.7134   -0.0087 C   0  0  0  0  0  0  0  0  0  0  0  0
    1.2759   -1.3888   -0.0092 C   0  0  0  0  0  0  0  0  0  0  0  0
    3.4231   -1.1982    0.0001 H   0  0  0  0  0  0  0  0  0  0  0  0
    3.3647    1.2862    0.0015 H   0  0  0  0  0  0  0  0  0  0  0  0
    1.1917    2.4711    0.0050 H   0  0  0  0  0  0  0  0  0  0  0  0
   -3.1918    1.2965    0.0583 H   0  0  0  0  0  0  0  0  0  0  0  0
   -4.7846    0.0746   -1.1512 H   0  0  0  0  0  0  0  0  0  0  0  0
   -6.9228   -1.1000   -1.1343 H   0  0  0  0  0  0  0  0  0  0  0  0
   -8.4503   -5.1167    0.4823 H   0  0  0  0  0  0  0  0  0  0  0  0
   -4.5148   -5.1286    1.6720 H   0  0  0  0  0  0  0  0  0  0  0  0
   -3.0337   -3.1445    1.1292 H   0  0  0  0  0  0  0  0  0  0  0  0
   -1.1625   -2.4926   -0.0605 H   0  0  0  0  0  0  0  0  0  0  0  0
    1.3109   -2.4758   -0.0116 H   0  0  0  0  0  0  0  0  0  0  0  0
  1  2  1  0  0  0  0
  1 20  2  0  0  0  0
  1 21  1  0  0  0  0
  2  3  2  0  0  0  0
  2 22  1  0  0  0  0
  3  4  1  0  0  0  0
  3 23  1  0  0  0  0
  4  5  1  0  0  0  0
  4 19  2  0  0  0  0
  5  6  2  0  0  0  0
  6  7  1  0  0  0  0
  6 24  1  0  0  0  0
  7  8  1  0  0  0  0
  7 18  2  0  0  0  0
  8  9  1  0  0  0  0
  8 17  2  0  0  0  0
  9 10  2  0  0  0  0
  9 25  1  0  0  0  0
 10 11  1  0  0  0  0
 10 26  1  0  0  0  0
 11 12  1  0  0  0  0
 11 16  2  0  0  0  0
 12 13  2  0  0  0  0
 13 14  1  0  0  0  0
 13 27  1  0  0  0  0
 14 15  2  0  0  0  0
 15 16  1  0  0  0  0
 15 28  1  0  0  0  0
 16 17  1  0  0  0  0
 17 29  1  0  0  0  0
 18 19  1  0  0  0  0
 18 30  1  0  0  0  0
 19 20  1  0  0  0  0
 20 31  1  0  0  0  0
M  END
>  <Energy>
56.7593

$$$$

 OpenBabel04232616063D

 33 35  0  0  1  0  0  0  0  0999 V2000
    1.3689    0.5724   -0.4558 S   0  0  0  0  0  0  0  0  0  0  0  0
    3.0703    0.3752   -0.2661 C   0  0  0  0  0  0  0  0  0  0  0  0
    3.6518   -0.7965   -0.2322 N   0  0  0  0  0  0  0  0  0  0  0  0
    4.9992   -0.5845   -0.1777 N   0  0  0  0  0  0  0  0  0  0  0  0
    5.2349    0.7188   -0.2001 C   0  0  0  0  0  0  0  0  0  0  0  0
    6.5950    1.2869   -0.2222 C   0  0  0  0  0  0  0  0  0  0  0  0
    6.9353    2.4734   -0.8869 C   0  0  0  0  0  0  0  0  0  0  0  0
    8.2478    2.9588   -0.8773 C   0  0  0  0  0  0  0  0  0  0  0  0
    9.2534    2.2413   -0.2382 C   0  0  0  0  0  0  0  0  0  0  0  0
    8.9484    1.0369    0.3875 C   0  0  0  0  0  0  0  0  0  0  0  0
    7.6315    0.5669    0.3956 C   0  0  0  0  0  0  0  0  0  0  0  0
    4.0040    1.3748   -0.1660 N   0  0  0  0  0  0  0  0  0  0  0  0
    3.8007    2.8136   -0.0492 C   0  0  3  0  0  0  0  0  0  0  0  0
    3.5322    3.4605   -1.3869 C   0  0  0  0  0  0  0  0  0  0  0  0
    2.8886    4.6319   -1.5052 C   0  0  0  0  0  0  0  0  0  0  0  0
    2.3578    5.4074   -0.3333 C   0  0  0  0  0  0  0  0  0  0  0  0
    2.7494    4.8248    1.0349 C   0  0  0  0  0  0  0  0  0  0  0  0
    2.7927    3.2948    1.0197 C   0  0  0  0  0  0  0  0  0  0  0  0
    1.0623   -0.7314   -0.3757 H   0  0  0  0  0  0  0  0  0  0  0  0
    6.2021    3.0405   -1.4486 H   0  0  0  0  0  0  0  0  0  0  0  0
    8.4848    3.8905   -1.3854 H   0  0  0  0  0  0  0  0  0  0  0  0
   10.2757    2.6103   -0.2439 H   0  0  0  0  0  0  0  0  0  0  0  0
    9.7336    0.4549    0.8632 H   0  0  0  0  0  0  0  0  0  0  0  0
    7.4173   -0.3852    0.8803 H   0  0  0  0  0  0  0  0  0  0  0  0
    4.7597    3.2072    0.3028 H   0  0  0  0  0  0  0  0  0  0  0  0
    3.8898    2.9611   -2.2872 H   0  0  0  0  0  0  0  0  0  0  0  0
    2.7268    5.0571   -2.4940 H   0  0  0  0  0  0  0  0  0  0  0  0
    1.2661    5.4373   -0.4151 H   0  0  0  0  0  0  0  0  0  0  0  0
    2.7125    6.4418   -0.3936 H   0  0  0  0  0  0  0  0  0  0  0  0
    2.0412    5.1752    1.7951 H   0  0  0  0  0  0  0  0  0  0  0  0
    3.7349    5.2113    1.3235 H   0  0  0  0  0  0  0  0  0  0  0  0
    1.7782    2.9350    0.8276 H   0  0  0  0  0  0  0  0  0  0  0  0
    3.0807    2.9175    2.0080 H   0  0  0  0  0  0  0  0  0  0  0  0
  1  2  1  0  0  0  0
  1 19  1  0  0  0  0
  2  3  2  0  0  0  0
  2 12  1  0  0  0  0
  3  4  1  0  0  0  0
  4  5  2  0  0  0  0
  5  6  1  0  0  0  0
  5 12  1  0  0  0  0
  6  7  1  0  0  0  0
  6 11  2  0  0  0  0
  7  8  2  0  0  0  0
  7 20  1  0  0  0  0
  8  9  1  0  0  0  0
  8 21  1  0  0  0  0
  9 10  2  0  0  0  0
  9 22  1  0  0  0  0
 10 11  1  0  0  0  0
 10 23  1  0  0  0  0
 11 24  1  0  0  0  0
 12 13  1  0  0  0  0
 13 14  1  0  0  0  0
 13 18  1  0  0  0  0
 13 25  1  0  0  0  0
 14 15  2  0  0  0  0
 14 26  1  0  0  0  0
 15 16  1  0  0  0  0
 15 27  1  0  0  0  0
 16 17  1  0  0  0  0
 16 28  1  0  0  0  0
 16 29  1  0  0  0  0
 17 18  1  0  0  0  0
 17 30  1  0  0  0  0
 17 31  1  0  0  0  0
 18 32  1  0  0  0  0
 18 33  1  0  0  0  0
M  END
>  <Energy>
34.7622

$$$$

 OpenBabel04232616063D

 32 34  0  0  0  0  0  0  0  0999 V2000
    0.9209    0.0078   -0.0716 C   0  0  0  0  0  0  0  0  0  0  0  0
    2.4184    0.0445   -0.0715 C   0  0  0  0  0  0  0  0  0  0  0  0
    3.1127    1.2021   -0.0750 C   0  0  0  0  0  0  0  0  0  0  0  0
    4.5658    1.1759   -0.0742 C   0  0  0  0  0  0  0  0  0  0  0  0
    5.2476    0.0152   -0.0714 C   0  0  0  0  0  0  0  0  0  0  0  0
    4.5415   -1.2169   -0.0697 C   0  0  0  0  0  0  0  0  0  0  0  0
    4.9808   -2.4574   -0.0725 N   0  0  0  0  0  0  0  0  0  0  0  0
    3.8531   -3.2492   -0.0874 C   0  0  0  0  0  0  0  0  0  0  0  0
    3.9755   -4.7317   -0.1200 C   0  0  0  0  0  0  0  0  0  0  0  0
    3.9116   -5.3924   -1.8132 S   0  0  0  0  0  0  0  0  0  0  0  0
    5.4229   -4.6253   -2.5017 C   0  0  0  0  0  0  0  0  0  0  0  0
    5.5853   -5.0438   -3.9205 C   0  0  0  0  0  0  0  0  0  0  0  0
    5.1116   -4.5350   -5.1137 C   0  0  0  0  0  0  0  0  0  0  0  0
    5.5742   -5.4025   -6.1317 C   0  0  0  0  0  0  0  0  0  0  0  0
    6.3113   -6.3756   -5.4987 C   0  0  0  0  0  0  0  0  0  0  0  0
    6.3345   -6.1607   -4.1580 O   0  0  0  0  0  0  0  0  0  0  0  0
    2.7158   -2.4653   -0.0759 C   0  0  0  0  0  0  0  0  0  0  0  0
    3.1471   -1.1603   -0.0703 N   0  0  0  0  0  0  0  0  0  0  0  0
    0.4914    1.0164   -0.0707 H   0  0  0  0  0  0  0  0  0  0  0  0
    0.5460   -0.5078    0.8182 H   0  0  0  0  0  0  0  0  0  0  0  0
    0.5458   -0.5065   -0.9620 H   0  0  0  0  0  0  0  0  0  0  0  0
    2.6224    2.1716   -0.0760 H   0  0  0  0  0  0  0  0  0  0  0  0
    5.0921    2.1245   -0.0792 H   0  0  0  0  0  0  0  0  0  0  0  0
    6.3313   -0.0090   -0.0718 H   0  0  0  0  0  0  0  0  0  0  0  0
    3.1436   -5.1769    0.4373 H   0  0  0  0  0  0  0  0  0  0  0  0
    4.8986   -5.0574    0.3712 H   0  0  0  0  0  0  0  0  0  0  0  0
    6.2966   -4.9249   -1.9133 H   0  0  0  0  0  0  0  0  0  0  0  0
    5.3374   -3.5354   -2.4688 H   0  0  0  0  0  0  0  0  0  0  0  0
    4.4897   -3.6580   -5.2259 H   0  0  0  0  0  0  0  0  0  0  0  0
    5.3864   -5.3338   -7.1935 H   0  0  0  0  0  0  0  0  0  0  0  0
    6.8499   -7.2479   -5.8409 H   0  0  0  0  0  0  0  0  0  0  0  0
    1.6671   -2.7273   -0.0858 H   0  0  0  0  0  0  0  0  0  0  0  0
  1  2  1  0  0  0  0
  1 19  1  0  0  0  0
  1 20  1  0  0  0  0
  1 21  1  0  0  0  0
  2  3  2  0  0  0  0
  2 18  1  0  0  0  0
  3  4  1  0  0  0  0
  3 22  1  0  0  0  0
  4  5  2  0  0  0  0
  4 23  1  0  0  0  0
  5  6  1  0  0  0  0
  5 24  1  0  0  0  0
  6  7  2  0  0  0  0
  6 18  1  0  0  0  0
  7  8  1  0  0  0  0
  8  9  1  0  0  0  0
  8 17  2  0  0  0  0
  9 10  1  0  0  0  0
  9 25  1  0  0  0  0
  9 26  1  0  0  0  0
 10 11  1  0  0  0  0
 11 12  1  0  0  0  0
 11 27  1  0  0  0  0
 11 28  1  0  0  0  0
 12 13  2  0  0  0  0
 12 16  1  0  0  0  0
 13 14  1  0  0  0  0
 13 29  1  0  0  0  0
 14 15  2  0  0  0  0
 14 30  1  0  0  0  0
 15 16  1  0  0  0  0
 15 31  1  0  0  0  0
 17 18  1  0  0  0  0
 17 32  1  0  0  0  0
M  END
>  <Energy>
39.8159

$$$$

 OpenBabel04232616063D

 27 29  0  0  0  0  0  0  0  0999 V2000
    0.9837   -0.0221   -0.0646 C   0  0  0  0  0  0  0  0  0  0  0  0
    2.4649    0.0730   -0.0618 C   0  0  0  0  0  0  0  0  0  0  0  0
    3.2160   -1.0355   -0.0517 N   0  0  0  0  0  0  0  0  0  0  0  0
    4.5033   -0.5882   -0.0541 N   0  0  0  0  0  0  0  0  0  0  0  0
    4.5594    0.8147   -0.0666 C   0  0  0  0  0  0  0  0  0  0  0  0
    5.7470    1.4993   -0.0751 N   0  0  0  0  0  0  0  0  0  0  0  0
    6.8217    0.7730   -0.0719 C   0  0  0  0  0  0  0  0  0  0  0  0
    6.8783   -0.7098   -0.0580 C   0  0  0  0  0  0  0  0  0  0  0  0
    5.6916   -1.3433   -0.0482 C   0  0  0  0  0  0  0  0  0  0  0  0
    5.6906   -2.8146   -0.0344 C   0  0  0  0  0  0  0  0  0  0  0  0
    5.7040   -3.5128    1.1828 C   0  0  0  0  0  0  0  0  0  0  0  0
    5.7652   -4.9089    1.1924 C   0  0  0  0  0  0  0  0  0  0  0  0
    5.8186   -5.6019   -0.0116 C   0  0  0  0  0  0  0  0  0  0  0  0
    5.8902   -6.9393   -0.0003 F   0  0  0  0  0  0  0  0  0  0  0  0
    5.8062   -4.9268   -1.2262 C   0  0  0  0  0  0  0  0  0  0  0  0
    5.7394   -3.5315   -1.2398 C   0  0  0  0  0  0  0  0  0  0  0  0
    3.2513    1.2424   -0.0683 C   0  0  0  0  0  0  0  0  0  0  0  0
    2.6804    2.8405   -0.0785 Cl  0  0  0  0  0  0  0  0  0  0  0  0
    0.6446   -1.0628   -0.0662 H   0  0  0  0  0  0  0  0  0  0  0  0
    0.5716    0.4683   -0.9527 H   0  0  0  0  0  0  0  0  0  0  0  0
    0.5686    0.4671    0.8227 H   0  0  0  0  0  0  0  0  0  0  0  0
    7.8023    1.2787   -0.0798 H   0  0  0  0  0  0  0  0  0  0  0  0
    7.8440   -1.1970   -0.0573 H   0  0  0  0  0  0  0  0  0  0  0  0
    5.6671   -2.9774    2.1289 H   0  0  0  0  0  0  0  0  0  0  0  0
    5.7729   -5.4585    2.1283 H   0  0  0  0  0  0  0  0  0  0  0  0
    5.8487   -5.4898   -2.1532 H   0  0  0  0  0  0  0  0  0  0  0  0
    5.7257   -3.0101   -2.1942 H   0  0  0  0  0  0  0  0  0  0  0  0
  1  2  1  0  0  0  0
  1 19  1  0  0  0  0
  1 20  1  0  0  0  0
  1 21  1  0  0  0  0
  2  3  2  0  0  0  0
  2 17  1  0  0  0  0
  3  4  1  0  0  0  0
  4  5  1  0  0  0  0
  4  9  1  0  0  0  0
  5  6  1  0  0  0  0
  5 17  2  0  0  0  0
  6  7  2  0  0  0  0
  7  8  1  0  0  0  0
  7 22  1  0  0  0  0
  8  9  2  0  0  0  0
  8 23  1  0  0  0  0
  9 10  1  0  0  0  0
 10 11  1  0  0  0  0
 10 16  2  0  0  0  0
 11 12  2  0  0  0  0
 11 24  1  0  0  0  0
 12 13  1  0  0  0  0
 12 25  1  0  0  0  0
 13 14  1  0  0  0  0
 13 15  2  0  0  0  0
 15 16  1  0  0  0  0
 15 26  1  0  0  0  0
 16 27  1  0  0  0  0
 17 18  1  0  0  0  0
M  END
>  <Energy>
79.2432

$$$$

 OpenBabel04232616063D

 34 36  0  0  0  0  0  0  0  0999 V2000
    0.9468   -0.0116    0.1377 C   0  0  0  0  0  0  0  0  0  0  0  0
    2.4876   -0.1093    0.0885 C   0  0  0  0  0  0  0  0  0  0  0  0
    3.0561    0.9036    1.0976 C   0  0  0  0  0  0  0  0  0  0  0  0
    2.9922    0.2716   -1.3222 C   0  0  0  0  0  0  0  0  0  0  0  0
    2.6262   -0.7572   -2.3736 C   0  0  0  0  0  0  0  0  0  0  0  0
    2.4157   -0.4318   -3.5392 O   0  0  0  0  0  0  0  0  0  0  0  0
    2.6159   -2.1630   -1.9340 C   0  0  0  0  0  0  0  0  0  0  0  0
    2.4177   -3.4903   -2.9812 S   0  0  0  0  0  0  0  0  0  0  0  0
    2.5878   -4.5468   -1.5766 C   0  0  0  0  0  0  0  0  0  0  0  0
    2.5152   -5.8164   -1.7806 N   0  0  0  0  0  0  0  0  0  0  0  0
    2.6217   -6.8291   -0.8243 C   0  0  0  0  0  0  0  0  0  0  0  0
    2.2369   -6.7406    0.5152 C   0  0  0  0  0  0  0  0  0  0  0  0
    2.2774   -7.8708    1.3445 C   0  0  0  0  0  0  0  0  0  0  0  0
    2.6886   -9.1041    0.8401 C   0  0  0  0  0  0  0  0  0  0  0  0
    3.0721   -9.2093   -0.4918 C   0  0  0  0  0  0  0  0  0  0  0  0
    3.0389   -8.0778   -1.3091 C   0  0  0  0  0  0  0  0  0  0  0  0
    2.7911   -3.9107   -0.3657 O   0  0  0  0  0  0  0  0  0  0  0  0
    2.7845   -2.5257   -0.6626 C   0  0  0  0  0  0  0  0  0  0  0  0
    2.9515   -1.5491    0.4665 C   0  0  0  0  0  0  0  0  0  0  0  0
    0.6047    0.9737   -0.2005 H   0  0  0  0  0  0  0  0  0  0  0  0
    0.5770   -0.1542    1.1595 H   0  0  0  0  0  0  0  0  0  0  0  0
    0.4615   -0.7622   -0.4941 H   0  0  0  0  0  0  0  0  0  0  0  0
    2.7441    1.9262    0.8458 H   0  0  0  0  0  0  0  0  0  0  0  0
    4.1530    0.8892    1.1023 H   0  0  0  0  0  0  0  0  0  0  0  0
    2.7132    0.6926    2.1147 H   0  0  0  0  0  0  0  0  0  0  0  0
    4.0849    0.3677   -1.3314 H   0  0  0  0  0  0  0  0  0  0  0  0
    2.5708    1.2381   -1.6267 H   0  0  0  0  0  0  0  0  0  0  0  0
    1.8683   -5.8097    0.9328 H   0  0  0  0  0  0  0  0  0  0  0  0
    1.9651   -7.7932    2.3828 H   0  0  0  0  0  0  0  0  0  0  0  0
    2.6948   -9.9847    1.4779 H   0  0  0  0  0  0  0  0  0  0  0  0
    3.3783  -10.1669   -0.9034 H   0  0  0  0  0  0  0  0  0  0  0  0
    3.3150   -8.1724   -2.3574 H   0  0  0  0  0  0  0  0  0  0  0  0
    4.0122   -1.5390    0.7495 H   0  0  0  0  0  0  0  0  0  0  0  0
    2.3919   -1.8969    1.3427 H   0  0  0  0  0  0  0  0  0  0  0  0
  1  2  1  0  0  0  0
  1 20  1  0  0  0  0
  1 21  1  0  0  0  0
  1 22  1  0  0  0  0
  2  3  1  0  0  0  0
  2  4  1  0  0  0  0
  2 19  1  0  0  0  0
  3 23  1  0  0  0  0
  3 24  1  0  0  0  0
  3 25  1  0  0  0  0
  4  5  1  0  0  0  0
  4 26  1  0  0  0  0
  4 27  1  0  0  0  0
  5  6  2  0  0  0  0
  5  7  1  0  0  0  0
  7  8  1  0  0  0  0
  7 18  2  0  0  0  0
  8  9  1  0  0  0  0
  9 10  2  0  0  0  0
  9 17  1  0  0  0  0
 10 11  1  0  0  0  0
 11 12  1  0  0  0  0
 11 16  2  0  0  0  0
 12 13  2  0  0  0  0
 12 28  1  0  0  0  0
 13 14  1  0  0  0  0
 13 29  1  0  0  0  0
 14 15  2  0  0  0  0
 14 30  1  0  0  0  0
 15 16  1  0  0  0  0
 15 31  1  0  0  0  0
 16 32  1  0  0  0  0
 17 18  1  0  0  0  0
 18 19  1  0  0  0  0
 19 33  1  0  0  0  0
 19 34  1  0  0  0  0
M  END
>  <Energy>
41.8747

$$$$

 OpenBabel04232616063D

 35 37  0  0  0  0  0  0  0  0999 V2000
   -2.3274   -1.2079   -0.2233 N   0  0  0  0  0  0  0  0  0  0  0  0
   -1.2197   -0.3737   -0.0274 C   0  0  0  0  0  0  0  0  0  0  0  0
   -1.1026    0.8129   -0.7453 C   0  0  0  0  0  0  0  0  0  0  0  0
    0.0678    1.5748   -0.6766 C   0  0  0  0  0  0  0  0  0  0  0  0
    1.1611    1.1609    0.1026 C   0  0  0  0  0  0  0  0  0  0  0  0
    2.4182    1.9389    0.0747 C   0  0  0  0  0  0  0  0  0  0  0  0
    2.4818    3.2793   -0.0077 C   0  0  0  0  0  0  0  0  0  0  0  0
    3.7663    3.9879   -0.0946 C   0  0  0  0  0  0  0  0  0  0  0  0
    4.3115    4.1732   -1.3655 C   0  0  0  0  0  0  0  0  0  0  0  0
    5.5105    4.8464   -1.4715 C   0  0  0  0  0  0  0  0  0  0  0  0
    6.1887    5.3404   -0.4157 N   0  0  0  0  0  0  0  0  0  0  0  0
    5.6701    5.1634    0.8104 C   0  0  0  0  0  0  0  0  0  0  0  0
    6.3676    5.6735    1.8972 C   0  0  0  0  0  0  0  0  0  0  0  0
    5.9026    5.5341    3.2062 C   0  0  0  0  0  0  0  0  0  0  0  0
    4.7094    4.8675    3.4446 C   0  0  0  0  0  0  0  0  0  0  0  0
    3.9868    4.3473    2.3712 C   0  0  0  0  0  0  0  0  0  0  0  0
    4.4501    4.4863    1.0407 C   0  0  0  0  0  0  0  0  0  0  0  0
    1.0579   -0.0506    0.8224 C   0  0  0  0  0  0  0  0  0  0  0  0
    2.1640   -0.6221    1.4875 N   0  0  0  0  0  0  0  0  0  0  0  0
   -0.1080   -0.8275    0.6884 C   0  0  0  0  0  0  0  0  0  0  0  0
   -3.1743   -0.7130   -0.4845 H   0  0  0  0  0  0  0  0  0  0  0  0
   -2.4846   -1.8664    0.5332 H   0  0  0  0  0  0  0  0  0  0  0  0
   -1.9116    1.1466   -1.3892 H   0  0  0  0  0  0  0  0  0  0  0  0
    0.1263    2.4772   -1.2795 H   0  0  0  0  0  0  0  0  0  0  0  0
    3.3337    1.3530    0.1076 H   0  0  0  0  0  0  0  0  0  0  0  0
    1.5969    3.9076   -0.0382 H   0  0  0  0  0  0  0  0  0  0  0  0
    3.8146    3.8039   -2.2562 H   0  0  0  0  0  0  0  0  0  0  0  0
    5.9746    5.0159   -2.4380 H   0  0  0  0  0  0  0  0  0  0  0  0
    7.3042    6.1978    1.7174 H   0  0  0  0  0  0  0  0  0  0  0  0
    6.4756    5.9485    4.0320 H   0  0  0  0  0  0  0  0  0  0  0  0
    4.3391    4.7528    4.4597 H   0  0  0  0  0  0  0  0  0  0  0  0
    3.0527    3.8288    2.5777 H   0  0  0  0  0  0  0  0  0  0  0  0
    2.8109    0.0670    1.8588 H   0  0  0  0  0  0  0  0  0  0  0  0
    1.9042   -1.3129    2.1854 H   0  0  0  0  0  0  0  0  0  0  0  0
   -0.1483   -1.8081    1.1556 H   0  0  0  0  0  0  0  0  0  0  0  0
  1  2  1  0  0  0  0
  1 21  1  0  0  0  0
  1 22  1  0  0  0  0
  2  3  1  0  0  0  0
  2 20  2  0  0  0  0
  3  4  2  0  0  0  0
  3 23  1  0  0  0  0
  4  5  1  0  0  0  0
  4 24  1  0  0  0  0
  5  6  1  0  0  0  0
  5 18  2  0  0  0  0
  6  7  2  0  0  0  0
  6 25  1  0  0  0  0
  7  8  1  0  0  0  0
  7 26  1  0  0  0  0
  8  9  1  0  0  0  0
  8 17  2  0  0  0  0
  9 10  2  0  0  0  0
  9 27  1  0  0  0  0
 10 11  1  0  0  0  0
 10 28  1  0  0  0  0
 11 12  2  0  0  0  0
 12 13  1  0  0  0  0
 12 17  1  0  0  0  0
 13 14  2  0  0  0  0
 13 29  1  0  0  0  0
 14 15  1  0  0  0  0
 14 30  1  0  0  0  0
 15 16  2  0  0  0  0
 15 31  1  0  0  0  0
 16 17  1  0  0  0  0
 16 32  1  0  0  0  0
 18 19  1  0  0  0  0
 18 20  1  0  0  0  0
 19 33  1  0  0  0  0
 19 34  1  0  0  0  0
 20 35  1  0  0  0  0
M  END
>  <Energy>
56.1011

$$$$

 OpenBabel04232616063D

 35 37  0  0  0  0  0  0  0  0999 V2000
    1.0660   -0.4558    0.1640 C   0  0  0  0  0  0  0  0  0  0  0  0
    2.5793   -0.3174    0.1284 C   0  0  0  0  0  0  0  0  0  0  0  0
    3.1160    0.3554    1.3969 C   0  0  0  0  0  0  0  0  0  0  0  0
    4.6147    0.5616    1.3318 C   0  0  0  0  0  0  0  0  0  0  0  0
    5.4498   -0.3205    1.8959 C   0  0  0  0  0  0  0  0  0  0  0  0
    6.9129   -0.1896    1.8625 C   0  0  0  0  0  0  0  0  0  0  0  0
    7.6318   -1.0547    2.3470 O   0  0  0  0  0  0  0  0  0  0  0  0
    7.4174    0.9531    1.2690 O   0  0  0  0  0  0  0  0  0  0  0  0
    6.5835    1.9022    0.6251 C   0  0  0  0  0  0  0  0  0  0  0  0
    7.2366    2.9688   -0.0306 C   0  0  0  0  0  0  0  0  0  0  0  0
    8.7198    3.1691   -0.0206 C   0  0  0  0  0  0  0  0  0  0  0  0
    6.3765    3.8263   -0.7219 C   0  0  0  0  0  0  0  0  0  0  0  0
    6.7527    4.8915   -1.4885 O   0  0  0  0  0  0  0  0  0  0  0  0
    5.6220    5.4371   -2.0072 C   0  0  0  0  0  0  0  0  0  0  0  0
    4.5029    4.7568   -1.5726 C   0  0  0  0  0  0  0  0  0  0  0  0
    3.0834    5.0241   -1.9063 C   0  0  0  0  0  0  0  0  0  0  0  0
    4.9942    3.7072   -0.7426 C   0  0  0  0  0  0  0  0  0  0  0  0
    4.3907    2.6635   -0.0224 C   0  0  0  0  0  0  0  0  0  0  0  0
    5.1888    1.7286    0.6457 C   0  0  0  0  0  0  0  0  0  0  0  0
    0.7170   -1.0034   -0.7172 H   0  0  0  0  0  0  0  0  0  0  0  0
    0.5839    0.5271    0.1645 H   0  0  0  0  0  0  0  0  0  0  0  0
    0.7403   -1.0012    1.0550 H   0  0  0  0  0  0  0  0  0  0  0  0
    2.8598    0.2516   -0.7656 H   0  0  0  0  0  0  0  0  0  0  0  0
    3.0271   -1.3129    0.0234 H   0  0  0  0  0  0  0  0  0  0  0  0
    2.8651   -0.2741    2.2625 H   0  0  0  0  0  0  0  0  0  0  0  0
    2.6005    1.3042    1.5860 H   0  0  0  0  0  0  0  0  0  0  0  0
    5.0894   -1.2122    2.4002 H   0  0  0  0  0  0  0  0  0  0  0  0
    9.2441    2.4139    0.5713 H   0  0  0  0  0  0  0  0  0  0  0  0
    8.9582    4.1478    0.4092 H   0  0  0  0  0  0  0  0  0  0  0  0
    9.1130    3.1288   -1.0414 H   0  0  0  0  0  0  0  0  0  0  0  0
    5.7739    6.2826   -2.6628 H   0  0  0  0  0  0  0  0  0  0  0  0
    2.9833    5.8346   -2.6325 H   0  0  0  0  0  0  0  0  0  0  0  0
    2.5281    5.2985   -1.0031 H   0  0  0  0  0  0  0  0  0  0  0  0
    2.6189    4.1268   -2.3307 H   0  0  0  0  0  0  0  0  0  0  0  0
    3.3081    2.5909   -0.0412 H   0  0  0  0  0  0  0  0  0  0  0  0
  1  2  1  0  0  0  0
  1 20  1  0  0  0  0
  1 21  1  0  0  0  0
  1 22  1  0  0  0  0
  2  3  1  0  0  0  0
  2 23  1  0  0  0  0
  2 24  1  0  0  0  0
  3  4  1  0  0  0  0
  3 25  1  0  0  0  0
  3 26  1  0  0  0  0
  4  5  2  0  0  0  0
  4 19  1  0  0  0  0
  5  6  1  0  0  0  0
  5 27  1  0  0  0  0
  6  7  2  0  0  0  0
  6  8  1  0  0  0  0
  8  9  1  0  0  0  0
  9 10  1  0  0  0  0
  9 19  2  0  0  0  0
 10 11  1  0  0  0  0
 10 12  2  0  0  0  0
 11 28  1  0  0  0  0
 11 29  1  0  0  0  0
 11 30  1  0  0  0  0
 12 13  1  0  0  0  0
 12 17  1  0  0  0  0
 13 14  1  0  0  0  0
 14 15  2  0  0  0  0
 14 31  1  0  0  0  0
 15 16  1  0  0  0  0
 15 17  1  0  0  0  0
 16 32  1  0  0  0  0
 16 33  1  0  0  0  0
 16 34  1  0  0  0  0
 17 18  2  0  0  0  0
 18 19  1  0  0  0  0
 18 35  1  0  0  0  0
M  END
>  <Energy>
35.8703

$$$$

 OpenBabel04232616063D

 38 40  0  0  0  0  0  0  0  0999 V2000
    0.4330    2.3982   -1.2754 C   0  0  0  0  0  0  0  0  0  0  0  0
    0.7638    1.0864   -0.6621 C   0  0  0  0  0  0  0  0  0  0  0  0
    1.9963    0.6661   -0.1662 C   0  0  0  0  0  0  0  0  0  0  0  0
    3.2858    1.3469   -0.0558 C   0  0  0  0  0  0  0  0  0  0  0  0
    3.3557    2.5761   -0.0349 O   0  0  0  0  0  0  0  0  0  0  0  0
    4.4616    0.5623    0.0194 N   0  0  0  0  0  0  0  0  0  0  0  0
    5.7181    1.2281    0.3468 C   0  0  0  0  0  0  0  0  0  0  0  0
    6.5376    1.5578   -0.8981 C   0  0  0  0  0  0  0  0  0  0  0  0
    7.3100    0.3708   -1.4716 C   0  0  0  0  0  0  0  0  0  0  0  0
    6.4534   -0.8311   -1.8595 C   0  0  0  0  0  0  0  0  0  0  0  0
    5.8046   -1.5062   -0.6558 C   0  0  0  0  0  0  0  0  0  0  0  0
    4.4742   -0.8759   -0.2586 C   0  0  0  0  0  0  0  0  0  0  0  0
    1.8750   -0.6085    0.3168 O   0  0  0  0  0  0  0  0  0  0  0  0
    0.6170   -1.0371    0.0697 C   0  0  0  0  0  0  0  0  0  0  0  0
    0.1475   -2.3189    0.3409 C   0  0  0  0  0  0  0  0  0  0  0  0
   -1.1876   -2.5680    0.0147 C   0  0  0  0  0  0  0  0  0  0  0  0
   -1.9929   -1.5657   -0.5313 C   0  0  0  0  0  0  0  0  0  0  0  0
   -1.4820   -0.2840   -0.7933 C   0  0  0  0  0  0  0  0  0  0  0  0
   -0.1301   -0.0222   -0.5015 C   0  0  0  0  0  0  0  0  0  0  0  0
    1.3178    2.8868   -1.6936 H   0  0  0  0  0  0  0  0  0  0  0  0
   -0.0164    3.0651   -0.5333 H   0  0  0  0  0  0  0  0  0  0  0  0
   -0.2816    2.2693   -2.0958 H   0  0  0  0  0  0  0  0  0  0  0  0
    6.2793    0.6104    1.0566 H   0  0  0  0  0  0  0  0  0  0  0  0
    5.4984    2.1645    0.8731 H   0  0  0  0  0  0  0  0  0  0  0  0
    7.2714    2.3294   -0.6339 H   0  0  0  0  0  0  0  0  0  0  0  0
    5.8928    1.9870   -1.6744 H   0  0  0  0  0  0  0  0  0  0  0  0
    8.0736    0.0526   -0.7504 H   0  0  0  0  0  0  0  0  0  0  0  0
    7.8527    0.7109   -2.3619 H   0  0  0  0  0  0  0  0  0  0  0  0
    7.1078   -1.5635   -2.3483 H   0  0  0  0  0  0  0  0  0  0  0  0
    5.6985   -0.5428   -2.6005 H   0  0  0  0  0  0  0  0  0  0  0  0
    6.4939   -1.5306    0.1958 H   0  0  0  0  0  0  0  0  0  0  0  0
    5.6026   -2.5543   -0.9117 H   0  0  0  0  0  0  0  0  0  0  0  0
    4.1206   -1.3802    0.6489 H   0  0  0  0  0  0  0  0  0  0  0  0
    3.7601   -1.0767   -1.0652 H   0  0  0  0  0  0  0  0  0  0  0  0
    0.7908   -3.0773    0.7678 H   0  0  0  0  0  0  0  0  0  0  0  0
   -1.6025   -3.5586    0.1914 H   0  0  0  0  0  0  0  0  0  0  0  0
   -3.0333   -1.7830   -0.7646 H   0  0  0  0  0  0  0  0  0  0  0  0
   -2.1189    0.4819   -1.2239 H   0  0  0  0  0  0  0  0  0  0  0  0
  1  2  1  0  0  0  0
  1 20  1  0  0  0  0
  1 21  1  0  0  0  0
  1 22  1  0  0  0  0
  2  3  2  0  0  0  0
  2 19  1  0  0  0  0
  3  4  1  0  0  0  0
  3 13  1  0  0  0  0
  4  5  2  0  0  0  0
  4  6  1  0  0  0  0
  6  7  1  0  0  0  0
  6 12  1  0  0  0  0
  7  8  1  0  0  0  0
  7 23  1  0  0  0  0
  7 24  1  0  0  0  0
  8  9  1  0  0  0  0
  8 25  1  0  0  0  0
  8 26  1  0  0  0  0
  9 10  1  0  0  0  0
  9 27  1  0  0  0  0
  9 28  1  0  0  0  0
 10 11  1  0  0  0  0
 10 29  1  0  0  0  0
 10 30  1  0  0  0  0
 11 12  1  0  0  0  0
 11 31  1  0  0  0  0
 11 32  1  0  0  0  0
 12 33  1  0  0  0  0
 12 34  1  0  0  0  0
 13 14  1  0  0  0  0
 14 15  1  0  0  0  0
 14 19  2  0  0  0  0
 15 16  2  0  0  0  0
 15 35  1  0  0  0  0
 16 17  1  0  0  0  0
 16 36  1  0  0  0  0
 17 18  2  0  0  0  0
 17 37  1  0  0  0  0
 18 19  1  0  0  0  0
 18 38  1  0  0  0  0
M  END
>  <Energy>
26.6708

$$$$

 OpenBabel04232616063D

 37 38  0  0  0  0  0  0  0  0999 V2000
    0.8219    2.1423   -0.3792 C   0  0  0  0  0  0  0  0  0  0  0  0
    0.0716    0.8826   -0.2477 C   0  0  0  0  0  0  0  0  0  0  0  0
   -1.2429    0.5065   -0.3894 C   0  0  0  0  0  0  0  0  0  0  0  0
   -1.2491   -0.8854   -0.1153 C   0  0  0  0  0  0  0  0  0  0  0  0
   -2.3803   -1.6869   -0.1433 N   0  0  0  0  0  0  0  0  0  0  0  0
   -2.3492   -3.0383    0.1485 C   0  0  0  0  0  0  0  0  0  0  0  0
   -1.3635   -3.6856    0.4862 O   0  0  0  0  0  0  0  0  0  0  0  0
   -3.6443   -3.7743    0.0730 C   0  0  0  0  0  0  0  0  0  0  0  0
   -4.6915   -3.4149   -0.7769 C   0  0  0  0  0  0  0  0  0  0  0  0
   -5.8531   -4.2038   -0.8345 C   0  0  0  0  0  0  0  0  0  0  0  0
   -5.9967   -5.3659   -0.0540 C   0  0  0  0  0  0  0  0  0  0  0  0
   -7.2398   -6.2718   -0.1117 C   0  0  0  0  0  0  0  0  0  0  0  0
   -8.3386   -5.7535   -1.0648 C   0  0  0  0  0  0  0  0  0  0  0  0
   -6.8347   -7.6812   -0.5982 C   0  0  0  0  0  0  0  0  0  0  0  0
   -7.8709   -6.3891    1.2931 C   0  0  0  0  0  0  0  0  0  0  0  0
   -4.9286   -5.7062    0.7943 C   0  0  0  0  0  0  0  0  0  0  0  0
   -3.7731   -4.9264    0.8560 C   0  0  0  0  0  0  0  0  0  0  0  0
   -0.0130   -1.3039    0.1692 N   0  0  0  0  0  0  0  0  0  0  0  0
    0.8073   -0.2045    0.0915 O   0  0  0  0  0  0  0  0  0  0  0  0
    0.1659    2.9682   -0.6676 H   0  0  0  0  0  0  0  0  0  0  0  0
    1.6022    2.0423   -1.1406 H   0  0  0  0  0  0  0  0  0  0  0  0
    1.3028    2.4006    0.5697 H   0  0  0  0  0  0  0  0  0  0  0  0
   -2.0710    1.1444   -0.6555 H   0  0  0  0  0  0  0  0  0  0  0  0
   -3.2562   -1.2273   -0.3400 H   0  0  0  0  0  0  0  0  0  0  0  0
   -4.6177   -2.5575   -1.4382 H   0  0  0  0  0  0  0  0  0  0  0  0
   -6.6332   -3.8925   -1.5252 H   0  0  0  0  0  0  0  0  0  0  0  0
   -7.9813   -5.6993   -2.0998 H   0  0  0  0  0  0  0  0  0  0  0  0
   -8.6871   -4.7564   -0.7716 H   0  0  0  0  0  0  0  0  0  0  0  0
   -9.2118   -6.4165   -1.0598 H   0  0  0  0  0  0  0  0  0  0  0  0
   -6.4026   -7.6433   -1.6051 H   0  0  0  0  0  0  0  0  0  0  0  0
   -7.7020   -8.3510   -0.6323 H   0  0  0  0  0  0  0  0  0  0  0  0
   -6.0940   -8.1512    0.0583 H   0  0  0  0  0  0  0  0  0  0  0  0
   -8.1714   -5.4063    1.6743 H   0  0  0  0  0  0  0  0  0  0  0  0
   -7.1834   -6.8294    2.0236 H   0  0  0  0  0  0  0  0  0  0  0  0
   -8.7629   -7.0264    1.2723 H   0  0  0  0  0  0  0  0  0  0  0  0
   -4.9692   -6.6003    1.4133 H   0  0  0  0  0  0  0  0  0  0  0  0
   -2.9593   -5.2354    1.5107 H   0  0  0  0  0  0  0  0  0  0  0  0
  1  2  1  0  0  0  0
  1 20  1  0  0  0  0
  1 21  1  0  0  0  0
  1 22  1  0  0  0  0
  2  3  2  0  0  0  0
  2 19  1  0  0  0  0
  3  4  1  0  0  0  0
  3 23  1  0  0  0  0
  4  5  1  0  0  0  0
  4 18  2  0  0  0  0
  5  6  1  0  0  0  0
  5 24  1  0  0  0  0
  6  7  2  0  0  0  0
  6  8  1  0  0  0  0
  8  9  1  0  0  0  0
  8 17  2  0  0  0  0
  9 10  2  0  0  0  0
  9 25  1  0  0  0  0
 10 11  1  0  0  0  0
 10 26  1  0  0  0  0
 11 12  1  0  0  0  0
 11 16  2  0  0  0  0
 12 13  1  0  0  0  0
 12 14  1  0  0  0  0
 12 15  1  0  0  0  0
 13 27  1  0  0  0  0
 13 28  1  0  0  0  0
 13 29  1  0  0  0  0
 14 30  1  0  0  0  0
 14 31  1  0  0  0  0
 14 32  1  0  0  0  0
 15 33  1  0  0  0  0
 15 34  1  0  0  0  0
 15 35  1  0  0  0  0
 16 17  1  0  0  0  0
 16 36  1  0  0  0  0
 17 37  1  0  0  0  0
 18 19  1  0  0  0  0
M  END
>  <Energy>
21.3045

$$$$

 OpenBabel04232616063D

 28 30  0  0  0  0  0  0  0  0999 V2000
    1.7601    0.4423    1.6652 Cl  0  0  0  0  0  0  0  0  0  0  0  0
    0.1524    0.5735    1.0765 C   0  0  0  0  0  0  0  0  0  0  0  0
   -0.3052    1.4753    0.1562 C   0  0  0  0  0  0  0  0  0  0  0  0
   -1.6986    1.2891   -0.0903 C   0  0  0  0  0  0  0  0  0  0  0  0
   -2.2569    0.2536    0.6509 C   0  0  0  0  0  0  0  0  0  0  0  0
   -3.5933   -0.2470    0.7047 C   0  0  0  0  0  0  0  0  0  0  0  0
   -4.5820    0.2776   -0.0376 C   0  0  0  0  0  0  0  0  0  0  0  0
   -5.9764   -0.1894   -0.0116 C   0  0  0  0  0  0  0  0  0  0  0  0
   -6.9144    0.4128   -0.8403 C   0  0  0  0  0  0  0  0  0  0  0  0
   -8.2302   -0.0333   -0.7946 C   0  0  0  0  0  0  0  0  0  0  0  0
   -8.5800   -1.0664    0.0791 C   0  0  0  0  0  0  0  0  0  0  0  0
   -9.8996   -1.5433    0.1629 C   0  0  0  0  0  0  0  0  0  0  0  0
  -10.2207   -2.5686    1.0491 C   0  0  0  0  0  0  0  0  0  0  0  0
   -9.2266   -3.1201    1.8492 C   0  0  0  0  0  0  0  0  0  0  0  0
   -7.9142   -2.6446    1.7587 C   0  0  0  0  0  0  0  0  0  0  0  0
   -7.5652   -1.6221    0.8862 C   0  0  0  0  0  0  0  0  0  0  0  0
   -6.2900   -1.1936    0.8391 N   0  0  0  0  0  0  0  0  0  0  0  0
   -1.0410   -0.4781    1.6417 S   0  0  0  0  0  0  0  0  0  0  0  0
    0.3115    2.2281   -0.3176 H   0  0  0  0  0  0  0  0  0  0  0  0
   -2.2602    1.9000   -0.7857 H   0  0  0  0  0  0  0  0  0  0  0  0
   -3.8079   -1.0785    1.3746 H   0  0  0  0  0  0  0  0  0  0  0  0
   -4.3930    1.1045   -0.7130 H   0  0  0  0  0  0  0  0  0  0  0  0
   -6.6397    1.2183   -1.5128 H   0  0  0  0  0  0  0  0  0  0  0  0
   -8.9741    0.4301   -1.4369 H   0  0  0  0  0  0  0  0  0  0  0  0
  -10.6821   -1.1159   -0.4597 H   0  0  0  0  0  0  0  0  0  0  0  0
  -11.2422   -2.9339    1.1152 H   0  0  0  0  0  0  0  0  0  0  0  0
   -9.4659   -3.9192    2.5461 H   0  0  0  0  0  0  0  0  0  0  0  0
   -7.1429   -3.0819    2.3883 H   0  0  0  0  0  0  0  0  0  0  0  0
  1  2  1  0  0  0  0
  2  3  2  0  0  0  0
  2 18  1  0  0  0  0
  3  4  1  0  0  0  0
  3 19  1  0  0  0  0
  4  5  2  0  0  0  0
  4 20  1  0  0  0  0
  5  6  1  0  0  0  0
  5 18  1  0  0  0  0
  6  7  2  0  0  0  0
  6 21  1  0  0  0  0
  7  8  1  0  0  0  0
  7 22  1  0  0  0  0
  8  9  1  0  0  0  0
  8 17  2  0  0  0  0
  9 10  2  0  0  0  0
  9 23  1  0  0  0  0
 10 11  1  0  0  0  0
 10 24  1  0  0  0  0
 11 12  1  0  0  0  0
 11 16  2  0  0  0  0
 12 13  2  0  0  0  0
 12 25  1  0  0  0  0
 13 14  1  0  0  0  0
 13 26  1  0  0  0  0
 14 15  2  0  0  0  0
 14 27  1  0  0  0  0
 15 16  1  0  0  0  0
 15 28  1  0  0  0  0
 16 17  1  0  0  0  0
M  END
>  <Energy>
33.1285

$$$$

 OpenBabel04232616063D

 43 44  0  0  0  0  0  0  0  0999 V2000
    0.9732   -0.1854    0.2490 C   0  0  0  0  0  0  0  0  0  0  0  0
    2.3012    0.1730   -0.1267 O   0  0  0  0  0  0  0  0  0  0  0  0
    2.9490    1.0656    0.6857 C   0  0  0  0  0  0  0  0  0  0  0  0
    2.6517    1.1814    2.0441 C   0  0  0  0  0  0  0  0  0  0  0  0
    3.3658    2.0497    2.8692 C   0  0  0  0  0  0  0  0  0  0  0  0
    4.4087    2.8251    2.3693 C   0  0  0  0  0  0  0  0  0  0  0  0
    5.1164    3.7393    3.1905 N   0  0  0  0  0  0  0  0  0  0  0  0
    4.6379    4.2586    4.3819 C   0  0  0  0  0  0  0  0  0  0  0  0
    3.5275    4.0408    4.8722 O   0  0  0  0  0  0  0  0  0  0  0  0
    5.5964    5.1746    5.1170 C   0  0  0  0  0  0  0  0  0  0  0  0
    6.5448    4.4101    6.0537 C   0  0  0  0  0  0  0  0  0  0  0  0
    5.7842    3.6054    7.1244 C   0  0  0  0  0  0  0  0  0  0  0  0
    6.7434    2.8776    8.0645 C   0  0  0  0  0  0  0  0  0  0  0  0
    7.7198    3.8420    8.7263 C   0  0  0  0  0  0  0  0  0  0  0  0
    8.4718    4.6698    7.6885 C   0  0  0  0  0  0  0  0  0  0  0  0
    7.5180    5.3890    6.7358 C   0  0  0  0  0  0  0  0  0  0  0  0
    4.7510    2.6774    1.0204 C   0  0  0  0  0  0  0  0  0  0  0  0
    4.0104    1.8297    0.1666 C   0  0  0  0  0  0  0  0  0  0  0  0
    4.4523    1.8331   -1.1358 O   0  0  0  0  0  0  0  0  0  0  0  0
    3.4686    1.6095   -2.1432 C   0  0  0  0  0  0  0  0  0  0  0  0
    0.5840   -0.8736   -0.5060 H   0  0  0  0  0  0  0  0  0  0  0  0
    0.3260    0.6984    0.2702 H   0  0  0  0  0  0  0  0  0  0  0  0
    0.9433   -0.7183    1.2043 H   0  0  0  0  0  0  0  0  0  0  0  0
    1.8755    0.5884    2.5195 H   0  0  0  0  0  0  0  0  0  0  0  0
    3.0932    2.0680    3.9199 H   0  0  0  0  0  0  0  0  0  0  0  0
    5.9537    4.1514    2.7952 H   0  0  0  0  0  0  0  0  0  0  0  0
    4.9921    5.8931    5.6861 H   0  0  0  0  0  0  0  0  0  0  0  0
    6.1641    5.7617    4.3848 H   0  0  0  0  0  0  0  0  0  0  0  0
    7.1296    3.7036    5.4495 H   0  0  0  0  0  0  0  0  0  0  0  0
    5.1319    2.8605    6.6557 H   0  0  0  0  0  0  0  0  0  0  0  0
    5.1385    4.2732    7.7093 H   0  0  0  0  0  0  0  0  0  0  0  0
    7.3023    2.1234    7.4974 H   0  0  0  0  0  0  0  0  0  0  0  0
    6.1742    2.3416    8.8323 H   0  0  0  0  0  0  0  0  0  0  0  0
    8.4338    3.2812    9.3399 H   0  0  0  0  0  0  0  0  0  0  0  0
    7.1724    4.5104    9.4027 H   0  0  0  0  0  0  0  0  0  0  0  0
    9.1343    4.0141    7.1110 H   0  0  0  0  0  0  0  0  0  0  0  0
    9.1104    5.4019    8.1963 H   0  0  0  0  0  0  0  0  0  0  0  0
    8.1023    5.9265    5.9794 H   0  0  0  0  0  0  0  0  0  0  0  0
    6.9542    6.1458    7.2974 H   0  0  0  0  0  0  0  0  0  0  0  0
    5.5707    3.2495    0.5914 H   0  0  0  0  0  0  0  0  0  0  0  0
    3.8868    1.9435   -3.0989 H   0  0  0  0  0  0  0  0  0  0  0  0
    2.5575    2.1912   -1.9633 H   0  0  0  0  0  0  0  0  0  0  0  0
    3.2495    0.5435   -2.2546 H   0  0  0  0  0  0  0  0  0  0  0  0
  1  2  1  0  0  0  0
  1 21  1  0  0  0  0
  1 22  1  0  0  0  0
  1 23  1  0  0  0  0
  2  3  1  0  0  0  0
  3  4  1  0  0  0  0
  3 18  2  0  0  0  0
  4  5  2  0  0  0  0
  4 24  1  0  0  0  0
  5  6  1  0  0  0  0
  5 25  1  0  0  0  0
  6  7  1  0  0  0  0
  6 17  2  0  0  0  0
  7  8  1  0  0  0  0
  7 26  1  0  0  0  0
  8  9  2  0  0  0  0
  8 10  1  0  0  0  0
 10 11  1  0  0  0  0
 10 27  1  0  0  0  0
 10 28  1  0  0  0  0
 11 12  1  0  0  0  0
 11 16  1  0  0  0  0
 11 29  1  0  0  0  0
 12 13  1  0  0  0  0
 12 30  1  0  0  0  0
 12 31  1  0  0  0  0
 13 14  1  0  0  0  0
 13 32  1  0  0  0  0
 13 33  1  0  0  0  0
 14 15  1  0  0  0  0
 14 34  1  0  0  0  0
 14 35  1  0  0  0  0
 15 16  1  0  0  0  0
 15 36  1  0  0  0  0
 15 37  1  0  0  0  0
 16 38  1  0  0  0  0
 16 39  1  0  0  0  0
 17 18  1  0  0  0  0
 17 40  1  0  0  0  0
 18 19  1  0  0  0  0
 19 20  1  0  0  0  0
 20 41  1  0  0  0  0
 20 42  1  0  0  0  0
 20 43  1  0  0  0  0
M  END
>  <Energy>
28.7599

$$$$

 OpenBabel04232616063D

 34 36  0  0  0  0  0  0  0  0999 V2000
    0.9438   -0.0821   -0.0503 C   0  0  0  0  0  0  0  0  0  0  0  0
    2.4415    0.0317   -0.0487 C   0  0  0  0  0  0  0  0  0  0  0  0
    3.0509    1.2937   -0.0285 C   0  0  0  0  0  0  0  0  0  0  0  0
    4.4452    1.4295   -0.0275 C   0  0  0  0  0  0  0  0  0  0  0  0
    5.2420    0.2709   -0.0545 C   0  0  0  0  0  0  0  0  0  0  0  0
    6.6441    0.0042   -0.0675 C   0  0  0  0  0  0  0  0  0  0  0  0
    7.7327    1.0164   -0.0512 C   0  0  0  0  0  0  0  0  0  0  0  0
    6.7754   -1.3806   -0.1071 C   0  0  0  0  0  0  0  0  0  0  0  0
    7.9506   -2.2328   -0.1488 C   0  0  0  0  0  0  0  0  0  0  0  0
    9.0883   -1.7789   -0.0912 O   0  0  0  0  0  0  0  0  0  0  0  0
    7.6477   -3.5818   -0.2972 N   0  0  0  0  0  0  0  0  0  0  0  0
    8.5666   -4.6496   -0.4044 C   0  0  0  0  0  0  0  0  0  0  0  0
    9.9165   -4.5537   -0.0800 C   0  0  0  0  0  0  0  0  0  0  0  0
   10.7638   -5.6454   -0.2770 C   0  0  0  0  0  0  0  0  0  0  0  0
   10.2259   -6.8137   -0.7883 C   0  0  0  0  0  0  0  0  0  0  0  0
    8.9178   -6.9680   -1.0759 N   0  0  0  0  0  0  0  0  0  0  0  0
    8.1217   -5.8868   -0.8672 C   0  0  0  0  0  0  0  0  0  0  0  0
    5.5325   -1.9655   -0.1148 O   0  0  0  0  0  0  0  0  0  0  0  0
    4.6111   -0.9641   -0.0779 C   0  0  0  0  0  0  0  0  0  0  0  0
    3.2272   -1.1341   -0.0696 C   0  0  0  0  0  0  0  0  0  0  0  0
    0.4678    0.9045   -0.0522 H   0  0  0  0  0  0  0  0  0  0  0  0
    0.6045   -0.6165    0.8423 H   0  0  0  0  0  0  0  0  0  0  0  0
    0.6077   -0.6161   -0.9446 H   0  0  0  0  0  0  0  0  0  0  0  0
    2.4413    2.1958   -0.0145 H   0  0  0  0  0  0  0  0  0  0  0  0
    4.8952    2.4174   -0.0110 H   0  0  0  0  0  0  0  0  0  0  0  0
    7.3311    2.0322   -0.1264 H   0  0  0  0  0  0  0  0  0  0  0  0
    8.4139    0.8710   -0.8952 H   0  0  0  0  0  0  0  0  0  0  0  0
    8.3031    0.9541    0.8806 H   0  0  0  0  0  0  0  0  0  0  0  0
    6.6668   -3.7842   -0.4580 H   0  0  0  0  0  0  0  0  0  0  0  0
   10.3417   -3.6467    0.3390 H   0  0  0  0  0  0  0  0  0  0  0  0
   11.8197   -5.5770   -0.0409 H   0  0  0  0  0  0  0  0  0  0  0  0
   10.8538   -7.6788   -0.9850 H   0  0  0  0  0  0  0  0  0  0  0  0
    7.0794   -6.0566   -1.1255 H   0  0  0  0  0  0  0  0  0  0  0  0
    2.7874   -2.1243   -0.0838 H   0  0  0  0  0  0  0  0  0  0  0  0
  1  2  1  0  0  0  0
  1 21  1  0  0  0  0
  1 22  1  0  0  0  0
  1 23  1  0  0  0  0
  2  3  1  0  0  0  0
  2 20  2  0  0  0  0
  3  4  2  0  0  0  0
  3 24  1  0  0  0  0
  4  5  1  0  0  0  0
  4 25  1  0  0  0  0
  5  6  1  0  0  0  0
  5 19  2  0  0  0  0
  6  7  1  0  0  0  0
  6  8  2  0  0  0  0
  7 26  1  0  0  0  0
  7 27  1  0  0  0  0
  7 28  1  0  0  0  0
  8  9  1  0  0  0  0
  8 18  1  0  0  0  0
  9 10  2  0  0  0  0
  9 11  1  0  0  0  0
 11 12  1  0  0  0  0
 11 29  1  0  0  0  0
 12 13  1  0  0  0  0
 12 17  2  0  0  0  0
 13 14  2  0  0  0  0
 13 30  1  0  0  0  0
 14 15  1  0  0  0  0
 14 31  1  0  0  0  0
 15 16  2  0  0  0  0
 15 32  1  0  0  0  0
 16 17  1  0  0  0  0
 17 33  1  0  0  0  0
 18 19  1  0  0  0  0
 19 20  1  0  0  0  0
 20 34  1  0  0  0  0
M  END
>  <Energy>
43.3151

$$$$

 OpenBabel04232616063D

 33 34  0  0  0  0  0  0  0  0999 V2000
    2.2295    1.0053    1.1254 C   0  0  0  0  0  0  0  0  0  0  0  0
    1.0877    0.2908    0.4682 C   0  0  0  0  0  0  0  0  0  0  0  0
    0.0710    1.0008   -0.1412 C   0  0  0  0  0  0  0  0  0  0  0  0
   -0.9404    0.2623   -0.7194 C   0  0  0  0  0  0  0  0  0  0  0  0
   -2.0927    0.9299   -1.4065 C   0  0  0  0  0  0  0  0  0  0  0  0
   -0.9475   -1.0842   -0.6970 N   0  0  0  0  0  0  0  0  0  0  0  0
    0.0857   -1.6966   -0.0907 C   0  0  0  0  0  0  0  0  0  0  0  0
   -0.0044   -3.4730   -0.0295 S   0  0  0  0  0  0  0  0  0  0  0  0
    1.6626   -3.9560   -0.0313 C   0  0  0  0  0  0  0  0  0  0  0  0
    1.9677   -5.2604    0.0062 C   0  0  0  0  0  0  0  0  0  0  0  0
    3.3785   -5.7262    0.0476 C   0  0  0  0  0  0  0  0  0  0  0  0
    4.3047   -5.0355   -0.3617 O   0  0  0  0  0  0  0  0  0  0  0  0
    3.6223   -7.0946    0.5848 C   0  0  0  0  0  0  0  0  0  0  0  0
    4.7186   -7.8277    0.1144 C   0  0  0  0  0  0  0  0  0  0  0  0
    4.9758   -9.1065    0.6201 C   0  0  0  0  0  0  0  0  0  0  0  0
    4.1475   -9.6508    1.6009 C   0  0  0  0  0  0  0  0  0  0  0  0
    3.0617   -8.9207    2.0820 C   0  0  0  0  0  0  0  0  0  0  0  0
    2.8006   -7.6450    1.5793 C   0  0  0  0  0  0  0  0  0  0  0  0
    1.1082   -1.0590    0.5057 N   0  0  0  0  0  0  0  0  0  0  0  0
    2.1286    2.0927    1.0466 H   0  0  0  0  0  0  0  0  0  0  0  0
    3.1722    0.7168    0.6494 H   0  0  0  0  0  0  0  0  0  0  0  0
    2.2714    0.7447    2.1876 H   0  0  0  0  0  0  0  0  0  0  0  0
    0.0674    2.0834   -0.1646 H   0  0  0  0  0  0  0  0  0  0  0  0
   -2.0008    2.0206   -1.3873 H   0  0  0  0  0  0  0  0  0  0  0  0
   -3.0307    0.6581   -0.9123 H   0  0  0  0  0  0  0  0  0  0  0  0
   -2.1368    0.6106   -2.4524 H   0  0  0  0  0  0  0  0  0  0  0  0
    2.4450   -3.2002   -0.0410 H   0  0  0  0  0  0  0  0  0  0  0  0
    1.1944   -6.0213    0.0165 H   0  0  0  0  0  0  0  0  0  0  0  0
    5.3746   -7.4083   -0.6452 H   0  0  0  0  0  0  0  0  0  0  0  0
    5.8268   -9.6753    0.2525 H   0  0  0  0  0  0  0  0  0  0  0  0
    4.3536  -10.6412    1.9999 H   0  0  0  0  0  0  0  0  0  0  0  0
    2.4245   -9.3402    2.8571 H   0  0  0  0  0  0  0  0  0  0  0  0
    1.9655   -7.0863    1.9944 H   0  0  0  0  0  0  0  0  0  0  0  0
  1  2  1  0  0  0  0
  1 20  1  0  0  0  0
  1 21  1  0  0  0  0
  1 22  1  0  0  0  0
  2  3  1  0  0  0  0
  2 19  2  0  0  0  0
  3  4  2  0  0  0  0
  3 23  1  0  0  0  0
  4  5  1  0  0  0  0
  4  6  1  0  0  0  0
  5 24  1  0  0  0  0
  5 25  1  0  0  0  0
  5 26  1  0  0  0  0
  6  7  2  0  0  0  0
  7  8  1  0  0  0  0
  7 19  1  0  0  0  0
  8  9  1  0  0  0  0
  9 10  2  0  0  0  0
  9 27  1  0  0  0  0
 10 11  1  0  0  0  0
 10 28  1  0  0  0  0
 11 12  2  0  0  0  0
 11 13  1  0  0  0  0
 13 14  1  0  0  0  0
 13 18  2  0  0  0  0
 14 15  2  0  0  0  0
 14 29  1  0  0  0  0
 15 16  1  0  0  0  0
 15 30  1  0  0  0  0
 16 17  2  0  0  0  0
 16 31  1  0  0  0  0
 17 18  1  0  0  0  0
 17 32  1  0  0  0  0
 18 33  1  0  0  0  0
M  END
>  <Energy>
28.164

$$$$

 OpenBabel04232616063D

 28 30  0  0  0  0  0  0  0  0999 V2000
    1.0955    0.4424   -0.2139 C   0  0  0  0  0  0  0  0  0  0  0  0
    2.4372    0.0377    0.0407 O   0  0  0  0  0  0  0  0  0  0  0  0
    3.0431   -0.6437   -0.9760 C   0  0  0  0  0  0  0  0  0  0  0  0
    2.7408   -0.5110   -2.3233 C   0  0  0  0  0  0  0  0  0  0  0  0
    3.4388   -1.2685   -3.2690 C   0  0  0  0  0  0  0  0  0  0  0  0
    4.4399   -2.1586   -2.9073 C   0  0  0  0  0  0  0  0  0  0  0  0
    5.0504   -2.8572   -3.8759 N   0  0  0  0  0  0  0  0  0  0  0  0
    6.0198   -3.7306   -3.5690 C   0  0  0  0  0  0  0  0  0  0  0  0
    6.6188   -4.4365   -4.6032 C   0  0  0  0  0  0  0  0  0  0  0  0
    7.6304   -5.3628   -4.3590 C   0  0  0  0  0  0  0  0  0  0  0  0
    8.3461   -6.2190   -5.6674 Cl  0  0  0  0  0  0  0  0  0  0  0  0
    8.0645   -5.5999   -3.0636 C   0  0  0  0  0  0  0  0  0  0  0  0
    7.4768   -4.9008   -2.0123 C   0  0  0  0  0  0  0  0  0  0  0  0
    6.4454   -3.9555   -2.2486 C   0  0  0  0  0  0  0  0  0  0  0  0
    5.7976   -3.2083   -1.2361 C   0  0  0  0  0  0  0  0  0  0  0  0
    6.1868   -3.3931    0.1336 C   0  0  0  0  0  0  0  0  0  0  0  0
    6.5096   -3.5537    1.2378 N   0  0  0  0  0  0  0  0  0  0  0  0
    4.7703   -2.2889   -1.5502 C   0  0  0  0  0  0  0  0  0  0  0  0
    4.0652   -1.5113   -0.5946 C   0  0  0  0  0  0  0  0  0  0  0  0
    0.6882    0.8607    0.7111 H   0  0  0  0  0  0  0  0  0  0  0  0
    0.4766   -0.4160   -0.4979 H   0  0  0  0  0  0  0  0  0  0  0  0
    1.0541    1.2266   -0.9758 H   0  0  0  0  0  0  0  0  0  0  0  0
    1.9826    0.1795   -2.6762 H   0  0  0  0  0  0  0  0  0  0  0  0
    3.1901   -1.1558   -4.3225 H   0  0  0  0  0  0  0  0  0  0  0  0
    6.2846   -4.2573   -5.6226 H   0  0  0  0  0  0  0  0  0  0  0  0
    8.8525   -6.3211   -2.8624 H   0  0  0  0  0  0  0  0  0  0  0  0
    7.8340   -5.1045   -1.0032 H   0  0  0  0  0  0  0  0  0  0  0  0
    4.2957   -1.5852    0.4677 H   0  0  0  0  0  0  0  0  0  0  0  0
  1  2  1  0  0  0  0
  1 20  1  0  0  0  0
  1 21  1  0  0  0  0
  1 22  1  0  0  0  0
  2  3  1  0  0  0  0
  3  4  1  0  0  0  0
  3 19  2  0  0  0  0
  4  5  2  0  0  0  0
  4 23  1  0  0  0  0
  5  6  1  0  0  0  0
  5 24  1  0  0  0  0
  6  7  1  0  0  0  0
  6 18  2  0  0  0  0
  7  8  2  0  0  0  0
  8  9  1  0  0  0  0
  8 14  1  0  0  0  0
  9 10  2  0  0  0  0
  9 25  1  0  0  0  0
 10 11  1  0  0  0  0
 10 12  1  0  0  0  0
 12 13  2  0  0  0  0
 12 26  1  0  0  0  0
 13 14  1  0  0  0  0
 13 27  1  0  0  0  0
 14 15  2  0  0  0  0
 15 16  1  0  0  0  0
 15 18  1  0  0  0  0
 16 17  3  0  0  0  0
 18 19  1  0  0  0  0
 19 28  1  0  0  0  0
M  END
>  <Energy>
37.0535

$$$$

 OpenBabel04232616063D

 32 33  0  0  0  0  0  0  0  0999 V2000
    2.4268   -0.0515    0.1201 C   0  0  0  0  0  0  0  0  0  0  0  0
    0.9285   -0.0056    0.1124 C   0  0  0  0  0  0  0  0  0  0  0  0
    0.2390    1.2094    0.1464 C   0  0  0  0  0  0  0  0  0  0  0  0
   -1.1564    1.2255    0.1326 C   0  0  0  0  0  0  0  0  0  0  0  0
   -1.8769    0.0287    0.0848 C   0  0  0  0  0  0  0  0  0  0  0  0
   -1.1985   -1.1895    0.0524 C   0  0  0  0  0  0  0  0  0  0  0  0
   -1.7604   -2.4337    0.0108 O   0  0  0  0  0  0  0  0  0  0  0  0
   -3.1702   -2.4960   -0.0209 C   0  0  0  0  0  0  0  0  0  0  0  0
   -3.5944   -3.9550   -0.0771 C   0  0  0  0  0  0  0  0  0  0  0  0
   -3.7291   -4.6214   -1.0931 O   0  0  0  0  0  0  0  0  0  0  0  0
   -3.8541   -4.3870    1.2283 O   0  0  0  0  0  0  0  0  0  0  0  0
   -5.0982   -4.9930    1.4794 C   0  0  0  0  0  0  0  0  0  0  0  0
   -6.1688   -4.9433    0.5830 C   0  0  0  0  0  0  0  0  0  0  0  0
   -7.4181   -5.4298    0.9678 C   0  0  0  0  0  0  0  0  0  0  0  0
   -7.5904   -5.9535    2.2459 C   0  0  0  0  0  0  0  0  0  0  0  0
   -9.1443   -6.5145    2.7260 Cl  0  0  0  0  0  0  0  0  0  0  0  0
   -6.5215   -6.0134    3.1415 C   0  0  0  0  0  0  0  0  0  0  0  0
   -5.2693   -5.5310    2.7561 C   0  0  0  0  0  0  0  0  0  0  0  0
    0.1984   -1.1985    0.0648 C   0  0  0  0  0  0  0  0  0  0  0  0
    2.8587    0.9524    0.1795 H   0  0  0  0  0  0  0  0  0  0  0  0
    2.7933   -0.5231   -0.7974 H   0  0  0  0  0  0  0  0  0  0  0  0
    2.7818   -0.6220    0.9845 H   0  0  0  0  0  0  0  0  0  0  0  0
    0.7825    2.1504    0.1834 H   0  0  0  0  0  0  0  0  0  0  0  0
   -1.6838    2.1763    0.1585 H   0  0  0  0  0  0  0  0  0  0  0  0
   -2.9598    0.0891    0.0738 H   0  0  0  0  0  0  0  0  0  0  0  0
   -3.5838   -2.0070   -0.9116 H   0  0  0  0  0  0  0  0  0  0  0  0
   -3.6160   -2.0343    0.8695 H   0  0  0  0  0  0  0  0  0  0  0  0
   -6.0686   -4.5231   -0.4117 H   0  0  0  0  0  0  0  0  0  0  0  0
   -8.2469   -5.3787    0.2695 H   0  0  0  0  0  0  0  0  0  0  0  0
   -6.6628   -6.4189    4.1393 H   0  0  0  0  0  0  0  0  0  0  0  0
   -4.4403   -5.5525    3.4611 H   0  0  0  0  0  0  0  0  0  0  0  0
    0.7191   -2.1535    0.0353 H   0  0  0  0  0  0  0  0  0  0  0  0
  1  2  1  0  0  0  0
  1 20  1  0  0  0  0
  1 21  1  0  0  0  0
  1 22  1  0  0  0  0
  2  3  1  0  0  0  0
  2 19  2  0  0  0  0
  3  4  2  0  0  0  0
  3 23  1  0  0  0  0
  4  5  1  0  0  0  0
  4 24  1  0  0  0  0
  5  6  2  0  0  0  0
  5 25  1  0  0  0  0
  6  7  1  0  0  0  0
  6 19  1  0  0  0  0
  7  8  1  0  0  0  0
  8  9  1  0  0  0  0
  8 26  1  0  0  0  0
  8 27  1  0  0  0  0
  9 10  2  0  0  0  0
  9 11  1  0  0  0  0
 11 12  1  0  0  0  0
 12 13  1  0  0  0  0
 12 18  2  0  0  0  0
 13 14  2  0  0  0  0
 13 28  1  0  0  0  0
 14 15  1  0  0  0  0
 14 29  1  0  0  0  0
 15 16  1  0  0  0  0
 15 17  2  0  0  0  0
 17 18  1  0  0  0  0
 17 30  1  0  0  0  0
 18 31  1  0  0  0  0
 19 32  1  0  0  0  0
M  END
>  <Energy>
76.8664

$$$$

 OpenBabel04232616063D

 32 34  0  0  0  0  0  0  0  0999 V2000
    2.4664    1.7289   -0.7271 C   0  0  0  0  0  0  0  0  0  0  0  0
    2.7052    0.0920    0.0037 S   0  0  0  0  0  0  0  0  0  0  0  0
    3.1801    0.5487    1.6556 C   0  0  0  0  0  0  0  0  0  0  0  0
    3.0966    1.8341    2.0203 N   0  0  0  0  0  0  0  0  0  0  0  0
    3.4858    2.1580    3.2651 C   0  0  0  0  0  0  0  0  0  0  0  0
    3.5026    3.5227    3.6189 N   0  0  0  0  0  0  0  0  0  0  0  0
    2.5592    4.3787    2.8931 C   0  0  0  0  0  0  0  0  0  0  0  0
    1.2299    4.4819    3.5672 C   0  0  0  0  0  0  0  0  0  0  0  0
    0.0242    3.8305    3.4088 C   0  0  0  0  0  0  0  0  0  0  0  0
   -0.8473    4.3603    4.3925 C   0  0  0  0  0  0  0  0  0  0  0  0
   -0.1160    5.2894    5.0946 C   0  0  0  0  0  0  0  0  0  0  0  0
    1.1486    5.3641    4.6076 O   0  0  0  0  0  0  0  0  0  0  0  0
    3.9807    1.1891    4.1615 C   0  0  0  0  0  0  0  0  0  0  0  0
    4.4350    1.4350    5.4855 C   0  0  0  0  0  0  0  0  0  0  0  0
    4.8601    0.3917    6.3066 C   0  0  0  0  0  0  0  0  0  0  0  0
    4.8546   -0.9054    5.8165 C   0  0  0  0  0  0  0  0  0  0  0  0
    4.4273   -1.1477    4.5094 C   0  0  0  0  0  0  0  0  0  0  0  0
    3.9900   -0.1251    3.6756 C   0  0  0  0  0  0  0  0  0  0  0  0
    3.5977   -0.4468    2.4432 N   0  0  0  0  0  0  0  0  0  0  0  0
    2.2036    1.6123   -1.7821 H   0  0  0  0  0  0  0  0  0  0  0  0
    3.3825    2.3237   -0.6673 H   0  0  0  0  0  0  0  0  0  0  0  0
    1.6493    2.2584   -0.2291 H   0  0  0  0  0  0  0  0  0  0  0  0
    3.3240    3.6348    4.6115 H   0  0  0  0  0  0  0  0  0  0  0  0
    2.4327    4.0988    1.8405 H   0  0  0  0  0  0  0  0  0  0  0  0
    2.9968    5.3844    2.8654 H   0  0  0  0  0  0  0  0  0  0  0  0
   -0.1924    3.0614    2.6798 H   0  0  0  0  0  0  0  0  0  0  0  0
   -1.8790    4.0943    4.5745 H   0  0  0  0  0  0  0  0  0  0  0  0
   -0.3343    5.9448    5.9240 H   0  0  0  0  0  0  0  0  0  0  0  0
    4.4569    2.4439    5.8886 H   0  0  0  0  0  0  0  0  0  0  0  0
    5.1920    0.5935    7.3217 H   0  0  0  0  0  0  0  0  0  0  0  0
    5.1836   -1.7312    6.4420 H   0  0  0  0  0  0  0  0  0  0  0  0
    4.4337   -2.1678    4.1296 H   0  0  0  0  0  0  0  0  0  0  0  0
  1  2  1  0  0  0  0
  1 20  1  0  0  0  0
  1 21  1  0  0  0  0
  1 22  1  0  0  0  0
  2  3  1  0  0  0  0
  3  4  1  0  0  0  0
  3 19  2  0  0  0  0
  4  5  2  0  0  0  0
  5  6  1  0  0  0  0
  5 13  1  0  0  0  0
  6  7  1  0  0  0  0
  6 23  1  0  0  0  0
  7  8  1  0  0  0  0
  7 24  1  0  0  0  0
  7 25  1  0  0  0  0
  8  9  2  0  0  0  0
  8 12  1  0  0  0  0
  9 10  1  0  0  0  0
  9 26  1  0  0  0  0
 10 11  2  0  0  0  0
 10 27  1  0  0  0  0
 11 12  1  0  0  0  0
 11 28  1  0  0  0  0
 13 14  1  0  0  0  0
 13 18  2  0  0  0  0
 14 15  2  0  0  0  0
 14 29  1  0  0  0  0
 15 16  1  0  0  0  0
 15 30  1  0  0  0  0
 16 17  2  0  0  0  0
 16 31  1  0  0  0  0
 17 18  1  0  0  0  0
 17 32  1  0  0  0  0
 18 19  1  0  0  0  0
M  END
>  <Energy>
-38.2428

$$$$

 OpenBabel04232616063D

 24 26  0  0  0  0  0  0  0  0999 V2000
    1.3182    1.6129   -0.1918 Cl  0  0  0  0  0  0  0  0  0  0  0  0
   -0.1371    0.6936   -0.0544 C   0  0  0  0  0  0  0  0  0  0  0  0
   -1.1011    0.8406   -1.0533 C   0  0  0  0  0  0  0  0  0  0  0  0
   -2.2996    0.1219   -0.9846 C   0  0  0  0  0  0  0  0  0  0  0  0
   -2.5534   -0.7520    0.0826 C   0  0  0  0  0  0  0  0  0  0  0  0
   -3.8104   -1.4848    0.1317 C   0  0  0  0  0  0  0  0  0  0  0  0
   -4.2119   -2.3528    1.1239 C   0  0  0  0  0  0  0  0  0  0  0  0
   -5.4437   -2.8033    0.7355 N   0  0  0  0  0  0  0  0  0  0  0  0
   -6.2934   -3.7013    1.3638 C   0  0  0  0  0  0  0  0  0  0  0  0
   -7.4630   -4.0050    0.7859 C   0  0  0  0  0  0  0  0  0  0  0  0
   -7.7213   -3.3127   -0.5103 C   0  0  0  0  0  0  0  0  0  0  0  0
   -6.9385   -2.4676   -1.1076 N   0  0  0  0  0  0  0  0  0  0  0  0
   -5.7571   -2.1946   -0.4762 C   0  0  0  0  0  0  0  0  0  0  0  0
   -4.7773   -1.3930   -0.8449 N   0  0  0  0  0  0  0  0  0  0  0  0
   -1.5759   -0.8951    1.0772 C   0  0  0  0  0  0  0  0  0  0  0  0
   -0.3747   -0.1787    1.0112 C   0  0  0  0  0  0  0  0  0  0  0  0
    0.7708   -0.4247    2.2831 Cl  0  0  0  0  0  0  0  0  0  0  0  0
   -0.9299    1.5127   -1.8910 H   0  0  0  0  0  0  0  0  0  0  0  0
   -3.0404    0.2487   -1.7744 H   0  0  0  0  0  0  0  0  0  0  0  0
   -3.7512   -2.6880    2.0407 H   0  0  0  0  0  0  0  0  0  0  0  0
   -5.9680   -4.1240    2.3054 H   0  0  0  0  0  0  0  0  0  0  0  0
   -8.1938   -4.6897    1.1895 H   0  0  0  0  0  0  0  0  0  0  0  0
   -8.6839   -3.5669   -0.9854 H   0  0  0  0  0  0  0  0  0  0  0  0
   -1.7345   -1.5668    1.9160 H   0  0  0  0  0  0  0  0  0  0  0  0
  1  2  1  0  0  0  0
  2  3  1  0  0  0  0
  2 16  2  0  0  0  0
  3  4  2  0  0  0  0
  3 18  1  0  0  0  0
  4  5  1  0  0  0  0
  4 19  1  0  0  0  0
  5  6  1  0  0  0  0
  5 15  2  0  0  0  0
  6  7  2  0  0  0  0
  6 14  1  0  0  0  0
  7  8  1  0  0  0  0
  7 20  1  0  0  0  0
  8  9  1  0  0  0  0
  8 13  1  0  0  0  0
  9 10  2  0  0  0  0
  9 21  1  0  0  0  0
 10 11  1  0  0  0  0
 10 22  1  0  0  0  0
 11 12  2  0  0  0  0
 11 23  1  0  0  0  0
 12 13  1  0  0  0  0
 13 14  2  0  0  0  0
 15 16  1  0  0  0  0
 15 24  1  0  0  0  0
 16 17  1  0  0  0  0
M  END
>  <Energy>
42.1243

$$$$

 OpenBabel04232616063D

 29 31  0  0  0  0  0  0  0  0999 V2000
    0.8768   -0.3270    0.0475 C   0  0  0  0  0  0  0  0  0  0  0  0
    2.3081   -0.1095    0.0328 N   0  0  0  0  0  0  0  0  0  0  0  0
    3.0252    1.1262   -0.0671 C   0  0  0  0  0  0  0  0  0  0  0  0
    2.3231    2.6283   -0.2665 S   0  0  0  0  0  0  0  0  0  0  0  0
    4.4246    0.7623   -0.0152 N   0  0  0  0  0  0  0  0  0  0  0  0
    5.5678    1.5095   -0.1367 N   0  0  0  0  0  0  0  0  0  0  0  0
    5.5589    2.7065    0.3644 C   0  0  0  0  0  0  0  0  0  0  0  0
    6.6826    3.6079    0.2603 C   0  0  0  0  0  0  0  0  0  0  0  0
    7.9472    3.4137   -0.2546 C   0  0  0  0  0  0  0  0  0  0  0  0
    8.7677    4.5800   -0.1276 C   0  0  0  0  0  0  0  0  0  0  0  0
    8.0933    5.6249    0.4646 C   0  0  0  0  0  0  0  0  0  0  0  0
    6.4897    5.2009    0.8689 S   0  0  0  0  0  0  0  0  0  0  0  0
    4.5223   -0.6387    0.0041 C   0  0  0  0  0  0  0  0  0  0  0  0
    5.6354   -1.4571    0.0004 C   0  0  0  0  0  0  0  0  0  0  0  0
    5.4234   -2.8408    0.0333 C   0  0  0  0  0  0  0  0  0  0  0  0
    4.1193   -3.3733    0.0678 C   0  0  0  0  0  0  0  0  0  0  0  0
    3.0031   -2.5323    0.0747 C   0  0  0  0  0  0  0  0  0  0  0  0
    3.2318   -1.1693    0.0451 C   0  0  0  0  0  0  0  0  0  0  0  0
    0.3243    0.6140    0.0694 H   0  0  0  0  0  0  0  0  0  0  0  0
    0.6126   -0.9029    0.9399 H   0  0  0  0  0  0  0  0  0  0  0  0
    0.5896   -0.8834   -0.8495 H   0  0  0  0  0  0  0  0  0  0  0  0
    4.6967    3.0903    0.9305 H   0  0  0  0  0  0  0  0  0  0  0  0
    8.2794    2.4801   -0.6908 H   0  0  0  0  0  0  0  0  0  0  0  0
    9.7985    4.6493   -0.4531 H   0  0  0  0  0  0  0  0  0  0  0  0
    8.4628    6.6171    0.6816 H   0  0  0  0  0  0  0  0  0  0  0  0
    6.6363   -1.0424   -0.0257 H   0  0  0  0  0  0  0  0  0  0  0  0
    6.2760   -3.5170    0.0316 H   0  0  0  0  0  0  0  0  0  0  0  0
    3.9803   -4.4523    0.0878 H   0  0  0  0  0  0  0  0  0  0  0  0
    2.0020   -2.9460    0.0956 H   0  0  0  0  0  0  0  0  0  0  0  0
  1  2  1  0  0  0  0
  1 19  1  0  0  0  0
  1 20  1  0  0  0  0
  1 21  1  0  0  0  0
  2  3  1  0  0  0  0
  2 18  1  0  0  0  0
  3  4  2  0  0  0  0
  3  5  1  0  0  0  0
  5  6  1  0  0  0  0
  5 13  1  0  0  0  0
  6  7  2  0  0  0  0
  7  8  1  0  0  0  0
  7 22  1  0  0  0  0
  8  9  2  0  0  0  0
  8 12  1  0  0  0  0
  9 10  1  0  0  0  0
  9 23  1  0  0  0  0
 10 11  2  0  0  0  0
 10 24  1  0  0  0  0
 11 12  1  0  0  0  0
 11 25  1  0  0  0  0
 13 14  1  0  0  0  0
 13 18  2  0  0  0  0
 14 15  2  0  0  0  0
 14 26  1  0  0  0  0
 15 16  1  0  0  0  0
 15 27  1  0  0  0  0
 16 17  2  0  0  0  0
 16 28  1  0  0  0  0
 17 18  1  0  0  0  0
 17 29  1  0  0  0  0
M  END
>  <Energy>
78.6226

$$$$

 OpenBabel04232616063D

 29 31  0  0  0  0  0  0  0  0999 V2000
    1.0217    0.2281   -0.2894 C   0  0  0  0  0  0  0  0  0  0  0  0
    2.3808   -0.0992   -0.0302 O   0  0  0  0  0  0  0  0  0  0  0  0
    3.0227   -0.8064   -1.0086 C   0  0  0  0  0  0  0  0  0  0  0  0
    2.7003   -0.7959   -2.3647 C   0  0  0  0  0  0  0  0  0  0  0  0
    3.4525   -1.5557   -3.2711 C   0  0  0  0  0  0  0  0  0  0  0  0
    4.5290   -2.3414   -2.8348 C   0  0  0  0  0  0  0  0  0  0  0  0
    5.2793   -3.1306   -3.7991 C   0  0  0  0  0  0  0  0  0  0  0  0
    5.4625   -2.7198   -5.1056 N   0  0  0  0  0  0  0  0  0  0  0  0
    6.1755   -3.6670   -5.6803 C   0  0  0  0  0  0  0  0  0  0  0  0
    6.6804   -3.7815   -7.0077 C   0  0  0  0  0  0  0  0  0  0  0  0
    7.3947   -4.8651   -7.3646 C   0  0  0  0  0  0  0  0  0  0  0  0
    7.6681   -5.9379   -6.4226 C   0  0  0  0  0  0  0  0  0  0  0  0
    7.1955   -5.8392   -5.1683 C   0  0  0  0  0  0  0  0  0  0  0  0
    6.4547   -4.7120   -4.7985 N   0  0  0  0  0  0  0  0  0  0  0  0
    5.8633   -4.3628   -3.6089 C   0  0  0  0  0  0  0  0  0  0  0  0
    5.9211   -5.4337   -2.2793 Cl  0  0  0  0  0  0  0  0  0  0  0  0
    4.8646   -2.3141   -1.4769 C   0  0  0  0  0  0  0  0  0  0  0  0
    4.1164   -1.5538   -0.5737 C   0  0  0  0  0  0  0  0  0  0  0  0
    0.6133    0.6895    0.6152 H   0  0  0  0  0  0  0  0  0  0  0  0
    0.4338   -0.6719   -0.5013 H   0  0  0  0  0  0  0  0  0  0  0  0
    0.9319    0.9586   -1.0993 H   0  0  0  0  0  0  0  0  0  0  0  0
    1.8871   -0.1929   -2.7533 H   0  0  0  0  0  0  0  0  0  0  0  0
    3.1938   -1.5299   -4.3286 H   0  0  0  0  0  0  0  0  0  0  0  0
    6.4759   -2.9792   -7.7097 H   0  0  0  0  0  0  0  0  0  0  0  0
    7.7873   -4.9645   -8.3726 H   0  0  0  0  0  0  0  0  0  0  0  0
    8.2473   -6.7947   -6.7506 H   0  0  0  0  0  0  0  0  0  0  0  0
    7.3658   -6.6040   -4.4209 H   0  0  0  0  0  0  0  0  0  0  0  0
    5.7193   -2.8666   -1.0970 H   0  0  0  0  0  0  0  0  0  0  0  0
    4.3883   -1.5490    0.4796 H   0  0  0  0  0  0  0  0  0  0  0  0
  1  2  1  0  0  0  0
  1 19  1  0  0  0  0
  1 20  1  0  0  0  0
  1 21  1  0  0  0  0
  2  3  1  0  0  0  0
  3  4  1  0  0  0  0
  3 18  2  0  0  0  0
  4  5  2  0  0  0  0
  4 22  1  0  0  0  0
  5  6  1  0  0  0  0
  5 23  1  0  0  0  0
  6  7  1  0  0  0  0
  6 17  2  0  0  0  0
  7  8  1  0  0  0  0
  7 15  2  0  0  0  0
  8  9  2  0  0  0  0
  9 10  1  0  0  0  0
  9 14  1  0  0  0  0
 10 11  2  0  0  0  0
 10 24  1  0  0  0  0
 11 12  1  0  0  0  0
 11 25  1  0  0  0  0
 12 13  2  0  0  0  0
 12 26  1  0  0  0  0
 13 14  1  0  0  0  0
 13 27  1  0  0  0  0
 14 15  1  0  0  0  0
 15 16  1  0  0  0  0
 17 18  1  0  0  0  0
 17 28  1  0  0  0  0
 18 29  1  0  0  0  0
M  END
>  <Energy>
60.1945

$$$$

 OpenBabel04232616063D

 36 38  0  0  0  0  0  0  0  0999 V2000
    1.3963    0.1207    0.5065 C   0  0  0  0  0  0  0  0  0  0  0  0
    0.8856   -0.0290   -0.7803 C   0  0  0  0  0  0  0  0  0  0  0  0
   -0.4846    0.1346   -1.0226 C   0  0  0  0  0  0  0  0  0  0  0  0
   -1.3738    0.4665    0.0113 C   0  0  0  0  0  0  0  0  0  0  0  0
   -2.8410    0.6052   -0.1980 C   0  0  0  0  0  0  0  0  0  0  0  0
   -3.7048    0.0249    0.7634 C   0  0  0  0  0  0  0  0  0  0  0  0
   -5.0914    0.1653    0.7046 C   0  0  0  0  0  0  0  0  0  0  0  0
   -5.6596    0.8873   -0.3293 C   0  0  0  0  0  0  0  0  0  0  0  0
   -4.8437    1.4420   -1.3131 C   0  0  0  0  0  0  0  0  0  0  0  0
   -3.4420    1.2988   -1.2775 C   0  0  0  0  0  0  0  0  0  0  0  0
   -2.6176    1.8260   -2.2529 O   0  0  0  0  0  0  0  0  0  0  0  0
   -3.2756    2.4143   -3.3794 C   0  0  0  0  0  0  0  0  0  0  0  0
   -2.2711    2.8124   -4.4532 C   0  0  0  0  0  0  0  0  0  0  0  0
   -2.9440    3.5003   -5.5410 N   0  0  0  0  0  0  0  0  0  0  0  0
   -3.2311    4.8370   -5.5884 C   0  0  0  0  0  0  0  0  0  0  0  0
   -3.9833    4.9958   -6.7299 C   0  0  0  0  0  0  0  0  0  0  0  0
   -4.1436    3.7970   -7.3768 N   0  0  0  0  0  0  0  0  0  0  0  0
   -3.4996    2.9161   -6.6419 C   0  0  0  0  0  0  0  0  0  0  0  0
   -0.8220    0.6274    1.3014 C   0  0  0  0  0  0  0  0  0  0  0  0
    0.5409    0.4478    1.5505 C   0  0  0  0  0  0  0  0  0  0  0  0
    2.4576   -0.0181    0.6948 H   0  0  0  0  0  0  0  0  0  0  0  0
    1.5533   -0.2827   -1.5995 H   0  0  0  0  0  0  0  0  0  0  0  0
   -0.8540   -0.0152   -2.0347 H   0  0  0  0  0  0  0  0  0  0  0  0
   -3.2906   -0.5550    1.5874 H   0  0  0  0  0  0  0  0  0  0  0  0
   -5.7177   -0.2824    1.4712 H   0  0  0  0  0  0  0  0  0  0  0  0
   -6.7369    1.0177   -0.3779 H   0  0  0  0  0  0  0  0  0  0  0  0
   -5.3497    1.9958   -2.0992 H   0  0  0  0  0  0  0  0  0  0  0  0
   -3.8177    3.3100   -3.0497 H   0  0  0  0  0  0  0  0  0  0  0  0
   -3.9819    1.6987   -3.8209 H   0  0  0  0  0  0  0  0  0  0  0  0
   -1.7651    1.9306   -4.8658 H   0  0  0  0  0  0  0  0  0  0  0  0
   -1.4958    3.4729   -4.0546 H   0  0  0  0  0  0  0  0  0  0  0  0
   -2.9120    5.5356   -4.8293 H   0  0  0  0  0  0  0  0  0  0  0  0
   -4.4275    5.9047   -7.1139 H   0  0  0  0  0  0  0  0  0  0  0  0
   -3.4266    1.8579   -6.8538 H   0  0  0  0  0  0  0  0  0  0  0  0
   -1.4621    0.8964    2.1402 H   0  0  0  0  0  0  0  0  0  0  0  0
    0.9271    0.5616    2.5602 H   0  0  0  0  0  0  0  0  0  0  0  0
  1  2  1  0  0  0  0
  1 20  2  0  0  0  0
  1 21  1  0  0  0  0
  2  3  2  0  0  0  0
  2 22  1  0  0  0  0
  3  4  1  0  0  0  0
  3 23  1  0  0  0  0
  4  5  1  0  0  0  0
  4 19  2  0  0  0  0
  5  6  1  0  0  0  0
  5 10  2  0  0  0  0
  6  7  2  0  0  0  0
  6 24  1  0  0  0  0
  7  8  1  0  0  0  0
  7 25  1  0  0  0  0
  8  9  2  0  0  0  0
  8 26  1  0  0  0  0
  9 10  1  0  0  0  0
  9 27  1  0  0  0  0
 10 11  1  0  0  0  0
 11 12  1  0  0  0  0
 12 13  1  0  0  0  0
 12 28  1  0  0  0  0
 12 29  1  0  0  0  0
 13 14  1  0  0  0  0
 13 30  1  0  0  0  0
 13 31  1  0  0  0  0
 14 15  1  0  0  0  0
 14 18  1  0  0  0  0
 15 16  2  0  0  0  0
 15 32  1  0  0  0  0
 16 17  1  0  0  0  0
 16 33  1  0  0  0  0
 17 18  2  0  0  0  0
 18 34  1  0  0  0  0
 19 20  1  0  0  0  0
 19 35  1  0  0  0  0
 20 36  1  0  0  0  0
M  END
>  <Energy>
58.8591

$$$$

 OpenBabel04232616063D

 36 36  0  0  0  0  0  0  0  0999 V2000
    1.0342    0.1951    0.3676 C   0  0  0  0  0  0  0  0  0  0  0  0
    2.5096   -0.0194    0.1690 C   0  0  0  0  0  0  0  0  0  0  0  0
    3.0576   -1.0536    0.5520 O   0  0  0  0  0  0  0  0  0  0  0  0
    3.3071    1.0443   -0.5037 C   0  0  0  0  0  0  0  0  0  0  0  0
    2.9414    2.3932   -0.3823 C   0  0  0  0  0  0  0  0  0  0  0  0
    3.7085    3.3997   -0.9947 C   0  0  0  0  0  0  0  0  0  0  0  0
    3.2931    4.7567   -0.8289 C   0  0  0  0  0  0  0  0  0  0  0  0
    2.8643    5.8189   -0.6417 N   0  0  0  0  0  0  0  0  0  0  0  0
    4.8269    3.0268   -1.7365 C   0  0  0  0  0  0  0  0  0  0  0  0
    5.9161    4.1965   -2.5579 S   0  0  0  0  0  0  0  0  0  0  0  0
    6.5775    3.1224   -3.8919 C   0  0  0  0  0  0  0  0  0  0  0  0
    7.6010    3.8297   -4.7915 C   0  0  0  0  0  0  0  0  0  0  0  0
    8.1081    2.9173   -5.9366 C   0  0  0  0  0  0  0  0  0  0  0  0
    6.9833    2.4640   -6.8717 C   0  0  0  0  0  0  0  0  0  0  0  0
    9.1904    3.6238   -6.7595 C   0  0  0  0  0  0  0  0  0  0  0  0
    5.1804    1.7276   -1.8642 N   0  0  0  0  0  0  0  0  0  0  0  0
    4.4433    0.7524   -1.2612 C   0  0  0  0  0  0  0  0  0  0  0  0
    4.9284   -0.6454   -1.5056 C   0  0  0  0  0  0  0  0  0  0  0  0
    0.5890   -0.7239    0.7598 H   0  0  0  0  0  0  0  0  0  0  0  0
    0.5558    0.4199   -0.5897 H   0  0  0  0  0  0  0  0  0  0  0  0
    0.8537    0.9923    1.0916 H   0  0  0  0  0  0  0  0  0  0  0  0
    2.0734    2.6793    0.2067 H   0  0  0  0  0  0  0  0  0  0  0  0
    5.7160    2.8006   -4.4810 H   0  0  0  0  0  0  0  0  0  0  0  0
    7.0532    2.2402   -3.4519 H   0  0  0  0  0  0  0  0  0  0  0  0
    8.4631    4.1370   -4.1846 H   0  0  0  0  0  0  0  0  0  0  0  0
    7.1671    4.7429   -5.2174 H   0  0  0  0  0  0  0  0  0  0  0  0
    8.5618    2.0214   -5.4932 H   0  0  0  0  0  0  0  0  0  0  0  0
    6.4525    3.3219   -7.2975 H   0  0  0  0  0  0  0  0  0  0  0  0
    6.2567    1.8343   -6.3504 H   0  0  0  0  0  0  0  0  0  0  0  0
    7.3814    1.8673   -7.6998 H   0  0  0  0  0  0  0  0  0  0  0  0
    8.8028    4.5323   -7.2327 H   0  0  0  0  0  0  0  0  0  0  0  0
    9.5643    2.9669   -7.5530 H   0  0  0  0  0  0  0  0  0  0  0  0
   10.0434    3.9012   -6.1320 H   0  0  0  0  0  0  0  0  0  0  0  0
    5.7855   -0.6390   -2.1883 H   0  0  0  0  0  0  0  0  0  0  0  0
    4.1419   -1.2455   -1.9731 H   0  0  0  0  0  0  0  0  0  0  0  0
    5.2593   -1.1149   -0.5753 H   0  0  0  0  0  0  0  0  0  0  0  0
  1  2  1  0  0  0  0
  1 19  1  0  0  0  0
  1 20  1  0  0  0  0
  1 21  1  0  0  0  0
  2  3  2  0  0  0  0
  2  4  1  0  0  0  0
  4  5  1  0  0  0  0
  4 17  2  0  0  0  0
  5  6  2  0  0  0  0
  5 22  1  0  0  0  0
  6  7  1  0  0  0  0
  6  9  1  0  0  0  0
  7  8  3  0  0  0  0
  9 10  1  0  0  0  0
  9 16  2  0  0  0  0
 10 11  1  0  0  0  0
 11 12  1  0  0  0  0
 11 23  1  0  0  0  0
 11 24  1  0  0  0  0
 12 13  1  0  0  0  0
 12 25  1  0  0  0  0
 12 26  1  0  0  0  0
 13 14  1  0  0  0  0
 13 15  1  0  0  0  0
 13 27  1  0  0  0  0
 14 28  1  0  0  0  0
 14 29  1  0  0  0  0
 14 30  1  0  0  0  0
 15 31  1  0  0  0  0
 15 32  1  0  0  0  0
 15 33  1  0  0  0  0
 16 17  1  0  0  0  0
 17 18  1  0  0  0  0
 18 34  1  0  0  0  0
 18 35  1  0  0  0  0
 18 36  1  0  0  0  0
M  END
>  <Energy>
37.6308

$$$$

 OpenBabel04232616063D

 38 39  0  0  0  0  0  0  0  0999 V2000
    1.9672    0.3171   -3.0677 C   0  0  0  0  0  0  0  0  0  0  0  0
    0.8137   -0.4637   -2.5081 C   0  0  0  0  0  0  0  0  0  0  0  0
   -0.4897   -0.2689   -2.9880 C   0  0  0  0  0  0  0  0  0  0  0  0
   -1.5619   -1.0081   -2.4726 C   0  0  0  0  0  0  0  0  0  0  0  0
   -2.9539   -0.8328   -3.0015 C   0  0  0  0  0  0  0  0  0  0  0  0
   -1.3169   -1.9558   -1.4744 C   0  0  0  0  0  0  0  0  0  0  0  0
   -0.0174   -2.1696   -1.0111 C   0  0  0  0  0  0  0  0  0  0  0  0
    0.1068   -3.2739   -0.1412 O   0  0  0  0  0  0  0  0  0  0  0  0
    1.3419   -3.8152    0.2073 C   0  0  0  0  0  0  0  0  0  0  0  0
    2.3759   -3.1978    0.4282 O   0  0  0  0  0  0  0  0  0  0  0  0
    1.2250   -5.3262    0.1910 C   0  0  0  0  0  0  0  0  0  0  0  0
    0.7956   -5.8489    1.4360 O   0  0  0  0  0  0  0  0  0  0  0  0
    0.5616   -7.2021    1.4405 C   0  0  0  0  0  0  0  0  0  0  0  0
    1.2400   -8.1116    0.6142 C   0  0  0  0  0  0  0  0  0  0  0  0
    0.9593   -9.4766    0.6818 C   0  0  0  0  0  0  0  0  0  0  0  0
    0.0105   -9.9447    1.5810 C   0  0  0  0  0  0  0  0  0  0  0  0
   -0.6568   -9.0507    2.4218 C   0  0  0  0  0  0  0  0  0  0  0  0
   -0.3892   -7.6763    2.3587 C   0  0  0  0  0  0  0  0  0  0  0  0
   -1.1044   -6.7371    3.2883 C   0  0  0  0  0  0  0  0  0  0  0  0
    1.0442   -1.4192   -1.5089 C   0  0  0  0  0  0  0  0  0  0  0  0
    1.6448    0.9960   -3.8638 H   0  0  0  0  0  0  0  0  0  0  0  0
    2.7123   -0.3642   -3.4923 H   0  0  0  0  0  0  0  0  0  0  0  0
    2.4349    0.9165   -2.2804 H   0  0  0  0  0  0  0  0  0  0  0  0
   -0.6681    0.4585   -3.7775 H   0  0  0  0  0  0  0  0  0  0  0  0
   -2.9991   -0.0465   -3.7606 H   0  0  0  0  0  0  0  0  0  0  0  0
   -3.6351   -0.5571   -2.1899 H   0  0  0  0  0  0  0  0  0  0  0  0
   -3.2999   -1.7651   -3.4608 H   0  0  0  0  0  0  0  0  0  0  0  0
   -2.1326   -2.5562   -1.0793 H   0  0  0  0  0  0  0  0  0  0  0  0
    2.2206   -5.6960   -0.0808 H   0  0  0  0  0  0  0  0  0  0  0  0
    0.5255   -5.6036   -0.6098 H   0  0  0  0  0  0  0  0  0  0  0  0
    2.0111   -7.7951   -0.0796 H   0  0  0  0  0  0  0  0  0  0  0  0
    1.4897  -10.1730    0.0372 H   0  0  0  0  0  0  0  0  0  0  0  0
   -0.2082  -11.0087    1.6399 H   0  0  0  0  0  0  0  0  0  0  0  0
   -1.3870   -9.4381    3.1306 H   0  0  0  0  0  0  0  0  0  0  0  0
   -1.9324   -7.2386    3.8001 H   0  0  0  0  0  0  0  0  0  0  0  0
   -1.5302   -5.8945    2.7335 H   0  0  0  0  0  0  0  0  0  0  0  0
   -0.4126   -6.3610    4.0483 H   0  0  0  0  0  0  0  0  0  0  0  0
    2.0611   -1.5655   -1.1574 H   0  0  0  0  0  0  0  0  0  0  0  0
  1  2  1  0  0  0  0
  1 21  1  0  0  0  0
  1 22  1  0  0  0  0
  1 23  1  0  0  0  0
  2  3  1  0  0  0  0
  2 20  2  0  0  0  0
  3  4  2  0  0  0  0
  3 24  1  0  0  0  0
  4  5  1  0  0  0  0
  4  6  1  0  0  0  0
  5 25  1  0  0  0  0
  5 26  1  0  0  0  0
  5 27  1  0  0  0  0
  6  7  2  0  0  0  0
  6 28  1  0  0  0  0
  7  8  1  0  0  0  0
  7 20  1  0  0  0  0
  8  9  1  0  0  0  0
  9 10  2  0  0  0  0
  9 11  1  0  0  0  0
 11 12  1  0  0  0  0
 11 29  1  0  0  0  0
 11 30  1  0  0  0  0
 12 13  1  0  0  0  0
 13 14  1  0  0  0  0
 13 18  2  0  0  0  0
 14 15  2  0  0  0  0
 14 31  1  0  0  0  0
 15 16  1  0  0  0  0
 15 32  1  0  0  0  0
 16 17  2  0  0  0  0
 16 33  1  0  0  0  0
 17 18  1  0  0  0  0
 17 34  1  0  0  0  0
 18 19  1  0  0  0  0
 19 35  1  0  0  0  0
 19 36  1  0  0  0  0
 19 37  1  0  0  0  0
 20 38  1  0  0  0  0
M  END
>  <Energy>
83.9182

$$$$

 OpenBabel04232616063D

 36 38  0  0  0  0  0  0  0  0999 V2000
    2.3274    0.1447    1.2017 C   0  0  0  0  0  0  0  0  0  0  0  0
    2.2885   -1.1558    0.4134 C   0  0  0  0  0  0  0  0  0  0  0  0
    2.9282   -1.0400   -0.9727 C   0  0  0  0  0  0  0  0  0  0  0  0
    4.3782   -1.0474   -0.9553 N   0  0  0  0  0  0  0  0  0  0  0  0
    5.2190    0.0465   -0.9645 C   0  0  0  0  0  0  0  0  0  0  0  0
    4.7793    1.3336   -1.0077 N   0  0  0  0  0  0  0  0  0  0  0  0
    5.8280    2.3044   -0.6611 C   0  0  0  0  0  0  0  0  0  0  0  0
    5.5670    3.7515   -0.9013 C   0  0  0  0  0  0  0  0  0  0  0  0
    6.2137    4.8767   -0.4259 C   0  0  0  0  0  0  0  0  0  0  0  0
    5.6211    5.9838   -1.0694 C   0  0  0  0  0  0  0  0  0  0  0  0
    4.6429    5.4665   -1.8882 C   0  0  0  0  0  0  0  0  0  0  0  0
    4.6044    4.1098   -1.7981 O   0  0  0  0  0  0  0  0  0  0  0  0
    6.4746   -0.3303   -0.8833 N   0  0  0  0  0  0  0  0  0  0  0  0
    6.4654   -1.6935   -0.8748 C   0  0  0  0  0  0  0  0  0  0  0  0
    7.5512   -2.5789   -0.8366 C   0  0  0  0  0  0  0  0  0  0  0  0
    7.2961   -3.9524   -0.8242 C   0  0  0  0  0  0  0  0  0  0  0  0
    5.9848   -4.4299   -0.8412 C   0  0  0  0  0  0  0  0  0  0  0  0
    4.8876   -3.5576   -0.8811 C   0  0  0  0  0  0  0  0  0  0  0  0
    5.1650   -2.1842   -0.9074 C   0  0  0  0  0  0  0  0  0  0  0  0
    1.8117    0.0186    2.1592 H   0  0  0  0  0  0  0  0  0  0  0  0
    1.8257    0.9487    0.6537 H   0  0  0  0  0  0  0  0  0  0  0  0
    3.3538    0.4554    1.4149 H   0  0  0  0  0  0  0  0  0  0  0  0
    1.2376   -1.4449    0.2892 H   0  0  0  0  0  0  0  0  0  0  0  0
    2.7683   -1.9485    0.9996 H   0  0  0  0  0  0  0  0  0  0  0  0
    2.5853   -0.1428   -1.4986 H   0  0  0  0  0  0  0  0  0  0  0  0
    2.6166   -1.8963   -1.5835 H   0  0  0  0  0  0  0  0  0  0  0  0
    4.3201    1.6122   -1.8689 H   0  0  0  0  0  0  0  0  0  0  0  0
    6.7490    2.0786   -1.2179 H   0  0  0  0  0  0  0  0  0  0  0  0
    6.0541    2.1854    0.4072 H   0  0  0  0  0  0  0  0  0  0  0  0
    7.0388    4.8816    0.2741 H   0  0  0  0  0  0  0  0  0  0  0  0
    5.8853    7.0266   -0.9651 H   0  0  0  0  0  0  0  0  0  0  0  0
    3.9385    5.9123   -2.5755 H   0  0  0  0  0  0  0  0  0  0  0  0
    8.5636   -2.1916   -0.8200 H   0  0  0  0  0  0  0  0  0  0  0  0
    8.1305   -4.6488   -0.7987 H   0  0  0  0  0  0  0  0  0  0  0  0
    5.8125   -5.5042   -0.8238 H   0  0  0  0  0  0  0  0  0  0  0  0
    3.8734   -3.9414   -0.8905 H   0  0  0  0  0  0  0  0  0  0  0  0
  1  2  1  0  0  0  0
  1 20  1  0  0  0  0
  1 21  1  0  0  0  0
  1 22  1  0  0  0  0
  2  3  1  0  0  0  0
  2 23  1  0  0  0  0
  2 24  1  0  0  0  0
  3  4  1  0  0  0  0
  3 25  1  0  0  0  0
  3 26  1  0  0  0  0
  4  5  1  0  0  0  0
  4 19  1  0  0  0  0
  5  6  1  0  0  0  0
  5 13  2  0  0  0  0
  6  7  1  0  0  0  0
  6 27  1  0  0  0  0
  7  8  1  0  0  0  0
  7 28  1  0  0  0  0
  7 29  1  0  0  0  0
  8  9  2  0  0  0  0
  8 12  1  0  0  0  0
  9 10  1  0  0  0  0
  9 30  1  0  0  0  0
 10 11  2  0  0  0  0
 10 31  1  0  0  0  0
 11 12  1  0  0  0  0
 11 32  1  0  0  0  0
 13 14  1  0  0  0  0
 14 15  1  0  0  0  0
 14 19  2  0  0  0  0
 15 16  2  0  0  0  0
 15 33  1  0  0  0  0
 16 17  1  0  0  0  0
 16 34  1  0  0  0  0
 17 18  2  0  0  0  0
 17 35  1  0  0  0  0
 18 19  1  0  0  0  0
 18 36  1  0  0  0  0
M  END
>  <Energy>
-6.75226

$$$$

 OpenBabel04232616063D

 33 35  0  0  0  0  0  0  0  0999 V2000
    1.2965   -0.9627    0.7120 O   0  0  0  0  0  0  0  0  0  0  0  0
    2.3171   -0.4343    0.2882 C   0  0  0  0  0  0  0  0  0  0  0  0
    2.9717   -0.6507   -0.9399 N   0  0  0  0  0  0  0  0  0  0  0  0
    4.3953   -0.8174   -0.9542 C   0  0  0  0  0  0  0  0  0  0  0  0
    5.0300   -1.5883    0.0306 C   0  0  0  0  0  0  0  0  0  0  0  0
    6.4167   -1.7253    0.0297 C   0  0  0  0  0  0  0  0  0  0  0  0
    7.1778   -1.0787   -0.9439 C   0  0  0  0  0  0  0  0  0  0  0  0
    6.5554   -0.3041   -1.9216 C   0  0  0  0  0  0  0  0  0  0  0  0
    5.1664   -0.1780   -1.9367 C   0  0  0  0  0  0  0  0  0  0  0  0
    2.2521   -1.2954   -2.0194 C   0  0  0  0  0  0  0  0  0  0  0  0
    0.8804   -1.0492   -2.1959 C   0  0  0  0  0  0  0  0  0  0  0  0
    0.1529   -1.6806   -3.2126 C   0  0  0  0  0  0  0  0  0  0  0  0
    0.7831   -2.5714   -4.0751 C   0  0  0  0  0  0  0  0  0  0  0  0
    2.1418   -2.8231   -3.9301 C   0  0  0  0  0  0  0  0  0  0  0  0
    2.8689   -2.1879   -2.9179 C   0  0  0  0  0  0  0  0  0  0  0  0
    2.9614    0.5101    1.1146 N   0  0  0  0  0  0  0  0  0  0  0  0
    2.9105    0.5424    2.4969 C   0  0  0  0  0  0  0  0  0  0  0  0
    3.7202    1.5815    2.8839 C   0  0  0  0  0  0  0  0  0  0  0  0
    4.1981    2.2538    1.7941 N   0  0  0  0  0  0  0  0  0  0  0  0
    3.7075    1.6143    0.7552 C   0  0  0  0  0  0  0  0  0  0  0  0
    4.4518   -2.1167    0.7868 H   0  0  0  0  0  0  0  0  0  0  0  0
    6.9029   -2.3358    0.7867 H   0  0  0  0  0  0  0  0  0  0  0  0
    8.2610   -1.1778   -0.9361 H   0  0  0  0  0  0  0  0  0  0  0  0
    7.1558    0.2088   -2.6694 H   0  0  0  0  0  0  0  0  0  0  0  0
    4.6926    0.4417   -2.6942 H   0  0  0  0  0  0  0  0  0  0  0  0
    0.3454   -0.3600   -1.5464 H   0  0  0  0  0  0  0  0  0  0  0  0
   -0.9107   -1.4819   -3.3203 H   0  0  0  0  0  0  0  0  0  0  0  0
    0.2156   -3.0746   -4.8536 H   0  0  0  0  0  0  0  0  0  0  0  0
    2.6402   -3.5270   -4.5923 H   0  0  0  0  0  0  0  0  0  0  0  0
    3.9202   -2.4513   -2.8322 H   0  0  0  0  0  0  0  0  0  0  0  0
    2.3602   -0.2024    3.0548 H   0  0  0  0  0  0  0  0  0  0  0  0
    3.9782    1.8853    3.8905 H   0  0  0  0  0  0  0  0  0  0  0  0
    3.8412    1.9139   -0.2755 H   0  0  0  0  0  0  0  0  0  0  0  0
  1  2  2  0  0  0  0
  2  3  1  0  0  0  0
  2 16  1  0  0  0  0
  3  4  1  0  0  0  0
  3 10  1  0  0  0  0
  4  5  1  0  0  0  0
  4  9  2  0  0  0  0
  5  6  2  0  0  0  0
  5 21  1  0  0  0  0
  6  7  1  0  0  0  0
  6 22  1  0  0  0  0
  7  8  2  0  0  0  0
  7 23  1  0  0  0  0
  8  9  1  0  0  0  0
  8 24  1  0  0  0  0
  9 25  1  0  0  0  0
 10 11  1  0  0  0  0
 10 15  2  0  0  0  0
 11 12  2  0  0  0  0
 11 26  1  0  0  0  0
 12 13  1  0  0  0  0
 12 27  1  0  0  0  0
 13 14  2  0  0  0  0
 13 28  1  0  0  0  0
 14 15  1  0  0  0  0
 14 29  1  0  0  0  0
 15 30  1  0  0  0  0
 16 17  1  0  0  0  0
 16 20  1  0  0  0  0
 17 18  2  0  0  0  0
 17 31  1  0  0  0  0
 18 19  1  0  0  0  0
 18 32  1  0  0  0  0
 19 20  2  0  0  0  0
 20 33  1  0  0  0  0
M  END
>  <Energy>
98.9104

$$$$

 OpenBabel04232616063D

 41 42  0  0  0  0  0  0  0  0999 V2000
    2.5250    0.3732   -0.0574 C   0  0  0  0  0  0  0  0  0  0  0  0
    1.0402    0.1421    0.0201 C   0  0  0  0  0  0  0  0  0  0  0  0
    0.2555    1.3078    0.0621 C   0  0  0  0  0  0  0  0  0  0  0  0
   -1.1261    1.2407    0.0649 C   0  0  0  0  0  0  0  0  0  0  0  0
   -1.7551    0.0017    0.0383 C   0  0  0  0  0  0  0  0  0  0  0  0
   -1.0286   -1.2100    0.0141 C   0  0  0  0  0  0  0  0  0  0  0  0
   -1.8077   -2.5552    0.0046 C   0  0  0  0  0  0  0  0  0  0  0  0
   -3.3543   -2.3851   -0.0107 C   0  0  0  0  0  0  0  0  0  0  0  0
   -1.4716   -3.3883   -1.2512 C   0  0  0  0  0  0  0  0  0  0  0  0
   -1.4900   -3.3633    1.2805 C   0  0  0  0  0  0  0  0  0  0  0  0
    0.3999   -1.1256    0.0154 C   0  0  0  0  0  0  0  0  0  0  0  0
    1.0669   -2.3255   -0.0973 O   0  0  0  0  0  0  0  0  0  0  0  0
    2.2792   -2.4986    0.6347 C   0  0  0  0  0  0  0  0  0  0  0  0
    2.6818   -3.9711    0.6373 C   0  0  0  0  0  0  0  0  0  0  0  0
    3.9927   -4.1499    1.2302 N   0  0  0  0  0  0  0  0  0  0  0  0
    4.2588   -4.4286    2.5402 C   0  0  0  0  0  0  0  0  0  0  0  0
    5.6342   -4.4223    2.6314 C   0  0  0  0  0  0  0  0  0  0  0  0
    6.1991   -4.1543    1.4114 N   0  0  0  0  0  0  0  0  0  0  0  0
    5.1882   -4.0028    0.5852 C   0  0  0  0  0  0  0  0  0  0  0  0
    2.7661    1.4340   -0.1911 H   0  0  0  0  0  0  0  0  0  0  0  0
    2.9510   -0.1447   -0.9217 H   0  0  0  0  0  0  0  0  0  0  0  0
    3.0128    0.0662    0.8727 H   0  0  0  0  0  0  0  0  0  0  0  0
    0.7248    2.2900    0.0672 H   0  0  0  0  0  0  0  0  0  0  0  0
   -1.7168    2.1528    0.0752 H   0  0  0  0  0  0  0  0  0  0  0  0
   -2.8408    0.0200    0.0322 H   0  0  0  0  0  0  0  0  0  0  0  0
   -3.6935   -1.8488   -0.9053 H   0  0  0  0  0  0  0  0  0  0  0  0
   -3.7134   -1.8451    0.8736 H   0  0  0  0  0  0  0  0  0  0  0  0
   -3.8623   -3.3574   -0.0123 H   0  0  0  0  0  0  0  0  0  0  0  0
   -1.6672   -2.8152   -2.1651 H   0  0  0  0  0  0  0  0  0  0  0  0
   -2.0838   -4.2975   -1.2938 H   0  0  0  0  0  0  0  0  0  0  0  0
   -0.4305   -3.7179   -1.2834 H   0  0  0  0  0  0  0  0  0  0  0  0
   -1.7270   -2.7843    2.1813 H   0  0  0  0  0  0  0  0  0  0  0  0
   -0.4399   -3.6570    1.3464 H   0  0  0  0  0  0  0  0  0  0  0  0
   -2.0792   -4.2879    1.3185 H   0  0  0  0  0  0  0  0  0  0  0  0
    2.1704   -2.1329    1.6630 H   0  0  0  0  0  0  0  0  0  0  0  0
    3.0895   -1.9696    0.1329 H   0  0  0  0  0  0  0  0  0  0  0  0
    2.7186   -4.3675   -0.3845 H   0  0  0  0  0  0  0  0  0  0  0  0
    1.9612   -4.5826    1.1908 H   0  0  0  0  0  0  0  0  0  0  0  0
    3.4861   -4.5915    3.2784 H   0  0  0  0  0  0  0  0  0  0  0  0
    6.2429   -4.5898    3.5097 H   0  0  0  0  0  0  0  0  0  0  0  0
    5.2699   -3.7733   -0.4693 H   0  0  0  0  0  0  0  0  0  0  0  0
  1  2  1  0  0  0  0
  1 20  1  0  0  0  0
  1 21  1  0  0  0  0
  1 22  1  0  0  0  0
  2  3  1  0  0  0  0
  2 11  2  0  0  0  0
  3  4  2  0  0  0  0
  3 23  1  0  0  0  0
  4  5  1  0  0  0  0
  4 24  1  0  0  0  0
  5  6  2  0  0  0  0
  5 25  1  0  0  0  0
  6  7  1  0  0  0  0
  6 11  1  0  0  0  0
  7  8  1  0  0  0  0
  7  9  1  0  0  0  0
  7 10  1  0  0  0  0
  8 26  1  0  0  0  0
  8 27  1  0  0  0  0
  8 28  1  0  0  0  0
  9 29  1  0  0  0  0
  9 30  1  0  0  0  0
  9 31  1  0  0  0  0
 10 32  1  0  0  0  0
 10 33  1  0  0  0  0
 10 34  1  0  0  0  0
 11 12  1  0  0  0  0
 12 13  1  0  0  0  0
 13 14  1  0  0  0  0
 13 35  1  0  0  0  0
 13 36  1  0  0  0  0
 14 15  1  0  0  0  0
 14 37  1  0  0  0  0
 14 38  1  0  0  0  0
 15 16  1  0  0  0  0
 15 19  1  0  0  0  0
 16 17  2  0  0  0  0
 16 39  1  0  0  0  0
 17 18  1  0  0  0  0
 17 40  1  0  0  0  0
 18 19  2  0  0  0  0
 19 41  1  0  0  0  0
M  END
>  <Energy>
56.5761

$$$$

 OpenBabel04232616063D

 32 34  0  0  0  0  0  0  0  0999 V2000
    1.2828    0.7591   -0.3107 C   0  0  0  0  0  0  0  0  0  0  0  0
    2.4570   -0.0741   -0.0901 N   0  0  0  0  0  0  0  0  0  0  0  0
    2.8744   -0.3115    1.2860 C   0  0  0  0  0  0  0  0  0  0  0  0
    3.1725   -0.6084   -1.1544 C   0  0  0  0  0  0  0  0  0  0  0  0
    2.8363   -0.3477   -2.4947 C   0  0  0  0  0  0  0  0  0  0  0  0
    3.5454   -0.9124   -3.5675 C   0  0  0  0  0  0  0  0  0  0  0  0
    4.6230   -1.7697   -3.3388 C   0  0  0  0  0  0  0  0  0  0  0  0
    5.3162   -2.4003   -4.4512 C   0  0  0  0  0  0  0  0  0  0  0  0
    5.1192   -2.3054   -5.7494 N   0  0  0  0  0  0  0  0  0  0  0  0
    6.0174   -3.1717   -6.3420 N   0  0  0  0  0  0  0  0  0  0  0  0
    6.7068   -3.7395   -5.3678 C   0  0  0  0  0  0  0  0  0  0  0  0
    7.7245   -4.7282   -5.5704 C   0  0  0  0  0  0  0  0  0  0  0  0
    8.1239   -5.2751   -6.7745 C   0  0  0  0  0  0  0  0  0  0  0  0
    9.1596   -6.2435   -6.6180 C   0  0  0  0  0  0  0  0  0  0  0  0
    9.5172   -6.4042   -5.2990 C   0  0  0  0  0  0  0  0  0  0  0  0
    8.6078   -5.3941   -4.2610 S   0  0  0  0  0  0  0  0  0  0  0  0
    6.3148   -3.2801   -4.1353 O   0  0  0  0  0  0  0  0  0  0  0  0
    4.9884   -2.0222   -2.0155 C   0  0  0  0  0  0  0  0  0  0  0  0
    4.2756   -1.4529   -0.9522 C   0  0  0  0  0  0  0  0  0  0  0  0
    0.8020    1.0441    0.6313 H   0  0  0  0  0  0  0  0  0  0  0  0
    0.5276    0.2259   -0.8989 H   0  0  0  0  0  0  0  0  0  0  0  0
    1.5568    1.6863   -0.8254 H   0  0  0  0  0  0  0  0  0  0  0  0
    2.2340    0.2083    2.0059 H   0  0  0  0  0  0  0  0  0  0  0  0
    3.8953    0.0510    1.4508 H   0  0  0  0  0  0  0  0  0  0  0  0
    2.8253   -1.3791    1.5286 H   0  0  0  0  0  0  0  0  0  0  0  0
    2.0034    0.3032   -2.7418 H   0  0  0  0  0  0  0  0  0  0  0  0
    3.2322   -0.6816   -4.5844 H   0  0  0  0  0  0  0  0  0  0  0  0
    7.6875   -4.9942   -7.7264 H   0  0  0  0  0  0  0  0  0  0  0  0
    9.6146   -6.7927   -7.4332 H   0  0  0  0  0  0  0  0  0  0  0  0
   10.2685   -7.0675   -4.8921 H   0  0  0  0  0  0  0  0  0  0  0  0
    5.8254   -2.6777   -1.7830 H   0  0  0  0  0  0  0  0  0  0  0  0
    4.6087   -1.7070    0.0497 H   0  0  0  0  0  0  0  0  0  0  0  0
  1  2  1  0  0  0  0
  1 20  1  0  0  0  0
  1 21  1  0  0  0  0
  1 22  1  0  0  0  0
  2  3  1  0  0  0  0
  2  4  1  0  0  0  0
  3 23  1  0  0  0  0
  3 24  1  0  0  0  0
  3 25  1  0  0  0  0
  4  5  1  0  0  0  0
  4 19  2  0  0  0  0
  5  6  2  0  0  0  0
  5 26  1  0  0  0  0
  6  7  1  0  0  0  0
  6 27  1  0  0  0  0
  7  8  1  0  0  0  0
  7 18  2  0  0  0  0
  8  9  2  0  0  0  0
  8 17  1  0  0  0  0
  9 10  1  0  0  0  0
 10 11  2  0  0  0  0
 11 12  1  0  0  0  0
 11 17  1  0  0  0  0
 12 13  2  0  0  0  0
 12 16  1  0  0  0  0
 13 14  1  0  0  0  0
 13 28  1  0  0  0  0
 14 15  2  0  0  0  0
 14 29  1  0  0  0  0
 15 16  1  0  0  0  0
 15 30  1  0  0  0  0
 18 19  1  0  0  0  0
 18 31  1  0  0  0  0
 19 32  1  0  0  0  0
M  END
>  <Energy>
48.2452

$$$$

 OpenBabel04232616063D

 31 33  0  0  0  0  0  0  0  0999 V2000
    1.1379    0.2609    0.0464 C   0  0  0  0  0  0  0  0  0  0  0  0
    2.6128    0.1062    0.0970 C   0  0  0  0  0  0  0  0  0  0  0  0
    3.4107   -1.0297    0.0927 C   0  0  0  0  0  0  0  0  0  0  0  0
    3.0045   -2.4262    0.1324 C   0  0  0  0  0  0  0  0  0  0  0  0
    3.7736   -3.3800   -0.5531 C   0  0  0  0  0  0  0  0  0  0  0  0
    3.4112   -4.7295   -0.5525 C   0  0  0  0  0  0  0  0  0  0  0  0
    2.2740   -5.1433    0.1364 C   0  0  0  0  0  0  0  0  0  0  0  0
    1.5126   -4.2124    0.8392 C   0  0  0  0  0  0  0  0  0  0  0  0
    1.8824   -2.8631    0.8469 C   0  0  0  0  0  0  0  0  0  0  0  0
    4.7173   -0.6645   -0.0616 N   0  0  0  0  0  0  0  0  0  0  0  0
    4.7730    0.6515   -0.1489 N   0  0  0  0  0  0  0  0  0  0  0  0
    3.5279    1.1555    0.0138 N   0  0  0  0  0  0  0  0  0  0  0  0
    3.3344    2.5621    0.1117 C   0  0  0  0  0  0  0  0  0  0  0  0
    2.2554    3.1021    0.8274 C   0  0  0  0  0  0  0  0  0  0  0  0
    2.1085    4.4906    0.9335 C   0  0  0  0  0  0  0  0  0  0  0  0
    3.0339    5.3326    0.3292 C   0  0  0  0  0  0  0  0  0  0  0  0
    2.8849    6.6586    0.4352 F   0  0  0  0  0  0  0  0  0  0  0  0
    4.1102    4.8172   -0.3751 C   0  0  0  0  0  0  0  0  0  0  0  0
    4.2611    3.4367   -0.4744 C   0  0  0  0  0  0  0  0  0  0  0  0
    5.2899    2.9853   -1.2051 F   0  0  0  0  0  0  0  0  0  0  0  0
    0.6464   -0.6516   -0.3009 H   0  0  0  0  0  0  0  0  0  0  0  0
    0.8465    1.0483   -0.6581 H   0  0  0  0  0  0  0  0  0  0  0  0
    0.7335    0.4937    1.0353 H   0  0  0  0  0  0  0  0  0  0  0  0
    4.6658   -3.0755   -1.0988 H   0  0  0  0  0  0  0  0  0  0  0  0
    4.0179   -5.4534   -1.0905 H   0  0  0  0  0  0  0  0  0  0  0  0
    1.9875   -6.1918    0.1321 H   0  0  0  0  0  0  0  0  0  0  0  0
    0.6309   -4.5369    1.3867 H   0  0  0  0  0  0  0  0  0  0  0  0
    1.2860   -2.1680    1.4310 H   0  0  0  0  0  0  0  0  0  0  0  0
    1.5456    2.4827    1.3644 H   0  0  0  0  0  0  0  0  0  0  0  0
    1.2855    4.9199    1.4985 H   0  0  0  0  0  0  0  0  0  0  0  0
    4.8260    5.4796   -0.8479 H   0  0  0  0  0  0  0  0  0  0  0  0
  1  2  1  0  0  0  0
  1 21  1  0  0  0  0
  1 22  1  0  0  0  0
  1 23  1  0  0  0  0
  2  3  2  0  0  0  0
  2 12  1  0  0  0  0
  3  4  1  0  0  0  0
  3 10  1  0  0  0  0
  4  5  1  0  0  0  0
  4  9  2  0  0  0  0
  5  6  2  0  0  0  0
  5 24  1  0  0  0  0
  6  7  1  0  0  0  0
  6 25  1  0  0  0  0
  7  8  2  0  0  0  0
  7 26  1  0  0  0  0
  8  9  1  0  0  0  0
  8 27  1  0  0  0  0
  9 28  1  0  0  0  0
 10 11  2  0  0  0  0
 11 12  1  0  0  0  0
 12 13  1  0  0  0  0
 13 14  1  0  0  0  0
 13 19  2  0  0  0  0
 14 15  2  0  0  0  0
 14 29  1  0  0  0  0
 15 16  1  0  0  0  0
 15 30  1  0  0  0  0
 16 17  1  0  0  0  0
 16 18  2  0  0  0  0
 18 19  1  0  0  0  0
 18 31  1  0  0  0  0
 19 20  1  0  0  0  0
M  END
>  <Energy>
51.0055

$$$$

 OpenBabel04232616063D

 37 39  0  0  0  0  0  0  0  0999 V2000
   -0.7709   -3.0003   -1.7484 C   0  0  0  0  0  0  0  0  0  0  0  0
   -0.9170   -2.0060   -0.6673 C   0  0  0  0  0  0  0  0  0  0  0  0
   -0.0525   -1.4997    0.2798 C   0  0  0  0  0  0  0  0  0  0  0  0
   -0.7963   -0.5672    1.0414 C   0  0  0  0  0  0  0  0  0  0  0  0
   -2.0743   -0.5647    0.5191 C   0  0  0  0  0  0  0  0  0  0  0  0
   -3.3236    0.1819    0.8565 C   0  0  0  0  0  0  0  0  0  0  0  0
   -3.7414    1.0909   -0.2093 N   0  0  0  0  0  0  0  0  0  0  0  0
   -4.9057    1.7519   -0.0274 C   0  0  0  0  0  0  0  0  0  0  0  0
   -5.8587    1.4967    0.8345 N   0  0  0  0  0  0  0  0  0  0  0  0
   -6.8367    2.4188    0.5795 C   0  0  0  0  0  0  0  0  0  0  0  0
   -6.4736    3.3113   -0.4194 C   0  0  0  0  0  0  0  0  0  0  0  0
   -7.2342    4.4323   -0.9807 C   0  0  0  0  0  0  0  0  0  0  0  0
   -6.6322    5.6486   -1.3329 C   0  0  0  0  0  0  0  0  0  0  0  0
   -7.3759    6.6826   -1.9072 C   0  0  0  0  0  0  0  0  0  0  0  0
   -8.7478    6.5356   -2.0978 C   0  0  0  0  0  0  0  0  0  0  0  0
   -9.3748    5.3570   -1.7059 C   0  0  0  0  0  0  0  0  0  0  0  0
   -8.6247    4.3140   -1.1553 C   0  0  0  0  0  0  0  0  0  0  0  0
   -5.2203    2.8560   -0.7996 N   0  0  0  0  0  0  0  0  0  0  0  0
   -4.3248    3.4112   -1.7867 C   0  0  0  0  0  0  0  0  0  0  0  0
   -2.1483   -1.4379   -0.5302 O   0  0  0  0  0  0  0  0  0  0  0  0
    0.2527   -3.3855   -1.7914 H   0  0  0  0  0  0  0  0  0  0  0  0
   -1.0064   -2.5511   -2.7181 H   0  0  0  0  0  0  0  0  0  0  0  0
   -1.4460   -3.8457   -1.5846 H   0  0  0  0  0  0  0  0  0  0  0  0
    0.9869   -1.7713    0.4023 H   0  0  0  0  0  0  0  0  0  0  0  0
   -0.4474    0.0317    1.8701 H   0  0  0  0  0  0  0  0  0  0  0  0
   -3.1489    0.7622    1.7712 H   0  0  0  0  0  0  0  0  0  0  0  0
   -4.1128   -0.5495    1.0729 H   0  0  0  0  0  0  0  0  0  0  0  0
   -3.6794    0.5985   -1.0982 H   0  0  0  0  0  0  0  0  0  0  0  0
   -7.7644    2.4054    1.1382 H   0  0  0  0  0  0  0  0  0  0  0  0
   -5.5717    5.8136   -1.1572 H   0  0  0  0  0  0  0  0  0  0  0  0
   -6.8836    7.6061   -2.2027 H   0  0  0  0  0  0  0  0  0  0  0  0
   -9.3268    7.3405   -2.5406 H   0  0  0  0  0  0  0  0  0  0  0  0
  -10.4490    5.2440   -1.8304 H   0  0  0  0  0  0  0  0  0  0  0  0
   -9.1378    3.3980   -0.8700 H   0  0  0  0  0  0  0  0  0  0  0  0
   -4.8537    4.0782   -2.4655 H   0  0  0  0  0  0  0  0  0  0  0  0
   -3.8956    2.6007   -2.3815 H   0  0  0  0  0  0  0  0  0  0  0  0
   -3.5340    3.9519   -1.2574 H   0  0  0  0  0  0  0  0  0  0  0  0
  1  2  1  0  0  0  0
  1 21  1  0  0  0  0
  1 22  1  0  0  0  0
  1 23  1  0  0  0  0
  2  3  2  0  0  0  0
  2 20  1  0  0  0  0
  3  4  1  0  0  0  0
  3 24  1  0  0  0  0
  4  5  2  0  0  0  0
  4 25  1  0  0  0  0
  5  6  1  0  0  0  0
  5 20  1  0  0  0  0
  6  7  1  0  0  0  0
  6 26  1  0  0  0  0
  6 27  1  0  0  0  0
  7  8  1  0  0  0  0
  7 28  1  0  0  0  0
  8  9  2  0  0  0  0
  8 18  1  0  0  0  0
  9 10  1  0  0  0  0
 10 11  2  0  0  0  0
 10 29  1  0  0  0  0
 11 12  1  0  0  0  0
 11 18  1  0  0  0  0
 12 13  1  0  0  0  0
 12 17  2  0  0  0  0
 13 14  2  0  0  0  0
 13 30  1  0  0  0  0
 14 15  1  0  0  0  0
 14 31  1  0  0  0  0
 15 16  2  0  0  0  0
 15 32  1  0  0  0  0
 16 17  1  0  0  0  0
 16 33  1  0  0  0  0
 17 34  1  0  0  0  0
 18 19  1  0  0  0  0
 19 35  1  0  0  0  0
 19 36  1  0  0  0  0
 19 37  1  0  0  0  0
M  END
>  <Energy>
3.79692

$$$$

 OpenBabel04232616063D

 36 39  0  0  0  0  0  0  0  0999 V2000
   -0.8652    2.2826    2.9669 C   0  0  0  0  0  0  0  0  0  0  0  0
   -1.9432    1.4386    3.2108 C   0  0  0  0  0  0  0  0  0  0  0  0
   -2.6172    0.8369    2.1439 C   0  0  0  0  0  0  0  0  0  0  0  0
   -2.2094    1.0361    0.8192 C   0  0  0  0  0  0  0  0  0  0  0  0
   -2.8976    0.4906   -0.2880 N   0  0  0  0  0  0  0  0  0  0  0  0
   -3.7323   -0.6543   -0.3347 C   0  0  0  0  0  0  0  0  0  0  0  0
   -4.5202   -0.8211   -1.4801 C   0  0  0  0  0  0  0  0  0  0  0  0
   -5.3969   -1.9098   -1.4761 C   0  0  0  0  0  0  0  0  0  0  0  0
   -5.4699   -2.7894   -0.3998 C   0  0  0  0  0  0  0  0  0  0  0  0
   -4.6313   -2.5764    0.6915 C   0  0  0  0  0  0  0  0  0  0  0  0
   -3.7837   -1.5135    0.7082 N   0  0  0  0  0  0  0  0  0  0  0  0
   -6.4223   -3.7578   -0.6188 N   0  0  0  0  0  0  0  0  0  0  0  0
   -6.9348   -3.4746   -1.7938 C   0  0  0  0  0  0  0  0  0  0  0  0
   -6.3287   -2.3886   -2.3641 N   0  0  0  0  0  0  0  0  0  0  0  0
   -6.6965   -1.8061   -3.6442 C   0  0  0  0  0  0  0  0  0  0  0  0
   -5.9444   -2.3200   -4.8390 C   0  0  0  0  0  0  0  0  0  0  0  0
   -5.9701   -3.7832   -5.2143 C   0  0  0  0  0  0  0  0  0  0  0  0
   -4.6806   -3.1476   -4.7713 C   0  0  0  0  0  0  0  0  0  0  0  0
   -1.1459    1.9242    0.5921 C   0  0  0  0  0  0  0  0  0  0  0  0
   -0.4711    2.5335    1.6556 C   0  0  0  0  0  0  0  0  0  0  0  0
   -0.3423    2.7506    3.7960 H   0  0  0  0  0  0  0  0  0  0  0  0
   -2.2708    1.2465    4.2290 H   0  0  0  0  0  0  0  0  0  0  0  0
   -3.4720    0.2056    2.3697 H   0  0  0  0  0  0  0  0  0  0  0  0
   -2.3577    0.5585   -1.1423 H   0  0  0  0  0  0  0  0  0  0  0  0
   -4.4765   -0.1221   -2.3047 H   0  0  0  0  0  0  0  0  0  0  0  0
   -4.6295   -3.2188    1.5621 H   0  0  0  0  0  0  0  0  0  0  0  0
   -7.7365   -4.0194   -2.2753 H   0  0  0  0  0  0  0  0  0  0  0  0
   -6.5540   -0.7224   -3.5593 H   0  0  0  0  0  0  0  0  0  0  0  0
   -7.7719   -1.9722   -3.7845 H   0  0  0  0  0  0  0  0  0  0  0  0
   -6.0294   -1.6165   -5.6627 H   0  0  0  0  0  0  0  0  0  0  0  0
   -6.0756   -4.0364   -6.2642 H   0  0  0  0  0  0  0  0  0  0  0  0
   -6.4275   -4.5045   -4.5472 H   0  0  0  0  0  0  0  0  0  0  0  0
   -3.9196   -2.9765   -5.5261 H   0  0  0  0  0  0  0  0  0  0  0  0
   -4.2740   -3.4566   -3.8152 H   0  0  0  0  0  0  0  0  0  0  0  0
   -0.8259    2.1499   -0.4215 H   0  0  0  0  0  0  0  0  0  0  0  0
    0.3586    3.2065    1.4588 H   0  0  0  0  0  0  0  0  0  0  0  0
  1  2  1  0  0  0  0
  1 20  2  0  0  0  0
  1 21  1  0  0  0  0
  2  3  2  0  0  0  0
  2 22  1  0  0  0  0
  3  4  1  0  0  0  0
  3 23  1  0  0  0  0
  4  5  1  0  0  0  0
  4 19  2  0  0  0  0
  5  6  1  0  0  0  0
  5 24  1  0  0  0  0
  6  7  1  0  0  0  0
  6 11  2  0  0  0  0
  7  8  2  0  0  0  0
  7 25  1  0  0  0  0
  8  9  1  0  0  0  0
  8 14  1  0  0  0  0
  9 10  2  0  0  0  0
  9 12  1  0  0  0  0
 10 11  1  0  0  0  0
 10 26  1  0  0  0  0
 12 13  2  0  0  0  0
 13 14  1  0  0  0  0
 13 27  1  0  0  0  0
 14 15  1  0  0  0  0
 15 16  1  0  0  0  0
 15 28  1  0  0  0  0
 15 29  1  0  0  0  0
 16 17  1  0  0  0  0
 16 18  1  0  0  0  0
 16 30  1  0  0  0  0
 17 18  1  0  0  0  0
 17 31  1  0  0  0  0
 17 32  1  0  0  0  0
 18 33  1  0  0  0  0
 18 34  1  0  0  0  0
 19 20  1  0  0  0  0
 19 35  1  0  0  0  0
 20 36  1  0  0  0  0
M  END
>  <Energy>
53.6395

$$$$

 OpenBabel04232616063D

 29 31  0  0  0  0  0  0  0  0999 V2000
    2.5439   -0.2224    0.1500 C   0  0  0  0  0  0  0  0  0  0  0  0
    1.0645   -0.0525    0.0405 C   0  0  0  0  0  0  0  0  0  0  0  0
    0.5037    1.1125   -0.4641 C   0  0  0  0  0  0  0  0  0  0  0  0
   -0.8805    1.2164   -0.5706 C   0  0  0  0  0  0  0  0  0  0  0  0
   -1.6938    0.1664   -0.1529 C   0  0  0  0  0  0  0  0  0  0  0  0
   -3.0899    0.2038   -0.1802 N   0  0  0  0  0  0  0  0  0  0  0  0
   -3.8536    1.3165   -0.1318 C   0  0  0  0  0  0  0  0  0  0  0  0
   -3.5070    2.5107   -0.5527 N   0  0  0  0  0  0  0  0  0  0  0  0
   -4.4627    3.4475   -0.2448 C   0  0  0  0  0  0  0  0  0  0  0  0
   -4.3663    4.8273   -0.5082 C   0  0  0  0  0  0  0  0  0  0  0  0
   -5.4004    5.6788   -0.1118 C   0  0  0  0  0  0  0  0  0  0  0  0
   -6.5254    5.1681    0.5379 C   0  0  0  0  0  0  0  0  0  0  0  0
   -7.5697    6.0568    0.9480 C   0  0  0  0  0  0  0  0  0  0  0  0
   -8.4167    6.7798    1.2794 N   0  0  0  0  0  0  0  0  0  0  0  0
   -6.6428    3.7944    0.8021 C   0  0  0  0  0  0  0  0  0  0  0  0
   -5.5951    2.9514    0.3956 C   0  0  0  0  0  0  0  0  0  0  0  0
   -5.4335    1.2454    0.5608 S   0  0  0  0  0  0  0  0  0  0  0  0
   -1.1608   -0.9763    0.3332 N   0  0  0  0  0  0  0  0  0  0  0  0
    0.1891   -1.0597    0.4228 C   0  0  0  0  0  0  0  0  0  0  0  0
    3.0733    0.6667   -0.2099 H   0  0  0  0  0  0  0  0  0  0  0  0
    2.8695   -1.0720   -0.4579 H   0  0  0  0  0  0  0  0  0  0  0  0
    2.8341   -0.3869    1.1919 H   0  0  0  0  0  0  0  0  0  0  0  0
    1.1243    1.9463   -0.7806 H   0  0  0  0  0  0  0  0  0  0  0  0
   -1.2954    2.1278   -0.9836 H   0  0  0  0  0  0  0  0  0  0  0  0
   -3.4453   -0.6529    0.2250 H   0  0  0  0  0  0  0  0  0  0  0  0
   -3.4827    5.2153   -1.0063 H   0  0  0  0  0  0  0  0  0  0  0  0
   -5.3114    6.7450   -0.3145 H   0  0  0  0  0  0  0  0  0  0  0  0
   -7.5126    3.3895    1.3131 H   0  0  0  0  0  0  0  0  0  0  0  0
    0.5574   -1.9983    0.8288 H   0  0  0  0  0  0  0  0  0  0  0  0
  1  2  1  0  0  0  0
  1 20  1  0  0  0  0
  1 21  1  0  0  0  0
  1 22  1  0  0  0  0
  2  3  1  0  0  0  0
  2 19  2  0  0  0  0
  3  4  2  0  0  0  0
  3 23  1  0  0  0  0
  4  5  1  0  0  0  0
  4 24  1  0  0  0  0
  5  6  1  0  0  0  0
  5 18  2  0  0  0  0
  6  7  1  0  0  0  0
  6 25  1  0  0  0  0
  7  8  2  0  0  0  0
  7 17  1  0  0  0  0
  8  9  1  0  0  0  0
  9 10  1  0  0  0  0
  9 16  2  0  0  0  0
 10 11  2  0  0  0  0
 10 26  1  0  0  0  0
 11 12  1  0  0  0  0
 11 27  1  0  0  0  0
 12 13  1  0  0  0  0
 12 15  2  0  0  0  0
 13 14  3  0  0  0  0
 15 16  1  0  0  0  0
 15 28  1  0  0  0  0
 16 17  1  0  0  0  0
 18 19  1  0  0  0  0
 19 29  1  0  0  0  0
M  END
>  <Energy>
-11.5694

$$$$

 OpenBabel04232616063D

 33 36  0  0  0  0  0  0  0  0999 V2000
    1.0066   -0.0940   -0.0878 O   0  0  0  0  0  0  0  0  0  0  0  0
    2.2309   -0.0870   -0.0893 C   0  0  0  0  0  0  0  0  0  0  0  0
    2.9765    1.1786   -0.0880 C   0  0  0  0  0  0  0  0  0  0  0  0
    4.3164    1.2499   -0.0757 C   0  0  0  0  0  0  0  0  0  0  0  0
    4.8802    2.6134   -0.0756 C   0  0  0  0  0  0  0  0  0  0  0  0
    5.1886    3.2445    1.1356 C   0  0  0  0  0  0  0  0  0  0  0  0
    5.6257    4.5698    1.1440 C   0  0  0  0  0  0  0  0  0  0  0  0
    5.7630    5.2671   -0.0558 C   0  0  0  0  0  0  0  0  0  0  0  0
    5.4906    4.6333   -1.2677 C   0  0  0  0  0  0  0  0  0  0  0  0
    5.0543    3.3075   -1.2798 C   0  0  0  0  0  0  0  0  0  0  0  0
    5.0762   -0.0078   -0.0587 C   0  0  0  0  0  0  0  0  0  0  0  0
    6.4746   -0.0274   -0.0312 C   0  0  0  0  0  0  0  0  0  0  0  0
    7.1634   -1.2427   -0.0380 C   0  0  0  0  0  0  0  0  0  0  0  0
    6.4663   -2.4520   -0.0661 C   0  0  0  0  0  0  0  0  0  0  0  0
    5.0690   -2.4611   -0.0820 C   0  0  0  0  0  0  0  0  0  0  0  0
    4.3945   -1.2292   -0.0783 C   0  0  0  0  0  0  0  0  0  0  0  0
    2.9793   -1.2490   -0.0948 O   0  0  0  0  0  0  0  0  0  0  0  0
    4.3675   -3.7395   -0.1059 C   0  0  0  0  0  0  0  0  0  0  0  0
    5.0988   -4.8570   -0.0818 C   0  0  0  0  0  0  0  0  0  0  0  0
    6.5946   -4.8526   -0.0364 C   0  0  0  0  0  0  0  0  0  0  0  0
    7.2430   -3.5760   -0.0863 O   0  0  0  0  0  0  0  0  0  0  0  0
    2.3512    2.0658   -0.0954 H   0  0  0  0  0  0  0  0  0  0  0  0
    5.0744    2.7139    2.0782 H   0  0  0  0  0  0  0  0  0  0  0  0
    5.8451    5.0628    2.0876 H   0  0  0  0  0  0  0  0  0  0  0  0
    6.0794    6.3072   -0.0460 H   0  0  0  0  0  0  0  0  0  0  0  0
    5.6044    5.1765   -2.2026 H   0  0  0  0  0  0  0  0  0  0  0  0
    4.8372    2.8265   -2.2311 H   0  0  0  0  0  0  0  0  0  0  0  0
    7.0492    0.8956   -0.0073 H   0  0  0  0  0  0  0  0  0  0  0  0
    8.2507   -1.2477   -0.0228 H   0  0  0  0  0  0  0  0  0  0  0  0
    3.2840   -3.7661   -0.1351 H   0  0  0  0  0  0  0  0  0  0  0  0
    4.6053   -5.8241   -0.0904 H   0  0  0  0  0  0  0  0  0  0  0  0
    6.9772   -5.4388   -0.8792 H   0  0  0  0  0  0  0  0  0  0  0  0
    6.9272   -5.3486    0.8820 H   0  0  0  0  0  0  0  0  0  0  0  0
  1  2  2  0  0  0  0
  2  3  1  0  0  0  0
  2 17  1  0  0  0  0
  3  4  2  0  0  0  0
  3 22  1  0  0  0  0
  4  5  1  0  0  0  0
  4 11  1  0  0  0  0
  5  6  1  0  0  0  0
  5 10  2  0  0  0  0
  6  7  2  0  0  0  0
  6 23  1  0  0  0  0
  7  8  1  0  0  0  0
  7 24  1  0  0  0  0
  8  9  2  0  0  0  0
  8 25  1  0  0  0  0
  9 10  1  0  0  0  0
  9 26  1  0  0  0  0
 10 27  1  0  0  0  0
 11 12  1  0  0  0  0
 11 16  2  0  0  0  0
 12 13  2  0  0  0  0
 12 28  1  0  0  0  0
 13 14  1  0  0  0  0
 13 29  1  0  0  0  0
 14 15  2  0  0  0  0
 14 21  1  0  0  0  0
 15 16  1  0  0  0  0
 15 18  1  0  0  0  0
 16 17  1  0  0  0  0
 18 19  2  0  0  0  0
 18 30  1  0  0  0  0
 19 20  1  0  0  0  0
 19 31  1  0  0  0  0
 20 21  1  0  0  0  0
 20 32  1  0  0  0  0
 20 33  1  0  0  0  0
M  END
>  <Energy>
69.7212

$$$$

 OpenBabel04232616063D

 28 30  0  0  0  0  0  0  0  0999 V2000
    3.1725    0.5761   -1.1079 C   0  0  0  0  0  0  0  0  0  0  0  0
    2.4196   -0.0113    0.0724 C   0  0  0  0  0  0  0  0  0  0  0  0
    2.8882   -1.3396    0.4411 N   0  0  0  0  0  0  0  0  0  0  0  0
    2.3378   -2.5196   -0.0249 C   0  0  0  0  0  0  0  0  0  0  0  0
    1.3394   -2.7612   -0.9854 C   0  0  0  0  0  0  0  0  0  0  0  0
    0.9491   -4.0846   -1.2122 C   0  0  0  0  0  0  0  0  0  0  0  0
    1.5365   -5.1285   -0.5063 C   0  0  0  0  0  0  0  0  0  0  0  0
    1.0142   -6.7456   -0.7878 Cl  0  0  0  0  0  0  0  0  0  0  0  0
    2.5456   -4.8872    0.4277 C   0  0  0  0  0  0  0  0  0  0  0  0
    2.9598   -3.5600    0.6673 C   0  0  0  0  0  0  0  0  0  0  0  0
    3.9536   -2.9825    1.5160 C   0  0  0  0  0  0  0  0  0  0  0  0
    4.8998   -3.5287    2.4080 C   0  0  0  0  0  0  0  0  0  0  0  0
    5.7613   -2.6739    3.0976 C   0  0  0  0  0  0  0  0  0  0  0  0
    6.9299   -3.3397    4.1738 Cl  0  0  0  0  0  0  0  0  0  0  0  0
    5.6917   -1.2953    2.9245 C   0  0  0  0  0  0  0  0  0  0  0  0
    4.7564   -0.7311    2.0521 C   0  0  0  0  0  0  0  0  0  0  0  0
    3.8965   -1.5953    1.3521 C   0  0  0  0  0  0  0  0  0  0  0  0
    2.7212    1.5279   -1.4058 H   0  0  0  0  0  0  0  0  0  0  0  0
    3.1522   -0.0964   -1.9717 H   0  0  0  0  0  0  0  0  0  0  0  0
    4.2205    0.7641   -0.8531 H   0  0  0  0  0  0  0  0  0  0  0  0
    1.3502   -0.0814   -0.1539 H   0  0  0  0  0  0  0  0  0  0  0  0
    2.5099    0.6371    0.9501 H   0  0  0  0  0  0  0  0  0  0  0  0
    0.8759   -1.9526   -1.5421 H   0  0  0  0  0  0  0  0  0  0  0  0
    0.1738   -4.2913   -1.9460 H   0  0  0  0  0  0  0  0  0  0  0  0
    3.0058   -5.7091    0.9677 H   0  0  0  0  0  0  0  0  0  0  0  0
    4.9612   -4.6044    2.5478 H   0  0  0  0  0  0  0  0  0  0  0  0
    6.3709   -0.6445    3.4709 H   0  0  0  0  0  0  0  0  0  0  0  0
    4.7106    0.3460    1.9237 H   0  0  0  0  0  0  0  0  0  0  0  0
  1  2  1  0  0  0  0
  1 18  1  0  0  0  0
  1 19  1  0  0  0  0
  1 20  1  0  0  0  0
  2  3  1  0  0  0  0
  2 21  1  0  0  0  0
  2 22  1  0  0  0  0
  3  4  1  0  0  0  0
  3 17  1  0  0  0  0
  4  5  1  0  0  0  0
  4 10  2  0  0  0  0
  5  6  2  0  0  0  0
  5 23  1  0  0  0  0
  6  7  1  0  0  0  0
  6 24  1  0  0  0  0
  7  8  1  0  0  0  0
  7  9  2  0  0  0  0
  9 10  1  0  0  0  0
  9 25  1  0  0  0  0
 10 11  1  0  0  0  0
 11 12  1  0  0  0  0
 11 17  2  0  0  0  0
 12 13  2  0  0  0  0
 12 26  1  0  0  0  0
 13 14  1  0  0  0  0
 13 15  1  0  0  0  0
 15 16  2  0  0  0  0
 15 27  1  0  0  0  0
 16 17  1  0  0  0  0
 16 28  1  0  0  0  0
M  END
>  <Energy>
22.1906

$$$$

 OpenBabel04232616063D

 33 36  0  0  0  0  0  0  0  0999 V2000
    1.4530   -0.8980   -0.0876 O   0  0  0  0  0  0  0  0  0  0  0  0
    2.3159   -0.0335    0.0758 C   0  0  0  0  0  0  0  0  0  0  0  0
    2.7265    0.8032   -1.0446 C   0  0  0  0  0  0  0  0  0  0  0  0
    2.6785    0.5650   -2.4085 C   0  0  0  0  0  0  0  0  0  0  0  0
    3.1880    1.7221   -3.0538 C   0  0  0  0  0  0  0  0  0  0  0  0
    3.4304    2.1156   -4.3818 C   0  0  0  0  0  0  0  0  0  0  0  0
    3.9548    3.3957   -4.6190 C   0  0  0  0  0  0  0  0  0  0  0  0
    4.2315    4.2700   -3.5637 C   0  0  0  0  0  0  0  0  0  0  0  0
    3.9991    3.8955   -2.2374 C   0  0  0  0  0  0  0  0  0  0  0  0
    3.4833    2.6182   -2.0368 C   0  0  0  0  0  0  0  0  0  0  0  0
    3.1997    2.0701   -0.8277 O   0  0  0  0  0  0  0  0  0  0  0  0
    2.9656    0.1639    1.2940 N   0  0  0  0  0  0  0  0  0  0  0  0
    4.1372    1.0303    1.5286 C   0  0  0  0  0  0  0  0  0  0  0  0
    4.6804    0.7075    2.9228 C   0  0  0  0  0  0  0  0  0  0  0  0
    3.5686   -0.1067    3.4975 C   0  0  0  0  0  0  0  0  0  0  0  0
    3.4509   -0.5565    4.8040 C   0  0  0  0  0  0  0  0  0  0  0  0
    2.3560   -1.3555    5.1303 C   0  0  0  0  0  0  0  0  0  0  0  0
    1.4113   -1.7003    4.1527 C   0  0  0  0  0  0  0  0  0  0  0  0
    1.5442   -1.2449    2.8359 C   0  0  0  0  0  0  0  0  0  0  0  0
    2.6271   -0.4419    2.5209 C   0  0  0  0  0  0  0  0  0  0  0  0
    2.3273   -0.3478   -2.8699 H   0  0  0  0  0  0  0  0  0  0  0  0
    3.2180    1.4464   -5.2103 H   0  0  0  0  0  0  0  0  0  0  0  0
    4.1467    3.7133   -5.6416 H   0  0  0  0  0  0  0  0  0  0  0  0
    4.6331    5.2587   -3.7760 H   0  0  0  0  0  0  0  0  0  0  0  0
    4.2051    4.5590   -1.4065 H   0  0  0  0  0  0  0  0  0  0  0  0
    3.8030    2.0736    1.4945 H   0  0  0  0  0  0  0  0  0  0  0  0
    4.8942    0.8711    0.7531 H   0  0  0  0  0  0  0  0  0  0  0  0
    4.8775    1.6175    3.4964 H   0  0  0  0  0  0  0  0  0  0  0  0
    5.5933    0.1066    2.8560 H   0  0  0  0  0  0  0  0  0  0  0  0
    4.1904   -0.2981    5.5547 H   0  0  0  0  0  0  0  0  0  0  0  0
    2.2347   -1.7188    6.1487 H   0  0  0  0  0  0  0  0  0  0  0  0
    0.5637   -2.3267    4.4203 H   0  0  0  0  0  0  0  0  0  0  0  0
    0.7969   -1.5175    2.0989 H   0  0  0  0  0  0  0  0  0  0  0  0
  1  2  2  0  0  0  0
  2  3  1  0  0  0  0
  2 12  1  0  0  0  0
  3  4  2  0  0  0  0
  3 11  1  0  0  0  0
  4  5  1  0  0  0  0
  4 21  1  0  0  0  0
  5  6  1  0  0  0  0
  5 10  2  0  0  0  0
  6  7  2  0  0  0  0
  6 22  1  0  0  0  0
  7  8  1  0  0  0  0
  7 23  1  0  0  0  0
  8  9  2  0  0  0  0
  8 24  1  0  0  0  0
  9 10  1  0  0  0  0
  9 25  1  0  0  0  0
 10 11  1  0  0  0  0
 12 13  1  0  0  0  0
 12 20  1  0  0  0  0
 13 14  1  0  0  0  0
 13 26  1  0  0  0  0
 13 27  1  0  0  0  0
 14 15  1  0  0  0  0
 14 28  1  0  0  0  0
 14 29  1  0  0  0  0
 15 16  1  0  0  0  0
 15 20  2  0  0  0  0
 16 17  2  0  0  0  0
 16 30  1  0  0  0  0
 17 18  1  0  0  0  0
 17 31  1  0  0  0  0
 18 19  2  0  0  0  0
 18 32  1  0  0  0  0
 19 20  1  0  0  0  0
 19 33  1  0  0  0  0
M  END
>  <Energy>
54.0912

$$$$

 OpenBabel04232616063D

 38 39  0  0  0  0  0  0  0  0999 V2000
    1.5979    0.7051   -0.7621 C   0  0  0  0  0  0  0  0  0  0  0  0
    2.7767    0.1638   -0.1750 O   0  0  0  0  0  0  0  0  0  0  0  0
    3.1767   -1.0694   -0.6168 C   0  0  0  0  0  0  0  0  0  0  0  0
    2.8063   -1.5949   -1.8655 C   0  0  0  0  0  0  0  0  0  0  0  0
    3.3063   -2.8239   -2.3088 C   0  0  0  0  0  0  0  0  0  0  0  0
    4.1949   -3.5410   -1.5181 C   0  0  0  0  0  0  0  0  0  0  0  0
    4.5717   -3.0326   -0.2776 C   0  0  0  0  0  0  0  0  0  0  0  0
    4.0602   -1.8053    0.1877 C   0  0  0  0  0  0  0  0  0  0  0  0
    4.5450   -1.3778    1.5287 C   0  0  0  0  0  0  0  0  0  0  0  0
    5.6369   -1.7503    1.9440 O   0  0  0  0  0  0  0  0  0  0  0  0
    3.5813   -0.6755    2.2339 O   0  0  0  0  0  0  0  0  0  0  0  0
    3.8049   -0.3068    3.5837 C   0  0  0  0  0  0  0  0  0  0  0  0
    5.0602    0.0024    4.1007 C   0  0  0  0  0  0  0  0  0  0  0  0
    5.1981    0.3246    5.4540 C   0  0  0  0  0  0  0  0  0  0  0  0
    4.0814    0.3766    6.3015 C   0  0  0  0  0  0  0  0  0  0  0  0
    4.2706    0.7175    7.7704 C   0  0  0  0  0  0  0  0  0  0  0  0
    3.5408    2.0071    8.1532 C   0  0  0  0  0  0  0  0  0  0  0  0
    3.8480   -0.4367    8.6837 C   0  0  0  0  0  0  0  0  0  0  0  0
    2.8161    0.1095    5.7525 C   0  0  0  0  0  0  0  0  0  0  0  0
    2.6776   -0.2288    4.4000 C   0  0  0  0  0  0  0  0  0  0  0  0
    1.3545    1.6310   -0.2327 H   0  0  0  0  0  0  0  0  0  0  0  0
    0.7526    0.0182   -0.6470 H   0  0  0  0  0  0  0  0  0  0  0  0
    1.7560    0.9641   -1.8142 H   0  0  0  0  0  0  0  0  0  0  0  0
    2.1449   -1.0581   -2.5389 H   0  0  0  0  0  0  0  0  0  0  0  0
    3.0129   -3.2116   -3.2817 H   0  0  0  0  0  0  0  0  0  0  0  0
    4.6006   -4.4880   -1.8648 H   0  0  0  0  0  0  0  0  0  0  0  0
    5.2753   -3.5974    0.3325 H   0  0  0  0  0  0  0  0  0  0  0  0
    5.9492   -0.0124    3.4776 H   0  0  0  0  0  0  0  0  0  0  0  0
    6.1939    0.5305    5.8400 H   0  0  0  0  0  0  0  0  0  0  0  0
    5.3395    0.8906    7.9537 H   0  0  0  0  0  0  0  0  0  0  0  0
    2.4598    1.9298    7.9966 H   0  0  0  0  0  0  0  0  0  0  0  0
    3.9061    2.8512    7.5576 H   0  0  0  0  0  0  0  0  0  0  0  0
    3.7079    2.2463    9.2090 H   0  0  0  0  0  0  0  0  0  0  0  0
    2.7828   -0.6698    8.5850 H   0  0  0  0  0  0  0  0  0  0  0  0
    4.0382   -0.1859    9.7332 H   0  0  0  0  0  0  0  0  0  0  0  0
    4.4137   -1.3461    8.4515 H   0  0  0  0  0  0  0  0  0  0  0  0
    1.9265    0.1561    6.3756 H   0  0  0  0  0  0  0  0  0  0  0  0
    1.6920   -0.4386    3.9942 H   0  0  0  0  0  0  0  0  0  0  0  0
  1  2  1  0  0  0  0
  1 21  1  0  0  0  0
  1 22  1  0  0  0  0
  1 23  1  0  0  0  0
  2  3  1  0  0  0  0
  3  4  1  0  0  0  0
  3  8  2  0  0  0  0
  4  5  2  0  0  0  0
  4 24  1  0  0  0  0
  5  6  1  0  0  0  0
  5 25  1  0  0  0  0
  6  7  2  0  0  0  0
  6 26  1  0  0  0  0
  7  8  1  0  0  0  0
  7 27  1  0  0  0  0
  8  9  1  0  0  0  0
  9 10  2  0  0  0  0
  9 11  1  0  0  0  0
 11 12  1  0  0  0  0
 12 13  1  0  0  0  0
 12 20  2  0  0  0  0
 13 14  2  0  0  0  0
 13 28  1  0  0  0  0
 14 15  1  0  0  0  0
 14 29  1  0  0  0  0
 15 16  1  0  0  0  0
 15 19  2  0  0  0  0
 16 17  1  0  0  0  0
 16 18  1  0  0  0  0
 16 30  1  0  0  0  0
 17 31  1  0  0  0  0
 17 32  1  0  0  0  0
 17 33  1  0  0  0  0
 18 34  1  0  0  0  0
 18 35  1  0  0  0  0
 18 36  1  0  0  0  0
 19 20  1  0  0  0  0
 19 37  1  0  0  0  0
 20 38  1  0  0  0  0
M  END
>  <Energy>
83.8551

$$$$

 OpenBabel04232616063D

 36 39  0  0  0  0  0  0  0  0999 V2000
    1.8972   -1.0018   -0.6004 C   0  0  0  0  0  0  0  0  0  0  0  0
    3.3514   -0.6428   -0.5058 C   0  0  0  0  0  0  0  0  0  0  0  0
    3.7439    0.6881   -0.3620 C   0  0  0  0  0  0  0  0  0  0  0  0
    5.0850    0.9990   -0.1517 C   0  0  0  0  0  0  0  0  0  0  0  0
    6.0394   -0.0243   -0.0446 C   0  0  0  0  0  0  0  0  0  0  0  0
    7.3560    0.2716    0.3091 C   0  0  0  0  0  0  0  0  0  0  0  0
    8.1983   -0.7897    0.5539 C   0  0  0  0  0  0  0  0  0  0  0  0
    7.7759   -2.0964    0.3367 C   0  0  0  0  0  0  0  0  0  0  0  0
    6.5441   -2.4052   -0.0894 N   0  0  0  0  0  0  0  0  0  0  0  0
    5.6687   -1.3833   -0.2200 C   0  0  0  0  0  0  0  0  0  0  0  0
    4.3270   -1.6547   -0.4612 C   0  0  0  0  0  0  0  0  0  0  0  0
    8.7424   -3.0553    0.7755 N   0  0  0  0  0  0  0  0  0  0  0  0
    9.4031   -3.7116   -0.3625 C   0  0  0  0  0  0  0  0  0  0  0  0
   10.3917   -4.7562    0.0672 C   0  0  0  0  0  0  0  0  0  0  0  0
   10.2612   -6.0745    0.4435 C   0  0  0  0  0  0  0  0  0  0  0  0
   11.5446   -6.4979    0.8706 C   0  0  0  0  0  0  0  0  0  0  0  0
   12.3771   -5.4148    0.7149 C   0  0  0  0  0  0  0  0  0  0  0  0
   11.6922   -4.3561    0.2107 O   0  0  0  0  0  0  0  0  0  0  0  0
    9.6122   -2.2242    1.6352 C   0  0  0  0  0  0  0  0  0  0  0  0
    9.5777   -0.7920    1.0984 C   0  0  0  0  0  0  0  0  0  0  0  0
    1.2904   -0.1353   -0.8839 H   0  0  0  0  0  0  0  0  0  0  0  0
    1.5432   -1.3624    0.3717 H   0  0  0  0  0  0  0  0  0  0  0  0
    1.7370   -1.7806   -1.3514 H   0  0  0  0  0  0  0  0  0  0  0  0
    3.0077    1.4889   -0.3801 H   0  0  0  0  0  0  0  0  0  0  0  0
    5.3699    2.0397   -0.0155 H   0  0  0  0  0  0  0  0  0  0  0  0
    7.6872    1.2906    0.4780 H   0  0  0  0  0  0  0  0  0  0  0  0
    4.0270   -2.6963   -0.5617 H   0  0  0  0  0  0  0  0  0  0  0  0
    9.9246   -2.9708   -0.9859 H   0  0  0  0  0  0  0  0  0  0  0  0
    8.6568   -4.1960   -1.0053 H   0  0  0  0  0  0  0  0  0  0  0  0
    9.3426   -6.6425    0.4487 H   0  0  0  0  0  0  0  0  0  0  0  0
   11.8228   -7.4648    1.2652 H   0  0  0  0  0  0  0  0  0  0  0  0
   13.4248   -5.2409    0.9180 H   0  0  0  0  0  0  0  0  0  0  0  0
   10.6372   -2.5974    1.7267 H   0  0  0  0  0  0  0  0  0  0  0  0
    9.1871   -2.2474    2.6497 H   0  0  0  0  0  0  0  0  0  0  0  0
   10.3094   -0.6411    0.2983 H   0  0  0  0  0  0  0  0  0  0  0  0
    9.7292   -0.0578    1.8965 H   0  0  0  0  0  0  0  0  0  0  0  0
  1  2  1  0  0  0  0
  1 21  1  0  0  0  0
  1 22  1  0  0  0  0
  1 23  1  0  0  0  0
  2  3  1  0  0  0  0
  2 11  2  0  0  0  0
  3  4  2  0  0  0  0
  3 24  1  0  0  0  0
  4  5  1  0  0  0  0
  4 25  1  0  0  0  0
  5  6  1  0  0  0  0
  5 10  2  0  0  0  0
  6  7  2  0  0  0  0
  6 26  1  0  0  0  0
  7  8  1  0  0  0  0
  7 20  1  0  0  0  0
  8  9  2  0  0  0  0
  8 12  1  0  0  0  0
  9 10  1  0  0  0  0
 10 11  1  0  0  0  0
 11 27  1  0  0  0  0
 12 13  1  0  0  0  0
 12 19  1  0  0  0  0
 13 14  1  0  0  0  0
 13 28  1  0  0  0  0
 13 29  1  0  0  0  0
 14 15  2  0  0  0  0
 14 18  1  0  0  0  0
 15 16  1  0  0  0  0
 15 30  1  0  0  0  0
 16 17  2  0  0  0  0
 16 31  1  0  0  0  0
 17 18  1  0  0  0  0
 17 32  1  0  0  0  0
 19 20  1  0  0  0  0
 19 33  1  0  0  0  0
 19 34  1  0  0  0  0
 20 35  1  0  0  0  0
 20 36  1  0  0  0  0
M  END
>  <Energy>
29.2606

$$$$

 OpenBabel04232616063D

 32 34  0  0  0  0  0  0  0  0999 V2000
    3.8414    0.7869    0.4986 C   0  0  0  0  0  0  0  0  0  0  0  0
    2.6227    0.0571   -0.0725 C   0  0  0  0  0  0  0  0  0  0  0  0
    1.5220    1.0480   -0.4568 C   0  0  0  0  0  0  0  0  0  0  0  0
    2.9957   -0.8473   -1.2213 C   0  0  0  0  0  0  0  0  0  0  0  0
    3.5674   -0.3127   -2.3071 N   0  0  0  0  0  0  0  0  0  0  0  0
    3.7190   -1.3366   -3.1825 N   0  0  0  0  0  0  0  0  0  0  0  0
    4.2372   -1.2592   -4.4764 C   0  0  0  0  0  0  0  0  0  0  0  0
    4.3286   -2.3598   -5.2387 C   0  0  0  0  0  0  0  0  0  0  0  0
    3.8838   -3.6262   -4.6864 C   0  0  0  0  0  0  0  0  0  0  0  0
    3.3852   -3.7139   -3.4384 C   0  0  0  0  0  0  0  0  0  0  0  0
    3.2742   -2.5392   -2.6293 C   0  0  0  0  0  0  0  0  0  0  0  0
    2.8003   -2.2539   -1.3603 C   0  0  0  0  0  0  0  0  0  0  0  0
    2.2106   -3.2351   -0.4659 C   0  0  0  0  0  0  0  0  0  0  0  0
    2.4012   -3.2045    0.9094 C   0  0  0  0  0  0  0  0  0  0  0  0
    1.7564   -4.1508    1.7032 C   0  0  0  0  0  0  0  0  0  0  0  0
    0.9816   -5.1041    1.0762 C   0  0  0  0  0  0  0  0  0  0  0  0
    0.1612   -6.3179    1.9586 Cl  0  0  0  0  0  0  0  0  0  0  0  0
    0.8246   -5.1446   -0.2579 N   0  0  0  0  0  0  0  0  0  0  0  0
    1.4385   -4.1916   -1.0333 N   0  0  0  0  0  0  0  0  0  0  0  0
    3.5644    1.3684    1.3847 H   0  0  0  0  0  0  0  0  0  0  0  0
    4.2811    1.4761   -0.2310 H   0  0  0  0  0  0  0  0  0  0  0  0
    4.6193    0.0744    0.7958 H   0  0  0  0  0  0  0  0  0  0  0  0
    2.2082   -0.5452    0.7407 H   0  0  0  0  0  0  0  0  0  0  0  0
    1.8365    1.7133   -1.2675 H   0  0  0  0  0  0  0  0  0  0  0  0
    1.2439    1.6689    0.4024 H   0  0  0  0  0  0  0  0  0  0  0  0
    0.6232    0.5160   -0.7887 H   0  0  0  0  0  0  0  0  0  0  0  0
    4.5445   -0.2760   -4.8074 H   0  0  0  0  0  0  0  0  0  0  0  0
    4.7191   -2.3319   -6.2508 H   0  0  0  0  0  0  0  0  0  0  0  0
    3.9620   -4.5110   -5.3119 H   0  0  0  0  0  0  0  0  0  0  0  0
    3.0546   -4.6726   -3.0483 H   0  0  0  0  0  0  0  0  0  0  0  0
    3.0430   -2.4655    1.3765 H   0  0  0  0  0  0  0  0  0  0  0  0
    1.8642   -4.1378    2.7821 H   0  0  0  0  0  0  0  0  0  0  0  0
  1  2  1  0  0  0  0
  1 20  1  0  0  0  0
  1 21  1  0  0  0  0
  1 22  1  0  0  0  0
  2  3  1  0  0  0  0
  2  4  1  0  0  0  0
  2 23  1  0  0  0  0
  3 24  1  0  0  0  0
  3 25  1  0  0  0  0
  3 26  1  0  0  0  0
  4  5  2  0  0  0  0
  4 12  1  0  0  0  0
  5  6  1  0  0  0  0
  6  7  1  0  0  0  0
  6 11  1  0  0  0  0
  7  8  2  0  0  0  0
  7 27  1  0  0  0  0
  8  9  1  0  0  0  0
  8 28  1  0  0  0  0
  9 10  2  0  0  0  0
  9 29  1  0  0  0  0
 10 11  1  0  0  0  0
 10 30  1  0  0  0  0
 11 12  2  0  0  0  0
 12 13  1  0  0  0  0
 13 14  1  0  0  0  0
 13 19  2  0  0  0  0
 14 15  2  0  0  0  0
 14 31  1  0  0  0  0
 15 16  1  0  0  0  0
 15 32  1  0  0  0  0
 16 17  1  0  0  0  0
 16 18  2  0  0  0  0
 18 19  1  0  0  0  0
M  END
>  <Energy>
66.0476

$$$$

 OpenBabel04232616063D

 35 37  0  0  1  0  0  0  0  0999 V2000
    1.1396    0.2301   -0.5288 O   0  0  0  0  0  0  0  0  0  0  0  0
    2.2062   -0.0592    0.0053 C   0  0  0  0  0  0  0  0  0  0  0  0
    2.6892    0.4516    1.1910 N   0  0  0  0  0  0  0  0  0  0  0  0
    2.0779    1.3896    2.0399 C   0  0  0  0  0  0  0  0  0  0  0  0
    0.7575    1.8207    1.8806 C   0  0  0  0  0  0  0  0  0  0  0  0
    0.2032    2.7589    2.7553 C   0  0  0  0  0  0  0  0  0  0  0  0
    0.9649    3.2796    3.7963 C   0  0  0  0  0  0  0  0  0  0  0  0
    2.2811    2.8547    3.9681 C   0  0  0  0  0  0  0  0  0  0  0  0
    2.8326    1.9086    3.0976 C   0  0  0  0  0  0  0  0  0  0  0  0
    3.0840   -0.9816   -0.5649 N   0  0  0  0  0  0  0  0  0  0  0  0
    4.1786   -1.4876    0.1020 N   0  0  0  0  0  0  0  0  0  0  0  0
    4.5975   -2.4754   -0.6203 C   0  0  0  0  0  0  0  0  0  0  0  0
    3.8273   -2.7717   -1.8704 C   0  0  0  0  0  0  0  0  0  0  0  0
    2.8091   -1.6415   -1.8371 C   0  0  3  0  0  0  0  0  0  0  0  0
    2.9325   -0.6941   -3.0175 C   0  0  0  0  0  0  0  0  0  0  0  0
    1.8370   -0.5038   -3.8745 C   0  0  0  0  0  0  0  0  0  0  0  0
    1.9185    0.3813   -4.9510 C   0  0  0  0  0  0  0  0  0  0  0  0
    3.0950    1.0888   -5.1854 C   0  0  0  0  0  0  0  0  0  0  0  0
    4.1893    0.9166   -4.3409 C   0  0  0  0  0  0  0  0  0  0  0  0
    4.1091    0.0336   -3.2622 C   0  0  0  0  0  0  0  0  0  0  0  0
    3.6288    0.1266    1.3947 H   0  0  0  0  0  0  0  0  0  0  0  0
    0.1257    1.4351    1.0876 H   0  0  0  0  0  0  0  0  0  0  0  0
   -0.8263    3.0786    2.6151 H   0  0  0  0  0  0  0  0  0  0  0  0
    0.5328    4.0137    4.4706 H   0  0  0  0  0  0  0  0  0  0  0  0
    2.8790    3.2623    4.7783 H   0  0  0  0  0  0  0  0  0  0  0  0
    3.8622    1.5964    3.2480 H   0  0  0  0  0  0  0  0  0  0  0  0
    5.4577   -3.1008   -0.3425 H   0  0  0  0  0  0  0  0  0  0  0  0
    3.3580   -3.7558   -1.7715 H   0  0  0  0  0  0  0  0  0  0  0  0
    4.4949   -2.7799   -2.7358 H   0  0  0  0  0  0  0  0  0  0  0  0
    1.7914   -2.0514   -1.7924 H   0  0  0  0  0  0  0  0  0  0  0  0
    0.8982   -1.0236   -3.6928 H   0  0  0  0  0  0  0  0  0  0  0  0
    1.0564    0.5307   -5.5960 H   0  0  0  0  0  0  0  0  0  0  0  0
    3.1529    1.7866   -6.0164 H   0  0  0  0  0  0  0  0  0  0  0  0
    5.1011    1.4826   -4.5126 H   0  0  0  0  0  0  0  0  0  0  0  0
    4.9659   -0.0639   -2.5990 H   0  0  0  0  0  0  0  0  0  0  0  0
  1  2  2  0  0  0  0
  2  3  1  0  0  0  0
  2 10  1  0  0  0  0
  3  4  1  0  0  0  0
  3 21  1  0  0  0  0
  4  5  1  0  0  0  0
  4  9  2  0  0  0  0
  5  6  2  0  0  0  0
  5 22  1  0  0  0  0
  6  7  1  0  0  0  0
  6 23  1  0  0  0  0
  7  8  2  0  0  0  0
  7 24  1  0  0  0  0
  8  9  1  0  0  0  0
  8 25  1  0  0  0  0
  9 26  1  0  0  0  0
 10 11  1  0  0  0  0
 10 14  1  0  0  0  0
 11 12  2  0  0  0  0
 12 13  1  0  0  0  0
 12 27  1  0  0  0  0
 13 14  1  0  0  0  0
 13 28  1  0  0  0  0
 13 29  1  0  0  0  0
 14 15  1  0  0  0  0
 14 30  1  0  0  0  0
 15 16  1  0  0  0  0
 15 20  2  0  0  0  0
 16 17  2  0  0  0  0
 16 31  1  0  0  0  0
 17 18  1  0  0  0  0
 17 32  1  0  0  0  0
 18 19  2  0  0  0  0
 18 33  1  0  0  0  0
 19 20  1  0  0  0  0
 19 34  1  0  0  0  0
 20 35  1  0  0  0  0
M  END
>  <Energy>
24.6742

$$$$

 OpenBabel04232616063D

 32 34  0  0  0  0  0  0  0  0999 V2000
    1.0774    0.1774    0.3573 C   0  0  0  0  0  0  0  0  0  0  0  0
    2.3925   -0.1873   -0.0416 O   0  0  0  0  0  0  0  0  0  0  0  0
    3.0516    0.6558   -0.9022 C   0  0  0  0  0  0  0  0  0  0  0  0
    2.6723    1.9941   -1.0865 C   0  0  0  0  0  0  0  0  0  0  0  0
    3.3632    2.8124   -1.9763 C   0  0  0  0  0  0  0  0  0  0  0  0
    4.4672    2.3186   -2.6609 C   0  0  0  0  0  0  0  0  0  0  0  0
    4.8903    0.9995   -2.4592 C   0  0  0  0  0  0  0  0  0  0  0  0
    6.0005    0.4898   -3.0936 O   0  0  0  0  0  0  0  0  0  0  0  0
    7.0181    1.4154   -3.4555 C   0  0  0  0  0  0  0  0  0  0  0  0
    4.1614    0.1330   -1.6082 C   0  0  0  0  0  0  0  0  0  0  0  0
    4.5333   -1.2871   -1.4834 C   0  0  0  0  0  0  0  0  0  0  0  0
    4.4600   -2.1210   -0.4569 N   0  0  0  0  0  0  0  0  0  0  0  0
    4.9344   -3.3085   -0.9510 C   0  0  0  0  0  0  0  0  0  0  0  0
    5.1107   -4.5644   -0.3497 C   0  0  0  0  0  0  0  0  0  0  0  0
    5.6530   -5.5973   -1.1327 C   0  0  0  0  0  0  0  0  0  0  0  0
    6.0042   -5.3768   -2.4667 C   0  0  0  0  0  0  0  0  0  0  0  0
    6.5303   -6.3856   -3.1733 F   0  0  0  0  0  0  0  0  0  0  0  0
    5.8251   -4.1421   -3.0877 C   0  0  0  0  0  0  0  0  0  0  0  0
    5.2838   -3.1542   -2.2817 C   0  0  0  0  0  0  0  0  0  0  0  0
    5.0017   -1.8735   -2.6380 O   0  0  0  0  0  0  0  0  0  0  0  0
    0.6642   -0.6487    0.9442 H   0  0  0  0  0  0  0  0  0  0  0  0
    0.4313    0.3265   -0.5138 H   0  0  0  0  0  0  0  0  0  0  0  0
    1.0847    1.0629    1.0011 H   0  0  0  0  0  0  0  0  0  0  0  0
    1.8371    2.4313   -0.5498 H   0  0  0  0  0  0  0  0  0  0  0  0
    3.0423    3.8396   -2.1325 H   0  0  0  0  0  0  0  0  0  0  0  0
    4.9757    2.9794   -3.3559 H   0  0  0  0  0  0  0  0  0  0  0  0
    7.9183    0.8426   -3.6990 H   0  0  0  0  0  0  0  0  0  0  0  0
    7.2648    2.0890   -2.6280 H   0  0  0  0  0  0  0  0  0  0  0  0
    6.7309    1.9765   -4.3498 H   0  0  0  0  0  0  0  0  0  0  0  0
    4.8372   -4.7227    0.6858 H   0  0  0  0  0  0  0  0  0  0  0  0
    5.8090   -6.5828   -0.7005 H   0  0  0  0  0  0  0  0  0  0  0  0
    6.0938   -3.9678   -4.1202 H   0  0  0  0  0  0  0  0  0  0  0  0
  1  2  1  0  0  0  0
  1 21  1  0  0  0  0
  1 22  1  0  0  0  0
  1 23  1  0  0  0  0
  2  3  1  0  0  0  0
  3  4  1  0  0  0  0
  3 10  2  0  0  0  0
  4  5  2  0  0  0  0
  4 24  1  0  0  0  0
  5  6  1  0  0  0  0
  5 25  1  0  0  0  0
  6  7  2  0  0  0  0
  6 26  1  0  0  0  0
  7  8  1  0  0  0  0
  7 10  1  0  0  0  0
  8  9  1  0  0  0  0
  9 27  1  0  0  0  0
  9 28  1  0  0  0  0
  9 29  1  0  0  0  0
 10 11  1  0  0  0  0
 11 12  2  0  0  0  0
 11 20  1  0  0  0  0
 12 13  1  0  0  0  0
 13 14  1  0  0  0  0
 13 19  2  0  0  0  0
 14 15  2  0  0  0  0
 14 30  1  0  0  0  0
 15 16  1  0  0  0  0
 15 31  1  0  0  0  0
 16 17  1  0  0  0  0
 16 18  2  0  0  0  0
 18 19  1  0  0  0  0
 18 32  1  0  0  0  0
 19 20  1  0  0  0  0
M  END
>  <Energy>
63.6516

$$$$

 OpenBabel04232616063D

 43 45  0  0  0  0  0  0  0  0999 V2000
    0.9114    0.3383    0.1425 C   0  0  0  0  0  0  0  0  0  0  0  0
    2.4293    0.1398    0.1306 C   0  0  0  0  0  0  0  0  0  0  0  0
    3.1248    1.3968   -0.3962 C   0  0  0  0  0  0  0  0  0  0  0  0
    2.9354   -0.2828    1.5080 C   0  0  0  0  0  0  0  0  0  0  0  0
    3.2921    0.7265    2.3558 N   0  0  0  0  0  0  0  0  0  0  0  0
    3.7262    0.4480    3.6084 C   0  0  0  0  0  0  0  0  0  0  0  0
    4.1458    1.4991    4.4413 N   0  0  0  0  0  0  0  0  0  0  0  0
    3.6677    2.8547    4.1384 C   0  0  0  0  0  0  0  0  0  0  0  0
    4.9207    3.6698    3.8448 C   0  0  0  0  0  0  0  0  0  0  0  0
    5.9708    3.0155    4.7202 C   0  0  0  0  0  0  0  0  0  0  0  0
    5.6038    1.5348    4.6730 C   0  0  0  0  0  0  0  0  0  0  0  0
    3.7428   -0.8764    4.0691 C   0  0  0  0  0  0  0  0  0  0  0  0
    4.1360   -1.1602    5.4155 C   0  0  0  0  0  0  0  0  0  0  0  0
    4.4713   -1.4456    6.4931 N   0  0  0  0  0  0  0  0  0  0  0  0
    3.3466   -1.9331    3.2146 C   0  0  0  0  0  0  0  0  0  0  0  0
    2.9777   -1.6367    1.8896 C   0  0  0  0  0  0  0  0  0  0  0  0
    2.5819   -2.7419    0.9332 C   0  0  0  0  0  0  0  0  0  0  0  0
    2.9936   -4.1398    1.3855 C   0  0  0  0  0  0  0  0  0  0  0  0
    2.6075   -4.3474    2.8364 C   0  0  0  0  0  0  0  0  0  0  0  0
    3.3739   -3.3654    3.7175 C   0  0  0  0  0  0  0  0  0  0  0  0
    0.5471    0.5726   -0.8651 H   0  0  0  0  0  0  0  0  0  0  0  0
    0.6166    1.1540    0.8069 H   0  0  0  0  0  0  0  0  0  0  0  0
    0.3899   -0.5678    0.4750 H   0  0  0  0  0  0  0  0  0  0  0  0
    2.6606   -0.6429   -0.5989 H   0  0  0  0  0  0  0  0  0  0  0  0
    2.9077    2.2742    0.2179 H   0  0  0  0  0  0  0  0  0  0  0  0
    2.7936    1.6149   -1.4197 H   0  0  0  0  0  0  0  0  0  0  0  0
    4.2120    1.2576   -0.4224 H   0  0  0  0  0  0  0  0  0  0  0  0
    3.1899    3.2428    5.0468 H   0  0  0  0  0  0  0  0  0  0  0  0
    2.9321    2.9314    3.3320 H   0  0  0  0  0  0  0  0  0  0  0  0
    4.7892    4.7319    4.0799 H   0  0  0  0  0  0  0  0  0  0  0  0
    5.1958    3.5825    2.7886 H   0  0  0  0  0  0  0  0  0  0  0  0
    5.9006    3.3927    5.7476 H   0  0  0  0  0  0  0  0  0  0  0  0
    6.9902    3.2009    4.3642 H   0  0  0  0  0  0  0  0  0  0  0  0
    5.8605    1.0606    5.6262 H   0  0  0  0  0  0  0  0  0  0  0  0
    6.1638    1.0385    3.8716 H   0  0  0  0  0  0  0  0  0  0  0  0
    3.0441   -2.5833   -0.0461 H   0  0  0  0  0  0  0  0  0  0  0  0
    1.4930   -2.7146    0.8055 H   0  0  0  0  0  0  0  0  0  0  0  0
    4.0776   -4.2677    1.2678 H   0  0  0  0  0  0  0  0  0  0  0  0
    2.5116   -4.8911    0.7498 H   0  0  0  0  0  0  0  0  0  0  0  0
    2.8295   -5.3744    3.1467 H   0  0  0  0  0  0  0  0  0  0  0  0
    1.5270   -4.1999    2.9578 H   0  0  0  0  0  0  0  0  0  0  0  0
    4.4225   -3.6825    3.7793 H   0  0  0  0  0  0  0  0  0  0  0  0
    2.9438   -3.4251    4.7241 H   0  0  0  0  0  0  0  0  0  0  0  0
  1  2  1  0  0  0  0
  1 21  1  0  0  0  0
  1 22  1  0  0  0  0
  1 23  1  0  0  0  0
  2  3  1  0  0  0  0
  2  4  1  0  0  0  0
  2 24  1  0  0  0  0
  3 25  1  0  0  0  0
  3 26  1  0  0  0  0
  3 27  1  0  0  0  0
  4  5  1  0  0  0  0
  4 16  2  0  0  0  0
  5  6  2  0  0  0  0
  6  7  1  0  0  0  0
  6 12  1  0  0  0  0
  7  8  1  0  0  0  0
  7 11  1  0  0  0  0
  8  9  1  0  0  0  0
  8 28  1  0  0  0  0
  8 29  1  0  0  0  0
  9 10  1  0  0  0  0
  9 30  1  0  0  0  0
  9 31  1  0  0  0  0
 10 11  1  0  0  0  0
 10 32  1  0  0  0  0
 10 33  1  0  0  0  0
 11 34  1  0  0  0  0
 11 35  1  0  0  0  0
 12 13  1  0  0  0  0
 12 15  2  0  0  0  0
 13 14  3  0  0  0  0
 15 16  1  0  0  0  0
 15 20  1  0  0  0  0
 16 17  1  0  0  0  0
 17 18  1  0  0  0  0
 17 36  1  0  0  0  0
 17 37  1  0  0  0  0
 18 19  1  0  0  0  0
 18 38  1  0  0  0  0
 18 39  1  0  0  0  0
 19 20  1  0  0  0  0
 19 40  1  0  0  0  0
 19 41  1  0  0  0  0
 20 42  1  0  0  0  0
 20 43  1  0  0  0  0
M  END
>  <Energy>
30.8495

$$$$

 OpenBabel04232616063D

 29 31  0  0  0  0  0  0  0  0999 V2000
    1.0820    0.0589    0.1141 C   0  0  0  0  0  0  0  0  0  0  0  0
    2.5261    0.0102    0.1430 N   0  0  0  0  0  0  0  0  0  0  0  0
    3.2113    1.1779    0.1305 N   0  0  0  0  0  0  0  0  0  0  0  0
    4.5034    0.8136    0.0924 C   0  0  0  0  0  0  0  0  0  0  0  0
    5.6536    1.6218    0.0713 C   0  0  0  0  0  0  0  0  0  0  0  0
    6.8483    0.8872    0.0490 C   0  0  0  0  0  0  0  0  0  0  0  0
    6.8384   -0.5233    0.0511 C   0  0  0  0  0  0  0  0  0  0  0  0
    5.7476   -1.3415    0.0645 N   0  0  0  0  0  0  0  0  0  0  0  0
    4.5936   -0.6272    0.0764 C   0  0  0  0  0  0  0  0  0  0  0  0
    3.3089   -1.1221    0.0873 C   0  0  0  0  0  0  0  0  0  0  0  0
    2.7876   -2.3810    0.0758 N   0  0  0  0  0  0  0  0  0  0  0  0
    3.3412   -3.4838   -0.6103 C   0  0  0  0  0  0  0  0  0  0  0  0
    3.1633   -4.7730   -0.0857 C   0  0  0  0  0  0  0  0  0  0  0  0
    3.7262   -5.8850   -0.7177 C   0  0  0  0  0  0  0  0  0  0  0  0
    4.4691   -5.7125   -1.8804 C   0  0  0  0  0  0  0  0  0  0  0  0
    4.9925   -6.7947   -2.4762 F   0  0  0  0  0  0  0  0  0  0  0  0
    4.6658   -4.4428   -2.4111 C   0  0  0  0  0  0  0  0  0  0  0  0
    5.5731   -4.2229   -3.8580 Cl  0  0  0  0  0  0  0  0  0  0  0  0
    4.1108   -3.3327   -1.7743 C   0  0  0  0  0  0  0  0  0  0  0  0
    0.7497    1.1007    0.1012 H   0  0  0  0  0  0  0  0  0  0  0  0
    0.7031   -0.4401    1.0086 H   0  0  0  0  0  0  0  0  0  0  0  0
    0.7376   -0.4498   -0.7902 H   0  0  0  0  0  0  0  0  0  0  0  0
    5.6125    2.7011    0.0729 H   0  0  0  0  0  0  0  0  0  0  0  0
    7.8017    1.4093    0.0316 H   0  0  0  0  0  0  0  0  0  0  0  0
    7.7858   -1.0619    0.0405 H   0  0  0  0  0  0  0  0  0  0  0  0
    1.8546   -2.5707    0.4301 H   0  0  0  0  0  0  0  0  0  0  0  0
    2.6089   -4.9163    0.8388 H   0  0  0  0  0  0  0  0  0  0  0  0
    3.5996   -6.8813   -0.3062 H   0  0  0  0  0  0  0  0  0  0  0  0
    4.2693   -2.3453   -2.1994 H   0  0  0  0  0  0  0  0  0  0  0  0
  1  2  1  0  0  0  0
  1 20  1  0  0  0  0
  1 21  1  0  0  0  0
  1 22  1  0  0  0  0
  2  3  1  0  0  0  0
  2 10  1  0  0  0  0
  3  4  2  0  0  0  0
  4  5  1  0  0  0  0
  4  9  1  0  0  0  0
  5  6  2  0  0  0  0
  5 23  1  0  0  0  0
  6  7  1  0  0  0  0
  6 24  1  0  0  0  0
  7  8  2  0  0  0  0
  7 25  1  0  0  0  0
  8  9  1  0  0  0  0
  9 10  2  0  0  0  0
 10 11  1  0  0  0  0
 11 12  1  0  0  0  0
 11 26  1  0  0  0  0
 12 13  1  0  0  0  0
 12 19  2  0  0  0  0
 13 14  2  0  0  0  0
 13 27  1  0  0  0  0
 14 15  1  0  0  0  0
 14 28  1  0  0  0  0
 15 16  1  0  0  0  0
 15 17  2  0  0  0  0
 17 18  1  0  0  0  0
 17 19  1  0  0  0  0
 19 29  1  0  0  0  0
M  END
>  <Energy>
85.6228

$$$$

 OpenBabel04232616063D

 32 34  0  0  0  0  0  0  0  0999 V2000
    1.0704    0.4181    0.1144 C   0  0  0  0  0  0  0  0  0  0  0  0
    2.5493    0.1701    0.1438 C   0  0  0  0  0  0  0  0  0  0  0  0
    3.2918    1.3330    0.3253 O   0  0  0  0  0  0  0  0  0  0  0  0
    4.6482    1.2657    0.1214 C   0  0  0  0  0  0  0  0  0  0  0  0
    5.3483    2.4638   -0.0089 C   0  0  0  0  0  0  0  0  0  0  0  0
    6.7245    2.4235   -0.2265 C   0  0  0  0  0  0  0  0  0  0  0  0
    7.4561    3.5664   -0.3585 O   0  0  0  0  0  0  0  0  0  0  0  0
    7.4060    1.2121   -0.3172 C   0  0  0  0  0  0  0  0  0  0  0  0
    6.7067    0.0163   -0.1678 C   0  0  0  0  0  0  0  0  0  0  0  0
    5.3290    0.0564    0.0576 C   0  0  0  0  0  0  0  0  0  0  0  0
    4.5609   -1.1781    0.2404 C   0  0  0  0  0  0  0  0  0  0  0  0
    5.1295   -2.2131    0.5570 O   0  0  0  0  0  0  0  0  0  0  0  0
    3.0861   -1.0624    0.0244 C   0  0  0  0  0  0  0  0  0  0  0  0
    2.2971   -2.1794   -0.2506 O   0  0  0  0  0  0  0  0  0  0  0  0
    2.8745   -3.2245   -0.9427 C   0  0  0  0  0  0  0  0  0  0  0  0
    2.6349   -4.5146   -0.4708 C   0  0  0  0  0  0  0  0  0  0  0  0
    3.2920   -5.6002   -1.0556 C   0  0  0  0  0  0  0  0  0  0  0  0
    4.1764   -5.3944   -2.1153 C   0  0  0  0  0  0  0  0  0  0  0  0
    4.3635   -4.1124   -2.6296 C   0  0  0  0  0  0  0  0  0  0  0  0
    3.6887   -3.0296   -2.0647 C   0  0  0  0  0  0  0  0  0  0  0  0
    0.8374    1.4016    0.5373 H   0  0  0  0  0  0  0  0  0  0  0  0
    0.5309   -0.3215    0.7146 H   0  0  0  0  0  0  0  0  0  0  0  0
    0.6923    0.3948   -0.9116 H   0  0  0  0  0  0  0  0  0  0  0  0
    4.8141    3.4061    0.0535 H   0  0  0  0  0  0  0  0  0  0  0  0
    6.8782    4.3321   -0.2075 H   0  0  0  0  0  0  0  0  0  0  0  0
    8.4781    1.1999   -0.4956 H   0  0  0  0  0  0  0  0  0  0  0  0
    7.2286   -0.9364   -0.2307 H   0  0  0  0  0  0  0  0  0  0  0  0
    1.9746   -4.6737    0.3762 H   0  0  0  0  0  0  0  0  0  0  0  0
    3.1393   -6.6021   -0.6639 H   0  0  0  0  0  0  0  0  0  0  0  0
    4.7263   -6.2327   -2.5353 H   0  0  0  0  0  0  0  0  0  0  0  0
    5.0557   -3.9510   -3.4520 H   0  0  0  0  0  0  0  0  0  0  0  0
    3.8487   -2.0367   -2.4724 H   0  0  0  0  0  0  0  0  0  0  0  0
  1  2  1  0  0  0  0
  1 21  1  0  0  0  0
  1 22  1  0  0  0  0
  1 23  1  0  0  0  0
  2  3  1  0  0  0  0
  2 13  2  0  0  0  0
  3  4  1  0  0  0  0
  4  5  1  0  0  0  0
  4 10  2  0  0  0  0
  5  6  2  0  0  0  0
  5 24  1  0  0  0  0
  6  7  1  0  0  0  0
  6  8  1  0  0  0  0
  7 25  1  0  0  0  0
  8  9  2  0  0  0  0
  8 26  1  0  0  0  0
  9 10  1  0  0  0  0
  9 27  1  0  0  0  0
 10 11  1  0  0  0  0
 11 12  2  0  0  0  0
 11 13  1  0  0  0  0
 13 14  1  0  0  0  0
 14 15  1  0  0  0  0
 15 16  1  0  0  0  0
 15 20  2  0  0  0  0
 16 17  2  0  0  0  0
 16 28  1  0  0  0  0
 17 18  1  0  0  0  0
 17 29  1  0  0  0  0
 18 19  2  0  0  0  0
 18 30  1  0  0  0  0
 19 20  1  0  0  0  0
 19 31  1  0  0  0  0
 20 32  1  0  0  0  0
M  END
>  <Energy>
67.1724

$$$$

 OpenBabel04232616063D

 33 36  0  0  0  0  0  0  0  0999 V2000
    1.0132   -0.0698    0.1601 C   0  0  0  0  0  0  0  0  0  0  0  0
    2.4500    0.0176    0.0355 N   0  0  0  0  0  0  0  0  0  0  0  0
    3.1646    1.1957    0.0301 C   0  0  0  0  0  0  0  0  0  0  0  0
    2.7800    2.5420    0.0312 C   0  0  0  0  0  0  0  0  0  0  0  0
    3.7953    3.5058    0.0424 C   0  0  0  0  0  0  0  0  0  0  0  0
    5.1503    3.1494    0.0553 C   0  0  0  0  0  0  0  0  0  0  0  0
    6.1637    4.1217    0.0648 C   0  0  0  0  0  0  0  0  0  0  0  0
    7.5098    3.7501    0.0777 C   0  0  0  0  0  0  0  0  0  0  0  0
    7.8674    2.4021    0.0799 C   0  0  0  0  0  0  0  0  0  0  0  0
    6.8796    1.4171    0.0695 C   0  0  0  0  0  0  0  0  0  0  0  0
    5.5193    1.7811    0.0561 C   0  0  0  0  0  0  0  0  0  0  0  0
    4.4962    0.7942    0.0388 C   0  0  0  0  0  0  0  0  0  0  0  0
    4.5804   -0.5830    0.0279 N   0  0  0  0  0  0  0  0  0  0  0  0
    3.3404   -1.0420   -0.0231 C   0  0  0  0  0  0  0  0  0  0  0  0
    2.9898   -2.4660   -0.0822 C   0  0  0  0  0  0  0  0  0  0  0  0
    3.7333   -3.4092    0.6337 C   0  0  0  0  0  0  0  0  0  0  0  0
    3.3922   -4.7613    0.5796 C   0  0  0  0  0  0  0  0  0  0  0  0
    2.3102   -5.1359   -0.2005 C   0  0  0  0  0  0  0  0  0  0  0  0
    1.5788   -4.2661   -0.9263 N   0  0  0  0  0  0  0  0  0  0  0  0
    1.9507   -2.9625   -0.8642 C   0  0  0  0  0  0  0  0  0  0  0  0
    0.6053    0.8858    0.4962 H   0  0  0  0  0  0  0  0  0  0  0  0
    0.7644   -0.8336    0.9008 H   0  0  0  0  0  0  0  0  0  0  0  0
    0.5942   -0.3136   -0.8183 H   0  0  0  0  0  0  0  0  0  0  0  0
    1.7387    2.8455    0.0204 H   0  0  0  0  0  0  0  0  0  0  0  0
    3.5106    4.5568    0.0406 H   0  0  0  0  0  0  0  0  0  0  0  0
    5.9101    5.1801    0.0644 H   0  0  0  0  0  0  0  0  0  0  0  0
    8.2813    4.5158    0.0841 H   0  0  0  0  0  0  0  0  0  0  0  0
    8.9168    2.1183    0.0880 H   0  0  0  0  0  0  0  0  0  0  0  0
    7.1611    0.3656    0.0698 H   0  0  0  0  0  0  0  0  0  0  0  0
    4.5835   -3.0910    1.2332 H   0  0  0  0  0  0  0  0  0  0  0  0
    3.9607   -5.5029    1.1280 H   0  0  0  0  0  0  0  0  0  0  0  0
    2.0014   -6.1754   -0.2706 H   0  0  0  0  0  0  0  0  0  0  0  0
    1.3643   -2.3160   -1.5095 H   0  0  0  0  0  0  0  0  0  0  0  0
  1  2  1  0  0  0  0
  1 21  1  0  0  0  0
  1 22  1  0  0  0  0
  1 23  1  0  0  0  0
  2  3  1  0  0  0  0
  2 14  1  0  0  0  0
  3  4  1  0  0  0  0
  3 12  2  0  0  0  0
  4  5  2  0  0  0  0
  4 24  1  0  0  0  0
  5  6  1  0  0  0  0
  5 25  1  0  0  0  0
  6  7  1  0  0  0  0
  6 11  2  0  0  0  0
  7  8  2  0  0  0  0
  7 26  1  0  0  0  0
  8  9  1  0  0  0  0
  8 27  1  0  0  0  0
  9 10  2  0  0  0  0
  9 28  1  0  0  0  0
 10 11  1  0  0  0  0
 10 29  1  0  0  0  0
 11 12  1  0  0  0  0
 12 13  1  0  0  0  0
 13 14  2  0  0  0  0
 14 15  1  0  0  0  0
 15 16  1  0  0  0  0
 15 20  2  0  0  0  0
 16 17  2  0  0  0  0
 16 30  1  0  0  0  0
 17 18  1  0  0  0  0
 17 31  1  0  0  0  0
 18 19  2  0  0  0  0
 18 32  1  0  0  0  0
 19 20  1  0  0  0  0
 20 33  1  0  0  0  0
M  END
>  <Energy>
67.5675

$$$$

 OpenBabel04232616063D

 39 41  0  0  0  0  0  0  0  0999 V2000
    0.7770   -1.9162    0.6843 C   0  0  0  0  0  0  0  0  0  0  0  0
    2.2961   -1.9556    0.6849 C   0  0  0  0  0  0  0  0  0  0  0  0
    2.8570   -1.8769   -0.7348 C   0  0  0  0  0  0  0  0  0  0  0  0
    4.3861   -1.9109   -0.7248 C   0  0  0  0  0  0  0  0  0  0  0  0
    4.9562   -1.9343   -2.1515 C   0  0  0  0  0  0  0  0  0  0  0  0
    6.4655   -1.9368   -2.1762 C   0  0  0  0  0  0  0  0  0  0  0  0
    7.2861   -0.7862   -2.7065 C   0  0  0  0  0  0  0  0  0  0  0  0
    6.6233    0.4360   -3.3150 C   0  0  0  0  0  0  0  0  0  0  0  0
    8.5844   -0.7405   -2.7082 N   0  0  0  0  0  0  0  0  0  0  0  0
    9.2617   -1.8043   -2.2024 C   0  0  0  0  0  0  0  0  0  0  0  0
   10.5642   -1.9438   -2.1156 N   0  0  0  0  0  0  0  0  0  0  0  0
   10.7716   -3.1601   -1.5367 C   0  0  0  0  0  0  0  0  0  0  0  0
   11.9963   -3.7695   -1.2193 C   0  0  0  0  0  0  0  0  0  0  0  0
   11.9957   -5.0227   -0.6044 C   0  0  0  0  0  0  0  0  0  0  0  0
   10.7949   -5.6611   -0.3157 C   0  0  0  0  0  0  0  0  0  0  0  0
    9.5615   -5.0763   -0.6383 C   0  0  0  0  0  0  0  0  0  0  0  0
    9.5689   -3.8100   -1.2537 C   0  0  0  0  0  0  0  0  0  0  0  0
    8.5964   -2.9221   -1.7057 N   0  0  0  0  0  0  0  0  0  0  0  0
    7.1883   -2.9831   -1.7180 C   0  0  0  0  0  0  0  0  0  0  0  0
    6.5066   -4.1000   -1.2536 O   0  0  0  0  0  0  0  0  0  0  0  0
    0.3959   -1.9741    1.7086 H   0  0  0  0  0  0  0  0  0  0  0  0
    0.3636   -2.7580    0.1195 H   0  0  0  0  0  0  0  0  0  0  0  0
    0.4098   -0.9875    0.2362 H   0  0  0  0  0  0  0  0  0  0  0  0
    2.6301   -2.8820    1.1669 H   0  0  0  0  0  0  0  0  0  0  0  0
    2.6796   -1.1221    1.2847 H   0  0  0  0  0  0  0  0  0  0  0  0
    2.5140   -0.9554   -1.2194 H   0  0  0  0  0  0  0  0  0  0  0  0
    2.4736   -2.7175   -1.3260 H   0  0  0  0  0  0  0  0  0  0  0  0
    4.7087   -2.7979   -0.1680 H   0  0  0  0  0  0  0  0  0  0  0  0
    4.7715   -1.0391   -0.1818 H   0  0  0  0  0  0  0  0  0  0  0  0
    4.5296   -1.0990   -2.7059 H   0  0  0  0  0  0  0  0  0  0  0  0
    4.5934   -2.8275   -2.6775 H   0  0  0  0  0  0  0  0  0  0  0  0
    5.5389    0.4097   -3.3373 H   0  0  0  0  0  0  0  0  0  0  0  0
    6.9781    0.5487   -4.3455 H   0  0  0  0  0  0  0  0  0  0  0  0
    6.9291    1.3212   -2.7481 H   0  0  0  0  0  0  0  0  0  0  0  0
   12.9262   -3.2600   -1.4503 H   0  0  0  0  0  0  0  0  0  0  0  0
   12.9403   -5.4982   -0.3519 H   0  0  0  0  0  0  0  0  0  0  0  0
   10.8123   -6.6367    0.1684 H   0  0  0  0  0  0  0  0  0  0  0  0
    8.6616   -5.6258   -0.3998 H   0  0  0  0  0  0  0  0  0  0  0  0
    7.0906   -4.6175   -0.6845 H   0  0  0  0  0  0  0  0  0  0  0  0
  1  2  1  0  0  0  0
  1 21  1  0  0  0  0
  1 22  1  0  0  0  0
  1 23  1  0  0  0  0
  2  3  1  0  0  0  0
  2 24  1  0  0  0  0
  2 25  1  0  0  0  0
  3  4  1  0  0  0  0
  3 26  1  0  0  0  0
  3 27  1  0  0  0  0
  4  5  1  0  0  0  0
  4 28  1  0  0  0  0
  4 29  1  0  0  0  0
  5  6  1  0  0  0  0
  5 30  1  0  0  0  0
  5 31  1  0  0  0  0
  6  7  1  0  0  0  0
  6 19  2  0  0  0  0
  7  8  1  0  0  0  0
  7  9  2  0  0  0  0
  8 32  1  0  0  0  0
  8 33  1  0  0  0  0
  8 34  1  0  0  0  0
  9 10  1  0  0  0  0
 10 11  2  0  0  0  0
 10 18  1  0  0  0  0
 11 12  1  0  0  0  0
 12 13  1  0  0  0  0
 12 17  2  0  0  0  0
 13 14  2  0  0  0  0
 13 35  1  0  0  0  0
 14 15  1  0  0  0  0
 14 36  1  0  0  0  0
 15 16  2  0  0  0  0
 15 37  1  0  0  0  0
 16 17  1  0  0  0  0
 16 38  1  0  0  0  0
 17 18  1  0  0  0  0
 18 19  1  0  0  0  0
 19 20  1  0  0  0  0
 20 39  1  0  0  0  0
M  END
>  <Energy>
56.9311

$$$$

 OpenBabel04232616063D

 34 36  0  0  0  0  0  0  0  0999 V2000
    1.0665   -0.0550    0.1277 C   0  0  0  0  0  0  0  0  0  0  0  0
    2.5538   -0.0571    0.1319 C   0  0  0  0  0  0  0  0  0  0  0  0
    3.2850    1.0378    0.0985 N   0  0  0  0  0  0  0  0  0  0  0  0
    4.5810    0.6189    0.0705 C   0  0  0  0  0  0  0  0  0  0  0  0
    5.7452    1.4028    0.0640 C   0  0  0  0  0  0  0  0  0  0  0  0
    6.9902    0.7708    0.0701 C   0  0  0  0  0  0  0  0  0  0  0  0
    7.0727   -0.6182    0.0943 C   0  0  0  0  0  0  0  0  0  0  0  0
    5.9197   -1.4163    0.1053 C   0  0  0  0  0  0  0  0  0  0  0  0
    4.6679   -0.7731    0.0676 C   0  0  0  0  0  0  0  0  0  0  0  0
    3.3379   -1.2121    0.0827 N   0  0  0  0  0  0  0  0  0  0  0  0
    2.8303   -2.5259    0.0804 C   0  0  0  0  0  0  0  0  0  0  0  0
    1.7087   -2.7511    0.5181 O   0  0  0  0  0  0  0  0  0  0  0  0
    3.6679   -3.5674   -0.5546 C   0  0  0  0  0  0  0  0  0  0  0  0
    3.4069   -4.8638   -0.3290 C   0  0  0  0  0  0  0  0  0  0  0  0
    4.1832   -5.8938   -1.0138 C   0  0  0  0  0  0  0  0  0  0  0  0
    5.3945   -6.3435   -0.4788 C   0  0  0  0  0  0  0  0  0  0  0  0
    6.1704   -7.2670   -1.1823 C   0  0  0  0  0  0  0  0  0  0  0  0
    5.7382   -7.7444   -2.4193 C   0  0  0  0  0  0  0  0  0  0  0  0
    4.5232   -7.3113   -2.9484 C   0  0  0  0  0  0  0  0  0  0  0  0
    3.7457   -6.3884   -2.2469 C   0  0  0  0  0  0  0  0  0  0  0  0
    0.6928    0.9735    0.0809 H   0  0  0  0  0  0  0  0  0  0  0  0
    0.6660   -0.5081    1.0386 H   0  0  0  0  0  0  0  0  0  0  0  0
    0.6787   -0.5856   -0.7474 H   0  0  0  0  0  0  0  0  0  0  0  0
    5.6659    2.4843    0.0669 H   0  0  0  0  0  0  0  0  0  0  0  0
    7.8965    1.3717    0.0718 H   0  0  0  0  0  0  0  0  0  0  0  0
    8.0519   -1.0929    0.1162 H   0  0  0  0  0  0  0  0  0  0  0  0
    6.0260   -2.4940    0.1612 H   0  0  0  0  0  0  0  0  0  0  0  0
    4.4359   -3.2601   -1.2544 H   0  0  0  0  0  0  0  0  0  0  0  0
    2.6146   -5.1956    0.3371 H   0  0  0  0  0  0  0  0  0  0  0  0
    5.7452   -5.9757    0.4824 H   0  0  0  0  0  0  0  0  0  0  0  0
    7.1156   -7.6095   -0.7689 H   0  0  0  0  0  0  0  0  0  0  0  0
    6.3486   -8.4544   -2.9718 H   0  0  0  0  0  0  0  0  0  0  0  0
    4.1844   -7.6860   -3.9109 H   0  0  0  0  0  0  0  0  0  0  0  0
    2.8034   -6.0518   -2.6738 H   0  0  0  0  0  0  0  0  0  0  0  0
  1  2  1  0  0  0  0
  1 21  1  0  0  0  0
  1 22  1  0  0  0  0
  1 23  1  0  0  0  0
  2  3  2  0  0  0  0
  2 10  1  0  0  0  0
  3  4  1  0  0  0  0
  4  5  1  0  0  0  0
  4  9  2  0  0  0  0
  5  6  2  0  0  0  0
  5 24  1  0  0  0  0
  6  7  1  0  0  0  0
  6 25  1  0  0  0  0
  7  8  2  0  0  0  0
  7 26  1  0  0  0  0
  8  9  1  0  0  0  0
  8 27  1  0  0  0  0
  9 10  1  0  0  0  0
 10 11  1  0  0  0  0
 11 12  2  0  0  0  0
 11 13  1  0  0  0  0
 13 14  2  0  0  0  0
 13 28  1  0  0  0  0
 14 15  1  0  0  0  0
 14 29  1  0  0  0  0
 15 16  1  0  0  0  0
 15 20  2  0  0  0  0
 16 17  2  0  0  0  0
 16 30  1  0  0  0  0
 17 18  1  0  0  0  0
 17 31  1  0  0  0  0
 18 19  2  0  0  0  0
 18 32  1  0  0  0  0
 19 20  1  0  0  0  0
 19 33  1  0  0  0  0
 20 34  1  0  0  0  0
M  END
>  <Energy>
68.7385

$$$$

 OpenBabel04232616063D

 26 28  0  0  0  0  0  0  0  0999 V2000
    1.7305    1.8744    0.0360 O   0  0  0  0  0  0  0  0  0  0  0  0
    1.3137    0.7223    0.0187 C   0  0  0  0  0  0  0  0  0  0  0  0
    2.1564   -0.3381    0.0144 O   0  0  0  0  0  0  0  0  0  0  0  0
    1.6568   -1.5922   -0.0074 C   0  0  0  0  0  0  0  0  0  0  0  0
    2.7473   -2.6033   -0.0007 C   0  0  0  0  0  0  0  0  0  0  0  0
    4.1023   -2.2411    0.0156 C   0  0  0  0  0  0  0  0  0  0  0  0
    5.0941   -3.2278    0.0351 C   0  0  0  0  0  0  0  0  0  0  0  0
    4.7360   -4.5750    0.0374 C   0  0  0  0  0  0  0  0  0  0  0  0
    5.9577   -5.7850    0.0688 Cl  0  0  0  0  0  0  0  0  0  0  0  0
    3.3940   -4.9474    0.0166 C   0  0  0  0  0  0  0  0  0  0  0  0
    2.4017   -3.9636   -0.0028 C   0  0  0  0  0  0  0  0  0  0  0  0
    0.4070   -1.9195   -0.0261 N   0  0  0  0  0  0  0  0  0  0  0  0
   -0.5227   -0.8851   -0.0186 C   0  0  0  0  0  0  0  0  0  0  0  0
   -1.8853   -1.1880   -0.0286 C   0  0  0  0  0  0  0  0  0  0  0  0
   -2.8377   -0.1662   -0.0153 C   0  0  0  0  0  0  0  0  0  0  0  0
   -2.4300    1.1676    0.0066 C   0  0  0  0  0  0  0  0  0  0  0  0
   -1.0702    1.4772    0.0160 C   0  0  0  0  0  0  0  0  0  0  0  0
   -0.1270    0.4429    0.0044 C   0  0  0  0  0  0  0  0  0  0  0  0
    4.4072   -1.1969    0.0159 H   0  0  0  0  0  0  0  0  0  0  0  0
    6.1419   -2.9377    0.0505 H   0  0  0  0  0  0  0  0  0  0  0  0
    3.1115   -5.9970    0.0175 H   0  0  0  0  0  0  0  0  0  0  0  0
    1.3564   -4.2678   -0.0167 H   0  0  0  0  0  0  0  0  0  0  0  0
   -2.2036   -2.2273   -0.0449 H   0  0  0  0  0  0  0  0  0  0  0  0
   -3.8967   -0.4133   -0.0212 H   0  0  0  0  0  0  0  0  0  0  0  0
   -3.1706    1.9638    0.0171 H   0  0  0  0  0  0  0  0  0  0  0  0
   -0.7484    2.5162    0.0341 H   0  0  0  0  0  0  0  0  0  0  0  0
  1  2  2  0  0  0  0
  2  3  1  0  0  0  0
  2 18  1  0  0  0  0
  3  4  1  0  0  0  0
  4  5  1  0  0  0  0
  4 12  2  0  0  0  0
  5  6  1  0  0  0  0
  5 11  2  0  0  0  0
  6  7  2  0  0  0  0
  6 19  1  0  0  0  0
  7  8  1  0  0  0  0
  7 20  1  0  0  0  0
  8  9  1  0  0  0  0
  8 10  2  0  0  0  0
 10 11  1  0  0  0  0
 10 21  1  0  0  0  0
 11 22  1  0  0  0  0
 12 13  1  0  0  0  0
 13 14  1  0  0  0  0
 13 18  2  0  0  0  0
 14 15  2  0  0  0  0
 14 23  1  0  0  0  0
 15 16  1  0  0  0  0
 15 24  1  0  0  0  0
 16 17  2  0  0  0  0
 16 25  1  0  0  0  0
 17 18  1  0  0  0  0
 17 26  1  0  0  0  0
M  END
>  <Energy>
41.4856

$$$$

 OpenBabel04232616063D

 29 31  0  0  0  0  0  0  0  0999 V2000
    1.1972    0.2790    0.0815 C   0  0  0  0  0  0  0  0  0  0  0  0
    2.6730    0.0417    0.0697 C   0  0  0  0  0  0  0  0  0  0  0  0
    3.7515    1.3706    0.0682 S   0  0  0  0  0  0  0  0  0  0  0  0
    5.1140    0.3544    0.0403 C   0  0  0  0  0  0  0  0  0  0  0  0
    6.3728    0.8460    0.0339 N   0  0  0  0  0  0  0  0  0  0  0  0
    7.2920   -0.0657    0.0477 C   0  0  0  0  0  0  0  0  0  0  0  0
    8.7453    0.2352    0.0601 C   0  0  0  0  0  0  0  0  0  0  0  0
    9.6733   -0.6989    0.5466 C   0  0  0  0  0  0  0  0  0  0  0  0
   11.0364   -0.3997    0.5527 C   0  0  0  0  0  0  0  0  0  0  0  0
   11.4806    0.8312    0.0739 C   0  0  0  0  0  0  0  0  0  0  0  0
   10.5640    1.7667   -0.4067 C   0  0  0  0  0  0  0  0  0  0  0  0
    9.1974    1.4738   -0.4099 C   0  0  0  0  0  0  0  0  0  0  0  0
    7.1190   -1.4122    0.0296 O   0  0  0  0  0  0  0  0  0  0  0  0
    5.8533   -1.9260    0.0126 C   0  0  0  0  0  0  0  0  0  0  0  0
    5.6843   -3.1410   -0.0141 O   0  0  0  0  0  0  0  0  0  0  0  0
    4.7653   -0.9722    0.0348 C   0  0  0  0  0  0  0  0  0  0  0  0
    3.3391   -1.1771    0.0590 C   0  0  0  0  0  0  0  0  0  0  0  0
    2.6396   -2.5005    0.0705 C   0  0  0  0  0  0  0  0  0  0  0  0
    0.9414    1.3432    0.0814 H   0  0  0  0  0  0  0  0  0  0  0  0
    0.7487   -0.1745    0.9718 H   0  0  0  0  0  0  0  0  0  0  0  0
    0.7375   -0.1761   -0.8024 H   0  0  0  0  0  0  0  0  0  0  0  0
    9.3500   -1.6627    0.9331 H   0  0  0  0  0  0  0  0  0  0  0  0
   11.7494   -1.1274    0.9329 H   0  0  0  0  0  0  0  0  0  0  0  0
   12.5434    1.0618    0.0779 H   0  0  0  0  0  0  0  0  0  0  0  0
   10.9150    2.7263   -0.7788 H   0  0  0  0  0  0  0  0  0  0  0  0
    8.4936    2.2131   -0.7868 H   0  0  0  0  0  0  0  0  0  0  0  0
    3.3258   -3.3482    0.0838 H   0  0  0  0  0  0  0  0  0  0  0  0
    2.0082   -2.6001   -0.8185 H   0  0  0  0  0  0  0  0  0  0  0  0
    2.0029   -2.5821    0.9579 H   0  0  0  0  0  0  0  0  0  0  0  0
  1  2  1  0  0  0  0
  1 19  1  0  0  0  0
  1 20  1  0  0  0  0
  1 21  1  0  0  0  0
  2  3  1  0  0  0  0
  2 17  2  0  0  0  0
  3  4  1  0  0  0  0
  4  5  1  0  0  0  0
  4 16  2  0  0  0  0
  5  6  2  0  0  0  0
  6  7  1  0  0  0  0
  6 13  1  0  0  0  0
  7  8  1  0  0  0  0
  7 12  2  0  0  0  0
  8  9  2  0  0  0  0
  8 22  1  0  0  0  0
  9 10  1  0  0  0  0
  9 23  1  0  0  0  0
 10 11  2  0  0  0  0
 10 24  1  0  0  0  0
 11 12  1  0  0  0  0
 11 25  1  0  0  0  0
 12 26  1  0  0  0  0
 13 14  1  0  0  0  0
 14 15  2  0  0  0  0
 14 16  1  0  0  0  0
 16 17  1  0  0  0  0
 17 18  1  0  0  0  0
 18 27  1  0  0  0  0
 18 28  1  0  0  0  0
 18 29  1  0  0  0  0
M  END
>  <Energy>
21.7818

$$$$

 OpenBabel04232616063D

 21 23  0  0  0  0  0  0  0  0999 V2000
   -2.0194   -0.0600   -0.0963 Cl  0  0  0  0  0  0  0  0  0  0  0  0
   -0.3002   -0.0342   -0.0637 C   0  0  0  0  0  0  0  0  0  0  0  0
    0.3746    1.1839   -0.0520 C   0  0  0  0  0  0  0  0  0  0  0  0
    1.7718    1.2012   -0.0198 C   0  0  0  0  0  0  0  0  0  0  0  0
    2.5038    0.0052    0.0118 C   0  0  0  0  0  0  0  0  0  0  0  0
    3.9554    0.0604    0.0706 C   0  0  0  0  0  0  0  0  0  0  0  0
    4.7901   -0.9292    0.5756 C   0  0  0  0  0  0  0  0  0  0  0  0
    6.0393   -0.4074    0.4570 N   0  0  0  0  0  0  0  0  0  0  0  0
    7.2566   -0.8832    0.7964 N   0  0  0  0  0  0  0  0  0  0  0  0
    8.0888    0.0624    0.4649 C   0  0  0  0  0  0  0  0  0  0  0  0
    9.7594   -0.1081    0.7269 Cl  0  0  0  0  0  0  0  0  0  0  0  0
    7.4526    1.5472   -0.2663 S   0  0  0  0  0  0  0  0  0  0  0  0
    5.9139    0.8221   -0.0990 C   0  0  0  0  0  0  0  0  0  0  0  0
    4.6836    1.1686   -0.3468 N   0  0  0  0  0  0  0  0  0  0  0  0
    1.8095   -1.2135   -0.0110 C   0  0  0  0  0  0  0  0  0  0  0  0
    0.4111   -1.2320   -0.0493 C   0  0  0  0  0  0  0  0  0  0  0  0
   -0.1749    2.1211   -0.0661 H   0  0  0  0  0  0  0  0  0  0  0  0
    2.2904    2.1591   -0.0113 H   0  0  0  0  0  0  0  0  0  0  0  0
    4.6127   -1.9010    1.0107 H   0  0  0  0  0  0  0  0  0  0  0  0
    2.3421   -2.1606   -0.0106 H   0  0  0  0  0  0  0  0  0  0  0  0
   -0.1148   -2.1833   -0.0680 H   0  0  0  0  0  0  0  0  0  0  0  0
  1  2  1  0  0  0  0
  2  3  1  0  0  0  0
  2 16  2  0  0  0  0
  3  4  2  0  0  0  0
  3 17  1  0  0  0  0
  4  5  1  0  0  0  0
  4 18  1  0  0  0  0
  5  6  1  0  0  0  0
  5 15  2  0  0  0  0
  6  7  2  0  0  0  0
  6 14  1  0  0  0  0
  7  8  1  0  0  0  0
  7 19  1  0  0  0  0
  8  9  1  0  0  0  0
  8 13  1  0  0  0  0
  9 10  2  0  0  0  0
 10 11  1  0  0  0  0
 10 12  1  0  0  0  0
 12 13  1  0  0  0  0
 13 14  2  0  0  0  0
 15 16  1  0  0  0  0
 15 20  1  0  0  0  0
 16 21  1  0  0  0  0
M  END
>  <Energy>
10.7064

$$$$

 OpenBabel04232616063D

 28 30  0  0  0  0  0  0  0  0999 V2000
    1.1862   -0.4780    0.3314 C   0  0  0  0  0  0  0  0  0  0  0  0
    2.3907    0.0416   -0.2187 O   0  0  0  0  0  0  0  0  0  0  0  0
    2.9950    1.0554    0.4720 C   0  0  0  0  0  0  0  0  0  0  0  0
    2.5080    1.6593    1.6315 C   0  0  0  0  0  0  0  0  0  0  0  0
    3.2279    2.6911    2.2445 C   0  0  0  0  0  0  0  0  0  0  0  0
    4.4553    3.1034    1.7224 C   0  0  0  0  0  0  0  0  0  0  0  0
    5.2108    4.1303    2.2370 O   0  0  0  0  0  0  0  0  0  0  0  0
    5.2637    4.3077    3.6145 C   0  0  0  0  0  0  0  0  0  0  0  0
    5.0648    3.2623    4.4487 N   0  0  0  0  0  0  0  0  0  0  0  0
    5.1343    3.4913    5.7679 C   0  0  0  0  0  0  0  0  0  0  0  0
    5.3988    4.6489    6.3810 N   0  0  0  0  0  0  0  0  0  0  0  0
    5.6307    5.6489    5.5147 C   0  0  0  0  0  0  0  0  0  0  0  0
    6.0182    7.2153    6.0652 S   0  0  0  0  0  0  0  0  0  0  0  0
    6.1561    7.8100    4.4673 C   0  0  0  0  0  0  0  0  0  0  0  0
    5.9022    6.8310    3.5312 C   0  0  0  0  0  0  0  0  0  0  0  0
    5.5914    5.5652    4.1313 C   0  0  0  0  0  0  0  0  0  0  0  0
    4.9285    2.5219    0.5453 C   0  0  0  0  0  0  0  0  0  0  0  0
    4.2016    1.5009   -0.0728 C   0  0  0  0  0  0  0  0  0  0  0  0
    0.8575   -1.3062   -0.3033 H   0  0  0  0  0  0  0  0  0  0  0  0
    0.3954    0.2795    0.3283 H   0  0  0  0  0  0  0  0  0  0  0  0
    1.3484   -0.8762    1.3388 H   0  0  0  0  0  0  0  0  0  0  0  0
    1.5711    1.3562    2.0861 H   0  0  0  0  0  0  0  0  0  0  0  0
    2.8162    3.1566    3.1353 H   0  0  0  0  0  0  0  0  0  0  0  0
    4.9487    2.6372    6.4119 H   0  0  0  0  0  0  0  0  0  0  0  0
    6.4156    8.8455    4.2923 H   0  0  0  0  0  0  0  0  0  0  0  0
    5.9369    7.0058    2.4619 H   0  0  0  0  0  0  0  0  0  0  0  0
    5.8636    2.8582    0.1071 H   0  0  0  0  0  0  0  0  0  0  0  0
    4.5795    1.0479   -0.9863 H   0  0  0  0  0  0  0  0  0  0  0  0
  1  2  1  0  0  0  0
  1 19  1  0  0  0  0
  1 20  1  0  0  0  0
  1 21  1  0  0  0  0
  2  3  1  0  0  0  0
  3  4  1  0  0  0  0
  3 18  2  0  0  0  0
  4  5  2  0  0  0  0
  4 22  1  0  0  0  0
  5  6  1  0  0  0  0
  5 23  1  0  0  0  0
  6  7  1  0  0  0  0
  6 17  2  0  0  0  0
  7  8  1  0  0  0  0
  8  9  1  0  0  0  0
  8 16  2  0  0  0  0
  9 10  2  0  0  0  0
 10 11  1  0  0  0  0
 10 24  1  0  0  0  0
 11 12  2  0  0  0  0
 12 13  1  0  0  0  0
 12 16  1  0  0  0  0
 13 14  1  0  0  0  0
 14 15  2  0  0  0  0
 14 25  1  0  0  0  0
 15 16  1  0  0  0  0
 15 26  1  0  0  0  0
 17 18  1  0  0  0  0
 17 27  1  0  0  0  0
 18 28  1  0  0  0  0
M  END
>  <Energy>
23.0481

$$$$

 OpenBabel04232616063D

 36 37  0  0  0  0  0  0  0  0999 V2000
    3.7956    0.1071   -1.0254 C   0  0  0  0  0  0  0  0  0  0  0  0
    2.6742    0.2317   -0.0075 C   0  0  0  0  0  0  0  0  0  0  0  0
    3.1037   -0.1444    1.3703 C   0  0  0  0  0  0  0  0  0  0  0  0
    3.0067   -1.4147    1.7761 N   0  0  0  0  0  0  0  0  0  0  0  0
    3.4076   -1.3730    3.0513 N   0  0  0  0  0  0  0  0  0  0  0  0
    3.7453   -0.1209    3.5071 C   0  0  0  0  0  0  0  0  0  0  0  0
    4.1127    0.0436    4.9458 C   0  0  0  0  0  0  0  0  0  0  0  0
    3.1564    0.9404    5.7109 C   0  0  0  0  0  0  0  0  0  0  0  0
    3.6175    0.6953    2.3940 C   0  0  0  0  0  0  0  0  0  0  0  0
    3.7919    2.0278    2.2333 O   0  0  0  0  0  0  0  0  0  0  0  0
    4.6319    2.8183    2.9695 C   0  0  0  0  0  0  0  0  0  0  0  0
    5.8283    2.3789    3.5287 C   0  0  0  0  0  0  0  0  0  0  0  0
    6.5667    3.2173    4.3727 C   0  0  0  0  0  0  0  0  0  0  0  0
    7.7271    2.6774    5.1555 C   0  0  0  0  0  0  0  0  0  0  0  0
    6.1647    4.5492    4.5348 C   0  0  0  0  0  0  0  0  0  0  0  0
    5.0247    5.0271    3.8796 C   0  0  0  0  0  0  0  0  0  0  0  0
    4.6363    6.3997    4.0213 C   0  0  0  0  0  0  0  0  0  0  0  0
    4.3269    7.5102    4.1366 N   0  0  0  0  0  0  0  0  0  0  0  0
    4.2520    4.1551    3.1075 C   0  0  0  0  0  0  0  0  0  0  0  0
    3.4284    0.3606   -2.0250 H   0  0  0  0  0  0  0  0  0  0  0  0
    4.1907   -0.9139   -1.0575 H   0  0  0  0  0  0  0  0  0  0  0  0
    4.6237    0.7819   -0.7849 H   0  0  0  0  0  0  0  0  0  0  0  0
    1.8360   -0.4057   -0.3160 H   0  0  0  0  0  0  0  0  0  0  0  0
    2.2947    1.2604   -0.0087 H   0  0  0  0  0  0  0  0  0  0  0  0
    3.4027   -2.2414    3.5757 H   0  0  0  0  0  0  0  0  0  0  0  0
    5.1380    0.4022    5.0572 H   0  0  0  0  0  0  0  0  0  0  0  0
    4.1106   -0.9403    5.4341 H   0  0  0  0  0  0  0  0  0  0  0  0
    3.2033    1.9762    5.3633 H   0  0  0  0  0  0  0  0  0  0  0  0
    3.4143    0.9352    6.7755 H   0  0  0  0  0  0  0  0  0  0  0  0
    2.1227    0.5952    5.6108 H   0  0  0  0  0  0  0  0  0  0  0  0
    6.1690    1.3636    3.3444 H   0  0  0  0  0  0  0  0  0  0  0  0
    7.9384    1.6357    4.8920 H   0  0  0  0  0  0  0  0  0  0  0  0
    7.4882    2.7039    6.2247 H   0  0  0  0  0  0  0  0  0  0  0  0
    8.6288    3.2668    4.9709 H   0  0  0  0  0  0  0  0  0  0  0  0
    6.7417    5.2128    5.1779 H   0  0  0  0  0  0  0  0  0  0  0  0
    3.3471    4.5079    2.6166 H   0  0  0  0  0  0  0  0  0  0  0  0
  1  2  1  0  0  0  0
  1 20  1  0  0  0  0
  1 21  1  0  0  0  0
  1 22  1  0  0  0  0
  2  3  1  0  0  0  0
  2 23  1  0  0  0  0
  2 24  1  0  0  0  0
  3  4  2  0  0  0  0
  3  9  1  0  0  0  0
  4  5  1  0  0  0  0
  5  6  1  0  0  0  0
  5 25  1  0  0  0  0
  6  7  1  0  0  0  0
  6  9  2  0  0  0  0
  7  8  1  0  0  0  0
  7 26  1  0  0  0  0
  7 27  1  0  0  0  0
  8 28  1  0  0  0  0
  8 29  1  0  0  0  0
  8 30  1  0  0  0  0
  9 10  1  0  0  0  0
 10 11  1  0  0  0  0
 11 12  1  0  0  0  0
 11 19  2  0  0  0  0
 12 13  2  0  0  0  0
 12 31  1  0  0  0  0
 13 14  1  0  0  0  0
 13 15  1  0  0  0  0
 14 32  1  0  0  0  0
 14 33  1  0  0  0  0
 14 34  1  0  0  0  0
 15 16  2  0  0  0  0
 15 35  1  0  0  0  0
 16 17  1  0  0  0  0
 16 19  1  0  0  0  0
 17 18  3  0  0  0  0
 19 36  1  0  0  0  0
M  END
>  <Energy>
44.6672

$$$$

 OpenBabel04232616063D

 40 43  0  0  1  0  0  0  0  0999 V2000
    3.1935   -0.6845    1.1751 C   0  0  0  0  0  0  0  0  0  0  0  0
    2.5833    0.0058   -0.0203 C   0  0  0  0  0  0  0  0  0  0  0  0
    1.5277    0.6309    0.0643 O   0  0  0  0  0  0  0  0  0  0  0  0
    3.3142   -0.0963   -1.1801 N   0  0  0  0  0  0  0  0  0  0  0  0
    4.4115   -0.8909   -1.2988 N   0  0  0  0  0  0  0  0  0  0  0  0
    4.7263   -0.8038   -2.5514 C   0  0  0  0  0  0  0  0  0  0  0  0
    5.8546   -1.4928   -3.1937 C   0  0  0  0  0  0  0  0  0  0  0  0
    6.5929   -2.4022   -2.4289 C   0  0  0  0  0  0  0  0  0  0  0  0
    7.6715   -3.0836   -2.9941 C   0  0  0  0  0  0  0  0  0  0  0  0
    8.0308   -2.8601   -4.3294 C   0  0  0  0  0  0  0  0  0  0  0  0
    9.1131   -3.5423   -4.9083 C   0  0  0  0  0  0  0  0  0  0  0  0
    9.4703   -3.3085   -6.2356 C   0  0  0  0  0  0  0  0  0  0  0  0
    8.7536   -2.3919   -6.9985 C   0  0  0  0  0  0  0  0  0  0  0  0
    7.6712   -1.7087   -6.4383 C   0  0  0  0  0  0  0  0  0  0  0  0
    7.2947   -1.9339   -5.1053 C   0  0  0  0  0  0  0  0  0  0  0  0
    6.2034   -1.2572   -4.5270 C   0  0  0  0  0  0  0  0  0  0  0  0
    3.9523   -0.0183   -3.3455 O   0  0  0  0  0  0  0  0  0  0  0  0
    2.9538    0.4978   -2.4513 C   0  0  3  0  0  0  0  0  0  0  0  0
    3.0137    2.0043   -2.4575 C   0  0  0  0  0  0  0  0  0  0  0  0
    4.1470    2.7048   -2.0097 C   0  0  0  0  0  0  0  0  0  0  0  0
    4.1773    4.1013   -2.0350 C   0  0  0  0  0  0  0  0  0  0  0  0
    3.0783    4.8171   -2.5078 C   0  0  0  0  0  0  0  0  0  0  0  0
    1.9461    4.1356   -2.9494 C   0  0  0  0  0  0  0  0  0  0  0  0
    1.9222    2.7427   -2.9208 C   0  0  0  0  0  0  0  0  0  0  0  0
    0.8230    2.1121   -3.3588 F   0  0  0  0  0  0  0  0  0  0  0  0
    2.4983   -0.6462    2.0177 H   0  0  0  0  0  0  0  0  0  0  0  0
    4.1192   -0.1740    1.4574 H   0  0  0  0  0  0  0  0  0  0  0  0
    3.4012   -1.7348    0.9512 H   0  0  0  0  0  0  0  0  0  0  0  0
    6.3354   -2.5910   -1.3890 H   0  0  0  0  0  0  0  0  0  0  0  0
    8.2280   -3.7884   -2.3805 H   0  0  0  0  0  0  0  0  0  0  0  0
    9.6855   -4.2616   -4.3269 H   0  0  0  0  0  0  0  0  0  0  0  0
   10.3102   -3.8432   -6.6721 H   0  0  0  0  0  0  0  0  0  0  0  0
    9.0353   -2.2071   -8.0318 H   0  0  0  0  0  0  0  0  0  0  0  0
    7.1253   -0.9971   -7.0536 H   0  0  0  0  0  0  0  0  0  0  0  0
    5.6335   -0.5467   -5.1208 H   0  0  0  0  0  0  0  0  0  0  0  0
    1.9727    0.1177   -2.7585 H   0  0  0  0  0  0  0  0  0  0  0  0
    5.0118    2.1627   -1.6318 H   0  0  0  0  0  0  0  0  0  0  0  0
    5.0598    4.6300   -1.6825 H   0  0  0  0  0  0  0  0  0  0  0  0
    3.1038    5.9036   -2.5288 H   0  0  0  0  0  0  0  0  0  0  0  0
    1.0806    4.6794   -3.3151 H   0  0  0  0  0  0  0  0  0  0  0  0
  1  2  1  0  0  0  0
  1 26  1  0  0  0  0
  1 27  1  0  0  0  0
  1 28  1  0  0  0  0
  2  3  2  0  0  0  0
  2  4  1  0  0  0  0
  4  5  1  0  0  0  0
  4 18  1  0  0  0  0
  5  6  2  0  0  0  0
  6  7  1  0  0  0  0
  6 17  1  0  0  0  0
  7  8  1  0  0  0  0
  7 16  2  0  0  0  0
  8  9  2  0  0  0  0
  8 29  1  0  0  0  0
  9 10  1  0  0  0  0
  9 30  1  0  0  0  0
 10 11  1  0  0  0  0
 10 15  2  0  0  0  0
 11 12  2  0  0  0  0
 11 31  1  0  0  0  0
 12 13  1  0  0  0  0
 12 32  1  0  0  0  0
 13 14  2  0  0  0  0
 13 33  1  0  0  0  0
 14 15  1  0  0  0  0
 14 34  1  0  0  0  0
 15 16  1  0  0  0  0
 16 35  1  0  0  0  0
 17 18  1  0  0  0  0
 18 19  1  0  0  0  0
 18 36  1  0  0  0  0
 19 20  1  0  0  0  0
 19 24  2  0  0  0  0
 20 21  2  0  0  0  0
 20 37  1  0  0  0  0
 21 22  1  0  0  0  0
 21 38  1  0  0  0  0
 22 23  2  0  0  0  0
 22 39  1  0  0  0  0
 23 24  1  0  0  0  0
 23 40  1  0  0  0  0
 24 25  1  0  0  0  0
M  END
>  <Energy>
68.0326

$$$$

 OpenBabel04232616063D

 33 34  0  0  0  0  0  0  0  0999 V2000
    0.9356   -0.2432   -0.0784 C   0  0  0  0  0  0  0  0  0  0  0  0
    2.4371   -0.0811   -0.0922 C   0  0  0  0  0  0  0  0  0  0  0  0
    3.0879    1.1071   -0.0681 C   0  0  0  0  0  0  0  0  0  0  0  0
    2.4256    2.4638   -0.0257 C   0  0  0  0  0  0  0  0  0  0  0  0
    4.6004    1.2137   -0.0896 C   0  0  0  0  0  0  0  0  0  0  0  0
    5.4985   -0.3122   -0.5499 S   0  3  3  0  0  0  0  0  0  0  0  0
    5.3438   -0.4753   -2.1045 O   0  5  0  0  0  0  0  0  0  0  0  0
    4.5633   -1.3563    0.1780 N   0  0  0  0  0  0  0  0  0  0  0  0
    5.1541   -2.0357    1.5865 S   0  0  0  0  0  0  0  0  0  0  0  0
    6.5885   -1.8641    1.6818 O   0  0  0  0  0  0  0  0  0  0  0  0
    4.2879   -1.6249    2.6739 O   0  0  0  0  0  0  0  0  0  0  0  0
    4.8825   -3.7843    1.3157 C   0  0  0  0  0  0  0  0  0  0  0  0
    5.4905   -4.4092    0.2164 C   0  0  0  0  0  0  0  0  0  0  0  0
    5.3104   -5.7826    0.0231 C   0  0  0  0  0  0  0  0  0  0  0  0
    4.5344   -6.5180    0.9177 C   0  0  0  0  0  0  0  0  0  0  0  0
    4.3312   -8.2106    0.6852 Cl  0  0  0  0  0  0  0  0  0  0  0  0
    3.9275   -5.8921    2.0096 C   0  0  0  0  0  0  0  0  0  0  0  0
    4.1011   -4.5212    2.2096 C   0  0  0  0  0  0  0  0  0  0  0  0
    3.1437   -1.4261   -0.1476 C   0  0  0  0  0  0  0  0  0  0  0  0
    0.3766    0.6928   -0.0964 H   0  0  0  0  0  0  0  0  0  0  0  0
    0.6283   -0.7834    0.8238 H   0  0  0  0  0  0  0  0  0  0  0  0
    0.6150   -0.8212   -0.9514 H   0  0  0  0  0  0  0  0  0  0  0  0
    1.3365    2.4361    0.0189 H   0  0  0  0  0  0  0  0  0  0  0  0
    2.6931    3.0398   -0.9186 H   0  0  0  0  0  0  0  0  0  0  0  0
    2.7652    3.0202    0.8550 H   0  0  0  0  0  0  0  0  0  0  0  0
    4.9633    1.5329    0.8929 H   0  0  0  0  0  0  0  0  0  0  0  0
    4.9100    1.9669   -0.8240 H   0  0  0  0  0  0  0  0  0  0  0  0
    6.1076   -3.8437   -0.4758 H   0  0  0  0  0  0  0  0  0  0  0  0
    5.7866   -6.2726   -0.8255 H   0  0  0  0  0  0  0  0  0  0  0  0
    3.3289   -6.4706    2.7096 H   0  0  0  0  0  0  0  0  0  0  0  0
    3.6391   -4.0427    3.0728 H   0  0  0  0  0  0  0  0  0  0  0  0
    2.6425   -2.1122    0.5458 H   0  0  0  0  0  0  0  0  0  0  0  0
    3.0221   -1.8615   -1.1469 H   0  0  0  0  0  0  0  0  0  0  0  0
  1  2  1  0  0  0  0
  1 20  1  0  0  0  0
  1 21  1  0  0  0  0
  1 22  1  0  0  0  0
  2  3  2  0  0  0  0
  2 19  1  0  0  0  0
  3  4  1  0  0  0  0
  3  5  1  0  0  0  0
  4 23  1  0  0  0  0
  4 24  1  0  0  0  0
  4 25  1  0  0  0  0
  5  6  1  0  0  0  0
  5 26  1  0  0  0  0
  5 27  1  0  0  0  0
  6  7  1  0  0  0  0
  6  8  1  0  0  0  0
  8  9  1  0  0  0  0
  8 19  1  0  0  0  0
  9 10  2  0  0  0  0
  9 11  2  0  0  0  0
  9 12  1  0  0  0  0
 12 13  1  0  0  0  0
 12 18  2  0  0  0  0
 13 14  2  0  0  0  0
 13 28  1  0  0  0  0
 14 15  1  0  0  0  0
 14 29  1  0  0  0  0
 15 16  1  0  0  0  0
 15 17  2  0  0  0  0
 17 18  1  0  0  0  0
 17 30  1  0  0  0  0
 18 31  1  0  0  0  0
 19 32  1  0  0  0  0
 19 33  1  0  0  0  0
M  CHG  2   6   1   7  -1
M  END
>  <Energy>
-8.93096

$$$$

 OpenBabel04232616063D

 31 33  0  0  0  0  0  0  0  0999 V2000
    1.0427    0.0553    0.1020 N   0  0  0  0  0  0  0  0  0  0  0  0
    2.4180    0.0632    0.0088 C   0  0  0  0  0  0  0  0  0  0  0  0
    3.0228    1.2440   -0.0799 N   0  0  0  0  0  0  0  0  0  0  0  0
    4.3624    1.2358   -0.1340 C   0  0  0  0  0  0  0  0  0  0  0  0
    4.9301    2.5034   -0.2876 N   0  0  0  0  0  0  0  0  0  0  0  0
    5.1369    0.0618   -0.1111 C   0  0  0  0  0  0  0  0  0  0  0  0
    6.5628   -0.0401   -0.1125 C   0  0  0  0  0  0  0  0  0  0  0  0
    7.2880    1.1363   -0.0607 O   0  0  0  0  0  0  0  0  0  0  0  0
    8.5245    1.2140   -0.6605 C   0  0  0  0  0  0  0  0  0  0  0  0
    8.8374    0.6238   -1.8854 C   0  0  0  0  0  0  0  0  0  0  0  0
   10.1257    0.7544   -2.4101 C   0  0  0  0  0  0  0  0  0  0  0  0
   11.0887    1.5109   -1.7348 C   0  0  0  0  0  0  0  0  0  0  0  0
   12.6641    1.6180   -2.4345 Cl  0  0  0  0  0  0  0  0  0  0  0  0
   10.7544    2.1496   -0.5354 C   0  0  0  0  0  0  0  0  0  0  0  0
   11.8768    3.1340    0.3348 Cl  0  0  0  0  0  0  0  0  0  0  0  0
    9.4712    2.0010   -0.0019 C   0  0  0  0  0  0  0  0  0  0  0  0
    7.1845   -1.2918   -0.0382 C   0  0  0  0  0  0  0  0  0  0  0  0
    6.4104   -2.4436   -0.0407 C   0  0  0  0  0  0  0  0  0  0  0  0
    5.0205   -2.3391   -0.0570 C   0  0  0  0  0  0  0  0  0  0  0  0
    4.3726   -1.1103   -0.0656 C   0  0  0  0  0  0  0  0  0  0  0  0
    3.0374   -1.1150   -0.0155 N   0  0  0  0  0  0  0  0  0  0  0  0
    0.6653    0.9036   -0.2951 H   0  0  0  0  0  0  0  0  0  0  0  0
    0.6805   -0.8226   -0.2430 H   0  0  0  0  0  0  0  0  0  0  0  0
    4.1915    3.1932   -0.1839 H   0  0  0  0  0  0  0  0  0  0  0  0
    5.7054    2.6503    0.3491 H   0  0  0  0  0  0  0  0  0  0  0  0
    8.0934    0.0564   -2.4391 H   0  0  0  0  0  0  0  0  0  0  0  0
   10.3718    0.2657   -3.3505 H   0  0  0  0  0  0  0  0  0  0  0  0
    9.2057    2.4949    0.9298 H   0  0  0  0  0  0  0  0  0  0  0  0
    8.2648   -1.3850    0.0297 H   0  0  0  0  0  0  0  0  0  0  0  0
    6.8820   -3.4234   -0.0093 H   0  0  0  0  0  0  0  0  0  0  0  0
    4.4203   -3.2480   -0.0396 H   0  0  0  0  0  0  0  0  0  0  0  0
  1  2  1  0  0  0  0
  1 22  1  0  0  0  0
  1 23  1  0  0  0  0
  2  3  1  0  0  0  0
  2 21  2  0  0  0  0
  3  4  2  0  0  0  0
  4  5  1  0  0  0  0
  4  6  1  0  0  0  0
  5 24  1  0  0  0  0
  5 25  1  0  0  0  0
  6  7  1  0  0  0  0
  6 20  2  0  0  0  0
  7  8  1  0  0  0  0
  7 17  2  0  0  0  0
  8  9  1  0  0  0  0
  9 10  1  0  0  0  0
  9 16  2  0  0  0  0
 10 11  2  0  0  0  0
 10 26  1  0  0  0  0
 11 12  1  0  0  0  0
 11 27  1  0  0  0  0
 12 13  1  0  0  0  0
 12 14  2  0  0  0  0
 14 15  1  0  0  0  0
 14 16  1  0  0  0  0
 16 28  1  0  0  0  0
 17 18  1  0  0  0  0
 17 29  1  0  0  0  0
 18 19  2  0  0  0  0
 18 30  1  0  0  0  0
 19 20  1  0  0  0  0
 19 31  1  0  0  0  0
 20 21  1  0  0  0  0
M  END
>  <Energy>
-78.1005

$$$$

 OpenBabel04232616063D

 31 33  0  0  0  0  0  0  0  0999 V2000
    1.1544   -0.0084   -0.0982 N   0  0  0  0  0  0  0  0  0  0  0  0
    2.5320    0.0007   -0.0284 C   0  0  0  0  0  0  0  0  0  0  0  0
    3.1318    1.1867    0.0587 N   0  0  0  0  0  0  0  0  0  0  0  0
    4.4713    1.1818    0.0892 C   0  0  0  0  0  0  0  0  0  0  0  0
    5.0643    2.4489    0.1693 N   0  0  0  0  0  0  0  0  0  0  0  0
    5.2358    0.0130    0.0592 C   0  0  0  0  0  0  0  0  0  0  0  0
    6.6542   -0.0359    0.0684 C   0  0  0  0  0  0  0  0  0  0  0  0
    7.3263   -1.2557   -0.0074 C   0  0  0  0  0  0  0  0  0  0  0  0
    9.0982   -1.3028   -0.1663 S   0  0  0  0  0  0  0  0  0  0  0  0
    9.6348   -1.2771    1.5323 C   0  0  0  0  0  0  0  0  0  0  0  0
    9.3515   -2.3396    2.3954 C   0  0  0  0  0  0  0  0  0  0  0  0
    9.8476   -2.3298    3.6994 C   0  0  0  0  0  0  0  0  0  0  0  0
    9.5017   -3.6491    4.7489 Cl  0  0  0  0  0  0  0  0  0  0  0  0
   10.6312   -1.2738    4.1554 C   0  0  0  0  0  0  0  0  0  0  0  0
   10.9165   -0.2202    3.2920 C   0  0  0  0  0  0  0  0  0  0  0  0
   11.9000    1.0832    3.8364 Cl  0  0  0  0  0  0  0  0  0  0  0  0
   10.4260   -0.2161    1.9856 C   0  0  0  0  0  0  0  0  0  0  0  0
    6.5791   -2.4301   -0.0603 C   0  0  0  0  0  0  0  0  0  0  0  0
    5.1799   -2.3746   -0.0434 C   0  0  0  0  0  0  0  0  0  0  0  0
    4.4920   -1.1676   -0.0003 C   0  0  0  0  0  0  0  0  0  0  0  0
    3.1555   -1.1775   -0.0349 N   0  0  0  0  0  0  0  0  0  0  0  0
    0.7816    0.8412    0.3008 H   0  0  0  0  0  0  0  0  0  0  0  0
    0.7959   -0.8856    0.2513 H   0  0  0  0  0  0  0  0  0  0  0  0
    4.3077    3.1290    0.1346 H   0  0  0  0  0  0  0  0  0  0  0  0
    5.7216    2.5958   -0.5890 H   0  0  0  0  0  0  0  0  0  0  0  0
    7.2223    0.8903    0.1123 H   0  0  0  0  0  0  0  0  0  0  0  0
    8.7608   -3.1851    2.0532 H   0  0  0  0  0  0  0  0  0  0  0  0
   11.0227   -1.2767    5.1688 H   0  0  0  0  0  0  0  0  0  0  0  0
   10.6735    0.6082    1.3205 H   0  0  0  0  0  0  0  0  0  0  0  0
    7.0685   -3.3984   -0.1349 H   0  0  0  0  0  0  0  0  0  0  0  0
    4.6106   -3.3014   -0.0903 H   0  0  0  0  0  0  0  0  0  0  0  0
  1  2  1  0  0  0  0
  1 22  1  0  0  0  0
  1 23  1  0  0  0  0
  2  3  1  0  0  0  0
  2 21  2  0  0  0  0
  3  4  2  0  0  0  0
  4  5  1  0  0  0  0
  4  6  1  0  0  0  0
  5 24  1  0  0  0  0
  5 25  1  0  0  0  0
  6  7  1  0  0  0  0
  6 20  2  0  0  0  0
  7  8  2  0  0  0  0
  7 26  1  0  0  0  0
  8  9  1  0  0  0  0
  8 18  1  0  0  0  0
  9 10  1  0  0  0  0
 10 11  1  0  0  0  0
 10 17  2  0  0  0  0
 11 12  2  0  0  0  0
 11 27  1  0  0  0  0
 12 13  1  0  0  0  0
 12 14  1  0  0  0  0
 14 15  2  0  0  0  0
 14 28  1  0  0  0  0
 15 16  1  0  0  0  0
 15 17  1  0  0  0  0
 17 29  1  0  0  0  0
 18 19  2  0  0  0  0
 18 30  1  0  0  0  0
 19 20  1  0  0  0  0
 19 31  1  0  0  0  0
 20 21  1  0  0  0  0
M  END
>  <Energy>
-118.054

$$$$

 OpenBabel04232616063D

 40 42  0  0  0  0  0  0  0  0999 V2000
    5.6005   -0.9852   -1.8454 C   0  0  0  0  0  0  0  0  0  0  0  0
    4.5946   -0.3662   -0.8504 C   0  0  0  0  0  0  0  0  0  0  0  0
    3.3533    0.0759   -1.6345 C   0  0  0  0  0  0  0  0  0  0  0  0
    4.2212   -1.4262    0.1906 C   0  0  0  0  0  0  0  0  0  0  0  0
    5.2769    0.8422   -0.1782 C   0  0  0  0  0  0  0  0  0  0  0  0
    6.4164    1.1737   -0.5257 O   0  0  0  0  0  0  0  0  0  0  0  0
    4.5660    1.4877    0.8227 N   0  0  0  0  0  0  0  0  0  0  0  0
    5.0366    2.6150    1.5575 C   0  0  0  0  0  0  0  0  0  0  0  0
    6.0697    3.4246    1.0375 C   0  0  0  0  0  0  0  0  0  0  0  0
    6.5215    4.4558    1.8751 C   0  0  0  0  0  0  0  0  0  0  0  0
    7.4902    5.3522    1.6550 N   0  0  0  0  0  0  0  0  0  0  0  0
    7.5394    6.0396    2.8174 N   0  0  0  0  0  0  0  0  0  0  0  0
    8.5229    7.0363    3.0512 C   0  0  0  0  0  0  0  0  0  0  0  0
    9.3947    7.4298    2.0242 C   0  0  0  0  0  0  0  0  0  0  0  0
   10.3711    8.3967    2.2750 C   0  0  0  0  0  0  0  0  0  0  0  0
   10.4896    8.9583    3.5463 C   0  0  0  0  0  0  0  0  0  0  0  0
    9.6241    8.5685    4.5676 C   0  0  0  0  0  0  0  0  0  0  0  0
    8.6353    7.6163    4.3221 C   0  0  0  0  0  0  0  0  0  0  0  0
    6.6147    5.7117    3.7570 N   0  0  0  0  0  0  0  0  0  0  0  0
    5.9465    4.7009    3.1871 C   0  0  0  0  0  0  0  0  0  0  0  0
    4.8744    3.9460    3.6911 C   0  0  0  0  0  0  0  0  0  0  0  0
    4.4455    2.9044    2.8360 C   0  0  0  0  0  0  0  0  0  0  0  0
    3.1529    1.9049    3.4311 Cl  0  0  0  0  0  0  0  0  0  0  0  0
    5.1867   -1.8653   -2.3471 H   0  0  0  0  0  0  0  0  0  0  0  0
    6.5223   -1.2917   -1.3350 H   0  0  0  0  0  0  0  0  0  0  0  0
    5.8860   -0.2623   -2.6205 H   0  0  0  0  0  0  0  0  0  0  0  0
    2.9127   -0.7711   -2.1732 H   0  0  0  0  0  0  0  0  0  0  0  0
    3.6066    0.8433   -2.3751 H   0  0  0  0  0  0  0  0  0  0  0  0
    2.5814    0.4929   -0.9798 H   0  0  0  0  0  0  0  0  0  0  0  0
    3.8635   -2.3423   -0.2922 H   0  0  0  0  0  0  0  0  0  0  0  0
    3.4272   -1.0808    0.8610 H   0  0  0  0  0  0  0  0  0  0  0  0
    5.0854   -1.6874    0.8120 H   0  0  0  0  0  0  0  0  0  0  0  0
    3.7488    1.0205    1.2052 H   0  0  0  0  0  0  0  0  0  0  0  0
    6.5234    3.2937    0.0662 H   0  0  0  0  0  0  0  0  0  0  0  0
    9.3227    6.9997    1.0267 H   0  0  0  0  0  0  0  0  0  0  0  0
   11.0433    8.7093    1.4790 H   0  0  0  0  0  0  0  0  0  0  0  0
   11.2595    9.7004    3.7430 H   0  0  0  0  0  0  0  0  0  0  0  0
    9.7211    9.0025    5.5603 H   0  0  0  0  0  0  0  0  0  0  0  0
    7.9727    7.3213    5.1332 H   0  0  0  0  0  0  0  0  0  0  0  0
    4.4404    4.1453    4.6614 H   0  0  0  0  0  0  0  0  0  0  0  0
  1  2  1  0  0  0  0
  1 24  1  0  0  0  0
  1 25  1  0  0  0  0
  1 26  1  0  0  0  0
  2  3  1  0  0  0  0
  2  4  1  0  0  0  0
  2  5  1  0  0  0  0
  3 27  1  0  0  0  0
  3 28  1  0  0  0  0
  3 29  1  0  0  0  0
  4 30  1  0  0  0  0
  4 31  1  0  0  0  0
  4 32  1  0  0  0  0
  5  6  2  0  0  0  0
  5  7  1  0  0  0  0
  7  8  1  0  0  0  0
  7 33  1  0  0  0  0
  8  9  2  0  0  0  0
  8 22  1  0  0  0  0
  9 10  1  0  0  0  0
  9 34  1  0  0  0  0
 10 11  2  0  0  0  0
 10 20  1  0  0  0  0
 11 12  1  0  0  0  0
 12 13  1  0  0  0  0
 12 19  1  0  0  0  0
 13 14  1  0  0  0  0
 13 18  2  0  0  0  0
 14 15  2  0  0  0  0
 14 35  1  0  0  0  0
 15 16  1  0  0  0  0
 15 36  1  0  0  0  0
 16 17  2  0  0  0  0
 16 37  1  0  0  0  0
 17 18  1  0  0  0  0
 17 38  1  0  0  0  0
 18 39  1  0  0  0  0
 19 20  2  0  0  0  0
 20 21  1  0  0  0  0
 21 22  2  0  0  0  0
 21 40  1  0  0  0  0
 22 23  1  0  0  0  0
M  END
>  <Energy>
55.9083

$$$$

 OpenBabel04232616063D

 38 42  0  0  0  0  0  0  0  0999 V2000
    4.2742   -0.7855   -1.9103 C   0  0  0  0  0  0  0  0  0  0  0  0
    4.3046    0.5864   -1.8322 C   0  0  0  0  0  0  0  0  0  0  0  0
    3.3481    1.3186   -1.2247 N   0  0  0  0  0  0  0  0  0  0  0  0
    2.2815    0.7033   -0.6622 C   0  0  0  0  0  0  0  0  0  0  0  0
    2.1988   -0.7094   -0.6647 C   0  0  0  0  0  0  0  0  0  0  0  0
    3.2104   -1.4425   -1.3061 C   0  0  0  0  0  0  0  0  0  0  0  0
    1.1290   -1.3732   -0.0413 C   0  0  0  0  0  0  0  0  0  0  0  0
    0.1232   -0.6526    0.5895 C   0  0  0  0  0  0  0  0  0  0  0  0
    0.1676    0.7378    0.5785 C   0  0  0  0  0  0  0  0  0  0  0  0
    1.2240    1.4140   -0.0617 C   0  0  0  0  0  0  0  0  0  0  0  0
    1.1628    2.9165   -0.0622 C   0  0  0  0  0  0  0  0  0  0  0  0
    1.7206    3.6294   -1.2542 C   0  0  0  0  0  0  0  0  0  0  0  0
    1.7340    4.9662   -1.2445 C   0  0  0  0  0  0  0  0  0  0  0  0
    1.1596    5.6558   -0.1607 C   0  0  0  0  0  0  0  0  0  0  0  0
    1.0138    6.9447    0.0461 N   0  0  0  0  0  0  0  0  0  0  0  0
    0.3184    7.0300    1.2204 C   0  0  0  0  0  0  0  0  0  0  0  0
    0.0346    5.7827    1.7574 C   0  0  0  0  0  0  0  0  0  0  0  0
   -0.7212    5.4281    2.9624 C   0  0  0  0  0  0  0  0  0  0  0  0
   -1.7828    6.2352    3.3847 C   0  0  0  0  0  0  0  0  0  0  0  0
   -2.4858    5.8765    4.5236 C   0  0  0  0  0  0  0  0  0  0  0  0
   -2.2077    4.7849    5.2654 N   0  0  0  0  0  0  0  0  0  0  0  0
   -1.1746    4.0238    4.8487 C   0  0  0  0  0  0  0  0  0  0  0  0
   -0.4110    4.3027    3.7266 C   0  0  0  0  0  0  0  0  0  0  0  0
    0.6029    4.8949    0.8547 N   0  0  0  0  0  0  0  0  0  0  0  0
    0.5911    3.5241    0.9410 N   0  0  0  0  0  0  0  0  0  0  0  0
    5.0588   -1.3325   -2.4191 H   0  0  0  0  0  0  0  0  0  0  0  0
    5.1147    1.1598   -2.2746 H   0  0  0  0  0  0  0  0  0  0  0  0
    3.1721   -2.5268   -1.3417 H   0  0  0  0  0  0  0  0  0  0  0  0
    1.0788   -2.4612   -0.0401 H   0  0  0  0  0  0  0  0  0  0  0  0
   -0.6980   -1.1709    1.0809 H   0  0  0  0  0  0  0  0  0  0  0  0
   -0.6319    1.2962    1.0619 H   0  0  0  0  0  0  0  0  0  0  0  0
    2.1011    3.0821   -2.1036 H   0  0  0  0  0  0  0  0  0  0  0  0
    2.1474    5.5348   -2.0695 H   0  0  0  0  0  0  0  0  0  0  0  0
    0.0463    7.9960    1.6268 H   0  0  0  0  0  0  0  0  0  0  0  0
   -2.0773    7.1241    2.8364 H   0  0  0  0  0  0  0  0  0  0  0  0
   -3.3193    6.4765    4.8774 H   0  0  0  0  0  0  0  0  0  0  0  0
   -0.9650    3.1513    5.4604 H   0  0  0  0  0  0  0  0  0  0  0  0
    0.4118    3.6453    3.4680 H   0  0  0  0  0  0  0  0  0  0  0  0
  1  2  1  0  0  0  0
  1  6  2  0  0  0  0
  1 26  1  0  0  0  0
  2  3  2  0  0  0  0
  2 27  1  0  0  0  0
  3  4  1  0  0  0  0
  4  5  1  0  0  0  0
  4 10  2  0  0  0  0
  5  6  1  0  0  0  0
  5  7  2  0  0  0  0
  6 28  1  0  0  0  0
  7  8  1  0  0  0  0
  7 29  1  0  0  0  0
  8  9  2  0  0  0  0
  8 30  1  0  0  0  0
  9 10  1  0  0  0  0
  9 31  1  0  0  0  0
 10 11  1  0  0  0  0
 11 12  1  0  0  0  0
 11 25  2  0  0  0  0
 12 13  2  0  0  0  0
 12 32  1  0  0  0  0
 13 14  1  0  0  0  0
 13 33  1  0  0  0  0
 14 15  2  0  0  0  0
 14 24  1  0  0  0  0
 15 16  1  0  0  0  0
 16 17  2  0  0  0  0
 16 34  1  0  0  0  0
 17 18  1  0  0  0  0
 17 24  1  0  0  0  0
 18 19  1  0  0  0  0
 18 23  2  0  0  0  0
 19 20  2  0  0  0  0
 19 35  1  0  0  0  0
 20 21  1  0  0  0  0
 20 36  1  0  0  0  0
 21 22  2  0  0  0  0
 22 23  1  0  0  0  0
 22 37  1  0  0  0  0
 23 38  1  0  0  0  0
 24 25  1  0  0  0  0
M  END
>  <Energy>
90.882

$$$$

 OpenBabel04232616063D

 39 43  0  0  0  0  0  0  0  0999 V2000
    3.6717    1.0110   -0.2057 C   0  0  0  0  0  0  0  0  0  0  0  0
    2.8341   -0.1312   -0.0438 O   0  0  0  0  0  0  0  0  0  0  0  0
    3.4365   -1.2380    0.4995 C   0  0  0  0  0  0  0  0  0  0  0  0
    4.4485   -1.1138    1.4834 C   0  0  0  0  0  0  0  0  0  0  0  0
    5.0538   -2.2582    1.9772 C   0  0  0  0  0  0  0  0  0  0  0  0
    4.6364   -3.5222    1.5417 C   0  0  0  0  0  0  0  0  0  0  0  0
    3.6162   -3.6620    0.6173 C   0  0  0  0  0  0  0  0  0  0  0  0
    3.0062   -2.5196    0.0816 C   0  0  0  0  0  0  0  0  0  0  0  0
    2.0526   -2.8591   -0.8419 O   0  0  0  0  0  0  0  0  0  0  0  0
    1.3060   -1.8539   -1.5031 C   0  0  0  0  0  0  0  0  0  0  0  0
    5.4333   -4.5284    2.1877 C   0  0  0  0  0  0  0  0  0  0  0  0
    5.2857   -5.8398    1.9682 N   0  0  0  0  0  0  0  0  0  0  0  0
    6.1476   -6.6184    2.6516 C   0  0  0  0  0  0  0  0  0  0  0  0
    7.1362   -6.1517    3.5290 C   0  0  0  0  0  0  0  0  0  0  0  0
    7.9811   -7.0617    4.1791 C   0  0  0  0  0  0  0  0  0  0  0  0
    8.9404   -6.5634    5.0269 C   0  0  0  0  0  0  0  0  0  0  0  0
    9.0843   -5.2153    5.2470 C   0  0  0  0  0  0  0  0  0  0  0  0
    8.2708   -4.2801    4.6273 C   0  0  0  0  0  0  0  0  0  0  0  0
    7.2671   -4.7440    3.7422 C   0  0  0  0  0  0  0  0  0  0  0  0
    6.3751   -3.9267    3.0372 C   0  0  0  0  0  0  0  0  0  0  0  0
    6.2002   -2.4175    2.9732 C   0  0  0  0  0  0  0  0  0  0  0  0
   10.0972   -4.9503    6.1185 O   0  0  0  0  0  0  0  0  0  0  0  0
   10.5744   -6.2848    6.4059 C   0  0  0  0  0  0  0  0  0  0  0  0
    9.8334   -7.3144    5.7237 O   0  0  0  0  0  0  0  0  0  0  0  0
    3.3060    1.5770   -1.0678 H   0  0  0  0  0  0  0  0  0  0  0  0
    4.7165    0.7487   -0.4086 H   0  0  0  0  0  0  0  0  0  0  0  0
    3.5986    1.6512    0.6786 H   0  0  0  0  0  0  0  0  0  0  0  0
    4.7583   -0.1422    1.8533 H   0  0  0  0  0  0  0  0  0  0  0  0
    3.3053   -4.6523    0.2990 H   0  0  0  0  0  0  0  0  0  0  0  0
    0.7040   -2.3539   -2.2704 H   0  0  0  0  0  0  0  0  0  0  0  0
    1.9474   -1.1406   -2.0269 H   0  0  0  0  0  0  0  0  0  0  0  0
    0.6143   -1.3620   -0.8132 H   0  0  0  0  0  0  0  0  0  0  0  0
    6.0224   -7.6825    2.4676 H   0  0  0  0  0  0  0  0  0  0  0  0
    7.8950   -8.1321    4.0249 H   0  0  0  0  0  0  0  0  0  0  0  0
    8.4169   -3.2239    4.8252 H   0  0  0  0  0  0  0  0  0  0  0  0
    7.1039   -1.9403    2.5824 H   0  0  0  0  0  0  0  0  0  0  0  0
    5.9207   -2.0116    3.9494 H   0  0  0  0  0  0  0  0  0  0  0  0
   11.6264   -6.3582    6.1056 H   0  0  0  0  0  0  0  0  0  0  0  0
   10.5050   -6.4632    7.4853 H   0  0  0  0  0  0  0  0  0  0  0  0
  1  2  1  0  0  0  0
  1 25  1  0  0  0  0
  1 26  1  0  0  0  0
  1 27  1  0  0  0  0
  2  3  1  0  0  0  0
  3  4  1  0  0  0  0
  3  8  2  0  0  0  0
  4  5  2  0  0  0  0
  4 28  1  0  0  0  0
  5  6  1  0  0  0  0
  5 21  1  0  0  0  0
  6  7  2  0  0  0  0
  6 11  1  0  0  0  0
  7  8  1  0  0  0  0
  7 29  1  0  0  0  0
  8  9  1  0  0  0  0
  9 10  1  0  0  0  0
 10 30  1  0  0  0  0
 10 31  1  0  0  0  0
 10 32  1  0  0  0  0
 11 12  1  0  0  0  0
 11 20  2  0  0  0  0
 12 13  2  0  0  0  0
 13 14  1  0  0  0  0
 13 33  1  0  0  0  0
 14 15  1  0  0  0  0
 14 19  2  0  0  0  0
 15 16  2  0  0  0  0
 15 34  1  0  0  0  0
 16 17  1  0  0  0  0
 16 24  1  0  0  0  0
 17 18  2  0  0  0  0
 17 22  1  0  0  0  0
 18 19  1  0  0  0  0
 18 35  1  0  0  0  0
 19 20  1  0  0  0  0
 20 21  1  0  0  0  0
 21 36  1  0  0  0  0
 21 37  1  0  0  0  0
 22 23  1  0  0  0  0
 23 24  1  0  0  0  0
 23 38  1  0  0  0  0
 23 39  1  0  0  0  0
M  END
>  <Energy>
88.7167

$$$$

 OpenBabel04232616063D

 38 43  0  0  1  0  0  0  0  0999 V2000
    1.0068   -0.0973   -0.0745 O   0  0  0  0  0  0  0  0  0  0  0  0
    2.2219    0.0490   -0.0519 C   0  0  0  0  0  0  0  0  0  0  0  0
    3.0799   -1.0412   -0.0201 N   0  0  0  0  0  0  0  0  0  0  0  0
    4.4807   -0.7503   -0.0550 C   0  0  3  0  0  0  0  0  0  0  0  0
    5.0301   -1.3122    1.1066 O   0  0  0  0  0  0  0  0  0  0  0  0
    4.4459    0.7180   -0.0391 C   0  0  0  0  0  0  0  0  0  0  0  0
    3.0970    1.1908   -0.0436 C   0  0  0  0  0  0  0  0  0  0  0  0
    2.8692    2.5928   -0.0463 C   0  0  0  0  0  0  0  0  0  0  0  0
    1.6488    3.2667   -0.0512 C   0  0  0  0  0  0  0  0  0  0  0  0
    0.2724    2.9705   -0.0544 C   0  0  0  0  0  0  0  0  0  0  0  0
   -0.6646    4.0130   -0.0578 C   0  0  0  0  0  0  0  0  0  0  0  0
   -0.2545    5.3427   -0.0580 C   0  0  0  0  0  0  0  0  0  0  0  0
    1.1010    5.6734   -0.0561 C   0  0  0  0  0  0  0  0  0  0  0  0
    2.0315    4.6256   -0.0530 C   0  0  0  0  0  0  0  0  0  0  0  0
    3.4210    4.6934   -0.0518 N   0  0  0  0  0  0  0  0  0  0  0  0
    3.9382    3.4331   -0.0475 C   0  0  0  0  0  0  0  0  0  0  0  0
    5.2310    2.9701   -0.0479 C   0  0  0  0  0  0  0  0  0  0  0  0
    6.4374    3.6039   -0.0541 N   0  0  0  0  0  0  0  0  0  0  0  0
    7.4601    2.6576   -0.0577 C   0  0  0  0  0  0  0  0  0  0  0  0
    8.8465    2.8580   -0.0627 C   0  0  0  0  0  0  0  0  0  0  0  0
    9.6678    1.7290   -0.0633 C   0  0  0  0  0  0  0  0  0  0  0  0
    9.1237    0.4471   -0.0593 C   0  0  0  0  0  0  0  0  0  0  0  0
    7.7354    0.2531   -0.0540 C   0  0  0  0  0  0  0  0  0  0  0  0
    6.8800    1.3715   -0.0530 C   0  0  0  0  0  0  0  0  0  0  0  0
    5.5151    1.6437   -0.0452 C   0  0  0  0  0  0  0  0  0  0  0  0
    2.7102   -1.9779   -0.0583 H   0  0  0  0  0  0  0  0  0  0  0  0
    4.9268   -1.1659   -0.9618 H   0  0  0  0  0  0  0  0  0  0  0  0
    4.5432   -0.9080    1.8436 H   0  0  0  0  0  0  0  0  0  0  0  0
   -0.0872    1.9473   -0.0546 H   0  0  0  0  0  0  0  0  0  0  0  0
   -1.7252    3.7743   -0.0600 H   0  0  0  0  0  0  0  0  0  0  0  0
   -0.9999    6.1343   -0.0601 H   0  0  0  0  0  0  0  0  0  0  0  0
    1.4166    6.7119   -0.0572 H   0  0  0  0  0  0  0  0  0  0  0  0
    3.9480    5.5535   -0.0551 H   0  0  0  0  0  0  0  0  0  0  0  0
    6.5862    4.6018   -0.0574 H   0  0  0  0  0  0  0  0  0  0  0  0
    9.2757    3.8550   -0.0637 H   0  0  0  0  0  0  0  0  0  0  0  0
   10.7484    1.8543   -0.0644 H   0  0  0  0  0  0  0  0  0  0  0  0
    9.7842   -0.4169   -0.0561 H   0  0  0  0  0  0  0  0  0  0  0  0
    7.3430   -0.7587   -0.0413 H   0  0  0  0  0  0  0  0  0  0  0  0
  1  2  2  0  0  0  0
  2  3  1  0  0  0  0
  2  7  1  0  0  0  0
  3  4  1  0  0  0  0
  3 26  1  0  0  0  0
  4  5  1  0  0  0  0
  4  6  1  0  0  0  0
  4 27  1  0  0  0  0
  5 28  1  0  0  0  0
  6  7  1  0  0  0  0
  6 25  2  0  0  0  0
  7  8  2  0  0  0  0
  8  9  1  0  0  0  0
  8 16  1  0  0  0  0
  9 10  1  0  0  0  0
  9 14  2  0  0  0  0
 10 11  2  0  0  0  0
 10 29  1  0  0  0  0
 11 12  1  0  0  0  0
 11 30  1  0  0  0  0
 12 13  2  0  0  0  0
 12 31  1  0  0  0  0
 13 14  1  0  0  0  0
 13 32  1  0  0  0  0
 14 15  1  0  0  0  0
 15 16  1  0  0  0  0
 15 33  1  0  0  0  0
 16 17  2  0  0  0  0
 17 18  1  0  0  0  0
 17 25  1  0  0  0  0
 18 19  1  0  0  0  0
 18 34  1  0  0  0  0
 19 20  1  0  0  0  0
 19 24  2  0  0  0  0
 20 21  2  0  0  0  0
 20 35  1  0  0  0  0
 21 22  1  0  0  0  0
 21 36  1  0  0  0  0
 22 23  2  0  0  0  0
 22 37  1  0  0  0  0
 23 24  1  0  0  0  0
 23 38  1  0  0  0  0
 24 25  1  0  0  0  0
M  END
>  <Energy>
19.5795

$$$$

 OpenBabel04232616063D

 48 50  0  0  1  0  0  0  0  0999 V2000
    4.1804    3.5078   -3.7188 C   0  0  0  0  0  0  0  0  0  0  0  0
    3.4574    4.4340   -2.7453 C   0  0  0  0  0  0  0  0  0  0  0  0
    2.0215    4.0010   -2.5868 C   0  0  0  0  0  0  0  0  0  0  0  0
    1.2178    4.4585   -3.5891 N   0  0  0  0  0  0  0  0  0  0  0  0
   -0.0476    4.0105   -3.6375 C   0  0  0  0  0  0  0  0  0  0  0  0
   -0.8968    4.4624   -4.7833 C   0  0  0  0  0  0  0  0  0  0  0  0
   -0.5737    3.1519   -2.7516 N   0  0  0  0  0  0  0  0  0  0  0  0
    0.2513    2.7302   -1.7608 C   0  0  0  0  0  0  0  0  0  0  0  0
    1.5627    3.1403   -1.5942 C   0  0  0  0  0  0  0  0  0  0  0  0
    2.4336    2.5846   -0.5209 C   0  0  0  0  0  0  0  0  0  0  0  0
    3.6106    2.3560   -0.8201 O   0  0  0  0  0  0  0  0  0  0  0  0
    1.9454    2.2755    0.7558 N   0  0  0  0  0  0  0  0  0  0  0  0
    2.8518    1.6803    1.7514 C   0  0  0  0  0  0  0  0  0  0  0  0
    2.6017    0.1956    2.0527 C   0  0  3  0  0  0  0  0  0  0  0  0
    3.6606   -0.3024    3.0443 C   0  0  0  0  0  0  0  0  0  0  0  0
    1.2101   -0.0546    2.6450 C   0  0  0  0  0  0  0  0  0  0  0  0
    0.1640    0.3075    1.6844 N   0  0  0  0  0  0  0  0  0  0  0  0
   -0.8906   -0.6740    1.4634 C   0  0  0  0  0  0  0  0  0  0  0  0
   -0.1950    1.6660    1.7841 C   0  0  0  0  0  0  0  0  0  0  0  0
   -1.4085    2.0810    2.3485 C   0  0  0  0  0  0  0  0  0  0  0  0
   -1.7393    3.4364    2.4251 C   0  0  0  0  0  0  0  0  0  0  0  0
   -0.8726    4.4014    1.9127 C   0  0  0  0  0  0  0  0  0  0  0  0
    0.3331    4.0174    1.3327 C   0  0  0  0  0  0  0  0  0  0  0  0
    0.6814    2.6623    1.2808 C   0  0  0  0  0  0  0  0  0  0  0  0
    5.2167    3.8291   -3.8569 H   0  0  0  0  0  0  0  0  0  0  0  0
    3.6930    3.5109   -4.7003 H   0  0  0  0  0  0  0  0  0  0  0  0
    4.1874    2.4731   -3.3627 H   0  0  0  0  0  0  0  0  0  0  0  0
    3.4744    5.4525   -3.1572 H   0  0  0  0  0  0  0  0  0  0  0  0
    3.9801    4.5012   -1.7872 H   0  0  0  0  0  0  0  0  0  0  0  0
   -0.3078    5.0374   -5.5038 H   0  0  0  0  0  0  0  0  0  0  0  0
   -1.7127    5.0929   -4.4210 H   0  0  0  0  0  0  0  0  0  0  0  0
   -1.3161    3.5947   -5.3004 H   0  0  0  0  0  0  0  0  0  0  0  0
   -0.2022    1.9896   -1.1084 H   0  0  0  0  0  0  0  0  0  0  0  0
    2.7822    2.2754    2.6726 H   0  0  0  0  0  0  0  0  0  0  0  0
    3.8867    1.7962    1.4081 H   0  0  0  0  0  0  0  0  0  0  0  0
    2.6998   -0.3765    1.1201 H   0  0  0  0  0  0  0  0  0  0  0  0
    3.6084    0.2500    3.9888 H   0  0  0  0  0  0  0  0  0  0  0  0
    4.6690   -0.1775    2.6367 H   0  0  0  0  0  0  0  0  0  0  0  0
    3.5196   -1.3650    3.2697 H   0  0  0  0  0  0  0  0  0  0  0  0
    1.0808    0.4792    3.5972 H   0  0  0  0  0  0  0  0  0  0  0  0
    1.1252   -1.1214    2.8908 H   0  0  0  0  0  0  0  0  0  0  0  0
   -0.4470   -1.6455    1.2172 H   0  0  0  0  0  0  0  0  0  0  0  0
   -1.5129   -0.3871    0.6083 H   0  0  0  0  0  0  0  0  0  0  0  0
   -1.5231   -0.8093    2.3466 H   0  0  0  0  0  0  0  0  0  0  0  0
   -2.1025    1.3580    2.7668 H   0  0  0  0  0  0  0  0  0  0  0  0
   -2.6746    3.7376    2.8906 H   0  0  0  0  0  0  0  0  0  0  0  0
   -1.1342    5.4545    1.9817 H   0  0  0  0  0  0  0  0  0  0  0  0
    1.0134    4.7803    0.9639 H   0  0  0  0  0  0  0  0  0  0  0  0
  1  2  1  0  0  0  0
  1 25  1  0  0  0  0
  1 26  1  0  0  0  0
  1 27  1  0  0  0  0
  2  3  1  0  0  0  0
  2 28  1  0  0  0  0
  2 29  1  0  0  0  0
  3  4  1  0  0  0  0
  3  9  2  0  0  0  0
  4  5  2  0  0  0  0
  5  6  1  0  0  0  0
  5  7  1  0  0  0  0
  6 30  1  0  0  0  0
  6 31  1  0  0  0  0
  6 32  1  0  0  0  0
  7  8  2  0  0  0  0
  8  9  1  0  0  0  0
  8 33  1  0  0  0  0
  9 10  1  0  0  0  0
 10 11  2  0  0  0  0
 10 12  1  0  0  0  0
 12 13  1  0  0  0  0
 12 24  1  0  0  0  0
 13 14  1  0  0  0  0
 13 34  1  0  0  0  0
 13 35  1  0  0  0  0
 14 15  1  0  0  0  0
 14 16  1  0  0  0  0
 14 36  1  0  0  0  0
 15 37  1  0  0  0  0
 15 38  1  0  0  0  0
 15 39  1  0  0  0  0
 16 17  1  0  0  0  0
 16 40  1  0  0  0  0
 16 41  1  0  0  0  0
 17 18  1  0  0  0  0
 17 19  1  0  0  0  0
 18 42  1  0  0  0  0
 18 43  1  0  0  0  0
 18 44  1  0  0  0  0
 19 20  1  0  0  0  0
 19 24  2  0  0  0  0
 20 21  2  0  0  0  0
 20 45  1  0  0  0  0
 21 22  1  0  0  0  0
 21 46  1  0  0  0  0
 22 23  2  0  0  0  0
 22 47  1  0  0  0  0
 23 24  1  0  0  0  0
 23 48  1  0  0  0  0
M  END
>  <Energy>
64.1727

$$$$

 OpenBabel04232616063D

 35 37  0  0  0  0  0  0  0  0999 V2000
    1.1988    0.6463   -0.2459 C   0  0  0  0  0  0  0  0  0  0  0  0
    2.5569    0.2194   -0.1947 O   0  0  0  0  0  0  0  0  0  0  0  0
    3.1499   -0.0805   -1.3930 C   0  0  0  0  0  0  0  0  0  0  0  0
    2.7451    0.5330   -2.5889 C   0  0  0  0  0  0  0  0  0  0  0  0
    3.3627    0.2233   -3.8025 C   0  0  0  0  0  0  0  0  0  0  0  0
    4.4071   -0.6948   -3.8390 C   0  0  0  0  0  0  0  0  0  0  0  0
    5.0009   -1.0289   -5.0984 C   0  0  0  0  0  0  0  0  0  0  0  0
    5.4273   -1.3053   -6.1867 C   0  0  0  0  0  0  0  0  0  0  0  0
    5.8716   -1.6638   -7.5028 C   0  0  0  0  0  0  0  0  0  0  0  0
    5.8099   -2.9988   -7.8841 C   0  0  0  0  0  0  0  0  0  0  0  0
    6.1806   -3.4560   -9.0967 N   0  0  0  0  0  0  0  0  0  0  0  0
    6.6326   -2.5311   -9.9638 C   0  0  0  0  0  0  0  0  0  0  0  0
    7.0798   -3.2095  -11.4827 Cl  0  0  0  0  0  0  0  0  0  0  0  0
    6.7309   -1.1613   -9.6829 C   0  0  0  0  0  0  0  0  0  0  0  0
    7.1882   -0.1815  -10.5637 C   0  0  0  0  0  0  0  0  0  0  0  0
    7.2640    1.1278  -10.2602 N   0  0  0  0  0  0  0  0  0  0  0  0
    6.8634    1.4529   -9.0262 C   0  0  0  0  0  0  0  0  0  0  0  0
    6.4061    0.5986   -8.0977 N   0  0  0  0  0  0  0  0  0  0  0  0
    6.3381   -0.7121   -8.4173 C   0  0  0  0  0  0  0  0  0  0  0  0
    4.8384   -1.2895   -2.6533 C   0  0  0  0  0  0  0  0  0  0  0  0
    4.2217   -0.9916   -1.4234 C   0  0  0  0  0  0  0  0  0  0  0  0
    4.7802   -1.6900   -0.3831 O   0  0  0  0  0  0  0  0  0  0  0  0
    4.2525   -1.5216    0.9242 C   0  0  0  0  0  0  0  0  0  0  0  0
    0.7949    0.6013    0.7699 H   0  0  0  0  0  0  0  0  0  0  0  0
    0.5921   -0.0142   -0.8755 H   0  0  0  0  0  0  0  0  0  0  0  0
    1.1298    1.6855   -0.5825 H   0  0  0  0  0  0  0  0  0  0  0  0
    1.9506    1.2719   -2.6074 H   0  0  0  0  0  0  0  0  0  0  0  0
    3.0212    0.7051   -4.7156 H   0  0  0  0  0  0  0  0  0  0  0  0
    5.4422   -3.7623   -7.2021 H   0  0  0  0  0  0  0  0  0  0  0  0
    7.5186   -0.4210  -11.5707 H   0  0  0  0  0  0  0  0  0  0  0  0
    6.9125    2.5011   -8.7521 H   0  0  0  0  0  0  0  0  0  0  0  0
    5.6606   -2.0025   -2.6701 H   0  0  0  0  0  0  0  0  0  0  0  0
    4.7955   -2.2009    1.5895 H   0  0  0  0  0  0  0  0  0  0  0  0
    3.1971   -1.8076    0.9729 H   0  0  0  0  0  0  0  0  0  0  0  0
    4.4224   -0.5045    1.2913 H   0  0  0  0  0  0  0  0  0  0  0  0
  1  2  1  0  0  0  0
  1 24  1  0  0  0  0
  1 25  1  0  0  0  0
  1 26  1  0  0  0  0
  2  3  1  0  0  0  0
  3  4  1  0  0  0  0
  3 21  2  0  0  0  0
  4  5  2  0  0  0  0
  4 27  1  0  0  0  0
  5  6  1  0  0  0  0
  5 28  1  0  0  0  0
  6  7  1  0  0  0  0
  6 20  2  0  0  0  0
  7  8  3  0  0  0  0
  8  9  1  0  0  0  0
  9 10  1  0  0  0  0
  9 19  2  0  0  0  0
 10 11  2  0  0  0  0
 10 29  1  0  0  0  0
 11 12  1  0  0  0  0
 12 13  1  0  0  0  0
 12 14  2  0  0  0  0
 14 15  1  0  0  0  0
 14 19  1  0  0  0  0
 15 16  2  0  0  0  0
 15 30  1  0  0  0  0
 16 17  1  0  0  0  0
 17 18  2  0  0  0  0
 17 31  1  0  0  0  0
 18 19  1  0  0  0  0
 20 21  1  0  0  0  0
 20 32  1  0  0  0  0
 21 22  1  0  0  0  0
 22 23  1  0  0  0  0
 23 33  1  0  0  0  0
 23 34  1  0  0  0  0
 23 35  1  0  0  0  0
M  END
>  <Energy>
45.3277

$$$$

 OpenBabel04232616063D

 44 46  0  0  0  0  0  0  0  0999 V2000
    1.7524    1.0177    1.1974 N   0  0  0  0  0  0  0  0  0  0  0  0
    1.7545    0.5217    0.1496 C   0  0  0  0  0  0  0  0  0  0  0  0
    1.7895   -0.1278   -1.1801 C   0  0  0  0  0  0  0  0  0  0  0  0
    1.2024    0.8701   -2.2203 C   0  0  0  0  0  0  0  0  0  0  0  0
    0.2570    0.4991   -2.9296 O   0  0  0  0  0  0  0  0  0  0  0  0
    1.7004    2.1670   -2.3734 N   0  0  0  0  0  0  0  0  0  0  0  0
    2.9077    2.7434   -1.7679 C   0  0  0  0  0  0  0  0  0  0  0  0
    4.0837    2.9251   -2.7305 C   0  0  0  0  0  0  0  0  0  0  0  0
    3.8432    3.7282   -4.0072 C   0  0  0  0  0  0  0  0  0  0  0  0
    2.6510    4.5526   -3.9548 N   0  0  0  0  0  0  0  0  0  0  0  0
    2.6382    5.8702   -3.5968 C   0  0  0  0  0  0  0  0  0  0  0  0
    1.5265    6.5678   -3.4629 N   0  0  0  0  0  0  0  0  0  0  0  0
    1.7943    7.8897   -3.1697 C   0  0  0  0  0  0  0  0  0  0  0  0
    3.1249    8.2116   -3.0545 C   0  0  0  0  0  0  0  0  0  0  0  0
    4.0696    6.8083   -3.2925 S   0  0  0  0  0  0  0  0  0  0  0  0
    1.3843    3.8719   -4.2454 C   0  0  0  0  0  0  0  0  0  0  0  0
    0.8064    3.1595   -3.0162 C   0  0  0  0  0  0  0  0  0  0  0  0
    0.8793   -1.3936   -1.1029 C   0  0  0  0  0  0  0  0  0  0  0  0
    1.4261   -2.4849   -0.1750 C   0  0  0  0  0  0  0  0  0  0  0  0
    2.8480   -2.8825   -0.5485 C   0  0  0  0  0  0  0  0  0  0  0  0
    3.7679   -1.6722   -0.6395 C   0  0  0  0  0  0  0  0  0  0  0  0
    3.2073   -0.5921   -1.5705 C   0  0  0  0  0  0  0  0  0  0  0  0
    3.2626    2.1226   -0.9480 H   0  0  0  0  0  0  0  0  0  0  0  0
    2.6372    3.6994   -1.3055 H   0  0  0  0  0  0  0  0  0  0  0  0
    4.4757    1.9437   -3.0253 H   0  0  0  0  0  0  0  0  0  0  0  0
    4.8946    3.4063   -2.1687 H   0  0  0  0  0  0  0  0  0  0  0  0
    3.7494    3.0254   -4.8454 H   0  0  0  0  0  0  0  0  0  0  0  0
    4.7428    4.3041   -4.2542 H   0  0  0  0  0  0  0  0  0  0  0  0
    0.9715    8.5850   -3.0554 H   0  0  0  0  0  0  0  0  0  0  0  0
    3.5707    9.1727   -2.8435 H   0  0  0  0  0  0  0  0  0  0  0  0
    1.5402    3.1373   -5.0450 H   0  0  0  0  0  0  0  0  0  0  0  0
    0.6383    4.5744   -4.6381 H   0  0  0  0  0  0  0  0  0  0  0  0
   -0.1398    2.6938   -3.3120 H   0  0  0  0  0  0  0  0  0  0  0  0
    0.5475    3.8925   -2.2423 H   0  0  0  0  0  0  0  0  0  0  0  0
    0.7621   -1.8286   -2.1049 H   0  0  0  0  0  0  0  0  0  0  0  0
   -0.1306   -1.1209   -0.7674 H   0  0  0  0  0  0  0  0  0  0  0  0
    0.7760   -3.3663   -0.2237 H   0  0  0  0  0  0  0  0  0  0  0  0
    1.4023   -2.1402    0.8658 H   0  0  0  0  0  0  0  0  0  0  0  0
    2.8384   -3.4045   -1.5128 H   0  0  0  0  0  0  0  0  0  0  0  0
    3.2406   -3.5893    0.1918 H   0  0  0  0  0  0  0  0  0  0  0  0
    4.7530   -1.9894   -1.0005 H   0  0  0  0  0  0  0  0  0  0  0  0
    3.9243   -1.2536    0.3621 H   0  0  0  0  0  0  0  0  0  0  0  0
    3.1853   -0.9866   -2.5962 H   0  0  0  0  0  0  0  0  0  0  0  0
    3.9234    0.2308   -1.5850 H   0  0  0  0  0  0  0  0  0  0  0  0
  1  2  3  0  0  0  0
  2  3  1  0  0  0  0
  3  4  1  0  0  0  0
  3 18  1  0  0  0  0
  3 22  1  0  0  0  0
  4  5  2  0  0  0  0
  4  6  1  0  0  0  0
  6  7  1  0  0  0  0
  6 17  1  0  0  0  0
  7  8  1  0  0  0  0
  7 23  1  0  0  0  0
  7 24  1  0  0  0  0
  8  9  1  0  0  0  0
  8 25  1  0  0  0  0
  8 26  1  0  0  0  0
  9 10  1  0  0  0  0
  9 27  1  0  0  0  0
  9 28  1  0  0  0  0
 10 11  1  0  0  0  0
 10 16  1  0  0  0  0
 11 12  2  0  0  0  0
 11 15  1  0  0  0  0
 12 13  1  0  0  0  0
 13 14  2  0  0  0  0
 13 29  1  0  0  0  0
 14 15  1  0  0  0  0
 14 30  1  0  0  0  0
 16 17  1  0  0  0  0
 16 31  1  0  0  0  0
 16 32  1  0  0  0  0
 17 33  1  0  0  0  0
 17 34  1  0  0  0  0
 18 19  1  0  0  0  0
 18 35  1  0  0  0  0
 18 36  1  0  0  0  0
 19 20  1  0  0  0  0
 19 37  1  0  0  0  0
 19 38  1  0  0  0  0
 20 21  1  0  0  0  0
 20 39  1  0  0  0  0
 20 40  1  0  0  0  0
 21 22  1  0  0  0  0
 21 41  1  0  0  0  0
 21 42  1  0  0  0  0
 22 43  1  0  0  0  0
 22 44  1  0  0  0  0
M  END
>  <Energy>
11.1573

$$$$

 OpenBabel04232616063D

 41 44  0  0  0  0  0  0  0  0999 V2000
    0.3293   -0.2504    3.8946 C   0  0  0  0  0  0  0  0  0  0  0  0
   -0.0423   -0.2255    2.4409 C   0  0  0  0  0  0  0  0  0  0  0  0
    0.3556    0.8305    1.6161 C   0  0  0  0  0  0  0  0  0  0  0  0
   -0.0108    0.8480    0.2706 C   0  0  0  0  0  0  0  0  0  0  0  0
   -0.7658   -0.1970   -0.2671 C   0  0  0  0  0  0  0  0  0  0  0  0
   -1.1512   -1.2810    0.5344 C   0  0  0  0  0  0  0  0  0  0  0  0
   -1.9170   -2.4510   -0.0451 C   0  0  0  0  0  0  0  0  0  0  0  0
   -3.3588   -2.2808    0.0291 N   0  0  0  0  0  0  0  0  0  0  0  0
   -4.0327   -1.6820   -1.0206 C   0  0  0  0  0  0  0  0  0  0  0  0
   -5.3043   -1.4417   -1.1039 N   0  0  0  0  0  0  0  0  0  0  0  0
   -6.0397   -1.8504    0.0207 C   0  0  0  0  0  0  0  0  0  0  0  0
   -5.4537   -2.4908    1.0756 C   0  0  0  0  0  0  0  0  0  0  0  0
   -6.5749   -2.9180    2.2698 S   0  0  0  0  0  0  0  0  0  0  0  0
   -7.8583   -2.2079    1.3841 C   0  0  0  0  0  0  0  0  0  0  0  0
   -9.1138   -2.2348    1.8773 N   0  0  0  0  0  0  0  0  0  0  0  0
  -10.0348   -1.6290    1.1020 C   0  0  0  0  0  0  0  0  0  0  0  0
  -11.4530   -1.6415    1.5992 C   0  0  0  0  0  0  0  0  0  0  0  0
   -9.7471   -1.0046   -0.1083 C   0  0  0  0  0  0  0  0  0  0  0  0
   -8.4341   -0.9919   -0.6037 C   0  0  0  0  0  0  0  0  0  0  0  0
   -8.1319   -0.2947   -1.8994 C   0  0  0  0  0  0  0  0  0  0  0  0
   -7.4440   -1.6377    0.1809 C   0  0  0  0  0  0  0  0  0  0  0  0
   -4.0437   -2.7641    1.1478 C   0  0  0  0  0  0  0  0  0  0  0  0
   -3.4902   -3.3620    2.0649 O   0  0  0  0  0  0  0  0  0  0  0  0
   -0.7963   -1.2742    1.8932 C   0  0  0  0  0  0  0  0  0  0  0  0
    0.9144    0.6319    4.1753 H   0  0  0  0  0  0  0  0  0  0  0  0
    0.9327   -1.1368    4.1157 H   0  0  0  0  0  0  0  0  0  0  0  0
   -0.5735   -0.2642    4.5135 H   0  0  0  0  0  0  0  0  0  0  0  0
    0.9522    1.6475    2.0164 H   0  0  0  0  0  0  0  0  0  0  0  0
    0.3004    1.6776   -0.3602 H   0  0  0  0  0  0  0  0  0  0  0  0
   -1.0324   -0.1595   -1.3208 H   0  0  0  0  0  0  0  0  0  0  0  0
   -1.6215   -3.3727    0.4696 H   0  0  0  0  0  0  0  0  0  0  0  0
   -1.6259   -2.5822   -1.0951 H   0  0  0  0  0  0  0  0  0  0  0  0
   -3.3852   -1.3987   -1.8657 H   0  0  0  0  0  0  0  0  0  0  0  0
  -11.5290   -2.1705    2.5545 H   0  0  0  0  0  0  0  0  0  0  0  0
  -12.1008   -2.1490    0.8771 H   0  0  0  0  0  0  0  0  0  0  0  0
  -11.8121   -0.6179    1.7459 H   0  0  0  0  0  0  0  0  0  0  0  0
  -10.5463   -0.5254   -0.6683 H   0  0  0  0  0  0  0  0  0  0  0  0
   -9.0332    0.1398   -2.3440 H   0  0  0  0  0  0  0  0  0  0  0  0
   -7.7093   -1.0006   -2.6205 H   0  0  0  0  0  0  0  0  0  0  0  0
   -7.4198    0.5191   -1.7279 H   0  0  0  0  0  0  0  0  0  0  0  0
   -1.1004   -2.1012    2.5350 H   0  0  0  0  0  0  0  0  0  0  0  0
  1  2  1  0  0  0  0
  1 25  1  0  0  0  0
  1 26  1  0  0  0  0
  1 27  1  0  0  0  0
  2  3  1  0  0  0  0
  2 24  2  0  0  0  0
  3  4  2  0  0  0  0
  3 28  1  0  0  0  0
  4  5  1  0  0  0  0
  4 29  1  0  0  0  0
  5  6  2  0  0  0  0
  5 30  1  0  0  0  0
  6  7  1  0  0  0  0
  6 24  1  0  0  0  0
  7  8  1  0  0  0  0
  7 31  1  0  0  0  0
  7 32  1  0  0  0  0
  8  9  1  0  0  0  0
  8 22  1  0  0  0  0
  9 10  2  0  0  0  0
  9 33  1  0  0  0  0
 10 11  1  0  0  0  0
 11 12  2  0  0  0  0
 11 21  1  0  0  0  0
 12 13  1  0  0  0  0
 12 22  1  0  0  0  0
 13 14  1  0  0  0  0
 14 15  1  0  0  0  0
 14 21  2  0  0  0  0
 15 16  2  0  0  0  0
 16 17  1  0  0  0  0
 16 18  1  0  0  0  0
 17 34  1  0  0  0  0
 17 35  1  0  0  0  0
 17 36  1  0  0  0  0
 18 19  2  0  0  0  0
 18 37  1  0  0  0  0
 19 20  1  0  0  0  0
 19 21  1  0  0  0  0
 20 38  1  0  0  0  0
 20 39  1  0  0  0  0
 20 40  1  0  0  0  0
 22 23  2  0  0  0  0
 24 41  1  0  0  0  0
M  END
>  <Energy>
1.01725

$$$$

 OpenBabel04232616063D

 46 49  0  0  0  0  0  0  0  0999 V2000
    2.3718   -1.1256    0.4267 O   0  0  0  0  0  0  0  0  0  0  0  0
    2.4006   -0.0171   -0.1160 C   0  0  0  0  0  0  0  0  0  0  0  0
    3.1475    0.1084   -1.4228 C   0  0  0  0  0  0  0  0  0  0  0  0
    2.6859    0.9796   -2.3287 N   0  0  0  0  0  0  0  0  0  0  0  0
    3.3360    1.0768   -3.4823 C   0  0  0  0  0  0  0  0  0  0  0  0
    2.8856    2.0406   -4.3747 C   0  0  0  0  0  0  0  0  0  0  0  0
    3.4916    2.2380   -5.6133 C   0  0  0  0  0  0  0  0  0  0  0  0
    4.5417    1.4187   -5.9937 C   0  0  0  0  0  0  0  0  0  0  0  0
    4.9949    0.4329   -5.1173 C   0  0  0  0  0  0  0  0  0  0  0  0
    4.4366    0.2789   -3.8168 C   0  0  0  0  0  0  0  0  0  0  0  0
    4.8597   -0.6033   -2.7934 C   0  0  0  0  0  0  0  0  0  0  0  0
    6.0545   -1.4838   -2.8766 C   0  0  0  0  0  0  0  0  0  0  0  0
    7.2643   -1.0678   -3.4641 C   0  0  0  0  0  0  0  0  0  0  0  0
    8.3623   -1.9269   -3.5754 C   0  0  0  0  0  0  0  0  0  0  0  0
    8.2971   -3.2110   -3.0469 C   0  0  0  0  0  0  0  0  0  0  0  0
    7.1390   -3.6304   -2.4000 C   0  0  0  0  0  0  0  0  0  0  0  0
    6.0318   -2.7781   -2.3199 C   0  0  0  0  0  0  0  0  0  0  0  0
    4.2093   -0.6955   -1.6069 N   0  0  0  0  0  0  0  0  0  0  0  0
    1.7564    1.1023    0.4844 N   0  0  0  0  0  0  0  0  0  0  0  0
    1.7911    2.4790   -0.0201 C   0  0  0  0  0  0  0  0  0  0  0  0
    3.0009    3.2365    0.5181 C   0  0  0  0  0  0  0  0  0  0  0  0
    2.8142    3.7317    1.9510 C   0  0  0  0  0  0  0  0  0  0  0  0
    2.4528    2.6503    2.9713 C   0  0  0  0  0  0  0  0  0  0  0  0
    1.0693    2.0397    2.7400 C   0  0  0  0  0  0  0  0  0  0  0  0
    1.0678    0.8713    1.7505 C   0  0  0  0  0  0  0  0  0  0  0  0
    2.0431    2.6677   -4.0909 H   0  0  0  0  0  0  0  0  0  0  0  0
    3.1302    3.0188   -6.2773 H   0  0  0  0  0  0  0  0  0  0  0  0
    5.0086    1.5432   -6.9679 H   0  0  0  0  0  0  0  0  0  0  0  0
    5.7938   -0.2177   -5.4623 H   0  0  0  0  0  0  0  0  0  0  0  0
    7.3767   -0.0534   -3.8400 H   0  0  0  0  0  0  0  0  0  0  0  0
    9.2703   -1.5855   -4.0660 H   0  0  0  0  0  0  0  0  0  0  0  0
    9.1525   -3.8768   -3.1228 H   0  0  0  0  0  0  0  0  0  0  0  0
    7.0927   -4.6203   -1.9532 H   0  0  0  0  0  0  0  0  0  0  0  0
    5.1391   -3.1305   -1.8032 H   0  0  0  0  0  0  0  0  0  0  0  0
    0.8521    2.9805    0.2391 H   0  0  0  0  0  0  0  0  0  0  0  0
    1.8110    2.5075   -1.1041 H   0  0  0  0  0  0  0  0  0  0  0  0
    3.1783    4.1124   -0.1174 H   0  0  0  0  0  0  0  0  0  0  0  0
    3.9027    2.6157    0.4568 H   0  0  0  0  0  0  0  0  0  0  0  0
    2.0424    4.5116    1.9636 H   0  0  0  0  0  0  0  0  0  0  0  0
    3.7444    4.2183    2.2718 H   0  0  0  0  0  0  0  0  0  0  0  0
    2.4524    3.1222    3.9622 H   0  0  0  0  0  0  0  0  0  0  0  0
    3.2230    1.8708    2.9950 H   0  0  0  0  0  0  0  0  0  0  0  0
    0.3623    2.8154    2.4214 H   0  0  0  0  0  0  0  0  0  0  0  0
    0.6836    1.6638    3.6962 H   0  0  0  0  0  0  0  0  0  0  0  0
    0.0295    0.6195    1.4988 H   0  0  0  0  0  0  0  0  0  0  0  0
    1.4898   -0.0063    2.2520 H   0  0  0  0  0  0  0  0  0  0  0  0
  1  2  2  0  0  0  0
  2  3  1  0  0  0  0
  2 19  1  0  0  0  0
  3  4  1  0  0  0  0
  3 18  2  0  0  0  0
  4  5  2  0  0  0  0
  5  6  1  0  0  0  0
  5 10  1  0  0  0  0
  6  7  2  0  0  0  0
  6 26  1  0  0  0  0
  7  8  1  0  0  0  0
  7 27  1  0  0  0  0
  8  9  2  0  0  0  0
  8 28  1  0  0  0  0
  9 10  1  0  0  0  0
  9 29  1  0  0  0  0
 10 11  2  0  0  0  0
 11 12  1  0  0  0  0
 11 18  1  0  0  0  0
 12 13  1  0  0  0  0
 12 17  2  0  0  0  0
 13 14  2  0  0  0  0
 13 30  1  0  0  0  0
 14 15  1  0  0  0  0
 14 31  1  0  0  0  0
 15 16  2  0  0  0  0
 15 32  1  0  0  0  0
 16 17  1  0  0  0  0
 16 33  1  0  0  0  0
 17 34  1  0  0  0  0
 19 20  1  0  0  0  0
 19 25  1  0  0  0  0
 20 21  1  0  0  0  0
 20 35  1  0  0  0  0
 20 36  1  0  0  0  0
 21 22  1  0  0  0  0
 21 37  1  0  0  0  0
 21 38  1  0  0  0  0
 22 23  1  0  0  0  0
 22 39  1  0  0  0  0
 22 40  1  0  0  0  0
 23 24  1  0  0  0  0
 23 41  1  0  0  0  0
 23 42  1  0  0  0  0
 24 25  1  0  0  0  0
 24 43  1  0  0  0  0
 24 44  1  0  0  0  0
 25 45  1  0  0  0  0
 25 46  1  0  0  0  0
M  END
>  <Energy>
108.982

$$$$

 OpenBabel04232616063D

 35 37  0  0  0  0  0  0  0  0999 V2000
   -2.6280    0.9701    0.9265 C   0  0  0  0  0  0  0  0  0  0  0  0
   -1.3008    0.3762    0.5420 C   0  0  0  0  0  0  0  0  0  0  0  0
   -1.2397   -1.0312    0.5561 C   0  0  0  0  0  0  0  0  0  0  0  0
   -0.1241   -1.7146    0.0870 C   0  0  0  0  0  0  0  0  0  0  0  0
    0.9616   -1.0042   -0.4056 C   0  0  0  0  0  0  0  0  0  0  0  0
    0.9702    0.4010   -0.3953 C   0  0  0  0  0  0  0  0  0  0  0  0
    2.2244    1.0705   -0.9072 C   0  0  0  0  0  0  0  0  0  0  0  0
   -0.1647    1.1040    0.1079 C   0  0  0  0  0  0  0  0  0  0  0  0
   -0.1209    2.5283    0.1410 N   0  0  0  0  0  0  0  0  0  0  0  0
    0.3831    3.2161   -0.9139 N   0  0  0  0  0  0  0  0  0  0  0  0
    0.2569    4.4976   -0.6334 N   0  0  0  0  0  0  0  0  0  0  0  0
   -0.3088    4.6708    0.5904 N   0  0  0  0  0  0  0  0  0  0  0  0
   -0.5248    3.4675    1.0993 C   0  0  0  0  0  0  0  0  0  0  0  0
   -1.1164    3.2842    2.4255 C   0  0  0  0  0  0  0  0  0  0  0  0
   -2.2583    4.0506    2.6971 C   0  0  0  0  0  0  0  0  0  0  0  0
   -2.9714    4.0132    3.8462 N   0  0  0  0  0  0  0  0  0  0  0  0
   -2.5218    3.1929    4.8086 C   0  0  0  0  0  0  0  0  0  0  0  0
   -1.3823    2.4211    4.6691 C   0  0  0  0  0  0  0  0  0  0  0  0
   -0.6402    2.4745    3.4693 C   0  0  0  0  0  0  0  0  0  0  0  0
    0.6201    1.6535    3.4148 C   0  0  0  0  0  0  0  0  0  0  0  0
    1.4899    2.0224    2.4403 F   0  0  0  0  0  0  0  0  0  0  0  0
    1.3278    1.7164    4.5783 F   0  0  0  0  0  0  0  0  0  0  0  0
    0.3585    0.3335    3.2206 F   0  0  0  0  0  0  0  0  0  0  0  0
   -3.4472    0.3274    0.5795 H   0  0  0  0  0  0  0  0  0  0  0  0
   -2.7970    1.9419    0.4548 H   0  0  0  0  0  0  0  0  0  0  0  0
   -2.7134    1.0486    2.0118 H   0  0  0  0  0  0  0  0  0  0  0  0
   -2.0910   -1.6133    0.9071 H   0  0  0  0  0  0  0  0  0  0  0  0
   -0.1078   -2.8016    0.0876 H   0  0  0  0  0  0  0  0  0  0  0  0
    1.8184   -1.5576   -0.7867 H   0  0  0  0  0  0  0  0  0  0  0  0
    3.0452    0.3526   -1.0159 H   0  0  0  0  0  0  0  0  0  0  0  0
    2.5753    1.8344   -0.2063 H   0  0  0  0  0  0  0  0  0  0  0  0
    2.0494    1.5083   -1.8949 H   0  0  0  0  0  0  0  0  0  0  0  0
   -2.6553    4.7450    1.9562 H   0  0  0  0  0  0  0  0  0  0  0  0
   -3.1088    3.1793    5.7228 H   0  0  0  0  0  0  0  0  0  0  0  0
   -1.0629    1.7910    5.4963 H   0  0  0  0  0  0  0  0  0  0  0  0
  1  2  1  0  0  0  0
  1 24  1  0  0  0  0
  1 25  1  0  0  0  0
  1 26  1  0  0  0  0
  2  3  1  0  0  0  0
  2  8  2  0  0  0  0
  3  4  2  0  0  0  0
  3 27  1  0  0  0  0
  4  5  1  0  0  0  0
  4 28  1  0  0  0  0
  5  6  2  0  0  0  0
  5 29  1  0  0  0  0
  6  7  1  0  0  0  0
  6  8  1  0  0  0  0
  7 30  1  0  0  0  0
  7 31  1  0  0  0  0
  7 32  1  0  0  0  0
  8  9  1  0  0  0  0
  9 10  1  0  0  0  0
  9 13  1  0  0  0  0
 10 11  2  0  0  0  0
 11 12  1  0  0  0  0
 12 13  2  0  0  0  0
 13 14  1  0  0  0  0
 14 15  1  0  0  0  0
 14 19  2  0  0  0  0
 15 16  2  0  0  0  0
 15 33  1  0  0  0  0
 16 17  1  0  0  0  0
 17 18  2  0  0  0  0
 17 34  1  0  0  0  0
 18 19  1  0  0  0  0
 18 35  1  0  0  0  0
 19 20  1  0  0  0  0
 20 21  1  0  0  0  0
 20 22  1  0  0  0  0
 20 23  1  0  0  0  0
M  END
>  <Energy>
95.3526

$$$$

 OpenBabel04232616063D

 36 39  0  0  0  0  0  0  0  0999 V2000
    2.7085    2.6401   -1.0796 O   0  0  0  0  0  0  0  0  0  0  0  0
    1.8478    1.7936   -1.2376 C   0  0  0  0  0  0  0  0  0  0  0  0
    2.0257    0.6032   -2.0715 C   0  0  0  0  0  0  0  0  0  0  0  0
    0.9699   -0.1823   -1.8688 C   0  0  0  0  0  0  0  0  0  0  0  0
    0.1059    0.4820   -0.8869 C   0  0  0  0  0  0  0  0  0  0  0  0
   -0.8476   -0.0734   -0.3799 O   0  0  0  0  0  0  0  0  0  0  0  0
    0.6113    1.7255   -0.6788 N   0  0  0  0  0  0  0  0  0  0  0  0
    0.1887    2.6428    0.3675 C   0  0  0  0  0  0  0  0  0  0  0  0
   -1.3137    2.9388    0.3717 C   0  0  0  0  0  0  0  0  0  0  0  0
   -2.0143    2.1308    1.0025 O   0  0  0  0  0  0  0  0  0  0  0  0
   -1.8494    4.0992   -0.2127 N   0  0  0  0  0  0  0  0  0  0  0  0
   -1.1189    5.1458   -0.8897 C   0  0  0  0  0  0  0  0  0  0  0  0
   -0.0891    4.8469   -1.7917 C   0  0  0  0  0  0  0  0  0  0  0  0
    0.5801    5.8500   -2.5080 C   0  0  0  0  0  0  0  0  0  0  0  0
    0.2145    7.1800   -2.3600 C   0  0  0  0  0  0  0  0  0  0  0  0
   -0.8168    7.5076   -1.4891 C   0  0  0  0  0  0  0  0  0  0  0  0
   -1.4820    6.5044   -0.7632 C   0  0  0  0  0  0  0  0  0  0  0  0
   -2.7832    7.0310    0.3258 S   0  0  0  0  0  0  0  0  0  0  0  0
   -3.8201    5.6026    0.1547 C   0  0  0  0  0  0  0  0  0  0  0  0
   -5.2042    5.7741    0.3152 C   0  0  0  0  0  0  0  0  0  0  0  0
   -6.0699    4.6876    0.2205 C   0  0  0  0  0  0  0  0  0  0  0  0
   -5.5579    3.4263   -0.0487 C   0  0  0  0  0  0  0  0  0  0  0  0
   -4.1800    3.2522   -0.2040 C   0  0  0  0  0  0  0  0  0  0  0  0
   -3.2788    4.3287   -0.0830 C   0  0  0  0  0  0  0  0  0  0  0  0
    2.8875    0.4276   -2.6900 H   0  0  0  0  0  0  0  0  0  0  0  0
    0.7588   -1.1518   -2.2842 H   0  0  0  0  0  0  0  0  0  0  0  0
    0.7797    3.5612    0.3583 H   0  0  0  0  0  0  0  0  0  0  0  0
    0.4191    2.1559    1.3259 H   0  0  0  0  0  0  0  0  0  0  0  0
    0.1782    3.8260   -2.0275 H   0  0  0  0  0  0  0  0  0  0  0  0
    1.3747    5.5823   -3.2030 H   0  0  0  0  0  0  0  0  0  0  0  0
    0.7159    7.9579   -2.9302 H   0  0  0  0  0  0  0  0  0  0  0  0
   -1.1135    8.5494   -1.3879 H   0  0  0  0  0  0  0  0  0  0  0  0
   -5.6162    6.7593    0.5232 H   0  0  0  0  0  0  0  0  0  0  0  0
   -7.1393    4.8253    0.3557 H   0  0  0  0  0  0  0  0  0  0  0  0
   -6.2213    2.5690   -0.1332 H   0  0  0  0  0  0  0  0  0  0  0  0
   -3.8243    2.2498   -0.4357 H   0  0  0  0  0  0  0  0  0  0  0  0
  1  2  2  0  0  0  0
  2  3  1  0  0  0  0
  2  7  1  0  0  0  0
  3  4  2  0  0  0  0
  3 25  1  0  0  0  0
  4  5  1  0  0  0  0
  4 26  1  0  0  0  0
  5  6  2  0  0  0  0
  5  7  1  0  0  0  0
  7  8  1  0  0  0  0
  8  9  1  0  0  0  0
  8 27  1  0  0  0  0
  8 28  1  0  0  0  0
  9 10  2  0  0  0  0
  9 11  1  0  0  0  0
 11 12  1  0  0  0  0
 11 24  1  0  0  0  0
 12 13  1  0  0  0  0
 12 17  2  0  0  0  0
 13 14  2  0  0  0  0
 13 29  1  0  0  0  0
 14 15  1  0  0  0  0
 14 30  1  0  0  0  0
 15 16  2  0  0  0  0
 15 31  1  0  0  0  0
 16 17  1  0  0  0  0
 16 32  1  0  0  0  0
 17 18  1  0  0  0  0
 18 19  1  0  0  0  0
 19 20  1  0  0  0  0
 19 24  2  0  0  0  0
 20 21  2  0  0  0  0
 20 33  1  0  0  0  0
 21 22  1  0  0  0  0
 21 34  1  0  0  0  0
 22 23  2  0  0  0  0
 22 35  1  0  0  0  0
 23 24  1  0  0  0  0
 23 36  1  0  0  0  0
M  END
>  <Energy>
39.1731

$$$$

 OpenBabel04232616063D

 32 33  0  0  0  0  0  0  0  0999 V2000
    0.9040    0.2312   -0.0112 C   0  0  0  0  0  0  0  0  0  0  0  0
    2.3838    0.1053    0.0228 C   0  0  0  0  0  0  0  0  0  0  0  0
    3.2884    1.0857   -0.0724 C   0  0  0  0  0  0  0  0  0  0  0  0
    4.6405    0.7315    0.0460 N   0  0  0  0  0  0  0  0  0  0  0  0
    5.5905    1.7699    0.2632 C   0  0  0  0  0  0  0  0  0  0  0  0
    5.5519    2.9656   -0.4825 C   0  0  0  0  0  0  0  0  0  0  0  0
    6.4554    4.0067   -0.2463 C   0  0  0  0  0  0  0  0  0  0  0  0
    7.4546    3.8579    0.7100 C   0  0  0  0  0  0  0  0  0  0  0  0
    7.5245    2.6857    1.4695 C   0  0  0  0  0  0  0  0  0  0  0  0
    8.6593    2.4395    2.4291 C   0  0  0  0  0  0  0  0  0  0  0  0
    9.2827    3.5768    2.8433 F   0  0  0  0  0  0  0  0  0  0  0  0
    8.2549    1.8003    3.5644 F   0  0  0  0  0  0  0  0  0  0  0  0
    9.6320    1.6503    1.8945 F   0  0  0  0  0  0  0  0  0  0  0  0
    6.5518    1.6871    1.2744 C   0  0  0  0  0  0  0  0  0  0  0  0
    4.8334   -0.6536    0.2126 C   0  0  0  0  0  0  0  0  0  0  0  0
    5.7121   -1.5759    0.2909 N   0  0  0  0  0  0  0  0  0  0  0  0
    7.2909   -1.5360    0.0907 S   0  0  0  0  0  0  0  0  0  0  0  0
    7.8362   -1.8085    1.7657 C   0  0  0  0  0  0  0  0  0  0  0  0
    7.6808   -2.7174   -0.6531 O   0  0  0  0  0  0  0  0  0  0  0  0
    7.7604   -0.2404   -0.3423 O   0  0  0  0  0  0  0  0  0  0  0  0
    3.1621   -1.4206    0.2960 S   0  0  0  0  0  0  0  0  0  0  0  0
    0.5943    1.2794   -0.0599 H   0  0  0  0  0  0  0  0  0  0  0  0
    0.4583   -0.2043    0.8891 H   0  0  0  0  0  0  0  0  0  0  0  0
    0.4923   -0.2834   -0.8854 H   0  0  0  0  0  0  0  0  0  0  0  0
    3.0274    2.1307   -0.1782 H   0  0  0  0  0  0  0  0  0  0  0  0
    4.8200    3.0972   -1.2761 H   0  0  0  0  0  0  0  0  0  0  0  0
    6.3937    4.9220   -0.8308 H   0  0  0  0  0  0  0  0  0  0  0  0
    8.1843    4.6535    0.8537 H   0  0  0  0  0  0  0  0  0  0  0  0
    6.5686    0.8176    1.9213 H   0  0  0  0  0  0  0  0  0  0  0  0
    7.3891   -2.7349    2.1339 H   0  0  0  0  0  0  0  0  0  0  0  0
    7.5363   -0.9763    2.4011 H   0  0  0  0  0  0  0  0  0  0  0  0
    8.9232   -1.8963    1.7662 H   0  0  0  0  0  0  0  0  0  0  0  0
  1  2  1  0  0  0  0
  1 22  1  0  0  0  0
  1 23  1  0  0  0  0
  1 24  1  0  0  0  0
  2  3  2  0  0  0  0
  2 21  1  0  0  0  0
  3  4  1  0  0  0  0
  3 25  1  0  0  0  0
  4  5  1  0  0  0  0
  4 15  1  0  0  0  0
  5  6  1  0  0  0  0
  5 14  2  0  0  0  0
  6  7  2  0  0  0  0
  6 26  1  0  0  0  0
  7  8  1  0  0  0  0
  7 27  1  0  0  0  0
  8  9  2  0  0  0  0
  8 28  1  0  0  0  0
  9 10  1  0  0  0  0
  9 14  1  0  0  0  0
 10 11  1  0  0  0  0
 10 12  1  0  0  0  0
 10 13  1  0  0  0  0
 14 29  1  0  0  0  0
 15 16  2  0  0  0  0
 15 21  1  0  0  0  0
 16 17  1  0  0  0  0
 17 18  1  0  0  0  0
 17 19  2  0  0  0  0
 17 20  2  0  0  0  0
 18 30  1  0  0  0  0
 18 31  1  0  0  0  0
 18 32  1  0  0  0  0
M  END
>  <Energy>
29.5483

$$$$

 OpenBabel04232616063D

 43 45  0  0  0  0  0  0  0  0999 V2000
    3.5121    1.8846    0.7521 C   0  0  0  0  0  0  0  0  0  0  0  0
    3.0614    0.2182    0.2080 S   0  0  0  0  0  0  0  0  0  0  0  0
    3.5102   -0.7582    1.6488 C   0  0  0  0  0  0  0  0  0  0  0  0
    4.0307   -0.0772    2.7011 N   0  0  0  0  0  0  0  0  0  0  0  0
    4.3514   -0.7164    3.8510 C   0  0  0  0  0  0  0  0  0  0  0  0
    4.7930    0.0682    4.8889 N   0  0  0  0  0  0  0  0  0  0  0  0
    5.9588   -0.2141    5.7344 C   0  0  0  0  0  0  0  0  0  0  0  0
    5.5505    0.1305    7.1760 C   0  0  0  0  0  0  0  0  0  0  0  0
    5.2236    1.5303    7.2790 O   0  0  0  0  0  0  0  0  0  0  0  0
    4.1563    1.8847    6.3745 C   0  0  0  0  0  0  0  0  0  0  0  0
    4.4679    1.5038    4.9107 C   0  0  0  0  0  0  0  0  0  0  0  0
    4.1224   -2.0983    3.9740 C   0  0  0  0  0  0  0  0  0  0  0  0
    3.6382   -2.8217    2.8568 C   0  0  0  0  0  0  0  0  0  0  0  0
    3.3070   -2.1341    1.6777 C   0  0  0  0  0  0  0  0  0  0  0  0
    2.7503   -2.8342    0.5534 C   0  0  0  0  0  0  0  0  0  0  0  0
    2.3056   -3.4484   -0.3233 N   0  0  0  0  0  0  0  0  0  0  0  0
    3.3997   -4.3165    2.9833 C   0  0  0  0  0  0  0  0  0  0  0  0
    4.1608   -4.9330    4.1673 C   0  0  0  0  0  0  0  0  0  0  0  0
    5.6776   -5.0139    3.9120 C   0  0  0  0  0  0  0  0  0  0  0  0
    3.6471   -6.3490    4.4490 C   0  0  0  0  0  0  0  0  0  0  0  0
    3.8350   -4.1657    5.3302 O   0  0  0  0  0  0  0  0  0  0  0  0
    4.3209   -2.8232    5.2874 C   0  0  0  0  0  0  0  0  0  0  0  0
    3.2544    2.5934   -0.0399 H   0  0  0  0  0  0  0  0  0  0  0  0
    4.5876    1.9519    0.9355 H   0  0  0  0  0  0  0  0  0  0  0  0
    2.9608    2.1672    1.6530 H   0  0  0  0  0  0  0  0  0  0  0  0
    6.7912    0.4343    5.4303 H   0  0  0  0  0  0  0  0  0  0  0  0
    6.3382   -1.2307    5.6619 H   0  0  0  0  0  0  0  0  0  0  0  0
    6.3713   -0.0766    7.8682 H   0  0  0  0  0  0  0  0  0  0  0  0
    4.6827   -0.4607    7.4955 H   0  0  0  0  0  0  0  0  0  0  0  0
    4.0022    2.9647    6.4550 H   0  0  0  0  0  0  0  0  0  0  0  0
    3.2380    1.3868    6.7090 H   0  0  0  0  0  0  0  0  0  0  0  0
    5.3320    2.0789    4.5523 H   0  0  0  0  0  0  0  0  0  0  0  0
    3.6035    1.7616    4.2900 H   0  0  0  0  0  0  0  0  0  0  0  0
    3.6875   -4.8356    2.0619 H   0  0  0  0  0  0  0  0  0  0  0  0
    2.3194   -4.4499    3.1312 H   0  0  0  0  0  0  0  0  0  0  0  0
    5.9055   -5.7156    3.1028 H   0  0  0  0  0  0  0  0  0  0  0  0
    6.2056   -5.3370    4.8160 H   0  0  0  0  0  0  0  0  0  0  0  0
    6.1111   -4.0484    3.6311 H   0  0  0  0  0  0  0  0  0  0  0  0
    3.8053   -7.0152    3.5953 H   0  0  0  0  0  0  0  0  0  0  0  0
    2.5792   -6.3395    4.6945 H   0  0  0  0  0  0  0  0  0  0  0  0
    4.1580   -6.7752    5.3210 H   0  0  0  0  0  0  0  0  0  0  0  0
    5.3786   -2.8890    5.5400 H   0  0  0  0  0  0  0  0  0  0  0  0
    3.8024   -2.2845    6.0866 H   0  0  0  0  0  0  0  0  0  0  0  0
  1  2  1  0  0  0  0
  1 23  1  0  0  0  0
  1 24  1  0  0  0  0
  1 25  1  0  0  0  0
  2  3  1  0  0  0  0
  3  4  1  0  0  0  0
  3 14  2  0  0  0  0
  4  5  2  0  0  0  0
  5  6  1  0  0  0  0
  5 12  1  0  0  0  0
  6  7  1  0  0  0  0
  6 11  1  0  0  0  0
  7  8  1  0  0  0  0
  7 26  1  0  0  0  0
  7 27  1  0  0  0  0
  8  9  1  0  0  0  0
  8 28  1  0  0  0  0
  8 29  1  0  0  0  0
  9 10  1  0  0  0  0
 10 11  1  0  0  0  0
 10 30  1  0  0  0  0
 10 31  1  0  0  0  0
 11 32  1  0  0  0  0
 11 33  1  0  0  0  0
 12 13  2  0  0  0  0
 12 22  1  0  0  0  0
 13 14  1  0  0  0  0
 13 17  1  0  0  0  0
 14 15  1  0  0  0  0
 15 16  3  0  0  0  0
 17 18  1  0  0  0  0
 17 34  1  0  0  0  0
 17 35  1  0  0  0  0
 18 19  1  0  0  0  0
 18 20  1  0  0  0  0
 18 21  1  0  0  0  0
 19 36  1  0  0  0  0
 19 37  1  0  0  0  0
 19 38  1  0  0  0  0
 20 39  1  0  0  0  0
 20 40  1  0  0  0  0
 20 41  1  0  0  0  0
 21 22  1  0  0  0  0
 22 42  1  0  0  0  0
 22 43  1  0  0  0  0
M  END
>  <Energy>
85.1054

$$$$

 OpenBabel04232616063D

 36 38  0  0  0  0  0  0  0  0999 V2000
    6.9210   -0.5443   -4.4494 C   0  0  0  0  0  0  0  0  0  0  0  0
    6.3121   -0.0216   -3.2681 O   0  0  0  0  0  0  0  0  0  0  0  0
    7.1738    0.1729   -2.2453 C   0  0  0  0  0  0  0  0  0  0  0  0
    8.3884    0.0411   -2.2925 O   0  0  0  0  0  0  0  0  0  0  0  0
    6.4712    0.6590   -1.0357 C   0  0  0  0  0  0  0  0  0  0  0  0
    7.1467    1.6352   -0.2711 C   0  0  0  0  0  0  0  0  0  0  0  0
    6.6329    2.1036    0.9487 C   0  0  0  0  0  0  0  0  0  0  0  0
    7.3438    3.0490    1.7410 N   0  0  0  0  0  0  0  0  0  0  0  0
    8.3185    3.8991    1.2803 C   0  0  0  0  0  0  0  0  0  0  0  0
    8.7591    4.0716    0.1567 O   0  0  0  0  0  0  0  0  0  0  0  0
    8.7696    4.6938    2.4256 C   0  0  0  0  0  0  0  0  0  0  0  0
    8.1123    4.2789    3.5041 C   0  0  0  0  0  0  0  0  0  0  0  0
    8.2894    4.8197    4.8727 C   0  0  0  0  0  0  0  0  0  0  0  0
    9.0431    6.1599    4.8341 C   0  0  0  0  0  0  0  0  0  0  0  0
   10.2133    6.1549    3.8368 C   0  0  0  0  0  0  0  0  0  0  0  0
    9.7834    5.7753    2.4084 C   0  0  0  0  0  0  0  0  0  0  0  0
    7.1657    3.2409    3.0903 C   0  0  0  0  0  0  0  0  0  0  0  0
    6.4242    2.6880    3.8843 O   0  0  0  0  0  0  0  0  0  0  0  0
    5.3998    1.5873    1.3695 C   0  0  0  0  0  0  0  0  0  0  0  0
    4.7126    0.6327    0.6103 C   0  0  0  0  0  0  0  0  0  0  0  0
    5.2502    0.1502   -0.5841 C   0  0  0  0  0  0  0  0  0  0  0  0
    4.3750   -1.1141   -1.3704 Cl  0  0  0  0  0  0  0  0  0  0  0  0
    6.1265   -0.8090   -5.1528 H   0  0  0  0  0  0  0  0  0  0  0  0
    7.4954   -1.4503   -4.2269 H   0  0  0  0  0  0  0  0  0  0  0  0
    7.5594    0.2147   -4.9107 H   0  0  0  0  0  0  0  0  0  0  0  0
    8.1139    1.9796   -0.6358 H   0  0  0  0  0  0  0  0  0  0  0  0
    8.8593    4.0968    5.4684 H   0  0  0  0  0  0  0  0  0  0  0  0
    7.3225    4.9611    5.3672 H   0  0  0  0  0  0  0  0  0  0  0  0
    9.4135    6.3980    5.8380 H   0  0  0  0  0  0  0  0  0  0  0  0
    8.3432    6.9586    4.5576 H   0  0  0  0  0  0  0  0  0  0  0  0
   10.9731    5.4432    4.1848 H   0  0  0  0  0  0  0  0  0  0  0  0
   10.6895    7.1420    3.8218 H   0  0  0  0  0  0  0  0  0  0  0  0
   10.6652    5.4760    1.8315 H   0  0  0  0  0  0  0  0  0  0  0  0
    9.3517    6.6539    1.9141 H   0  0  0  0  0  0  0  0  0  0  0  0
    4.9275    1.9219    2.2908 H   0  0  0  0  0  0  0  0  0  0  0  0
    3.7602    0.2547    0.9778 H   0  0  0  0  0  0  0  0  0  0  0  0
  1  2  1  0  0  0  0
  1 23  1  0  0  0  0
  1 24  1  0  0  0  0
  1 25  1  0  0  0  0
  2  3  1  0  0  0  0
  3  4  2  0  0  0  0
  3  5  1  0  0  0  0
  5  6  1  0  0  0  0
  5 21  2  0  0  0  0
  6  7  2  0  0  0  0
  6 26  1  0  0  0  0
  7  8  1  0  0  0  0
  7 19  1  0  0  0  0
  8  9  1  0  0  0  0
  8 17  1  0  0  0  0
  9 10  2  0  0  0  0
  9 11  1  0  0  0  0
 11 12  2  0  0  0  0
 11 16  1  0  0  0  0
 12 13  1  0  0  0  0
 12 17  1  0  0  0  0
 13 14  1  0  0  0  0
 13 27  1  0  0  0  0
 13 28  1  0  0  0  0
 14 15  1  0  0  0  0
 14 29  1  0  0  0  0
 14 30  1  0  0  0  0
 15 16  1  0  0  0  0
 15 31  1  0  0  0  0
 15 32  1  0  0  0  0
 16 33  1  0  0  0  0
 16 34  1  0  0  0  0
 17 18  2  0  0  0  0
 19 20  2  0  0  0  0
 19 35  1  0  0  0  0
 20 21  1  0  0  0  0
 20 36  1  0  0  0  0
 21 22  1  0  0  0  0
M  END
>  <Energy>
-1.40449

$$$$

 OpenBabel04232616063D

 52 53  0  0  1  0  0  0  0  0999 V2000
    1.7897   -0.5064    0.4430 C   0  0  0  0  0  0  0  0  0  0  0  0
    2.0962   -0.0798    1.7670 O   0  0  0  0  0  0  0  0  0  0  0  0
    3.2986   -0.5894    2.3316 C   0  0  3  0  0  0  0  0  0  0  0  0
    3.4450   -0.2218    3.8423 C   0  0  0  0  0  0  0  0  0  0  0  0
    3.6203    1.1952    4.4589 C   0  0  0  0  0  0  0  0  0  0  0  0
    2.7203    2.3219    4.1465 N   0  0  0  0  0  0  0  0  0  0  0  0
    2.4731    3.2903    5.1531 C   0  0  0  0  0  0  0  0  0  0  0  0
    3.0443    3.2522    6.2484 O   0  0  0  0  0  0  0  0  0  0  0  0
    1.4410    4.3885    4.8129 C   0  0  0  0  0  0  0  0  0  0  0  0
    0.9523    5.3978    5.8927 C   0  0  0  0  0  0  0  0  0  0  0  0
    2.0669    6.3683    6.3182 C   0  0  0  0  0  0  0  0  0  0  0  0
   -0.1788    6.2470    5.2572 C   0  0  0  0  0  0  0  0  0  0  0  0
    0.3698    4.7046    7.1324 C   0  0  0  0  0  0  0  0  0  0  0  0
    2.3045    2.5385    2.7523 C   0  0  0  0  0  0  0  0  0  0  0  0
    3.3118    2.3551    1.6011 C   0  0  0  0  0  0  0  0  0  0  0  0
    2.9677    2.5051    0.4285 O   0  0  0  0  0  0  0  0  0  0  0  0
    4.6322    2.0760    1.9674 N   0  0  0  0  0  0  0  0  0  0  0  0
    5.4403    3.2439    2.2658 C   0  0  0  0  0  0  0  0  0  0  0  0
    5.2410    0.8894    1.4585 C   0  0  0  0  0  0  0  0  0  0  0  0
    6.5576    0.9016    0.9393 C   0  0  0  0  0  0  0  0  0  0  0  0
    7.1309   -0.2422    0.3743 C   0  0  0  0  0  0  0  0  0  0  0  0
    6.3987   -1.4166    0.3002 C   0  0  0  0  0  0  0  0  0  0  0  0
    5.1400   -1.4682    0.8773 C   0  0  0  0  0  0  0  0  0  0  0  0
    4.5652   -0.3453    1.5120 C   0  0  0  0  0  0  0  0  0  0  0  0
    1.5453    0.3756   -0.1564 H   0  0  0  0  0  0  0  0  0  0  0  0
    0.9029   -1.1448    0.4715 H   0  0  0  0  0  0  0  0  0  0  0  0
    2.5958   -1.0492   -0.0552 H   0  0  0  0  0  0  0  0  0  0  0  0
    3.1505   -1.6776    2.3546 H   0  0  0  0  0  0  0  0  0  0  0  0
    4.3259   -0.7803    4.1940 H   0  0  0  0  0  0  0  0  0  0  0  0
    2.5825   -0.6715    4.3554 H   0  0  0  0  0  0  0  0  0  0  0  0
    4.6498    1.5469    4.3272 H   0  0  0  0  0  0  0  0  0  0  0  0
    3.5563    1.0368    5.5456 H   0  0  0  0  0  0  0  0  0  0  0  0
    0.5567    3.8658    4.4235 H   0  0  0  0  0  0  0  0  0  0  0  0
    1.8746    4.9891    4.0037 H   0  0  0  0  0  0  0  0  0  0  0  0
    2.4685    6.9133    5.4562 H   0  0  0  0  0  0  0  0  0  0  0  0
    2.8948    5.8506    6.8093 H   0  0  0  0  0  0  0  0  0  0  0  0
    1.6837    7.1180    7.0228 H   0  0  0  0  0  0  0  0  0  0  0  0
    0.1814    6.7951    4.3788 H   0  0  0  0  0  0  0  0  0  0  0  0
   -0.5747    6.9845    5.9657 H   0  0  0  0  0  0  0  0  0  0  0  0
   -1.0164    5.6169    4.9365 H   0  0  0  0  0  0  0  0  0  0  0  0
    1.1338    4.1626    7.6964 H   0  0  0  0  0  0  0  0  0  0  0  0
   -0.4204    3.9983    6.8570 H   0  0  0  0  0  0  0  0  0  0  0  0
   -0.0729    5.4392    7.8176 H   0  0  0  0  0  0  0  0  0  0  0  0
    1.9185    3.5471    2.6123 H   0  0  0  0  0  0  0  0  0  0  0  0
    1.4428    1.8827    2.6032 H   0  0  0  0  0  0  0  0  0  0  0  0
    4.8226    4.0095    2.7503 H   0  0  0  0  0  0  0  0  0  0  0  0
    5.8406    3.6713    1.3433 H   0  0  0  0  0  0  0  0  0  0  0  0
    6.2451    2.9639    2.9516 H   0  0  0  0  0  0  0  0  0  0  0  0
    7.1426    1.8172    0.9410 H   0  0  0  0  0  0  0  0  0  0  0  0
    8.1393   -0.2017   -0.0257 H   0  0  0  0  0  0  0  0  0  0  0  0
    6.8265   -2.2992   -0.1738 H   0  0  0  0  0  0  0  0  0  0  0  0
    4.5956   -2.4161    0.8382 H   0  0  0  0  0  0  0  0  0  0  0  0
  1  2  1  0  0  0  0
  1 25  1  0  0  0  0
  1 26  1  0  0  0  0
  1 27  1  0  0  0  0
  2  3  1  0  0  0  0
  3  4  1  0  0  0  0
  3 24  1  0  0  0  0
  3 28  1  0  0  0  0
  4  5  1  0  0  0  0
  4 29  1  0  0  0  0
  4 30  1  0  0  0  0
  5  6  1  0  0  0  0
  5 31  1  0  0  0  0
  5 32  1  0  0  0  0
  6  7  1  0  0  0  0
  6 14  1  0  0  0  0
  7  8  2  0  0  0  0
  7  9  1  0  0  0  0
  9 10  1  0  0  0  0
  9 33  1  0  0  0  0
  9 34  1  0  0  0  0
 10 11  1  0  0  0  0
 10 12  1  0  0  0  0
 10 13  1  0  0  0  0
 11 35  1  0  0  0  0
 11 36  1  0  0  0  0
 11 37  1  0  0  0  0
 12 38  1  0  0  0  0
 12 39  1  0  0  0  0
 12 40  1  0  0  0  0
 13 41  1  0  0  0  0
 13 42  1  0  0  0  0
 13 43  1  0  0  0  0
 14 15  1  0  0  0  0
 14 44  1  0  0  0  0
 14 45  1  0  0  0  0
 15 16  2  0  0  0  0
 15 17  1  0  0  0  0
 17 18  1  0  0  0  0
 17 19  1  0  0  0  0
 18 46  1  0  0  0  0
 18 47  1  0  0  0  0
 18 48  1  0  0  0  0
 19 20  1  0  0  0  0
 19 24  2  0  0  0  0
 20 21  2  0  0  0  0
 20 49  1  0  0  0  0
 21 22  1  0  0  0  0
 21 50  1  0  0  0  0
 22 23  2  0  0  0  0
 22 51  1  0  0  0  0
 23 24  1  0  0  0  0
 23 52  1  0  0  0  0
M  END
>  <Energy>
107.311

$$$$

 OpenBabel04232616063D

 39 42  0  0  0  0  0  0  0  0999 V2000
   -1.2969    1.8050   -2.4046 C   0  0  0  0  0  0  0  0  0  0  0  0
   -0.9096    0.6082   -1.7059 N   0  0  0  0  0  0  0  0  0  0  0  0
   -1.7867   -0.3501   -1.2119 C   0  0  0  0  0  0  0  0  0  0  0  0
   -2.9981   -0.3803   -1.2629 O   0  0  0  0  0  0  0  0  0  0  0  0
   -0.8899   -1.4155   -0.5664 C   0  0  0  0  0  0  0  0  0  0  0  0
   -1.2002   -2.5200    0.0306 N   0  0  0  0  0  0  0  0  0  0  0  0
   -2.5915   -2.7064    0.1551 O   0  0  0  0  0  0  0  0  0  0  0  0
   -2.8805   -4.0428    0.0316 C   0  0  0  0  0  0  0  0  0  0  0  0
   -2.1833   -4.8765   -0.5298 O   0  0  0  0  0  0  0  0  0  0  0  0
   -4.1710   -4.3601    0.7209 C   0  0  0  0  0  0  0  0  0  0  0  0
   -5.1834   -3.3851    0.7382 C   0  0  0  0  0  0  0  0  0  0  0  0
   -6.4036   -3.6467    1.3555 C   0  0  0  0  0  0  0  0  0  0  0  0
   -6.6303   -4.8836    1.9544 C   0  0  0  0  0  0  0  0  0  0  0  0
   -5.6460   -5.8789    1.9515 C   0  0  0  0  0  0  0  0  0  0  0  0
   -5.9145   -7.1184    2.5634 C   0  0  0  0  0  0  0  0  0  0  0  0
   -4.9625   -8.1340    2.5853 C   0  0  0  0  0  0  0  0  0  0  0  0
   -3.7228   -7.9195    2.0048 C   0  0  0  0  0  0  0  0  0  0  0  0
   -3.4387   -6.6914    1.3987 C   0  0  0  0  0  0  0  0  0  0  0  0
   -4.3870   -5.6374    1.3367 C   0  0  0  0  0  0  0  0  0  0  0  0
    0.4833   -0.9535   -0.7515 C   0  0  0  0  0  0  0  0  0  0  0  0
    1.6746   -1.5238   -0.3453 C   0  0  0  0  0  0  0  0  0  0  0  0
    2.8488   -0.8297   -0.6445 C   0  0  0  0  0  0  0  0  0  0  0  0
    2.8015    0.3970   -1.3345 C   0  0  0  0  0  0  0  0  0  0  0  0
    1.5796    0.9532   -1.7361 C   0  0  0  0  0  0  0  0  0  0  0  0
    0.4218    0.2600   -1.4307 C   0  0  0  0  0  0  0  0  0  0  0  0
   -2.3826    1.8449   -2.5252 H   0  0  0  0  0  0  0  0  0  0  0  0
   -0.8283    1.8164   -3.3937 H   0  0  0  0  0  0  0  0  0  0  0  0
   -0.9692    2.6787   -1.8329 H   0  0  0  0  0  0  0  0  0  0  0  0
   -5.0362   -2.4173    0.2626 H   0  0  0  0  0  0  0  0  0  0  0  0
   -7.1838   -2.8893    1.3662 H   0  0  0  0  0  0  0  0  0  0  0  0
   -7.5943   -5.0653    2.4273 H   0  0  0  0  0  0  0  0  0  0  0  0
   -6.8799   -7.3043    3.0307 H   0  0  0  0  0  0  0  0  0  0  0  0
   -5.1891   -9.0875    3.0550 H   0  0  0  0  0  0  0  0  0  0  0  0
   -2.9693   -8.7032    2.0159 H   0  0  0  0  0  0  0  0  0  0  0  0
   -2.4464   -6.5776    0.9677 H   0  0  0  0  0  0  0  0  0  0  0  0
    1.6930   -2.4687    0.1877 H   0  0  0  0  0  0  0  0  0  0  0  0
    3.8103   -1.2391   -0.3402 H   0  0  0  0  0  0  0  0  0  0  0  0
    3.7305    0.9202   -1.5558 H   0  0  0  0  0  0  0  0  0  0  0  0
    1.5615    1.9004   -2.2638 H   0  0  0  0  0  0  0  0  0  0  0  0
  1  2  1  0  0  0  0
  1 26  1  0  0  0  0
  1 27  1  0  0  0  0
  1 28  1  0  0  0  0
  2  3  1  0  0  0  0
  2 25  1  0  0  0  0
  3  4  2  0  0  0  0
  3  5  1  0  0  0  0
  5  6  2  0  0  0  0
  5 20  1  0  0  0  0
  6  7  1  0  0  0  0
  7  8  1  0  0  0  0
  8  9  2  0  0  0  0
  8 10  1  0  0  0  0
 10 11  1  0  0  0  0
 10 19  2  0  0  0  0
 11 12  2  0  0  0  0
 11 29  1  0  0  0  0
 12 13  1  0  0  0  0
 12 30  1  0  0  0  0
 13 14  2  0  0  0  0
 13 31  1  0  0  0  0
 14 15  1  0  0  0  0
 14 19  1  0  0  0  0
 15 16  2  0  0  0  0
 15 32  1  0  0  0  0
 16 17  1  0  0  0  0
 16 33  1  0  0  0  0
 17 18  2  0  0  0  0
 17 34  1  0  0  0  0
 18 19  1  0  0  0  0
 18 35  1  0  0  0  0
 20 21  1  0  0  0  0
 20 25  2  0  0  0  0
 21 22  2  0  0  0  0
 21 36  1  0  0  0  0
 22 23  1  0  0  0  0
 22 37  1  0  0  0  0
 23 24  2  0  0  0  0
 23 38  1  0  0  0  0
 24 25  1  0  0  0  0
 24 39  1  0  0  0  0
M  END
>  <Energy>
148.484

$$$$

 OpenBabel04232616063D

 49 52  0  0  0  0  0  0  0  0999 V2000
   -2.9918    0.2395   -0.2126 N   0  0  0  0  0  0  0  0  0  0  0  0
   -1.8332    0.1845   -0.1471 C   0  0  0  0  0  0  0  0  0  0  0  0
   -0.4091    0.1190   -0.0663 C   0  0  0  0  0  0  0  0  0  0  0  0
    0.2235    0.0588    1.1698 C   0  0  0  0  0  0  0  0  0  0  0  0
    1.6193    0.0049    1.2370 C   0  0  0  0  0  0  0  0  0  0  0  0
    2.4271    0.0092    0.0873 C   0  0  0  0  0  0  0  0  0  0  0  0
    3.8062   -0.0600    0.1719 N   0  0  0  0  0  0  0  0  0  0  0  0
    4.6211   -0.6264   -0.9069 C   0  0  0  0  0  0  0  0  0  0  0  0
    5.5954   -1.6539   -0.3329 C   0  0  0  0  0  0  0  0  0  0  0  0
    6.3890   -1.0719    0.8324 C   0  0  0  0  0  0  0  0  0  0  0  0
    5.4615   -0.5074    1.9407 C   0  0  0  0  0  0  0  0  0  0  0  0
    6.3137    0.1329    3.0645 C   0  0  0  0  0  0  0  0  0  0  0  0
    7.1175   -0.9109    3.8502 C   0  0  0  0  0  0  0  0  0  0  0  0
    6.2317   -1.9831    4.3151 N   0  0  0  0  0  0  0  0  0  0  0  0
    6.2595   -2.4387    5.6191 C   0  0  0  0  0  0  0  0  0  0  0  0
    5.9878   -3.7707    5.9545 C   0  0  0  0  0  0  0  0  0  0  0  0
    5.9930   -4.1991    7.2819 C   0  0  0  0  0  0  0  0  0  0  0  0
    6.2762   -3.2738    8.2662 C   0  0  0  0  0  0  0  0  0  0  0  0
    6.5416   -1.9791    8.0153 N   0  0  0  0  0  0  0  0  0  0  0  0
    6.5220   -1.6041    6.7110 C   0  0  0  0  0  0  0  0  0  0  0  0
    5.4128   -2.6552    3.3098 C   0  0  0  0  0  0  0  0  0  0  0  0
    4.5821   -1.6018    2.5940 C   0  0  0  0  0  0  0  0  0  0  0  0
    4.5433    0.5512    1.2895 C   0  0  0  0  0  0  0  0  0  0  0  0
    1.7582    0.0607   -1.1451 C   0  0  0  0  0  0  0  0  0  0  0  0
    0.3618    0.1152   -1.2295 C   0  0  0  0  0  0  0  0  0  0  0  0
   -0.3549    0.0473    2.0914 H   0  0  0  0  0  0  0  0  0  0  0  0
    2.0626   -0.0785    2.2250 H   0  0  0  0  0  0  0  0  0  0  0  0
    5.1716    0.1762   -1.4106 H   0  0  0  0  0  0  0  0  0  0  0  0
    4.0246   -1.1452   -1.6644 H   0  0  0  0  0  0  0  0  0  0  0  0
    6.2822   -1.9948   -1.1151 H   0  0  0  0  0  0  0  0  0  0  0  0
    5.0444   -2.5417    0.0010 H   0  0  0  0  0  0  0  0  0  0  0  0
    7.0297   -0.2647    0.4523 H   0  0  0  0  0  0  0  0  0  0  0  0
    7.0679   -1.8397    1.2143 H   0  0  0  0  0  0  0  0  0  0  0  0
    5.6548    0.6631    3.7660 H   0  0  0  0  0  0  0  0  0  0  0  0
    6.9968    0.8849    2.6508 H   0  0  0  0  0  0  0  0  0  0  0  0
    7.6451   -0.4043    4.6643 H   0  0  0  0  0  0  0  0  0  0  0  0
    7.9056   -1.3419    3.2208 H   0  0  0  0  0  0  0  0  0  0  0  0
    5.7877   -4.5111    5.1861 H   0  0  0  0  0  0  0  0  0  0  0  0
    5.7861   -5.2329    7.5311 H   0  0  0  0  0  0  0  0  0  0  0  0
    6.2988   -3.5578    9.3137 H   0  0  0  0  0  0  0  0  0  0  0  0
    6.6956   -0.5415    6.5699 H   0  0  0  0  0  0  0  0  0  0  0  0
    4.7021   -3.3670    3.7434 H   0  0  0  0  0  0  0  0  0  0  0  0
    6.0424   -3.2201    2.6138 H   0  0  0  0  0  0  0  0  0  0  0  0
    3.9180   -1.1297    3.3330 H   0  0  0  0  0  0  0  0  0  0  0  0
    3.9255   -2.0957    1.8715 H   0  0  0  0  0  0  0  0  0  0  0  0
    5.1447    1.3820    0.8965 H   0  0  0  0  0  0  0  0  0  0  0  0
    3.8881    1.0048    2.0420 H   0  0  0  0  0  0  0  0  0  0  0  0
    2.3164    0.0894   -2.0769 H   0  0  0  0  0  0  0  0  0  0  0  0
   -0.1115    0.1619   -2.2081 H   0  0  0  0  0  0  0  0  0  0  0  0
  1  2  3  0  0  0  0
  2  3  1  0  0  0  0
  3  4  1  0  0  0  0
  3 25  2  0  0  0  0
  4  5  2  0  0  0  0
  4 26  1  0  0  0  0
  5  6  1  0  0  0  0
  5 27  1  0  0  0  0
  6  7  1  0  0  0  0
  6 24  2  0  0  0  0
  7  8  1  0  0  0  0
  7 23  1  0  0  0  0
  8  9  1  0  0  0  0
  8 28  1  0  0  0  0
  8 29  1  0  0  0  0
  9 10  1  0  0  0  0
  9 30  1  0  0  0  0
  9 31  1  0  0  0  0
 10 11  1  0  0  0  0
 10 32  1  0  0  0  0
 10 33  1  0  0  0  0
 11 12  1  0  0  0  0
 11 22  1  0  0  0  0
 11 23  1  0  0  0  0
 12 13  1  0  0  0  0
 12 34  1  0  0  0  0
 12 35  1  0  0  0  0
 13 14  1  0  0  0  0
 13 36  1  0  0  0  0
 13 37  1  0  0  0  0
 14 15  1  0  0  0  0
 14 21  1  0  0  0  0
 15 16  1  0  0  0  0
 15 20  2  0  0  0  0
 16 17  2  0  0  0  0
 16 38  1  0  0  0  0
 17 18  1  0  0  0  0
 17 39  1  0  0  0  0
 18 19  2  0  0  0  0
 18 40  1  0  0  0  0
 19 20  1  0  0  0  0
 20 41  1  0  0  0  0
 21 22  1  0  0  0  0
 21 42  1  0  0  0  0
 21 43  1  0  0  0  0
 22 44  1  0  0  0  0
 22 45  1  0  0  0  0
 23 46  1  0  0  0  0
 23 47  1  0  0  0  0
 24 25  1  0  0  0  0
 24 48  1  0  0  0  0
 25 49  1  0  0  0  0
M  END
>  <Energy>
87.4785

$$$$

 OpenBabel04232616063D

 41 44  0  0  0  0  0  0  0  0999 V2000
    1.5604   -1.1358   -0.3339 O   0  0  0  0  0  0  0  0  0  0  0  0
    2.6999   -0.7972    0.0070 C   0  0  0  0  0  0  0  0  0  0  0  0
    2.9452   -0.5237    1.5103 C   0  0  0  0  0  0  0  0  0  0  0  0
    3.8935    0.5149    1.9274 N   0  0  0  0  0  0  0  0  0  0  0  0
    3.9837    1.6849    1.1747 C   0  0  0  0  0  0  0  0  0  0  0  0
    3.3514    1.9544    0.1618 O   0  0  0  0  0  0  0  0  0  0  0  0
    4.9960    2.6937    1.6378 C   0  0  0  0  0  0  0  0  0  0  0  0
    5.5216    2.7019    2.8178 N   0  0  0  0  0  0  0  0  0  0  0  0
    5.1035    1.6997    3.7046 C   0  0  0  0  0  0  0  0  0  0  0  0
    5.4623    1.8408    5.0466 C   0  0  0  0  0  0  0  0  0  0  0  0
    5.0778    0.8929    5.9929 C   0  0  0  0  0  0  0  0  0  0  0  0
    4.3403   -0.2155    5.5952 C   0  0  0  0  0  0  0  0  0  0  0  0
    3.9742   -0.3751    4.2518 C   0  0  0  0  0  0  0  0  0  0  0  0
    4.3366    0.5828    3.2918 C   0  0  0  0  0  0  0  0  0  0  0  0
    3.7979   -0.7860   -0.8608 N   0  0  0  0  0  0  0  0  0  0  0  0
    5.0998   -1.2911   -0.4168 C   0  0  0  0  0  0  0  0  0  0  0  0
    6.2730   -0.6185   -1.1044 C   0  0  0  0  0  0  0  0  0  0  0  0
    6.1448   -0.8377   -2.5972 C   0  0  0  0  0  0  0  0  0  0  0  0
    4.8169   -0.3133   -3.0681 C   0  0  0  0  0  0  0  0  0  0  0  0
    4.7411    0.2555   -4.3531 C   0  0  0  0  0  0  0  0  0  0  0  0
    3.5348    0.7423   -4.8435 C   0  0  0  0  0  0  0  0  0  0  0  0
    2.3887    0.6279   -4.0700 C   0  0  0  0  0  0  0  0  0  0  0  0
    2.4581    0.0752   -2.7856 C   0  0  0  0  0  0  0  0  0  0  0  0
    3.6707   -0.3834   -2.2454 C   0  0  0  0  0  0  0  0  0  0  0  0
    3.2790   -1.4888    1.9102 H   0  0  0  0  0  0  0  0  0  0  0  0
    1.9768   -0.2713    1.9606 H   0  0  0  0  0  0  0  0  0  0  0  0
    5.2760    3.4504    0.8842 H   0  0  0  0  0  0  0  0  0  0  0  0
    6.0362    2.7125    5.3563 H   0  0  0  0  0  0  0  0  0  0  0  0
    5.3466    1.0277    7.0374 H   0  0  0  0  0  0  0  0  0  0  0  0
    4.0323   -0.9537    6.3312 H   0  0  0  0  0  0  0  0  0  0  0  0
    3.3740   -1.2446    4.0055 H   0  0  0  0  0  0  0  0  0  0  0  0
    5.1038   -2.3704   -0.6188 H   0  0  0  0  0  0  0  0  0  0  0  0
    5.2199   -1.1953    0.6631 H   0  0  0  0  0  0  0  0  0  0  0  0
    7.2175   -1.0364   -0.7417 H   0  0  0  0  0  0  0  0  0  0  0  0
    6.2759    0.4554   -0.8773 H   0  0  0  0  0  0  0  0  0  0  0  0
    6.9722   -0.3355   -3.1112 H   0  0  0  0  0  0  0  0  0  0  0  0
    6.2053   -1.9066   -2.8391 H   0  0  0  0  0  0  0  0  0  0  0  0
    5.6345    0.3470   -4.9669 H   0  0  0  0  0  0  0  0  0  0  0  0
    3.4892    1.2128   -5.8217 H   0  0  0  0  0  0  0  0  0  0  0  0
    1.4361    0.9911   -4.4472 H   0  0  0  0  0  0  0  0  0  0  0  0
    1.5313    0.0471   -2.2220 H   0  0  0  0  0  0  0  0  0  0  0  0
  1  2  2  0  0  0  0
  2  3  1  0  0  0  0
  2 15  1  0  0  0  0
  3  4  1  0  0  0  0
  3 25  1  0  0  0  0
  3 26  1  0  0  0  0
  4  5  1  0  0  0  0
  4 14  1  0  0  0  0
  5  6  2  0  0  0  0
  5  7  1  0  0  0  0
  7  8  2  0  0  0  0
  7 27  1  0  0  0  0
  8  9  1  0  0  0  0
  9 10  1  0  0  0  0
  9 14  2  0  0  0  0
 10 11  2  0  0  0  0
 10 28  1  0  0  0  0
 11 12  1  0  0  0  0
 11 29  1  0  0  0  0
 12 13  2  0  0  0  0
 12 30  1  0  0  0  0
 13 14  1  0  0  0  0
 13 31  1  0  0  0  0
 15 16  1  0  0  0  0
 15 24  1  0  0  0  0
 16 17  1  0  0  0  0
 16 32  1  0  0  0  0
 16 33  1  0  0  0  0
 17 18  1  0  0  0  0
 17 34  1  0  0  0  0
 17 35  1  0  0  0  0
 18 19  1  0  0  0  0
 18 36  1  0  0  0  0
 18 37  1  0  0  0  0
 19 20  1  0  0  0  0
 19 24  2  0  0  0  0
 20 21  2  0  0  0  0
 20 38  1  0  0  0  0
 21 22  1  0  0  0  0
 21 39  1  0  0  0  0
 22 23  2  0  0  0  0
 22 40  1  0  0  0  0
 23 24  1  0  0  0  0
 23 41  1  0  0  0  0
M  END
>  <Energy>
109.463

$$$$

 OpenBabel04232616063D

 47 50  0  0  1  0  0  0  0  0999 V2000
    1.1244   -0.4365   -1.0185 C   0  0  0  0  0  0  0  0  0  0  0  0
    2.5297   -0.1440   -0.6537 C   0  0  0  0  0  0  0  0  0  0  0  0
    3.0447    1.0383   -0.0819 C   0  0  0  0  0  0  0  0  0  0  0  0
    4.3676    0.7675    0.1907 C   0  0  0  0  0  0  0  0  0  0  0  0
    5.4017    1.6018    0.8492 C   0  0  0  0  0  0  0  0  0  0  0  0
    4.5501   -0.5505   -0.1710 N   0  0  0  0  0  0  0  0  0  0  0  0
    5.6119   -1.4296    0.3183 C   0  0  3  0  0  0  0  0  0  0  0  0
    6.1766   -2.4267   -0.7177 C   0  0  0  0  0  0  0  0  0  0  0  0
    5.4071   -3.7479   -0.8107 C   0  0  0  0  0  0  0  0  0  0  0  0
    5.0919   -4.3129    0.5762 C   0  0  0  0  0  0  0  0  0  0  0  0
    4.3575   -3.3202    1.3491 N   0  0  0  0  0  0  0  0  0  0  0  0
    2.9777   -3.2963    1.6346 C   0  0  0  0  0  0  0  0  0  0  0  0
    2.4748   -2.4124    2.3243 O   0  0  0  0  0  0  0  0  0  0  0  0
    2.0676   -4.3940    1.1809 C   0  0  0  0  0  0  0  0  0  0  0  0
    1.0202   -4.7855    2.0412 C   0  0  0  0  0  0  0  0  0  0  0  0
    0.1878   -5.8685    1.7226 C   0  0  0  0  0  0  0  0  0  0  0  0
    0.4394   -6.5661    0.5538 C   0  0  0  0  0  0  0  0  0  0  0  0
    1.4261   -6.1520   -0.3162 C   0  0  0  0  0  0  0  0  0  0  0  0
    2.1948   -5.0329   -0.0545 C   0  0  0  0  0  0  0  0  0  0  0  0
    1.5197   -7.0891   -1.4611 C   0  0  0  0  0  0  0  0  0  0  0  0
    0.5227   -8.1017   -1.1991 O   0  0  0  0  0  0  0  0  0  0  0  0
   -0.2131   -7.7809    0.0081 C   0  0  0  0  0  0  0  0  0  0  0  0
    5.1441   -2.1160    1.6207 C   0  0  0  0  0  0  0  0  0  0  0  0
    3.4825   -1.0714   -0.8104 N   0  0  0  0  0  0  0  0  0  0  0  0
    0.4898    0.4440   -0.8724 H   0  0  0  0  0  0  0  0  0  0  0  0
    0.7302   -1.2394   -0.3859 H   0  0  0  0  0  0  0  0  0  0  0  0
    1.0451   -0.7453   -2.0645 H   0  0  0  0  0  0  0  0  0  0  0  0
    2.5075    1.9453    0.1575 H   0  0  0  0  0  0  0  0  0  0  0  0
    5.0267    2.6117    1.0421 H   0  0  0  0  0  0  0  0  0  0  0  0
    6.2896    1.6883    0.2148 H   0  0  0  0  0  0  0  0  0  0  0  0
    5.6985    1.1679    1.8097 H   0  0  0  0  0  0  0  0  0  0  0  0
    6.4420   -0.7580    0.5692 H   0  0  0  0  0  0  0  0  0  0  0  0
    7.2052   -2.6726   -0.4220 H   0  0  0  0  0  0  0  0  0  0  0  0
    6.2414   -1.9669   -1.7114 H   0  0  0  0  0  0  0  0  0  0  0  0
    5.9895   -4.4791   -1.3829 H   0  0  0  0  0  0  0  0  0  0  0  0
    4.4915   -3.5651   -1.3793 H   0  0  0  0  0  0  0  0  0  0  0  0
    6.0292   -4.5166    1.1115 H   0  0  0  0  0  0  0  0  0  0  0  0
    4.5723   -5.2682    0.5278 H   0  0  0  0  0  0  0  0  0  0  0  0
    0.8568   -4.2442    2.9717 H   0  0  0  0  0  0  0  0  0  0  0  0
   -0.6127   -6.1630    2.3939 H   0  0  0  0  0  0  0  0  0  0  0  0
    2.8921   -4.6943   -0.8029 H   0  0  0  0  0  0  0  0  0  0  0  0
    2.4997   -7.5761   -1.4945 H   0  0  0  0  0  0  0  0  0  0  0  0
    1.3016   -6.6081   -2.4163 H   0  0  0  0  0  0  0  0  0  0  0  0
   -0.1341   -8.6313    0.6911 H   0  0  0  0  0  0  0  0  0  0  0  0
   -1.2553   -7.6007   -0.2655 H   0  0  0  0  0  0  0  0  0  0  0  0
    6.0235   -2.4352    2.1924 H   0  0  0  0  0  0  0  0  0  0  0  0
    4.5944   -1.4148    2.2563 H   0  0  0  0  0  0  0  0  0  0  0  0
  1  2  1  0  0  0  0
  1 25  1  0  0  0  0
  1 26  1  0  0  0  0
  1 27  1  0  0  0  0
  2  3  1  0  0  0  0
  2 24  2  0  0  0  0
  3  4  2  0  0  0  0
  3 28  1  0  0  0  0
  4  5  1  0  0  0  0
  4  6  1  0  0  0  0
  5 29  1  0  0  0  0
  5 30  1  0  0  0  0
  5 31  1  0  0  0  0
  6  7  1  0  0  0  0
  6 24  1  0  0  0  0
  7  8  1  0  0  0  0
  7 23  1  0  0  0  0
  7 32  1  0  0  0  0
  8  9  1  0  0  0  0
  8 33  1  0  0  0  0
  8 34  1  0  0  0  0
  9 10  1  0  0  0  0
  9 35  1  0  0  0  0
  9 36  1  0  0  0  0
 10 11  1  0  0  0  0
 10 37  1  0  0  0  0
 10 38  1  0  0  0  0
 11 12  1  0  0  0  0
 11 23  1  0  0  0  0
 12 13  2  0  0  0  0
 12 14  1  0  0  0  0
 14 15  1  0  0  0  0
 14 19  2  0  0  0  0
 15 16  2  0  0  0  0
 15 39  1  0  0  0  0
 16 17  1  0  0  0  0
 16 40  1  0  0  0  0
 17 18  2  0  0  0  0
 17 22  1  0  0  0  0
 18 19  1  0  0  0  0
 18 20  1  0  0  0  0
 19 41  1  0  0  0  0
 20 21  1  0  0  0  0
 20 42  1  0  0  0  0
 20 43  1  0  0  0  0
 21 22  1  0  0  0  0
 22 44  1  0  0  0  0
 22 45  1  0  0  0  0
 23 46  1  0  0  0  0
 23 47  1  0  0  0  0
M  END
>  <Energy>
70.2221

$$$$

 OpenBabel04232616063D

 37 40  0  0  0  0  0  0  0  0999 V2000
    1.1461   -0.1142   -0.0962 C   0  0  0  0  0  0  0  0  0  0  0  0
    2.6276   -0.2179   -0.1095 C   0  0  0  0  0  0  0  0  0  0  0  0
    3.4278    0.8821    0.1031 N   0  0  0  0  0  0  0  0  0  0  0  0
    4.7459    0.5242    0.0347 C   0  0  0  0  0  0  0  0  0  0  0  0
    5.7790    1.3631    0.1946 N   0  0  0  0  0  0  0  0  0  0  0  0
    6.9634    0.7477    0.0944 C   0  0  0  0  0  0  0  0  0  0  0  0
    8.0904    1.5379    0.2223 N   0  0  0  0  0  0  0  0  0  0  0  0
    7.1770   -0.5543   -0.1588 N   0  0  0  0  0  0  0  0  0  0  0  0
    6.0994   -1.3400   -0.3117 C   0  0  0  0  0  0  0  0  0  0  0  0
    6.3860   -2.6557   -0.5401 O   0  0  0  0  0  0  0  0  0  0  0  0
    4.8132   -0.8346   -0.2229 C   0  0  0  0  0  0  0  0  0  0  0  0
    3.4745   -1.2969   -0.3076 C   0  0  0  0  0  0  0  0  0  0  0  0
    2.9954   -2.9406   -0.6520 S   0  0  0  0  0  0  0  0  0  0  0  0
    2.7911   -3.7118    0.9472 C   0  0  0  0  0  0  0  0  0  0  0  0
    2.0407   -4.8919    0.9936 C   0  0  0  0  0  0  0  0  0  0  0  0
    1.8428   -5.5700    2.1993 C   0  0  0  0  0  0  0  0  0  0  0  0
    2.3527   -5.0552    3.3975 C   0  0  0  0  0  0  0  0  0  0  0  0
    2.1211   -5.6976    4.6238 C   0  0  0  0  0  0  0  0  0  0  0  0
    2.5453   -5.1189    5.8201 C   0  0  0  0  0  0  0  0  0  0  0  0
    3.2375   -3.9117    5.8008 C   0  0  0  0  0  0  0  0  0  0  0  0
    3.5339   -3.2962    4.5832 C   0  0  0  0  0  0  0  0  0  0  0  0
    3.0890   -3.8502    3.3714 C   0  0  0  0  0  0  0  0  0  0  0  0
    3.3335   -3.2158    2.1390 C   0  0  0  0  0  0  0  0  0  0  0  0
    0.8177    0.9305   -0.1006 H   0  0  0  0  0  0  0  0  0  0  0  0
    0.7392   -0.5929    0.7999 H   0  0  0  0  0  0  0  0  0  0  0  0
    0.7153   -0.6012   -0.9765 H   0  0  0  0  0  0  0  0  0  0  0  0
    3.1124    1.8255    0.2814 H   0  0  0  0  0  0  0  0  0  0  0  0
    7.8623    2.4940   -0.0127 H   0  0  0  0  0  0  0  0  0  0  0  0
    8.8623    1.1131   -0.2721 H   0  0  0  0  0  0  0  0  0  0  0  0
    7.3580   -2.6412   -0.5058 H   0  0  0  0  0  0  0  0  0  0  0  0
    1.5948   -5.2960    0.0872 H   0  0  0  0  0  0  0  0  0  0  0  0
    1.2587   -6.4872    2.1968 H   0  0  0  0  0  0  0  0  0  0  0  0
    1.5866   -6.6442    4.6569 H   0  0  0  0  0  0  0  0  0  0  0  0
    2.3228   -5.6048    6.7664 H   0  0  0  0  0  0  0  0  0  0  0  0
    3.5428   -3.4448    6.7335 H   0  0  0  0  0  0  0  0  0  0  0  0
    4.0877   -2.3597    4.5889 H   0  0  0  0  0  0  0  0  0  0  0  0
    3.9429   -2.3169    2.1305 H   0  0  0  0  0  0  0  0  0  0  0  0
  1  2  1  0  0  0  0
  1 24  1  0  0  0  0
  1 25  1  0  0  0  0
  1 26  1  0  0  0  0
  2  3  1  0  0  0  0
  2 12  2  0  0  0  0
  3  4  1  0  0  0  0
  3 27  1  0  0  0  0
  4  5  1  0  0  0  0
  4 11  2  0  0  0  0
  5  6  2  0  0  0  0
  6  7  1  0  0  0  0
  6  8  1  0  0  0  0
  7 28  1  0  0  0  0
  7 29  1  0  0  0  0
  8  9  2  0  0  0  0
  9 10  1  0  0  0  0
  9 11  1  0  0  0  0
 10 30  1  0  0  0  0
 11 12  1  0  0  0  0
 12 13  1  0  0  0  0
 13 14  1  0  0  0  0
 14 15  1  0  0  0  0
 14 23  2  0  0  0  0
 15 16  2  0  0  0  0
 15 31  1  0  0  0  0
 16 17  1  0  0  0  0
 16 32  1  0  0  0  0
 17 18  1  0  0  0  0
 17 22  2  0  0  0  0
 18 19  2  0  0  0  0
 18 33  1  0  0  0  0
 19 20  1  0  0  0  0
 19 34  1  0  0  0  0
 20 21  2  0  0  0  0
 20 35  1  0  0  0  0
 21 22  1  0  0  0  0
 21 36  1  0  0  0  0
 22 23  1  0  0  0  0
 23 37  1  0  0  0  0
M  END
>  <Energy>
-73.9342

$$$$

 OpenBabel04232616063D

 43 46  0  0  0  0  0  0  0  0999 V2000
    2.1723    1.9840    0.1882 C   0  0  0  0  0  0  0  0  0  0  0  0
    1.0841    0.9569    0.1001 C   0  0  0  0  0  0  0  0  0  0  0  0
    1.3019   -0.2649   -0.5344 C   0  0  0  0  0  0  0  0  0  0  0  0
    0.2893   -1.2408   -0.6259 C   0  0  0  0  0  0  0  0  0  0  0  0
    0.6374   -2.4783   -1.4114 C   0  0  0  0  0  0  0  0  0  0  0  0
   -0.9590   -1.0198    0.0059 C   0  0  0  0  0  0  0  0  0  0  0  0
   -2.0185   -1.9591    0.0018 N   0  0  0  0  0  0  0  0  0  0  0  0
   -1.9036   -3.3325    0.0635 C   0  0  0  0  0  0  0  0  0  0  0  0
   -0.9160   -3.9286    0.6802 N   0  0  0  0  0  0  0  0  0  0  0  0
   -0.7605   -5.3246    0.5931 C   0  0  0  0  0  0  0  0  0  0  0  0
    0.3957   -5.8675    1.1620 C   0  0  0  0  0  0  0  0  0  0  0  0
    0.6805   -7.2241    1.0327 C   0  0  0  0  0  0  0  0  0  0  0  0
   -0.1915   -8.0492    0.3253 C   0  0  0  0  0  0  0  0  0  0  0  0
   -1.3588   -7.5291   -0.2449 C   0  0  0  0  0  0  0  0  0  0  0  0
   -1.6531   -6.1738   -0.0988 C   0  0  0  0  0  0  0  0  0  0  0  0
   -2.7879   -5.5354   -0.6385 N   0  0  0  0  0  0  0  0  0  0  0  0
   -3.9418   -5.9361   -1.2922 C   0  0  0  0  0  0  0  0  0  0  0  0
   -4.4194   -7.3050   -1.5828 C   0  0  0  0  0  0  0  0  0  0  0  0
   -4.6389   -4.8592   -1.6211 N   0  0  0  0  0  0  0  0  0  0  0  0
   -3.9834   -3.7484   -1.1689 N   0  0  0  0  0  0  0  0  0  0  0  0
   -2.8971   -4.1697   -0.5676 C   0  0  0  0  0  0  0  0  0  0  0  0
   -1.1933    0.2417    0.6083 C   0  0  0  0  0  0  0  0  0  0  0  0
   -2.5088    0.6165    1.2458 C   0  0  0  0  0  0  0  0  0  0  0  0
   -0.1706    1.2075    0.6524 C   0  0  0  0  0  0  0  0  0  0  0  0
    3.0760    1.6580   -0.3374 H   0  0  0  0  0  0  0  0  0  0  0  0
    2.4381    2.1614    1.2352 H   0  0  0  0  0  0  0  0  0  0  0  0
    1.8435    2.9241   -0.2663 H   0  0  0  0  0  0  0  0  0  0  0  0
    2.2744   -0.4654   -0.9822 H   0  0  0  0  0  0  0  0  0  0  0  0
    1.3539   -2.2425   -2.2072 H   0  0  0  0  0  0  0  0  0  0  0  0
   -0.2348   -2.9007   -1.9172 H   0  0  0  0  0  0  0  0  0  0  0  0
    1.1023   -3.2249   -0.7624 H   0  0  0  0  0  0  0  0  0  0  0  0
   -2.8107   -1.6328   -0.5454 H   0  0  0  0  0  0  0  0  0  0  0  0
    1.0866   -5.2138    1.6889 H   0  0  0  0  0  0  0  0  0  0  0  0
    1.5909   -7.6293    1.4659 H   0  0  0  0  0  0  0  0  0  0  0  0
    0.0480   -9.1050    0.2065 H   0  0  0  0  0  0  0  0  0  0  0  0
   -1.9681   -8.2126   -0.8201 H   0  0  0  0  0  0  0  0  0  0  0  0
   -3.9090   -8.0970   -1.0428 H   0  0  0  0  0  0  0  0  0  0  0  0
   -4.3486   -7.5032   -2.6571 H   0  0  0  0  0  0  0  0  0  0  0  0
   -5.4765   -7.3849   -1.3029 H   0  0  0  0  0  0  0  0  0  0  0  0
   -3.2561   -0.1790    1.1993 H   0  0  0  0  0  0  0  0  0  0  0  0
   -2.9283    1.4907    0.7354 H   0  0  0  0  0  0  0  0  0  0  0  0
   -2.3552    0.8615    2.3021 H   0  0  0  0  0  0  0  0  0  0  0  0
   -0.3581    2.1652    1.1358 H   0  0  0  0  0  0  0  0  0  0  0  0
  1  2  1  0  0  0  0
  1 25  1  0  0  0  0
  1 26  1  0  0  0  0
  1 27  1  0  0  0  0
  2  3  1  0  0  0  0
  2 24  2  0  0  0  0
  3  4  2  0  0  0  0
  3 28  1  0  0  0  0
  4  5  1  0  0  0  0
  4  6  1  0  0  0  0
  5 29  1  0  0  0  0
  5 30  1  0  0  0  0
  5 31  1  0  0  0  0
  6  7  1  0  0  0  0
  6 22  2  0  0  0  0
  7  8  1  0  0  0  0
  7 32  1  0  0  0  0
  8  9  2  0  0  0  0
  8 21  1  0  0  0  0
  9 10  1  0  0  0  0
 10 11  1  0  0  0  0
 10 15  2  0  0  0  0
 11 12  2  0  0  0  0
 11 33  1  0  0  0  0
 12 13  1  0  0  0  0
 12 34  1  0  0  0  0
 13 14  2  0  0  0  0
 13 35  1  0  0  0  0
 14 15  1  0  0  0  0
 14 36  1  0  0  0  0
 15 16  1  0  0  0  0
 16 17  1  0  0  0  0
 16 21  1  0  0  0  0
 17 18  1  0  0  0  0
 17 19  2  0  0  0  0
 18 37  1  0  0  0  0
 18 38  1  0  0  0  0
 18 39  1  0  0  0  0
 19 20  1  0  0  0  0
 20 21  2  0  0  0  0
 22 23  1  0  0  0  0
 22 24  1  0  0  0  0
 23 40  1  0  0  0  0
 23 41  1  0  0  0  0
 23 42  1  0  0  0  0
 24 43  1  0  0  0  0
M  END
>  <Energy>
52.2711

$$$$

 OpenBabel04232616063D

 30 32  0  0  0  0  0  0  0  0999 V2000
    0.8796    0.0127    0.2515 O   0  0  0  0  0  0  0  0  0  0  0  0
    2.1026    0.0295    0.1928 C   0  0  0  0  0  0  0  0  0  0  0  0
    2.8669   -1.2233    0.2598 C   0  0  0  0  0  0  0  0  0  0  0  0
    4.1969   -1.1578    0.1992 C   0  0  0  0  0  0  0  0  0  0  0  0
    4.9847   -0.0202    0.0140 N   0  0  0  0  0  0  0  0  0  0  0  0
    6.4233   -0.1558    0.0608 C   0  0  0  0  0  0  0  0  0  0  0  0
    7.1719    0.6985    0.9063 C   0  0  0  0  0  0  0  0  0  0  0  0
    8.5695    0.6551    0.9571 C   0  0  0  0  0  0  0  0  0  0  0  0
    9.2536   -0.3020    0.2055 C   0  0  0  0  0  0  0  0  0  0  0  0
   10.7201   -0.3440    0.2389 N   0  3  0  0  0  0  0  0  0  0  0  0
   11.3077    0.5882    0.8044 O   0  0  0  0  0  0  0  0  0  0  0  0
   11.2798   -1.3042   -0.3073 O   0  5  0  0  0  0  0  0  0  0  0  0
    8.5511   -1.2063   -0.5939 C   0  0  0  0  0  0  0  0  0  0  0  0
    7.1534   -1.1176   -0.6858 C   0  0  0  0  0  0  0  0  0  0  0  0
    6.4126   -2.1892   -1.8299 Cl  0  0  0  0  0  0  0  0  0  0  0  0
    4.2797    1.2419   -0.0626 C   0  0  0  0  0  0  0  0  0  0  0  0
    4.9296    2.4716   -0.2858 C   0  0  0  0  0  0  0  0  0  0  0  0
    4.2280    3.6843   -0.2562 C   0  0  0  0  0  0  0  0  0  0  0  0
    2.8555    3.6850   -0.0583 C   0  0  0  0  0  0  0  0  0  0  0  0
    2.1931    4.8477   -0.0242 F   0  0  0  0  0  0  0  0  0  0  0  0
    2.1628    2.4952    0.0837 C   0  0  0  0  0  0  0  0  0  0  0  0
    2.8718    1.2851    0.0723 C   0  0  0  0  0  0  0  0  0  0  0  0
    2.3169   -2.1459    0.3861 H   0  0  0  0  0  0  0  0  0  0  0  0
    4.7515   -2.0881    0.3248 H   0  0  0  0  0  0  0  0  0  0  0  0
    6.6622    1.4230    1.5396 H   0  0  0  0  0  0  0  0  0  0  0  0
    9.0999    1.3697    1.5830 H   0  0  0  0  0  0  0  0  0  0  0  0
    9.0797   -1.9628   -1.1713 H   0  0  0  0  0  0  0  0  0  0  0  0
    5.9946    2.5222   -0.4889 H   0  0  0  0  0  0  0  0  0  0  0  0
    4.7490    4.6271   -0.3902 H   0  0  0  0  0  0  0  0  0  0  0  0
    1.0836    2.5136    0.2053 H   0  0  0  0  0  0  0  0  0  0  0  0
  1  2  2  0  0  0  0
  2  3  1  0  0  0  0
  2 22  1  0  0  0  0
  3  4  2  0  0  0  0
  3 23  1  0  0  0  0
  4  5  1  0  0  0  0
  4 24  1  0  0  0  0
  5  6  1  0  0  0  0
  5 16  1  0  0  0  0
  6  7  1  0  0  0  0
  6 14  2  0  0  0  0
  7  8  2  0  0  0  0
  7 25  1  0  0  0  0
  8  9  1  0  0  0  0
  8 26  1  0  0  0  0
  9 10  1  0  0  0  0
  9 13  2  0  0  0  0
 10 11  2  0  0  0  0
 10 12  1  0  0  0  0
 13 14  1  0  0  0  0
 13 27  1  0  0  0  0
 14 15  1  0  0  0  0
 16 17  1  0  0  0  0
 16 22  2  0  0  0  0
 17 18  2  0  0  0  0
 17 28  1  0  0  0  0
 18 19  1  0  0  0  0
 18 29  1  0  0  0  0
 19 20  1  0  0  0  0
 19 21  2  0  0  0  0
 21 22  1  0  0  0  0
 21 30  1  0  0  0  0
M  CHG  2  10   1  12  -1
M  END
>  <Energy>
87.2536

$$$$

 OpenBabel04232616063D

 46 47  0  0  1  0  0  0  0  0999 V2000
    2.4292    1.6669    0.8059 C   0  0  0  0  0  0  0  0  0  0  0  0
    2.9493    0.5947   -0.0362 N   0  0  0  0  0  0  0  0  0  0  0  0
    2.1785    0.2965   -1.2435 C   0  0  0  0  0  0  0  0  0  0  0  0
    3.6211   -0.4791    0.5635 C   0  0  0  0  0  0  0  0  0  0  0  0
    3.7685   -0.6019    1.9566 C   0  0  0  0  0  0  0  0  0  0  0  0
    4.4439   -1.6814    2.5429 C   0  0  0  0  0  0  0  0  0  0  0  0
    5.0133   -2.6645    1.7406 C   0  0  0  0  0  0  0  0  0  0  0  0
    5.6880   -3.8237    2.3241 C   0  0  0  0  0  0  0  0  0  0  0  0
    5.0936   -5.0111    2.5582 C   0  0  0  0  0  0  0  0  0  0  0  0
    5.9550   -6.1285    2.9538 C   0  0  0  0  0  0  0  0  0  0  0  0
    7.1115   -5.9813    3.3229 O   0  0  0  0  0  0  0  0  0  0  0  0
    5.4054   -7.3527    2.8630 O   0  0  0  0  0  0  0  0  0  0  0  0
    4.0310   -7.5608    2.5030 C   0  0  3  0  0  0  0  0  0  0  0  0
    4.0622   -8.6189    1.3875 C   0  0  0  0  0  0  0  0  0  0  0  0
    3.2200   -8.0262    3.7738 C   0  0  0  0  0  0  0  0  0  0  0  0
    3.2954   -6.9836    4.9168 C   0  0  0  0  0  0  0  0  0  0  0  0
    1.7280   -8.2274    3.4345 C   0  0  0  0  0  0  0  0  0  0  0  0
    3.7858   -9.3431    4.3455 C   0  0  0  0  0  0  0  0  0  0  0  0
    3.3789   -6.4461    1.8885 O   0  0  0  0  0  0  0  0  0  0  0  0
    3.6643   -5.2184    2.3391 C   0  0  0  0  0  0  0  0  0  0  0  0
    2.7935   -4.3730    2.4882 O   0  0  0  0  0  0  0  0  0  0  0  0
    4.8982   -2.5645    0.3558 C   0  0  0  0  0  0  0  0  0  0  0  0
    4.2154   -1.4860   -0.2169 C   0  0  0  0  0  0  0  0  0  0  0  0
    1.9656    2.4527    0.1992 H   0  0  0  0  0  0  0  0  0  0  0  0
    3.2407    2.1477    1.3640 H   0  0  0  0  0  0  0  0  0  0  0  0
    1.6702    1.2980    1.5042 H   0  0  0  0  0  0  0  0  0  0  0  0
    1.5460    1.1433   -1.5323 H   0  0  0  0  0  0  0  0  0  0  0  0
    1.5206   -0.5671   -1.0928 H   0  0  0  0  0  0  0  0  0  0  0  0
    2.8396    0.1062   -2.0955 H   0  0  0  0  0  0  0  0  0  0  0  0
    3.3309    0.1268    2.6319 H   0  0  0  0  0  0  0  0  0  0  0  0
    4.4891   -1.7531    3.6266 H   0  0  0  0  0  0  0  0  0  0  0  0
    6.7581   -3.6866    2.4762 H   0  0  0  0  0  0  0  0  0  0  0  0
    4.5350   -9.5515    1.7057 H   0  0  0  0  0  0  0  0  0  0  0  0
    4.6529   -8.2495    0.5392 H   0  0  0  0  0  0  0  0  0  0  0  0
    3.0621   -8.8306    0.9950 H   0  0  0  0  0  0  0  0  0  0  0  0
    2.7846   -6.0517    4.6595 H   0  0  0  0  0  0  0  0  0  0  0  0
    4.3298   -6.7478    5.1863 H   0  0  0  0  0  0  0  0  0  0  0  0
    2.8088   -7.3613    5.8241 H   0  0  0  0  0  0  0  0  0  0  0  0
    1.2889   -7.3241    2.9963 H   0  0  0  0  0  0  0  0  0  0  0  0
    1.1477   -8.4648    4.3329 H   0  0  0  0  0  0  0  0  0  0  0  0
    1.5820   -9.0489    2.7264 H   0  0  0  0  0  0  0  0  0  0  0  0
    4.8544   -9.2553    4.5700 H   0  0  0  0  0  0  0  0  0  0  0  0
    3.6498  -10.1791    3.6528 H   0  0  0  0  0  0  0  0  0  0  0  0
    3.2767   -9.6182    5.2764 H   0  0  0  0  0  0  0  0  0  0  0  0
    5.3287   -3.3208   -0.2955 H   0  0  0  0  0  0  0  0  0  0  0  0
    4.1716   -1.4437   -1.3009 H   0  0  0  0  0  0  0  0  0  0  0  0
  1  2  1  0  0  0  0
  1 24  1  0  0  0  0
  1 25  1  0  0  0  0
  1 26  1  0  0  0  0
  2  3  1  0  0  0  0
  2  4  1  0  0  0  0
  3 27  1  0  0  0  0
  3 28  1  0  0  0  0
  3 29  1  0  0  0  0
  4  5  1  0  0  0  0
  4 23  2  0  0  0  0
  5  6  2  0  0  0  0
  5 30  1  0  0  0  0
  6  7  1  0  0  0  0
  6 31  1  0  0  0  0
  7  8  1  0  0  0  0
  7 22  2  0  0  0  0
  8  9  2  3  0  0  0
  8 32  1  0  0  0  0
  9 10  1  0  0  0  0
  9 20  1  0  0  0  0
 10 11  2  0  0  0  0
 10 12  1  0  0  0  0
 12 13  1  0  0  0  0
 13 14  1  0  0  0  0
 13 15  1  0  0  0  0
 13 19  1  0  0  0  0
 14 33  1  0  0  0  0
 14 34  1  0  0  0  0
 14 35  1  0  0  0  0
 15 16  1  0  0  0  0
 15 17  1  0  0  0  0
 15 18  1  0  0  0  0
 16 36  1  0  0  0  0
 16 37  1  0  0  0  0
 16 38  1  0  0  0  0
 17 39  1  0  0  0  0
 17 40  1  0  0  0  0
 17 41  1  0  0  0  0
 18 42  1  0  0  0  0
 18 43  1  0  0  0  0
 18 44  1  0  0  0  0
 19 20  1  0  0  0  0
 20 21  2  0  0  0  0
 22 23  1  0  0  0  0
 22 45  1  0  0  0  0
 23 46  1  0  0  0  0
M  END
>  <Energy>
5.07657

$$$$

 OpenBabel04232616063D

 31 33  0  0  0  0  0  0  0  0999 V2000
    1.0404   -0.4246    0.0004 O   0  0  0  0  0  0  0  0  0  0  0  0
    2.2189   -0.0744    0.0476 C   0  0  0  0  0  0  0  0  0  0  0  0
    2.7298    0.9129    0.8446 N   0  0  0  0  0  0  0  0  0  0  0  0
    2.0223    1.7073    1.7692 C   0  0  0  0  0  0  0  0  0  0  0  0
    0.7448    1.3896    2.2379 C   0  0  0  0  0  0  0  0  0  0  0  0
    0.0674    2.2519    3.1050 C   0  0  0  0  0  0  0  0  0  0  0  0
    0.6612    3.4443    3.5114 C   0  0  0  0  0  0  0  0  0  0  0  0
    1.9450    3.7446    3.0704 C   0  0  0  0  0  0  0  0  0  0  0  0
    2.5612    4.9069    3.4354 O   0  0  0  0  0  0  0  0  0  0  0  0
    2.6374    2.8789    2.2252 C   0  0  0  0  0  0  0  0  0  0  0  0
    3.0846   -0.7291   -0.7777 N   0  0  0  0  0  0  0  0  0  0  0  0
    4.4252   -0.5277   -0.8696 C   0  0  0  0  0  0  0  0  0  0  0  0
    5.1462    0.3866   -0.2657 N   0  0  0  0  0  0  0  0  0  0  0  0
    6.4769    0.1948   -0.5955 C   0  0  0  0  0  0  0  0  0  0  0  0
    7.5595    0.9693   -0.1323 C   0  0  0  0  0  0  0  0  0  0  0  0
    8.8635    0.6409   -0.5199 C   0  0  0  0  0  0  0  0  0  0  0  0
    9.0925   -0.4430   -1.3614 C   0  0  0  0  0  0  0  0  0  0  0  0
   10.7074   -0.8409   -1.8090 Cl  0  0  0  0  0  0  0  0  0  0  0  0
    8.0395   -1.2195   -1.8510 C   0  0  0  0  0  0  0  0  0  0  0  0
    6.7362   -0.8782   -1.4552 C   0  0  0  0  0  0  0  0  0  0  0  0
    5.2413   -1.6229   -1.8809 S   0  0  0  0  0  0  0  0  0  0  0  0
    3.6890    1.1793    0.6426 H   0  0  0  0  0  0  0  0  0  0  0  0
    0.2505    0.4662    1.9508 H   0  0  0  0  0  0  0  0  0  0  0  0
   -0.9295    1.9901    3.4506 H   0  0  0  0  0  0  0  0  0  0  0  0
    0.1134    4.1147    4.1652 H   0  0  0  0  0  0  0  0  0  0  0  0
    1.9233    5.4488    3.9297 H   0  0  0  0  0  0  0  0  0  0  0  0
    3.6359    3.1518    1.8972 H   0  0  0  0  0  0  0  0  0  0  0  0
    2.6727   -1.4632   -1.3356 H   0  0  0  0  0  0  0  0  0  0  0  0
    7.3752    1.8104    0.5296 H   0  0  0  0  0  0  0  0  0  0  0  0
    9.6949    1.2375   -0.1524 H   0  0  0  0  0  0  0  0  0  0  0  0
    8.2201   -2.0636   -2.5097 H   0  0  0  0  0  0  0  0  0  0  0  0
  1  2  2  0  0  0  0
  2  3  1  0  0  0  0
  2 11  1  0  0  0  0
  3  4  1  0  0  0  0
  3 22  1  0  0  0  0
  4  5  1  0  0  0  0
  4 10  2  0  0  0  0
  5  6  2  0  0  0  0
  5 23  1  0  0  0  0
  6  7  1  0  0  0  0
  6 24  1  0  0  0  0
  7  8  2  0  0  0  0
  7 25  1  0  0  0  0
  8  9  1  0  0  0  0
  8 10  1  0  0  0  0
  9 26  1  0  0  0  0
 10 27  1  0  0  0  0
 11 12  1  0  0  0  0
 11 28  1  0  0  0  0
 12 13  2  0  0  0  0
 12 21  1  0  0  0  0
 13 14  1  0  0  0  0
 14 15  1  0  0  0  0
 14 20  2  0  0  0  0
 15 16  2  0  0  0  0
 15 29  1  0  0  0  0
 16 17  1  0  0  0  0
 16 30  1  0  0  0  0
 17 18  1  0  0  0  0
 17 19  2  0  0  0  0
 19 20  1  0  0  0  0
 19 31  1  0  0  0  0
 20 21  1  0  0  0  0
M  END
>  <Energy>
-73.8942

$$$$

 OpenBabel04232616063D

 41 45  0  0  0  0  0  0  0  0999 V2000
    1.2043   -0.3906    0.1259 C   0  0  0  0  0  0  0  0  0  0  0  0
    2.6791   -0.2064    0.0808 C   0  0  0  0  0  0  0  0  0  0  0  0
    3.1696    1.0318    0.1162 N   0  0  0  0  0  0  0  0  0  0  0  0
    4.5189    0.8969    0.0770 N   0  0  0  0  0  0  0  0  0  0  0  0
    4.8843   -0.4652    0.0397 C   0  0  0  0  0  0  0  0  0  0  0  0
    6.1964   -0.8598    0.0107 N   0  0  0  0  0  0  0  0  0  0  0  0
    7.0654    0.0948   -0.0426 C   0  0  0  0  0  0  0  0  0  0  0  0
    6.7822    1.5536   -0.0953 C   0  0  0  0  0  0  0  0  0  0  0  0
    5.4903    1.9372    0.0075 C   0  0  0  0  0  0  0  0  0  0  0  0
    5.0776    3.2915    0.0183 N   0  0  0  0  0  0  0  0  0  0  0  0
    5.7415    4.3891   -0.5113 C   0  0  0  0  0  0  0  0  0  0  0  0
    4.9653    5.4927   -0.2563 C   0  0  0  0  0  0  0  0  0  0  0  0
    3.8470    5.1430    0.4306 N   0  0  0  0  0  0  0  0  0  0  0  0
    3.9265    3.8373    0.5683 C   0  0  0  0  0  0  0  0  0  0  0  0
    8.0885    2.2671   -0.1569 C   0  0  0  0  0  0  0  0  0  0  0  0
    9.1654    1.2076    0.0858 C   0  0  0  0  0  0  0  0  0  0  0  0
    8.5376   -0.1759   -0.0494 C   0  0  0  0  0  0  0  0  0  0  0  0
    3.6988   -1.1900    0.0122 C   0  0  0  0  0  0  0  0  0  0  0  0
    3.6123   -2.6450   -0.0715 C   0  0  0  0  0  0  0  0  0  0  0  0
    4.5025   -3.4717    0.6278 C   0  0  0  0  0  0  0  0  0  0  0  0
    4.3934   -4.8642    0.5586 C   0  0  0  0  0  0  0  0  0  0  0  0
    3.3872   -5.4501   -0.2069 C   0  0  0  0  0  0  0  0  0  0  0  0
    2.4994   -4.6440   -0.9128 C   0  0  0  0  0  0  0  0  0  0  0  0
    2.6161   -3.2524   -0.8514 C   0  0  0  0  0  0  0  0  0  0  0  0
    0.6938    0.5497    0.3605 H   0  0  0  0  0  0  0  0  0  0  0  0
    0.9289   -1.1198    0.8944 H   0  0  0  0  0  0  0  0  0  0  0  0
    0.8270   -0.7348   -0.8413 H   0  0  0  0  0  0  0  0  0  0  0  0
    6.6578    4.3008   -1.0690 H   0  0  0  0  0  0  0  0  0  0  0  0
    5.1531    6.5191   -0.5455 H   0  0  0  0  0  0  0  0  0  0  0  0
    3.1954    3.2394    1.0956 H   0  0  0  0  0  0  0  0  0  0  0  0
    8.1601    3.0564    0.6002 H   0  0  0  0  0  0  0  0  0  0  0  0
    8.2370    2.7116   -1.1492 H   0  0  0  0  0  0  0  0  0  0  0  0
    9.5952    1.3289    1.0889 H   0  0  0  0  0  0  0  0  0  0  0  0
    9.9949    1.3264   -0.6199 H   0  0  0  0  0  0  0  0  0  0  0  0
    8.8112   -0.8219    0.7899 H   0  0  0  0  0  0  0  0  0  0  0  0
    8.8168   -0.6629   -0.9883 H   0  0  0  0  0  0  0  0  0  0  0  0
    5.2936   -3.0396    1.2369 H   0  0  0  0  0  0  0  0  0  0  0  0
    5.0974   -5.4887    1.1015 H   0  0  0  0  0  0  0  0  0  0  0  0
    3.3010   -6.5317   -0.2571 H   0  0  0  0  0  0  0  0  0  0  0  0
    1.7162   -5.0965   -1.5161 H   0  0  0  0  0  0  0  0  0  0  0  0
    1.9249   -2.6543   -1.4379 H   0  0  0  0  0  0  0  0  0  0  0  0
  1  2  1  0  0  0  0
  1 25  1  0  0  0  0
  1 26  1  0  0  0  0
  1 27  1  0  0  0  0
  2  3  2  0  0  0  0
  2 18  1  0  0  0  0
  3  4  1  0  0  0  0
  4  5  1  0  0  0  0
  4  9  1  0  0  0  0
  5  6  1  0  0  0  0
  5 18  2  0  0  0  0
  6  7  2  0  0  0  0
  7  8  1  0  0  0  0
  7 17  1  0  0  0  0
  8  9  2  0  0  0  0
  8 15  1  0  0  0  0
  9 10  1  0  0  0  0
 10 11  1  0  0  0  0
 10 14  1  0  0  0  0
 11 12  2  0  0  0  0
 11 28  1  0  0  0  0
 12 13  1  0  0  0  0
 12 29  1  0  0  0  0
 13 14  2  0  0  0  0
 14 30  1  0  0  0  0
 15 16  1  0  0  0  0
 15 31  1  0  0  0  0
 15 32  1  0  0  0  0
 16 17  1  0  0  0  0
 16 33  1  0  0  0  0
 16 34  1  0  0  0  0
 17 35  1  0  0  0  0
 17 36  1  0  0  0  0
 18 19  1  0  0  0  0
 19 20  1  0  0  0  0
 19 24  2  0  0  0  0
 20 21  2  0  0  0  0
 20 37  1  0  0  0  0
 21 22  1  0  0  0  0
 21 38  1  0  0  0  0
 22 23  2  0  0  0  0
 22 39  1  0  0  0  0
 23 24  1  0  0  0  0
 23 40  1  0  0  0  0
 24 41  1  0  0  0  0
M  END
>  <Energy>
85.4025

$$$$

 OpenBabel04232616063D

 39 42  0  0  0  0  0  0  0  0999 V2000
    0.9126   -0.1102   -0.4897 O   0  0  0  0  0  0  0  0  0  0  0  0
    2.1162   -0.0610   -0.2496 C   0  0  0  0  0  0  0  0  0  0  0  0
    2.8817   -1.3038   -0.1361 C   0  0  0  0  0  0  0  0  0  0  0  0
    2.2789   -2.5565   -0.1464 C   0  0  0  0  0  0  0  0  0  0  0  0
    3.0756   -3.6997   -0.0625 C   0  0  0  0  0  0  0  0  0  0  0  0
    4.4614   -3.5277    0.0426 C   0  0  0  0  0  0  0  0  0  0  0  0
    5.0528   -2.3047    0.0726 N   0  0  0  0  0  0  0  0  0  0  0  0
    4.2579   -1.2121   -0.0041 C   0  0  0  0  0  0  0  0  0  0  0  0
    4.9233    0.0158    0.0773 N   0  0  0  0  0  0  0  0  0  0  0  0
    4.2048    1.0825    0.0530 C   0  0  0  0  0  0  0  0  0  0  0  0
    2.8367    1.1104   -0.0837 N   0  0  0  0  0  0  0  0  0  0  0  0
    2.1201    2.3829   -0.0551 C   0  0  0  0  0  0  0  0  0  0  0  0
    1.8085    2.7977    1.3686 C   0  0  0  0  0  0  0  0  0  0  0  0
    2.6881    3.6295    2.0784 C   0  0  0  0  0  0  0  0  0  0  0  0
    2.4665    3.9060    3.4299 C   0  0  0  0  0  0  0  0  0  0  0  0
    1.3615    3.3587    4.0780 C   0  0  0  0  0  0  0  0  0  0  0  0
    1.1322    3.6399    5.7598 Cl  0  0  0  0  0  0  0  0  0  0  0  0
    0.4551    2.5673    3.3770 C   0  0  0  0  0  0  0  0  0  0  0  0
    0.6771    2.2879    2.0258 C   0  0  0  0  0  0  0  0  0  0  0  0
    5.3904   -4.7183    0.0398 C   0  0  0  0  0  0  0  0  0  0  0  0
    4.6991   -6.0293    0.4119 C   0  0  0  0  0  0  0  0  0  0  0  0
    3.3992   -6.1861   -0.3694 C   0  0  0  0  0  0  0  0  0  0  0  0
    2.4321   -5.0592   -0.0179 C   0  0  0  0  0  0  0  0  0  0  0  0
    1.1960   -2.6372   -0.2162 H   0  0  0  0  0  0  0  0  0  0  0  0
    4.6788    2.0690    0.1426 H   0  0  0  0  0  0  0  0  0  0  0  0
    1.1902    2.3125   -0.6312 H   0  0  0  0  0  0  0  0  0  0  0  0
    2.7371    3.1493   -0.5377 H   0  0  0  0  0  0  0  0  0  0  0  0
    3.5650    4.0525    1.5931 H   0  0  0  0  0  0  0  0  0  0  0  0
    3.1690    4.5307    3.9754 H   0  0  0  0  0  0  0  0  0  0  0  0
   -0.4125    2.1475    3.8796 H   0  0  0  0  0  0  0  0  0  0  0  0
   -0.0270    1.6480    1.4945 H   0  0  0  0  0  0  0  0  0  0  0  0
    6.2262   -4.5400    0.7260 H   0  0  0  0  0  0  0  0  0  0  0  0
    5.8103   -4.8081   -0.9701 H   0  0  0  0  0  0  0  0  0  0  0  0
    4.4854   -6.0480    1.4878 H   0  0  0  0  0  0  0  0  0  0  0  0
    5.3674   -6.8728    0.2019 H   0  0  0  0  0  0  0  0  0  0  0  0
    2.9354   -7.1531   -0.1465 H   0  0  0  0  0  0  0  0  0  0  0  0
    3.6126   -6.1711   -1.4458 H   0  0  0  0  0  0  0  0  0  0  0  0
    2.0429   -5.2180    0.9962 H   0  0  0  0  0  0  0  0  0  0  0  0
    1.5802   -5.0941   -0.7071 H   0  0  0  0  0  0  0  0  0  0  0  0
  1  2  2  0  0  0  0
  2  3  1  0  0  0  0
  2 11  1  0  0  0  0
  3  4  1  0  0  0  0
  3  8  2  0  0  0  0
  4  5  2  0  0  0  0
  4 24  1  0  0  0  0
  5  6  1  0  0  0  0
  5 23  1  0  0  0  0
  6  7  2  0  0  0  0
  6 20  1  0  0  0  0
  7  8  1  0  0  0  0
  8  9  1  0  0  0  0
  9 10  2  0  0  0  0
 10 11  1  0  0  0  0
 10 25  1  0  0  0  0
 11 12  1  0  0  0  0
 12 13  1  0  0  0  0
 12 26  1  0  0  0  0
 12 27  1  0  0  0  0
 13 14  1  0  0  0  0
 13 19  2  0  0  0  0
 14 15  2  0  0  0  0
 14 28  1  0  0  0  0
 15 16  1  0  0  0  0
 15 29  1  0  0  0  0
 16 17  1  0  0  0  0
 16 18  2  0  0  0  0
 18 19  1  0  0  0  0
 18 30  1  0  0  0  0
 19 31  1  0  0  0  0
 20 21  1  0  0  0  0
 20 32  1  0  0  0  0
 20 33  1  0  0  0  0
 21 22  1  0  0  0  0
 21 34  1  0  0  0  0
 21 35  1  0  0  0  0
 22 23  1  0  0  0  0
 22 36  1  0  0  0  0
 22 37  1  0  0  0  0
 23 38  1  0  0  0  0
 23 39  1  0  0  0  0
M  END
>  <Energy>
-11.2156

$$$$

 OpenBabel04232616063D

 26 27  0  0  0  0  0  0  0  0999 V2000
    2.0164    0.0101   -1.8683 C   0  0  0  0  0  0  0  0  0  0  0  0
    2.4586    0.2798   -0.4420 C   0  0  0  0  0  0  0  0  0  0  0  0
    3.1556    1.5323   -0.4328 O   0  0  0  0  0  0  0  0  0  0  0  0
    4.4907    1.4641   -0.6366 C   0  0  0  0  0  0  0  0  0  0  0  0
    5.1548    0.4362   -0.6401 O   0  0  0  0  0  0  0  0  0  0  0  0
    5.0253    2.7771   -1.0517 C   0  0  0  0  0  0  0  0  0  0  0  0
    6.0809    2.7226   -1.8789 C   0  0  0  0  0  0  0  0  0  0  0  0
    6.6706    3.9341   -2.4202 C   0  0  0  0  0  0  0  0  0  0  0  0
    7.7714    3.8889   -3.2792 C   0  0  0  0  0  0  0  0  0  0  0  0
    8.3122    5.0763   -3.7705 C   0  0  0  0  0  0  0  0  0  0  0  0
    9.6742    5.0160   -4.8201 Cl  0  0  0  0  0  0  0  0  0  0  0  0
    7.7644    6.3105   -3.4190 C   0  0  0  0  0  0  0  0  0  0  0  0
    6.6588    6.3546   -2.5688 C   0  0  0  0  0  0  0  0  0  0  0  0
    5.9330    8.0407   -2.1053 Br  0  0  0  0  0  0  0  0  0  0  0  0
    6.1193    5.1645   -2.0772 C   0  0  0  0  0  0  0  0  0  0  0  0
    5.0031    5.2096   -1.2147 O   0  0  0  0  0  0  0  0  0  0  0  0
    4.4285    4.0682   -0.6526 C   0  0  0  0  0  0  0  0  0  0  0  0
    3.4990    4.1669    0.1377 O   0  0  0  0  0  0  0  0  0  0  0  0
    1.4681   -0.9338   -1.9425 H   0  0  0  0  0  0  0  0  0  0  0  0
    2.8760   -0.0261   -2.5430 H   0  0  0  0  0  0  0  0  0  0  0  0
    1.3733    0.8228   -2.2231 H   0  0  0  0  0  0  0  0  0  0  0  0
    3.0751   -0.5405   -0.0531 H   0  0  0  0  0  0  0  0  0  0  0  0
    1.5897    0.3746    0.2151 H   0  0  0  0  0  0  0  0  0  0  0  0
    6.5155    1.7720   -2.1854 H   0  0  0  0  0  0  0  0  0  0  0  0
    8.2108    2.9360   -3.5659 H   0  0  0  0  0  0  0  0  0  0  0  0
    8.2007    7.2281   -3.8062 H   0  0  0  0  0  0  0  0  0  0  0  0
  1  2  1  0  0  0  0
  1 19  1  0  0  0  0
  1 20  1  0  0  0  0
  1 21  1  0  0  0  0
  2  3  1  0  0  0  0
  2 22  1  0  0  0  0
  2 23  1  0  0  0  0
  3  4  1  0  0  0  0
  4  5  2  0  0  0  0
  4  6  1  0  0  0  0
  6  7  2  0  0  0  0
  6 17  1  0  0  0  0
  7  8  1  0  0  0  0
  7 24  1  0  0  0  0
  8  9  1  0  0  0  0
  8 15  2  0  0  0  0
  9 10  2  0  0  0  0
  9 25  1  0  0  0  0
 10 11  1  0  0  0  0
 10 12  1  0  0  0  0
 12 13  2  0  0  0  0
 12 26  1  0  0  0  0
 13 14  1  0  0  0  0
 13 15  1  0  0  0  0
 15 16  1  0  0  0  0
 16 17  1  0  0  0  0
 17 18  2  0  0  0  0
M  END
>  <Energy>
15.7596

$$$$

 OpenBabel04232616063D

 35 37  0  0  0  0  0  0  0  0999 V2000
   -1.6238   -2.0907   -1.1280 C   0  0  0  0  0  0  0  0  0  0  0  0
   -0.7758   -1.0276   -0.4840 C   0  0  0  0  0  0  0  0  0  0  0  0
   -1.2937    0.2811   -0.4182 C   0  0  0  0  0  0  0  0  0  0  0  0
   -0.5661    1.3144    0.1721 C   0  0  0  0  0  0  0  0  0  0  0  0
    0.6860    1.0574    0.7130 C   0  0  0  0  0  0  0  0  0  0  0  0
    1.2185   -0.2330    0.6595 C   0  0  0  0  0  0  0  0  0  0  0  0
    0.5049   -1.2866    0.0542 C   0  0  0  0  0  0  0  0  0  0  0  0
    1.1125   -2.6590    0.0241 C   0  0  0  0  0  0  0  0  0  0  0  0
    0.4673   -3.6947   -0.0088 O   0  0  0  0  0  0  0  0  0  0  0  0
    2.4788   -2.5338    0.0101 O   0  0  0  0  0  0  0  0  0  0  0  0
    3.1091   -3.7969    0.0175 N   0  0  0  0  0  0  0  0  0  0  0  0
    4.4011   -3.6962   -0.0246 C   0  0  0  0  0  0  0  0  0  0  0  0
    5.1809   -2.3781   -0.0607 C   0  0  0  0  0  0  0  0  0  0  0  0
    6.2654   -2.3845   -1.1319 C   0  0  0  0  0  0  0  0  0  0  0  0
    7.5374   -3.5819   -0.7608 S   0  0  0  0  0  0  0  0  0  0  0  0
    8.2088   -3.9560   -1.9865 O   0  0  0  0  0  0  0  0  0  0  0  0
    8.2317   -3.1772    0.4419 O   0  0  0  0  0  0  0  0  0  0  0  0
    6.5206   -4.9467   -0.2899 C   0  0  0  0  0  0  0  0  0  0  0  0
    7.2432   -6.4762   -0.1612 S   0  0  0  0  0  0  0  0  0  0  0  0
    5.7443   -7.1969    0.2516 C   0  0  0  0  0  0  0  0  0  0  0  0
    4.7211   -6.2732    0.2974 C   0  0  0  0  0  0  0  0  0  0  0  0
    5.1697   -4.9456    0.0024 C   0  0  0  0  0  0  0  0  0  0  0  0
   -2.5525   -1.6694   -1.5302 H   0  0  0  0  0  0  0  0  0  0  0  0
   -1.9102   -2.8506   -0.3949 H   0  0  0  0  0  0  0  0  0  0  0  0
   -1.0918   -2.5527   -1.9653 H   0  0  0  0  0  0  0  0  0  0  0  0
   -2.2775    0.5043   -0.8277 H   0  0  0  0  0  0  0  0  0  0  0  0
   -0.9856    2.3173    0.2145 H   0  0  0  0  0  0  0  0  0  0  0  0
    1.2484    1.8598    1.1857 H   0  0  0  0  0  0  0  0  0  0  0  0
    2.1913   -0.4035    1.1141 H   0  0  0  0  0  0  0  0  0  0  0  0
    5.6191   -2.2296    0.9338 H   0  0  0  0  0  0  0  0  0  0  0  0
    4.5151   -1.5328   -0.2500 H   0  0  0  0  0  0  0  0  0  0  0  0
    6.7558   -1.4090   -1.2011 H   0  0  0  0  0  0  0  0  0  0  0  0
    5.8495   -2.6428   -2.1114 H   0  0  0  0  0  0  0  0  0  0  0  0
    5.6923   -8.2605    0.4416 H   0  0  0  0  0  0  0  0  0  0  0  0
    3.6971   -6.5341    0.5452 H   0  0  0  0  0  0  0  0  0  0  0  0
  1  2  1  0  0  0  0
  1 23  1  0  0  0  0
  1 24  1  0  0  0  0
  1 25  1  0  0  0  0
  2  3  1  0  0  0  0
  2  7  2  0  0  0  0
  3  4  2  0  0  0  0
  3 26  1  0  0  0  0
  4  5  1  0  0  0  0
  4 27  1  0  0  0  0
  5  6  2  0  0  0  0
  5 28  1  0  0  0  0
  6  7  1  0  0  0  0
  6 29  1  0  0  0  0
  7  8  1  0  0  0  0
  8  9  2  0  0  0  0
  8 10  1  0  0  0  0
 10 11  1  0  0  0  0
 11 12  2  0  0  0  0
 12 13  1  0  0  0  0
 12 22  1  0  0  0  0
 13 14  1  0  0  0  0
 13 30  1  0  0  0  0
 13 31  1  0  0  0  0
 14 15  1  0  0  0  0
 14 32  1  0  0  0  0
 14 33  1  0  0  0  0
 15 16  2  0  0  0  0
 15 17  2  0  0  0  0
 15 18  1  0  0  0  0
 18 19  1  0  0  0  0
 18 22  2  0  0  0  0
 19 20  1  0  0  0  0
 20 21  2  0  0  0  0
 20 34  1  0  0  0  0
 21 22  1  0  0  0  0
 21 35  1  0  0  0  0
M  END
>  <Energy>
99.7803

$$$$

 OpenBabel04232616063D

 40 43  0  0  0  0  0  0  0  0999 V2000
    1.4515    0.3529    0.7326 N   0  0  0  0  0  0  0  0  0  0  0  0
    2.5052   -0.0746   -0.0285 C   0  0  0  0  0  0  0  0  0  0  0  0
    2.8770   -1.2412    0.0818 O   0  0  0  0  0  0  0  0  0  0  0  0
    3.1148    0.9031   -0.9244 C   0  0  0  0  0  0  0  0  0  0  0  0
    2.5903    2.5293   -0.9563 S   0  0  0  0  0  0  0  0  0  0  0  0
    3.7028    2.9420   -2.1734 C   0  0  0  0  0  0  0  0  0  0  0  0
    3.7166    4.1998   -2.6406 N   0  0  0  0  0  0  0  0  0  0  0  0
    4.6145    4.4704   -3.6125 C   0  0  0  0  0  0  0  0  0  0  0  0
    4.5212    5.8884   -4.0792 C   0  0  0  0  0  0  0  0  0  0  0  0
    4.2142    6.9201   -3.1662 C   0  0  0  0  0  0  0  0  0  0  0  0
    4.1076    8.2580   -3.5671 C   0  0  0  0  0  0  0  0  0  0  0  0
    4.3238    8.6065   -4.8952 C   0  0  0  0  0  0  0  0  0  0  0  0
    4.6027    7.6135   -5.8250 C   0  0  0  0  0  0  0  0  0  0  0  0
    4.6657    6.2739   -5.4238 C   0  0  0  0  0  0  0  0  0  0  0  0
    5.5216    3.5021   -4.1003 C   0  0  0  0  0  0  0  0  0  0  0  0
    5.4430    2.1622   -3.6131 C   0  0  0  0  0  0  0  0  0  0  0  0
    4.5014    1.8832   -2.5779 C   0  0  0  0  0  0  0  0  0  0  0  0
    4.1533    0.7010   -1.8182 C   0  0  0  0  0  0  0  0  0  0  0  0
    4.7548   -0.5061   -1.9496 N   0  0  0  0  0  0  0  0  0  0  0  0
    6.3542    1.0843   -4.1637 C   0  0  0  0  0  0  0  0  0  0  0  0
    7.0635    1.4470   -5.4605 C   0  0  0  0  0  0  0  0  0  0  0  0
    7.6713    2.8290   -5.3315 C   0  0  0  0  0  0  0  0  0  0  0  0
    6.5512    3.8479   -5.1591 C   0  0  0  0  0  0  0  0  0  0  0  0
    1.0021   -0.3122    1.3452 H   0  0  0  0  0  0  0  0  0  0  0  0
    1.1019    1.2993    0.6762 H   0  0  0  0  0  0  0  0  0  0  0  0
    4.0359    6.6791   -2.1187 H   0  0  0  0  0  0  0  0  0  0  0  0
    3.8507    9.0228   -2.8387 H   0  0  0  0  0  0  0  0  0  0  0  0
    4.2554    9.6444   -5.2090 H   0  0  0  0  0  0  0  0  0  0  0  0
    4.7558    7.8716   -6.8696 H   0  0  0  0  0  0  0  0  0  0  0  0
    4.8082    5.5352   -6.2043 H   0  0  0  0  0  0  0  0  0  0  0  0
    5.6788   -0.6208   -2.3469 H   0  0  0  0  0  0  0  0  0  0  0  0
    4.5034   -1.2677   -1.3116 H   0  0  0  0  0  0  0  0  0  0  0  0
    5.7734    0.1751   -4.3528 H   0  0  0  0  0  0  0  0  0  0  0  0
    7.1060    0.8559   -3.3980 H   0  0  0  0  0  0  0  0  0  0  0  0
    6.3504    1.4287   -6.2950 H   0  0  0  0  0  0  0  0  0  0  0  0
    7.8374    0.7049   -5.6849 H   0  0  0  0  0  0  0  0  0  0  0  0
    8.2511    3.0721   -6.2293 H   0  0  0  0  0  0  0  0  0  0  0  0
    8.3593    2.8656   -4.4784 H   0  0  0  0  0  0  0  0  0  0  0  0
    6.0342    3.9080   -6.1227 H   0  0  0  0  0  0  0  0  0  0  0  0
    7.0115    4.8175   -4.9394 H   0  0  0  0  0  0  0  0  0  0  0  0
  1  2  1  0  0  0  0
  1 24  1  0  0  0  0
  1 25  1  0  0  0  0
  2  3  2  0  0  0  0
  2  4  1  0  0  0  0
  4  5  1  0  0  0  0
  4 18  2  0  0  0  0
  5  6  1  0  0  0  0
  6  7  1  0  0  0  0
  6 17  2  0  0  0  0
  7  8  2  0  0  0  0
  8  9  1  0  0  0  0
  8 15  1  0  0  0  0
  9 10  1  0  0  0  0
  9 14  2  0  0  0  0
 10 11  2  0  0  0  0
 10 26  1  0  0  0  0
 11 12  1  0  0  0  0
 11 27  1  0  0  0  0
 12 13  2  0  0  0  0
 12 28  1  0  0  0  0
 13 14  1  0  0  0  0
 13 29  1  0  0  0  0
 14 30  1  0  0  0  0
 15 16  2  0  0  0  0
 15 23  1  0  0  0  0
 16 17  1  0  0  0  0
 16 20  1  0  0  0  0
 17 18  1  0  0  0  0
 18 19  1  0  0  0  0
 19 31  1  0  0  0  0
 19 32  1  0  0  0  0
 20 21  1  0  0  0  0
 20 33  1  0  0  0  0
 20 34  1  0  0  0  0
 21 22  1  0  0  0  0
 21 35  1  0  0  0  0
 21 36  1  0  0  0  0
 22 23  1  0  0  0  0
 22 37  1  0  0  0  0
 22 38  1  0  0  0  0
 23 39  1  0  0  0  0
 23 40  1  0  0  0  0
M  END
>  <Energy>
35.6643

$$$$

 OpenBabel04232616063D

 36 38  0  0  0  0  0  0  0  0999 V2000
    1.0501    0.1270    0.1673 O   0  0  0  0  0  0  0  0  0  0  0  0
    2.2767    0.1137    0.0986 C   0  0  0  0  0  0  0  0  0  0  0  0
    3.0236   -1.1703    0.0498 C   0  0  0  0  0  0  0  0  0  0  0  0
    2.0814   -2.5574   -0.4132 Cl  0  0  0  0  0  0  0  0  0  0  0  0
    4.3358   -1.2694    0.3157 C   0  0  0  0  0  0  0  0  0  0  0  0
    5.0890   -2.4562    0.2682 N   0  0  0  0  0  0  0  0  0  0  0  0
    4.8570   -3.5678    1.2014 C   0  0  0  0  0  0  0  0  0  0  0  0
    6.2551   -4.0128    1.6076 C   0  0  0  0  0  0  0  0  0  0  0  0
    7.0539   -3.8073    0.3351 C   0  0  0  0  0  0  0  0  0  0  0  0
    6.4598   -2.5340   -0.2614 C   0  0  0  0  0  0  0  0  0  0  0  0
    5.0193   -0.0029    0.7693 C   0  0  0  0  0  0  0  0  0  0  0  0
    6.0763   -0.0381    1.3921 O   0  0  0  0  0  0  0  0  0  0  0  0
    4.3660    1.2936    0.4340 C   0  0  0  0  0  0  0  0  0  0  0  0
    5.4142    2.6784    0.5070 Cl  0  0  0  0  0  0  0  0  0  0  0  0
    3.0756    1.3973    0.0681 C   0  0  0  0  0  0  0  0  0  0  0  0
    2.4083    2.5932   -0.2675 N   0  0  0  0  0  0  0  0  0  0  0  0
    2.3057    3.7307    0.6576 C   0  0  0  0  0  0  0  0  0  0  0  0
    0.8812    4.2332    0.4703 C   0  0  0  0  0  0  0  0  0  0  0  0
    0.6487    4.0206   -1.0131 C   0  0  0  0  0  0  0  0  0  0  0  0
    1.3624    2.7013   -1.2990 C   0  0  0  0  0  0  0  0  0  0  0  0
    4.3374   -4.3791    0.6768 H   0  0  0  0  0  0  0  0  0  0  0  0
    4.2650   -3.2775    2.0757 H   0  0  0  0  0  0  0  0  0  0  0  0
    6.2810   -5.0474    1.9608 H   0  0  0  0  0  0  0  0  0  0  0  0
    6.6410   -3.3657    2.4043 H   0  0  0  0  0  0  0  0  0  0  0  0
    6.9039   -4.6516   -0.3479 H   0  0  0  0  0  0  0  0  0  0  0  0
    8.1274   -3.7114    0.5238 H   0  0  0  0  0  0  0  0  0  0  0  0
    6.4340   -2.5982   -1.3545 H   0  0  0  0  0  0  0  0  0  0  0  0
    7.0730   -1.6724    0.0114 H   0  0  0  0  0  0  0  0  0  0  0  0
    3.0218    4.5064    0.3634 H   0  0  0  0  0  0  0  0  0  0  0  0
    2.4901    3.4514    1.7000 H   0  0  0  0  0  0  0  0  0  0  0  0
    0.7596    5.2769    0.7738 H   0  0  0  0  0  0  0  0  0  0  0  0
    0.1839    3.6197    1.0535 H   0  0  0  0  0  0  0  0  0  0  0  0
    1.1052    4.8334   -1.5897 H   0  0  0  0  0  0  0  0  0  0  0  0
   -0.4141    3.9785   -1.2696 H   0  0  0  0  0  0  0  0  0  0  0  0
    1.8158    2.7166   -2.2959 H   0  0  0  0  0  0  0  0  0  0  0  0
    0.6406    1.8836   -1.2662 H   0  0  0  0  0  0  0  0  0  0  0  0
  1  2  2  0  0  0  0
  2  3  1  0  0  0  0
  2 15  1  0  0  0  0
  3  4  1  0  0  0  0
  3  5  2  0  0  0  0
  5  6  1  0  0  0  0
  5 11  1  0  0  0  0
  6  7  1  0  0  0  0
  6 10  1  0  0  0  0
  7  8  1  0  0  0  0
  7 21  1  0  0  0  0
  7 22  1  0  0  0  0
  8  9  1  0  0  0  0
  8 23  1  0  0  0  0
  8 24  1  0  0  0  0
  9 10  1  0  0  0  0
  9 25  1  0  0  0  0
  9 26  1  0  0  0  0
 10 27  1  0  0  0  0
 10 28  1  0  0  0  0
 11 12  2  0  0  0  0
 11 13  1  0  0  0  0
 13 14  1  0  0  0  0
 13 15  2  0  0  0  0
 15 16  1  0  0  0  0
 16 17  1  0  0  0  0
 16 20  1  0  0  0  0
 17 18  1  0  0  0  0
 17 29  1  0  0  0  0
 17 30  1  0  0  0  0
 18 19  1  0  0  0  0
 18 31  1  0  0  0  0
 18 32  1  0  0  0  0
 19 20  1  0  0  0  0
 19 33  1  0  0  0  0
 19 34  1  0  0  0  0
 20 35  1  0  0  0  0
 20 36  1  0  0  0  0
M  END
>  <Energy>
142.45

$$$$

 OpenBabel04232616063D

 40 42  0  0  1  0  0  0  0  0999 V2000
    1.1419    0.2215    0.6090 C   0  0  0  0  0  0  0  0  0  0  0  0
    2.6184    0.1826    0.4716 C   0  0  0  0  0  0  0  0  0  0  0  0
    3.2501   -0.9897    0.6578 N   0  0  0  0  0  0  0  0  0  0  0  0
    4.5470   -0.7025    0.4364 N   0  0  0  0  0  0  0  0  0  0  0  0
    5.5268   -1.7613    0.4487 C   0  0  0  0  0  0  0  0  0  0  0  0
    4.7534    0.6234    0.2328 C   0  0  0  0  0  0  0  0  0  0  0  0
    6.3369    1.2408    0.0809 Cl  0  0  0  0  0  0  0  0  0  0  0  0
    3.5258    1.2513    0.2004 C   0  0  0  0  0  0  0  0  0  0  0  0
    3.3232    2.7105    0.0061 C   0  0  3  0  0  0  0  0  0  0  0  0
    2.7053    3.4150    1.2142 C   0  0  0  0  0  0  0  0  0  0  0  0
    2.4810    4.8142    0.6676 C   0  0  0  0  0  0  0  0  0  0  0  0
    2.0812    4.5644   -0.7831 C   0  0  0  0  0  0  0  0  0  0  0  0
    2.5019    3.2001   -1.1081 N   0  0  0  0  0  0  0  0  0  0  0  0
    2.6046    2.6659   -2.3962 C   0  0  0  0  0  0  0  0  0  0  0  0
    3.0717    1.5481   -2.6111 O   0  0  0  0  0  0  0  0  0  0  0  0
    2.2460    3.4804   -3.6083 C   0  0  0  0  0  0  0  0  0  0  0  0
    3.0172    3.2623   -4.7633 C   0  0  0  0  0  0  0  0  0  0  0  0
    2.8817    4.0829   -5.8857 C   0  0  0  0  0  0  0  0  0  0  0  0
    1.9788    5.1442   -5.8647 C   0  0  0  0  0  0  0  0  0  0  0  0
    1.1539    5.3310   -4.7540 C   0  0  0  0  0  0  0  0  0  0  0  0
    0.2451    6.4445   -4.7073 C   0  0  0  0  0  0  0  0  0  0  0  0
   -0.4646    7.3557   -4.6417 N   0  0  0  0  0  0  0  0  0  0  0  0
    1.2520    4.4645   -3.6547 C   0  0  0  0  0  0  0  0  0  0  0  0
    0.7053   -0.7685    0.4338 H   0  0  0  0  0  0  0  0  0  0  0  0
    0.6956    0.9147   -0.1084 H   0  0  0  0  0  0  0  0  0  0  0  0
    0.8644    0.5341    1.6210 H   0  0  0  0  0  0  0  0  0  0  0  0
    5.0208   -2.7280    0.3885 H   0  0  0  0  0  0  0  0  0  0  0  0
    6.1005   -1.6930    1.3765 H   0  0  0  0  0  0  0  0  0  0  0  0
    6.1822   -1.6454   -0.4188 H   0  0  0  0  0  0  0  0  0  0  0  0
    4.3083    3.1652   -0.1753 H   0  0  0  0  0  0  0  0  0  0  0  0
    3.3496    3.4060    2.0985 H   0  0  0  0  0  0  0  0  0  0  0  0
    1.7406    2.9707    1.4881 H   0  0  0  0  0  0  0  0  0  0  0  0
    3.4151    5.3871    0.7054 H   0  0  0  0  0  0  0  0  0  0  0  0
    1.7193    5.3747    1.2162 H   0  0  0  0  0  0  0  0  0  0  0  0
    2.5750    5.2840   -1.4435 H   0  0  0  0  0  0  0  0  0  0  0  0
    0.9962    4.6325   -0.8780 H   0  0  0  0  0  0  0  0  0  0  0  0
    3.7504    2.4562   -4.7831 H   0  0  0  0  0  0  0  0  0  0  0  0
    3.5029    3.9085   -6.7612 H   0  0  0  0  0  0  0  0  0  0  0  0
    1.9242    5.8183   -6.7177 H   0  0  0  0  0  0  0  0  0  0  0  0
    0.5502    4.5874   -2.8390 H   0  0  0  0  0  0  0  0  0  0  0  0
  1  2  1  0  0  0  0
  1 24  1  0  0  0  0
  1 25  1  0  0  0  0
  1 26  1  0  0  0  0
  2  3  2  0  0  0  0
  2  8  1  0  0  0  0
  3  4  1  0  0  0  0
  4  5  1  0  0  0  0
  4  6  1  0  0  0  0
  5 27  1  0  0  0  0
  5 28  1  0  0  0  0
  5 29  1  0  0  0  0
  6  7  1  0  0  0  0
  6  8  2  0  0  0  0
  8  9  1  0  0  0  0
  9 10  1  0  0  0  0
  9 13  1  0  0  0  0
  9 30  1  0  0  0  0
 10 11  1  0  0  0  0
 10 31  1  0  0  0  0
 10 32  1  0  0  0  0
 11 12  1  0  0  0  0
 11 33  1  0  0  0  0
 11 34  1  0  0  0  0
 12 13  1  0  0  0  0
 12 35  1  0  0  0  0
 12 36  1  0  0  0  0
 13 14  1  0  0  0  0
 14 15  2  0  0  0  0
 14 16  1  0  0  0  0
 16 17  1  0  0  0  0
 16 23  2  0  0  0  0
 17 18  2  0  0  0  0
 17 37  1  0  0  0  0
 18 19  1  0  0  0  0
 18 38  1  0  0  0  0
 19 20  2  0  0  0  0
 19 39  1  0  0  0  0
 20 21  1  0  0  0  0
 20 23  1  0  0  0  0
 21 22  3  0  0  0  0
 23 40  1  0  0  0  0
M  END
>  <Energy>
55.4984

$$$$

 OpenBabel04232616063D

 35 37  0  0  0  0  0  0  0  0999 V2000
    0.9867    0.6269    0.1895 C   0  0  0  0  0  0  0  0  0  0  0  0
    2.4166    0.2098    0.1837 C   0  0  0  0  0  0  0  0  0  0  0  0
    2.8688   -1.4805    0.1464 S   0  0  0  0  0  0  0  0  0  0  0  0
    4.6088   -1.0765    0.0166 C   0  0  0  0  0  0  0  0  0  0  0  0
    5.5832   -1.9105   -0.1436 N   0  0  0  0  0  0  0  0  0  0  0  0
    5.3423   -3.2490   -0.3236 C   0  0  0  0  0  0  0  0  0  0  0  0
    4.4404   -3.7257   -1.0029 O   0  0  0  0  0  0  0  0  0  0  0  0
    6.3654   -4.0765    0.2951 C   0  0  0  0  0  0  0  0  0  0  0  0
    6.4781   -5.4564    0.3486 C   0  0  0  0  0  0  0  0  0  0  0  0
    7.6927   -5.7481    1.0124 C   0  0  0  0  0  0  0  0  0  0  0  0
    8.2495   -4.5334    1.3341 C   0  0  0  0  0  0  0  0  0  0  0  0
    7.4536   -3.5155    0.9161 O   0  0  0  0  0  0  0  0  0  0  0  0
    4.7337    0.3106    0.1279 N   0  0  0  0  0  0  0  0  0  0  0  0
    6.0310    0.9608    0.0693 C   0  0  0  0  0  0  0  0  0  0  0  0
    3.5115    0.9948    0.1737 C   0  0  0  0  0  0  0  0  0  0  0  0
    3.4345    2.4589    0.1817 C   0  0  0  0  0  0  0  0  0  0  0  0
    3.4226    3.1594    1.3952 C   0  0  0  0  0  0  0  0  0  0  0  0
    3.2642    4.5476    1.4060 C   0  0  0  0  0  0  0  0  0  0  0  0
    3.1141    5.2370    0.2034 C   0  0  0  0  0  0  0  0  0  0  0  0
    2.8894    6.9426    0.2190 Cl  0  0  0  0  0  0  0  0  0  0  0  0
    3.1325    4.5519   -1.0105 C   0  0  0  0  0  0  0  0  0  0  0  0
    3.2935    3.1644   -1.0219 C   0  0  0  0  0  0  0  0  0  0  0  0
    0.3096   -0.2326    0.1331 H   0  0  0  0  0  0  0  0  0  0  0  0
    0.7656    1.2679   -0.6716 H   0  0  0  0  0  0  0  0  0  0  0  0
    0.7468    1.1755    1.1056 H   0  0  0  0  0  0  0  0  0  0  0  0
    5.7644   -6.1570   -0.0649 H   0  0  0  0  0  0  0  0  0  0  0  0
    8.1142   -6.7214    1.2211 H   0  0  0  0  0  0  0  0  0  0  0  0
    9.1642   -4.2386    1.8300 H   0  0  0  0  0  0  0  0  0  0  0  0
    6.8594    0.2476    0.1342 H   0  0  0  0  0  0  0  0  0  0  0  0
    6.1505    1.6599    0.9042 H   0  0  0  0  0  0  0  0  0  0  0  0
    6.1413    1.5135   -0.8698 H   0  0  0  0  0  0  0  0  0  0  0  0
    3.5206    2.6247    2.3383 H   0  0  0  0  0  0  0  0  0  0  0  0
    3.2452    5.0814    2.3523 H   0  0  0  0  0  0  0  0  0  0  0  0
    3.0089    5.0891   -1.9474 H   0  0  0  0  0  0  0  0  0  0  0  0
    3.2890    2.6332   -1.9718 H   0  0  0  0  0  0  0  0  0  0  0  0
  1  2  1  0  0  0  0
  1 23  1  0  0  0  0
  1 24  1  0  0  0  0
  1 25  1  0  0  0  0
  2  3  1  0  0  0  0
  2 15  2  0  0  0  0
  3  4  1  0  0  0  0
  4  5  2  0  0  0  0
  4 13  1  0  0  0  0
  5  6  1  0  0  0  0
  6  7  2  0  0  0  0
  6  8  1  0  0  0  0
  8  9  2  0  0  0  0
  8 12  1  0  0  0  0
  9 10  1  0  0  0  0
  9 26  1  0  0  0  0
 10 11  2  0  0  0  0
 10 27  1  0  0  0  0
 11 12  1  0  0  0  0
 11 28  1  0  0  0  0
 13 14  1  0  0  0  0
 13 15  1  0  0  0  0
 14 29  1  0  0  0  0
 14 30  1  0  0  0  0
 14 31  1  0  0  0  0
 15 16  1  0  0  0  0
 16 17  1  0  0  0  0
 16 22  2  0  0  0  0
 17 18  2  0  0  0  0
 17 32  1  0  0  0  0
 18 19  1  0  0  0  0
 18 33  1  0  0  0  0
 19 20  1  0  0  0  0
 19 21  2  0  0  0  0
 21 22  1  0  0  0  0
 21 34  1  0  0  0  0
 22 35  1  0  0  0  0
M  END
>  <Energy>
27.9602

$$$$

 OpenBabel04232616063D

 38 41  0  0  1  0  0  0  0  0999 V2000
    1.1387   -0.0774    0.2780 O   0  0  0  0  0  0  0  0  0  0  0  0
    2.3515   -0.0772    0.1727 C   0  0  0  0  0  0  0  0  0  0  0  0
    3.1476   -1.1810    0.1887 O   0  0  0  0  0  0  0  0  0  0  0  0
    4.5195   -0.7776    0.1095 C   0  0  0  0  0  0  0  0  0  0  0  0
    4.4500    0.6991    0.0529 C   0  0  0  0  0  0  0  0  0  0  0  0
    3.1915    1.1101    0.0584 C   0  0  0  0  0  0  0  0  0  0  0  0
    2.7308    2.5094    0.0340 C   0  0  3  0  0  0  0  0  0  0  0  0
    1.9383    2.8152   -1.2310 C   0  0  0  0  0  0  0  0  0  0  0  0
    0.5978    3.2264   -1.1319 C   0  0  0  0  0  0  0  0  0  0  0  0
   -0.1506    3.4864   -2.2803 C   0  0  0  0  0  0  0  0  0  0  0  0
    0.4354    3.3319   -3.5298 C   0  0  0  0  0  0  0  0  0  0  0  0
   -0.2856    3.5754   -4.6318 F   0  0  0  0  0  0  0  0  0  0  0  0
    1.7581    2.9265   -3.6540 C   0  0  0  0  0  0  0  0  0  0  0  0
    2.5120    2.6713   -2.5080 C   0  0  0  0  0  0  0  0  0  0  0  0
    3.8932    3.4956    0.2203 C   0  0  0  0  0  0  0  0  0  0  0  0
    5.3246    2.9594    0.1961 C   0  0  0  0  0  0  0  0  0  0  0  0
    6.2461    3.7778    0.2686 O   0  0  0  0  0  0  0  0  0  0  0  0
    5.5194    1.5706    0.0957 N   0  0  0  0  0  0  0  0  0  0  0  0
    6.8633    1.0850    0.1310 C   0  0  0  0  0  0  0  0  0  0  0  0
    7.6849    1.3696    1.2289 C   0  0  0  0  0  0  0  0  0  0  0  0
    8.9818    0.8575    1.2893 C   0  0  0  0  0  0  0  0  0  0  0  0
    9.4744    0.0815    0.2415 C   0  0  0  0  0  0  0  0  0  0  0  0
    8.6704   -0.1878   -0.8653 C   0  0  0  0  0  0  0  0  0  0  0  0
    7.3640    0.3027   -0.9173 C   0  0  0  0  0  0  0  0  0  0  0  0
    4.9511   -1.2187   -0.7931 H   0  0  0  0  0  0  0  0  0  0  0  0
    5.0440   -1.1443    0.9966 H   0  0  0  0  0  0  0  0  0  0  0  0
    2.0598    2.6500    0.8934 H   0  0  0  0  0  0  0  0  0  0  0  0
    0.1201    3.3337   -0.1593 H   0  0  0  0  0  0  0  0  0  0  0  0
   -1.1873    3.7989   -2.2075 H   0  0  0  0  0  0  0  0  0  0  0  0
    2.1917    2.8081   -4.6417 H   0  0  0  0  0  0  0  0  0  0  0  0
    3.5455    2.3520   -2.6228 H   0  0  0  0  0  0  0  0  0  0  0  0
    3.7783    3.9851    1.1966 H   0  0  0  0  0  0  0  0  0  0  0  0
    3.8506    4.2991   -0.5278 H   0  0  0  0  0  0  0  0  0  0  0  0
    7.3160    1.9754    2.0530 H   0  0  0  0  0  0  0  0  0  0  0  0
    9.6086    1.0705    2.1516 H   0  0  0  0  0  0  0  0  0  0  0  0
   10.4906   -0.3031    0.2831 H   0  0  0  0  0  0  0  0  0  0  0  0
    9.0670   -0.7705   -1.6933 H   0  0  0  0  0  0  0  0  0  0  0  0
    6.7630    0.1089   -1.8016 H   0  0  0  0  0  0  0  0  0  0  0  0
  1  2  2  0  0  0  0
  2  3  1  0  0  0  0
  2  6  1  0  0  0  0
  3  4  1  0  0  0  0
  4  5  1  0  0  0  0
  4 25  1  0  0  0  0
  4 26  1  0  0  0  0
  5  6  2  0  0  0  0
  5 18  1  0  0  0  0
  6  7  1  0  0  0  0
  7  8  1  0  0  0  0
  7 15  1  0  0  0  0
  7 27  1  0  0  0  0
  8  9  1  0  0  0  0
  8 14  2  0  0  0  0
  9 10  2  0  0  0  0
  9 28  1  0  0  0  0
 10 11  1  0  0  0  0
 10 29  1  0  0  0  0
 11 12  1  0  0  0  0
 11 13  2  0  0  0  0
 13 14  1  0  0  0  0
 13 30  1  0  0  0  0
 14 31  1  0  0  0  0
 15 16  1  0  0  0  0
 15 32  1  0  0  0  0
 15 33  1  0  0  0  0
 16 17  2  0  0  0  0
 16 18  1  0  0  0  0
 18 19  1  0  0  0  0
 19 20  1  0  0  0  0
 19 24  2  0  0  0  0
 20 21  2  0  0  0  0
 20 34  1  0  0  0  0
 21 22  1  0  0  0  0
 21 35  1  0  0  0  0
 22 23  2  0  0  0  0
 22 36  1  0  0  0  0
 23 24  1  0  0  0  0
 23 37  1  0  0  0  0
 24 38  1  0  0  0  0
M  END
>  <Energy>
41.7926

$$$$

 OpenBabel04232616063D

 43 45  0  0  1  0  0  0  0  0999 V2000
    1.6623    1.0334    0.0542 O   0  0  0  0  0  0  0  0  0  0  0  0
    2.5676    0.2089   -0.0667 C   0  0  0  0  0  0  0  0  0  0  0  0
    3.1713   -0.4485    1.1731 C   0  0  3  0  0  0  0  0  0  0  0  0
    2.3919   -0.1448    2.4642 C   0  0  0  0  0  0  0  0  0  0  0  0
    2.8037    1.2322    2.9768 C   0  0  0  0  0  0  0  0  0  0  0  0
    4.4635    1.5048    2.3937 S   0  0  0  0  0  0  0  0  0  0  0  0
    4.4813    2.6391    1.4971 O   0  0  0  0  0  0  0  0  0  0  0  0
    5.3839    1.3901    3.5071 O   0  0  0  0  0  0  0  0  0  0  0  0
    4.5997    0.0234    1.4237 C   0  0  0  0  0  0  0  0  0  0  0  0
    3.0567   -0.1881   -1.3058 N   0  0  0  0  0  0  0  0  0  0  0  0
    2.5538    0.4824   -2.5159 C   0  0  0  0  0  0  0  0  0  0  0  0
    2.2893   -0.5050   -3.6648 C   0  0  0  0  0  0  0  0  0  0  0  0
    3.4766   -1.4244   -3.8786 C   0  0  0  0  0  0  0  0  0  0  0  0
    4.1540   -1.6001   -5.0272 C   0  0  0  0  0  0  0  0  0  0  0  0
    3.8263   -0.9176   -6.2746 C   0  0  0  0  0  0  0  0  0  0  0  0
    4.3807    0.3364   -6.5575 C   0  0  0  0  0  0  0  0  0  0  0  0
    4.0310    1.0090   -7.7326 C   0  0  0  0  0  0  0  0  0  0  0  0
    3.1280    0.4269   -8.6191 C   0  0  0  0  0  0  0  0  0  0  0  0
    2.5865   -0.8212   -8.3327 C   0  0  0  0  0  0  0  0  0  0  0  0
    1.7161   -1.3748   -9.1855 F   0  0  0  0  0  0  0  0  0  0  0  0
    2.9264   -1.5010   -7.1687 C   0  0  0  0  0  0  0  0  0  0  0  0
    3.8950   -2.1290   -2.6137 C   0  0  0  0  0  0  0  0  0  0  0  0
    4.1940   -1.0938   -1.5301 C   0  0  0  0  0  0  0  0  0  0  0  0
    3.1319   -1.5317    1.0077 H   0  0  0  0  0  0  0  0  0  0  0  0
    2.6548   -0.8990    3.2166 H   0  0  0  0  0  0  0  0  0  0  0  0
    1.3068   -0.1972    2.3261 H   0  0  0  0  0  0  0  0  0  0  0  0
    2.8009    1.2651    4.0701 H   0  0  0  0  0  0  0  0  0  0  0  0
    2.1653    2.0265    2.5823 H   0  0  0  0  0  0  0  0  0  0  0  0
    5.1446   -0.7149    2.0194 H   0  0  0  0  0  0  0  0  0  0  0  0
    5.1753    0.2668    0.5293 H   0  0  0  0  0  0  0  0  0  0  0  0
    3.3151    1.2132   -2.8164 H   0  0  0  0  0  0  0  0  0  0  0  0
    1.6358    1.0406   -2.3033 H   0  0  0  0  0  0  0  0  0  0  0  0
    2.0235    0.0574   -4.5651 H   0  0  0  0  0  0  0  0  0  0  0  0
    1.4194   -1.1255   -3.4138 H   0  0  0  0  0  0  0  0  0  0  0  0
    5.0068   -2.2719   -5.0824 H   0  0  0  0  0  0  0  0  0  0  0  0
    5.0791    0.7985   -5.8637 H   0  0  0  0  0  0  0  0  0  0  0  0
    4.4585    1.9843   -7.9478 H   0  0  0  0  0  0  0  0  0  0  0  0
    2.8403    0.9389   -9.5332 H   0  0  0  0  0  0  0  0  0  0  0  0
    2.4782   -2.4680   -6.9663 H   0  0  0  0  0  0  0  0  0  0  0  0
    4.7783   -2.7585   -2.7699 H   0  0  0  0  0  0  0  0  0  0  0  0
    3.0814   -2.7877   -2.2851 H   0  0  0  0  0  0  0  0  0  0  0  0
    5.0465   -0.4676   -1.8240 H   0  0  0  0  0  0  0  0  0  0  0  0
    4.4786   -1.6249   -0.6220 H   0  0  0  0  0  0  0  0  0  0  0  0
  1  2  2  0  0  0  0
  2  3  1  0  0  0  0
  2 10  1  0  0  0  0
  3  4  1  0  0  0  0
  3  9  1  0  0  0  0
  3 24  1  0  0  0  0
  4  5  1  0  0  0  0
  4 25  1  0  0  0  0
  4 26  1  0  0  0  0
  5  6  1  0  0  0  0
  5 27  1  0  0  0  0
  5 28  1  0  0  0  0
  6  7  2  0  0  0  0
  6  8  2  0  0  0  0
  6  9  1  0  0  0  0
  9 29  1  0  0  0  0
  9 30  1  0  0  0  0
 10 11  1  0  0  0  0
 10 23  1  0  0  0  0
 11 12  1  0  0  0  0
 11 31  1  0  0  0  0
 11 32  1  0  0  0  0
 12 13  1  0  0  0  0
 12 33  1  0  0  0  0
 12 34  1  0  0  0  0
 13 14  2  3  0  0  0
 13 22  1  0  0  0  0
 14 15  1  0  0  0  0
 14 35  1  0  0  0  0
 15 16  1  0  0  0  0
 15 21  2  0  0  0  0
 16 17  2  0  0  0  0
 16 36  1  0  0  0  0
 17 18  1  0  0  0  0
 17 37  1  0  0  0  0
 18 19  2  0  0  0  0
 18 38  1  0  0  0  0
 19 20  1  0  0  0  0
 19 21  1  0  0  0  0
 21 39  1  0  0  0  0
 22 23  1  0  0  0  0
 22 40  1  0  0  0  0
 22 41  1  0  0  0  0
 23 42  1  0  0  0  0
 23 43  1  0  0  0  0
M  END
>  <Energy>
18.0502

$$$$

 OpenBabel04232616063D

 40 43  0  0  0  0  0  0  0  0999 V2000
    0.9214    0.0963   -0.1780 C   0  0  0  0  0  0  0  0  0  0  0  0
    2.3985   -0.0772   -0.3968 C   0  0  0  0  0  0  0  0  0  0  0  0
    2.8323   -1.0573   -0.9922 O   0  0  0  0  0  0  0  0  0  0  0  0
    3.1307    0.9603    0.1469 N   0  0  0  0  0  0  0  0  0  0  0  0
    4.5197    1.0749    0.0621 C   0  0  0  0  0  0  0  0  0  0  0  0
    5.2891    0.2651   -0.7253 N   0  0  0  0  0  0  0  0  0  0  0  0
    6.6502    0.3469   -0.7769 C   0  0  0  0  0  0  0  0  0  0  0  0
    7.3104   -0.5484   -1.5986 C   0  0  0  0  0  0  0  0  0  0  0  0
    8.7088   -0.5774   -1.7022 C   0  0  0  0  0  0  0  0  0  0  0  0
    9.4883    0.3171   -0.9730 C   0  0  0  0  0  0  0  0  0  0  0  0
    8.8749    1.2531   -0.1469 C   0  0  0  0  0  0  0  0  0  0  0  0
    7.4621    1.2662   -0.0536 C   0  0  0  0  0  0  0  0  0  0  0  0
    6.6447    2.1163    0.7240 C   0  0  0  0  0  0  0  0  0  0  0  0
    7.0435    3.1385    1.5411 C   0  0  0  0  0  0  0  0  0  0  0  0
    5.8900    3.6653    2.0865 N   0  0  0  0  0  0  0  0  0  0  0  0
    5.7762    4.7817    2.9650 C   0  0  0  0  0  0  0  0  0  0  0  0
    4.5300    5.0985    3.5244 C   0  0  0  0  0  0  0  0  0  0  0  0
    4.3961    6.2044    4.3648 C   0  0  0  0  0  0  0  0  0  0  0  0
    5.4971    7.0162    4.6363 C   0  0  0  0  0  0  0  0  0  0  0  0
    6.7457    6.7226    4.0786 C   0  0  0  0  0  0  0  0  0  0  0  0
    7.9258    7.6180    4.3212 C   0  0  0  0  0  0  0  0  0  0  0  0
    6.8858    5.5903    3.2593 C   0  0  0  0  0  0  0  0  0  0  0  0
    4.7717    2.9955    1.6706 N   0  0  0  0  0  0  0  0  0  0  0  0
    5.2143    2.0577    0.8120 C   0  0  0  0  0  0  0  0  0  0  0  0
    0.4138   -0.8516   -0.3834 H   0  0  0  0  0  0  0  0  0  0  0  0
    0.5413    0.8602   -0.8615 H   0  0  0  0  0  0  0  0  0  0  0  0
    0.7101    0.3805    0.8564 H   0  0  0  0  0  0  0  0  0  0  0  0
    2.6762    1.6629    0.7193 H   0  0  0  0  0  0  0  0  0  0  0  0
    6.7192   -1.2597   -2.1736 H   0  0  0  0  0  0  0  0  0  0  0  0
    9.1795   -1.3104   -2.3530 H   0  0  0  0  0  0  0  0  0  0  0  0
   10.5723    0.2795   -1.0500 H   0  0  0  0  0  0  0  0  0  0  0  0
    9.4787    1.9503    0.4237 H   0  0  0  0  0  0  0  0  0  0  0  0
    8.0222    3.5207    1.7854 H   0  0  0  0  0  0  0  0  0  0  0  0
    3.6509    4.4906    3.3195 H   0  0  0  0  0  0  0  0  0  0  0  0
    3.4280    6.4414    4.7995 H   0  0  0  0  0  0  0  0  0  0  0  0
    5.3695    7.8852    5.2783 H   0  0  0  0  0  0  0  0  0  0  0  0
    7.6562    8.4817    4.9379 H   0  0  0  0  0  0  0  0  0  0  0  0
    8.3063    7.9981    3.3669 H   0  0  0  0  0  0  0  0  0  0  0  0
    8.7219    7.0693    4.8335 H   0  0  0  0  0  0  0  0  0  0  0  0
    7.8664    5.3872    2.8395 H   0  0  0  0  0  0  0  0  0  0  0  0
  1  2  1  0  0  0  0
  1 25  1  0  0  0  0
  1 26  1  0  0  0  0
  1 27  1  0  0  0  0
  2  3  2  0  0  0  0
  2  4  1  0  0  0  0
  4  5  1  0  0  0  0
  4 28  1  0  0  0  0
  5  6  2  0  0  0  0
  5 24  1  0  0  0  0
  6  7  1  0  0  0  0
  7  8  1  0  0  0  0
  7 12  2  0  0  0  0
  8  9  2  0  0  0  0
  8 29  1  0  0  0  0
  9 10  1  0  0  0  0
  9 30  1  0  0  0  0
 10 11  2  0  0  0  0
 10 31  1  0  0  0  0
 11 12  1  0  0  0  0
 11 32  1  0  0  0  0
 12 13  1  0  0  0  0
 13 14  2  0  0  0  0
 13 24  1  0  0  0  0
 14 15  1  0  0  0  0
 14 33  1  0  0  0  0
 15 16  1  0  0  0  0
 15 23  1  0  0  0  0
 16 17  1  0  0  0  0
 16 22  2  0  0  0  0
 17 18  2  0  0  0  0
 17 34  1  0  0  0  0
 18 19  1  0  0  0  0
 18 35  1  0  0  0  0
 19 20  2  0  0  0  0
 19 36  1  0  0  0  0
 20 21  1  0  0  0  0
 20 22  1  0  0  0  0
 21 37  1  0  0  0  0
 21 38  1  0  0  0  0
 21 39  1  0  0  0  0
 22 40  1  0  0  0  0
 23 24  2  0  0  0  0
M  END
>  <Energy>
66.4912

$$$$

 OpenBabel04232616063D

 43 45  0  0  0  0  0  0  0  0999 V2000
    2.5788   -0.1193    0.3531 C   0  0  0  0  0  0  0  0  0  0  0  0
    1.0782   -0.1707    0.2345 C   0  0  0  0  0  0  0  0  0  0  0  0
    0.4195    1.0714    0.3391 C   0  0  0  0  0  0  0  0  0  0  0  0
   -0.9210    1.2379   -0.0224 C   0  0  0  0  0  0  0  0  0  0  0  0
   -1.5560    2.5638   -0.0215 C   0  0  0  0  0  0  0  0  0  0  0  0
   -1.0084    3.7534   -0.3200 C   0  0  0  0  0  0  0  0  0  0  0  0
   -1.7096    5.0305    0.0369 C   0  0  0  0  0  0  0  0  0  0  0  0
   -2.8587    5.1363    0.4196 O   0  0  0  0  0  0  0  0  0  0  0  0
   -0.7759    6.0171   -0.1771 N   0  0  0  0  0  0  0  0  0  0  0  0
   -1.0657    7.4192    0.0414 C   0  0  0  0  0  0  0  0  0  0  0  0
    0.4050    5.4957   -0.6920 C   0  0  0  0  0  0  0  0  0  0  0  0
    1.7996    6.3543   -1.0219 S   0  0  0  0  0  0  0  0  0  0  0  0
    0.2194    4.1044   -0.8585 N   0  0  0  0  0  0  0  0  0  0  0  0
    0.8777    3.3440   -1.9154 C   0  0  0  0  0  0  0  0  0  0  0  0
   -1.6522    0.0893   -0.2935 C   0  0  0  0  0  0  0  0  0  0  0  0
   -1.0251   -1.1693   -0.2934 C   0  0  0  0  0  0  0  0  0  0  0  0
    0.3552   -1.3454   -0.0619 C   0  0  0  0  0  0  0  0  0  0  0  0
    0.9219   -2.6005   -0.1271 N   0  0  0  0  0  0  0  0  0  0  0  0
    2.0218   -3.0623    0.7186 C   0  0  0  0  0  0  0  0  0  0  0  0
    2.1028   -4.5729    0.4937 C   0  0  0  0  0  0  0  0  0  0  0  0
    0.8080   -4.9399   -0.2073 C   0  0  0  0  0  0  0  0  0  0  0  0
    0.4361   -3.6809   -0.9779 C   0  0  0  0  0  0  0  0  0  0  0  0
    2.9496    0.9116    0.2975 H   0  0  0  0  0  0  0  0  0  0  0  0
    3.0415   -0.6419   -0.4906 H   0  0  0  0  0  0  0  0  0  0  0  0
    2.9115   -0.5355    1.3064 H   0  0  0  0  0  0  0  0  0  0  0  0
    0.9954    1.9436    0.6449 H   0  0  0  0  0  0  0  0  0  0  0  0
   -2.5726    2.5565    0.3782 H   0  0  0  0  0  0  0  0  0  0  0  0
   -2.1399    7.5818    0.1572 H   0  0  0  0  0  0  0  0  0  0  0  0
   -0.7031    8.0081   -0.8070 H   0  0  0  0  0  0  0  0  0  0  0  0
   -0.5468    7.7465    0.9468 H   0  0  0  0  0  0  0  0  0  0  0  0
    1.7550    3.8677   -2.3006 H   0  0  0  0  0  0  0  0  0  0  0  0
    0.1715    3.2326   -2.7449 H   0  0  0  0  0  0  0  0  0  0  0  0
    1.2071    2.3641   -1.5850 H   0  0  0  0  0  0  0  0  0  0  0  0
   -2.7183    0.1444   -0.4975 H   0  0  0  0  0  0  0  0  0  0  0  0
   -1.6668   -2.0310   -0.4576 H   0  0  0  0  0  0  0  0  0  0  0  0
    1.8361   -2.8346    1.7736 H   0  0  0  0  0  0  0  0  0  0  0  0
    2.9813   -2.6340    0.4187 H   0  0  0  0  0  0  0  0  0  0  0  0
    2.2326   -5.1182    1.4339 H   0  0  0  0  0  0  0  0  0  0  0  0
    2.9614   -4.8107   -0.1453 H   0  0  0  0  0  0  0  0  0  0  0  0
    0.0352   -5.1686    0.5354 H   0  0  0  0  0  0  0  0  0  0  0  0
    0.9199   -5.8093   -0.8621 H   0  0  0  0  0  0  0  0  0  0  0  0
   -0.6367   -3.6748   -1.1825 H   0  0  0  0  0  0  0  0  0  0  0  0
    0.9669   -3.6426   -1.9366 H   0  0  0  0  0  0  0  0  0  0  0  0
  1  2  1  0  0  0  0
  1 23  1  0  0  0  0
  1 24  1  0  0  0  0
  1 25  1  0  0  0  0
  2  3  1  0  0  0  0
  2 17  2  0  0  0  0
  3  4  2  0  0  0  0
  3 26  1  0  0  0  0
  4  5  1  0  0  0  0
  4 15  1  0  0  0  0
  5  6  2  0  0  0  0
  5 27  1  0  0  0  0
  6  7  1  0  0  0  0
  6 13  1  0  0  0  0
  7  8  2  0  0  0  0
  7  9  1  0  0  0  0
  9 10  1  0  0  0  0
  9 11  1  0  0  0  0
 10 28  1  0  0  0  0
 10 29  1  0  0  0  0
 10 30  1  0  0  0  0
 11 12  2  0  0  0  0
 11 13  1  0  0  0  0
 13 14  1  0  0  0  0
 14 31  1  0  0  0  0
 14 32  1  0  0  0  0
 14 33  1  0  0  0  0
 15 16  2  0  0  0  0
 15 34  1  0  0  0  0
 16 17  1  0  0  0  0
 16 35  1  0  0  0  0
 17 18  1  0  0  0  0
 18 19  1  0  0  0  0
 18 22  1  0  0  0  0
 19 20  1  0  0  0  0
 19 36  1  0  0  0  0
 19 37  1  0  0  0  0
 20 21  1  0  0  0  0
 20 38  1  0  0  0  0
 20 39  1  0  0  0  0
 21 22  1  0  0  0  0
 21 40  1  0  0  0  0
 21 41  1  0  0  0  0
 22 42  1  0  0  0  0
 22 43  1  0  0  0  0
M  END
>  <Energy>
29.0368

$$$$

 OpenBabel04232616063D

 37 40  0  0  0  0  0  0  0  0999 V2000
    1.0919    0.5856   -0.3319 N   0  0  0  0  0  0  0  0  0  0  0  0
    2.2337    0.1301    0.2812 C   0  0  0  0  0  0  0  0  0  0  0  0
    2.5835    0.6508    1.3405 O   0  0  0  0  0  0  0  0  0  0  0  0
    2.9542   -0.9439   -0.3903 C   0  0  0  0  0  0  0  0  0  0  0  0
    2.4472   -1.5340   -1.9083 S   0  0  0  0  0  0  0  0  0  0  0  0
    3.7398   -2.6344   -1.9884 C   0  0  0  0  0  0  0  0  0  0  0  0
    3.8118   -3.4189   -3.0766 N   0  0  0  0  0  0  0  0  0  0  0  0
    4.8453   -4.2731   -3.1113 C   0  0  0  0  0  0  0  0  0  0  0  0
    5.8309   -4.3526   -2.1205 C   0  0  0  0  0  0  0  0  0  0  0  0
    5.7299   -3.4985   -0.9772 C   0  0  0  0  0  0  0  0  0  0  0  0
    6.7530   -3.5387    0.1019 C   0  0  0  0  0  0  0  0  0  0  0  0
    7.3585   -4.6329    0.7090 C   0  0  0  0  0  0  0  0  0  0  0  0
    8.3149   -4.2811    1.7063 C   0  0  0  0  0  0  0  0  0  0  0  0
    8.3858   -2.9209    1.8791 C   0  0  0  0  0  0  0  0  0  0  0  0
    7.5099   -2.0940    0.6690 S   0  0  0  0  0  0  0  0  0  0  0  0
    4.6066   -2.5971   -0.9007 C   0  0  0  0  0  0  0  0  0  0  0  0
    4.0817   -1.6210    0.0442 C   0  0  0  0  0  0  0  0  0  0  0  0
    4.6079   -1.3435    1.2612 N   0  0  0  0  0  0  0  0  0  0  0  0
    6.9327   -5.3841   -2.2625 C   0  0  0  0  0  0  0  0  0  0  0  0
    7.1284   -5.9322   -3.6729 C   0  0  0  0  0  0  0  0  0  0  0  0
    5.7882   -6.3329   -4.2618 C   0  0  0  0  0  0  0  0  0  0  0  0
    4.9035   -5.1015   -4.3740 C   0  0  0  0  0  0  0  0  0  0  0  0
    0.5726    1.3226    0.1278 H   0  0  0  0  0  0  0  0  0  0  0  0
    0.7589    0.1945   -1.1937 H   0  0  0  0  0  0  0  0  0  0  0  0
    7.1399   -5.6616    0.4551 H   0  0  0  0  0  0  0  0  0  0  0  0
    8.8919   -4.9918    2.2859 H   0  0  0  0  0  0  0  0  0  0  0  0
    8.9652   -2.3760    2.6123 H   0  0  0  0  0  0  0  0  0  0  0  0
    5.5587   -1.6171    1.4969 H   0  0  0  0  0  0  0  0  0  0  0  0
    4.3167   -0.4937    1.7537 H   0  0  0  0  0  0  0  0  0  0  0  0
    6.6758   -6.2308   -1.6132 H   0  0  0  0  0  0  0  0  0  0  0  0
    7.8922   -4.9695   -1.9397 H   0  0  0  0  0  0  0  0  0  0  0  0
    7.8017   -6.7960   -3.6404 H   0  0  0  0  0  0  0  0  0  0  0  0
    7.6043   -5.1733   -4.3058 H   0  0  0  0  0  0  0  0  0  0  0  0
    5.3093   -7.0868   -3.6256 H   0  0  0  0  0  0  0  0  0  0  0  0
    5.9268   -6.7846   -5.2507 H   0  0  0  0  0  0  0  0  0  0  0  0
    3.8905   -5.4121   -4.6577 H   0  0  0  0  0  0  0  0  0  0  0  0
    5.2805   -4.4556   -5.1768 H   0  0  0  0  0  0  0  0  0  0  0  0
  1  2  1  0  0  0  0
  1 23  1  0  0  0  0
  1 24  1  0  0  0  0
  2  3  2  0  0  0  0
  2  4  1  0  0  0  0
  4  5  1  0  0  0  0
  4 17  2  0  0  0  0
  5  6  1  0  0  0  0
  6  7  1  0  0  0  0
  6 16  2  0  0  0  0
  7  8  2  0  0  0  0
  8  9  1  0  0  0  0
  8 22  1  0  0  0  0
  9 10  2  0  0  0  0
  9 19  1  0  0  0  0
 10 11  1  0  0  0  0
 10 16  1  0  0  0  0
 11 12  2  0  0  0  0
 11 15  1  0  0  0  0
 12 13  1  0  0  0  0
 12 25  1  0  0  0  0
 13 14  2  0  0  0  0
 13 26  1  0  0  0  0
 14 15  1  0  0  0  0
 14 27  1  0  0  0  0
 16 17  1  0  0  0  0
 17 18  1  0  0  0  0
 18 28  1  0  0  0  0
 18 29  1  0  0  0  0
 19 20  1  0  0  0  0
 19 30  1  0  0  0  0
 19 31  1  0  0  0  0
 20 21  1  0  0  0  0
 20 32  1  0  0  0  0
 20 33  1  0  0  0  0
 21 22  1  0  0  0  0
 21 34  1  0  0  0  0
 21 35  1  0  0  0  0
 22 36  1  0  0  0  0
 22 37  1  0  0  0  0
M  END
>  <Energy>
17.2299

$$$$

 OpenBabel04232616063D

 42 45  0  0  0  0  0  0  0  0999 V2000
    1.8366    0.8178    1.3810 C   0  0  0  0  0  0  0  0  0  0  0  0
    2.9981    0.3071    0.7355 O   0  0  0  0  0  0  0  0  0  0  0  0
    3.4839    1.0319   -0.3189 C   0  0  0  0  0  0  0  0  0  0  0  0
    2.9193    2.2059   -0.8274 C   0  0  0  0  0  0  0  0  0  0  0  0
    3.4943    2.8413   -1.9291 C   0  0  0  0  0  0  0  0  0  0  0  0
    4.6259    2.2882   -2.5164 C   0  0  0  0  0  0  0  0  0  0  0  0
    5.1056    2.8839   -3.6913 O   0  0  0  0  0  0  0  0  0  0  0  0
    6.0089    2.1785   -4.4806 C   0  0  0  0  0  0  0  0  0  0  0  0
    6.0936    2.4022   -5.6853 O   0  0  0  0  0  0  0  0  0  0  0  0
    6.8952    1.2296   -3.7797 C   0  0  0  0  0  0  0  0  0  0  0  0
    8.1897    0.6826   -4.3149 C   0  0  0  0  0  0  0  0  0  0  0  0
    8.4381   -0.4853   -3.9922 O   0  0  0  0  0  0  0  0  0  0  0  0
    9.0919    1.4975   -5.0271 N   0  0  0  0  0  0  0  0  0  0  0  0
    8.8712    2.9291   -5.2927 C   0  0  0  0  0  0  0  0  0  0  0  0
   10.0934    3.7837   -5.0266 C   0  0  0  0  0  0  0  0  0  0  0  0
   11.2415    3.3440   -5.9034 C   0  0  0  0  0  0  0  0  0  0  0  0
   11.3782    1.8471   -5.9537 C   0  0  0  0  0  0  0  0  0  0  0  0
   12.5995    1.3389   -6.4430 C   0  0  0  0  0  0  0  0  0  0  0  0
   12.8129   -0.0293   -6.5508 C   0  0  0  0  0  0  0  0  0  0  0  0
   11.7969   -0.9018   -6.1955 C   0  0  0  0  0  0  0  0  0  0  0  0
   10.5776   -0.4061   -5.7173 C   0  0  0  0  0  0  0  0  0  0  0  0
   10.3405    0.9702   -5.5619 C   0  0  0  0  0  0  0  0  0  0  0  0
    6.4653    0.6948   -2.6188 C   0  0  0  0  0  0  0  0  0  0  0  0
    5.2279    1.1470   -2.0042 C   0  0  0  0  0  0  0  0  0  0  0  0
    4.6471    0.5123   -0.9040 C   0  0  0  0  0  0  0  0  0  0  0  0
    1.5903    0.1494    2.2112 H   0  0  0  0  0  0  0  0  0  0  0  0
    0.9799    0.8320    0.6985 H   0  0  0  0  0  0  0  0  0  0  0  0
    2.0252    1.8121    1.7991 H   0  0  0  0  0  0  0  0  0  0  0  0
    2.0231    2.6429   -0.3999 H   0  0  0  0  0  0  0  0  0  0  0  0
    3.0489    3.7443   -2.3360 H   0  0  0  0  0  0  0  0  0  0  0  0
    8.0898    3.3331   -4.6521 H   0  0  0  0  0  0  0  0  0  0  0  0
    8.5489    3.0221   -6.3379 H   0  0  0  0  0  0  0  0  0  0  0  0
   10.3709    3.7007   -3.9693 H   0  0  0  0  0  0  0  0  0  0  0  0
    9.8646    4.8383   -5.2212 H   0  0  0  0  0  0  0  0  0  0  0  0
   12.1647    3.7944   -5.5176 H   0  0  0  0  0  0  0  0  0  0  0  0
   11.0957    3.7124   -6.9263 H   0  0  0  0  0  0  0  0  0  0  0  0
   13.3949    2.0203   -6.7388 H   0  0  0  0  0  0  0  0  0  0  0  0
   13.7605   -0.4110   -6.9196 H   0  0  0  0  0  0  0  0  0  0  0  0
   11.9397   -1.9752   -6.2909 H   0  0  0  0  0  0  0  0  0  0  0  0
    9.8169   -1.1487   -5.5014 H   0  0  0  0  0  0  0  0  0  0  0  0
    7.0325   -0.0710   -2.0950 H   0  0  0  0  0  0  0  0  0  0  0  0
    5.0833   -0.3971   -0.4958 H   0  0  0  0  0  0  0  0  0  0  0  0
  1  2  1  0  0  0  0
  1 26  1  0  0  0  0
  1 27  1  0  0  0  0
  1 28  1  0  0  0  0
  2  3  1  0  0  0  0
  3  4  1  0  0  0  0
  3 25  2  0  0  0  0
  4  5  2  0  0  0  0
  4 29  1  0  0  0  0
  5  6  1  0  0  0  0
  5 30  1  0  0  0  0
  6  7  1  0  0  0  0
  6 24  2  0  0  0  0
  7  8  1  0  0  0  0
  8  9  2  0  0  0  0
  8 10  1  0  0  0  0
 10 11  1  0  0  0  0
 10 23  2  0  0  0  0
 11 12  2  0  0  0  0
 11 13  1  0  0  0  0
 13 14  1  0  0  0  0
 13 22  1  0  0  0  0
 14 15  1  0  0  0  0
 14 31  1  0  0  0  0
 14 32  1  0  0  0  0
 15 16  1  0  0  0  0
 15 33  1  0  0  0  0
 15 34  1  0  0  0  0
 16 17  1  0  0  0  0
 16 35  1  0  0  0  0
 16 36  1  0  0  0  0
 17 18  1  0  0  0  0
 17 22  2  0  0  0  0
 18 19  2  0  0  0  0
 18 37  1  0  0  0  0
 19 20  1  0  0  0  0
 19 38  1  0  0  0  0
 20 21  2  0  0  0  0
 20 39  1  0  0  0  0
 21 22  1  0  0  0  0
 21 40  1  0  0  0  0
 23 24  1  0  0  0  0
 23 41  1  0  0  0  0
 24 25  1  0  0  0  0
 25 42  1  0  0  0  0
M  END
>  <Energy>
57.3387

$$$$

 OpenBabel04232616063D

 35 38  0  0  0  0  0  0  0  0999 V2000
    4.4578   -2.6925    1.1396 C   0  0  0  0  0  0  0  0  0  0  0  0
    3.8487   -1.3373    1.0740 C   0  0  0  0  0  0  0  0  0  0  0  0
    3.6974   -0.4262    2.1053 C   0  0  0  0  0  0  0  0  0  0  0  0
    3.3190    0.8056    1.5351 C   0  0  0  0  0  0  0  0  0  0  0  0
    3.2400    0.6253    0.1656 C   0  0  0  0  0  0  0  0  0  0  0  0
    3.1553    1.6891   -0.8726 C   0  0  0  0  0  0  0  0  0  0  0  0
    3.3151   -0.7446   -0.0577 N   0  0  0  0  0  0  0  0  0  0  0  0
    2.5978   -1.4486   -1.0390 N   0  0  0  0  0  0  0  0  0  0  0  0
    2.2727   -0.7474   -2.1799 C   0  0  0  0  0  0  0  0  0  0  0  0
    1.0667   -0.4578   -2.5702 N   0  0  0  0  0  0  0  0  0  0  0  0
    0.1035   -0.8244   -1.6792 C   0  0  0  0  0  0  0  0  0  0  0  0
   -1.4400   -0.1158   -1.6488 S   0  0  0  0  0  0  0  0  0  0  0  0
   -1.8837   -0.9923   -0.2415 C   0  0  0  0  0  0  0  0  0  0  0  0
   -0.9037   -1.8862    0.1562 C   0  0  0  0  0  0  0  0  0  0  0  0
   -1.0828   -2.7931    1.3453 C   0  0  0  0  0  0  0  0  0  0  0  0
   -0.5269   -4.0540    1.4727 C   0  0  0  0  0  0  0  0  0  0  0  0
   -0.8056   -4.6545    2.7358 C   0  0  0  0  0  0  0  0  0  0  0  0
   -1.5870   -3.8470    3.5248 C   0  0  0  0  0  0  0  0  0  0  0  0
   -2.0295   -2.4039    2.7172 S   0  0  0  0  0  0  0  0  0  0  0  0
    0.2689   -1.7309   -0.6501 C   0  0  0  0  0  0  0  0  0  0  0  0
    1.6039   -2.2707   -0.5122 C   0  0  0  0  0  0  0  0  0  0  0  0
    1.8188   -3.4095   -0.1123 O   0  0  0  0  0  0  0  0  0  0  0  0
    4.3891   -3.0909    2.1580 H   0  0  0  0  0  0  0  0  0  0  0  0
    5.5195   -2.6219    0.8812 H   0  0  0  0  0  0  0  0  0  0  0  0
    4.0144   -3.4220    0.4655 H   0  0  0  0  0  0  0  0  0  0  0  0
    3.9253   -0.6078    3.1484 H   0  0  0  0  0  0  0  0  0  0  0  0
    3.2134    1.7513    2.0537 H   0  0  0  0  0  0  0  0  0  0  0  0
    3.3367    2.6734   -0.4252 H   0  0  0  0  0  0  0  0  0  0  0  0
    2.1755    1.7320   -1.3521 H   0  0  0  0  0  0  0  0  0  0  0  0
    3.9324    1.5431   -1.6313 H   0  0  0  0  0  0  0  0  0  0  0  0
    3.1471   -0.4061   -2.7583 H   0  0  0  0  0  0  0  0  0  0  0  0
   -2.8586   -0.8321    0.1948 H   0  0  0  0  0  0  0  0  0  0  0  0
    0.0420   -4.5522    0.7016 H   0  0  0  0  0  0  0  0  0  0  0  0
   -0.4455   -5.6312    3.0388 H   0  0  0  0  0  0  0  0  0  0  0  0
   -1.9393   -4.0452    4.5279 H   0  0  0  0  0  0  0  0  0  0  0  0
  1  2  1  0  0  0  0
  1 23  1  0  0  0  0
  1 24  1  0  0  0  0
  1 25  1  0  0  0  0
  2  3  2  0  0  0  0
  2  7  1  0  0  0  0
  3  4  1  0  0  0  0
  3 26  1  0  0  0  0
  4  5  2  0  0  0  0
  4 27  1  0  0  0  0
  5  6  1  0  0  0  0
  5  7  1  0  0  0  0
  6 28  1  0  0  0  0
  6 29  1  0  0  0  0
  6 30  1  0  0  0  0
  7  8  1  0  0  0  0
  8  9  1  0  0  0  0
  8 21  1  0  0  0  0
  9 10  2  0  0  0  0
  9 31  1  0  0  0  0
 10 11  1  0  0  0  0
 11 12  1  0  0  0  0
 11 20  2  0  0  0  0
 12 13  1  0  0  0  0
 13 14  2  0  0  0  0
 13 32  1  0  0  0  0
 14 15  1  0  0  0  0
 14 20  1  0  0  0  0
 15 16  2  0  0  0  0
 15 19  1  0  0  0  0
 16 17  1  0  0  0  0
 16 33  1  0  0  0  0
 17 18  2  0  0  0  0
 17 34  1  0  0  0  0
 18 19  1  0  0  0  0
 18 35  1  0  0  0  0
 20 21  1  0  0  0  0
 21 22  2  0  0  0  0
M  END
>  <Energy>
11.1315

$$$$

 OpenBabel04232616063D

 31 33  0  0  0  0  0  0  0  0999 V2000
    2.6284   -1.8371   -1.6878 C   0  0  0  0  0  0  0  0  0  0  0  0
    3.1892   -0.9450   -0.9199 C   0  0  0  0  0  0  0  0  0  0  0  0
    3.8430    0.0950   -0.0247 C   0  0  0  0  0  0  0  0  0  0  0  0
    4.2178   -0.5926    1.2047 N   0  0  0  0  0  0  0  0  0  0  0  0
    5.1709   -1.7272    1.1299 C   0  0  0  0  0  0  0  0  0  0  0  0
    4.5922   -3.0262    1.7178 C   0  0  0  0  0  0  0  0  0  0  0  0
    3.9532   -2.6398    2.9864 C   0  0  0  0  0  0  0  0  0  0  0  0
    3.7456   -3.5312    3.9674 O   0  0  0  0  0  0  0  0  0  0  0  0
    3.1107   -2.8851    5.0128 N   0  0  0  0  0  0  0  0  0  0  0  0
    2.9445   -1.5965    4.6366 C   0  0  0  0  0  0  0  0  0  0  0  0
    2.2774   -0.6488    5.5315 C   0  0  0  0  0  0  0  0  0  0  0  0
    2.6571    0.6984    5.5821 C   0  0  0  0  0  0  0  0  0  0  0  0
    1.9920    1.5987    6.4188 C   0  0  0  0  0  0  0  0  0  0  0  0
    0.9523    1.1508    7.2309 C   0  0  0  0  0  0  0  0  0  0  0  0
    0.0428    2.3734    8.3493 Br  0  0  0  0  0  0  0  0  0  0  0  0
    0.5797   -0.1888    7.2190 C   0  0  0  0  0  0  0  0  0  0  0  0
    1.2412   -1.0859    6.3748 C   0  0  0  0  0  0  0  0  0  0  0  0
    3.4724   -1.4025    3.3300 C   0  0  0  0  0  0  0  0  0  0  0  0
    3.5029   -0.3083    2.3778 C   0  0  0  0  0  0  0  0  0  0  0  0
    2.8883    0.7374    2.5438 O   0  0  0  0  0  0  0  0  0  0  0  0
    2.1615   -2.5615   -2.3150 H   0  0  0  0  0  0  0  0  0  0  0  0
    3.1453    0.9158    0.1629 H   0  0  0  0  0  0  0  0  0  0  0  0
    4.7488    0.4902   -0.4946 H   0  0  0  0  0  0  0  0  0  0  0  0
    6.0501   -1.4224    1.7121 H   0  0  0  0  0  0  0  0  0  0  0  0
    5.5045   -1.8830    0.0987 H   0  0  0  0  0  0  0  0  0  0  0  0
    5.3786   -3.7711    1.8632 H   0  0  0  0  0  0  0  0  0  0  0  0
    3.8378   -3.4456    1.0430 H   0  0  0  0  0  0  0  0  0  0  0  0
    3.4720    1.0732    4.9677 H   0  0  0  0  0  0  0  0  0  0  0  0
    2.2914    2.6434    6.4237 H   0  0  0  0  0  0  0  0  0  0  0  0
   -0.2239   -0.5485    7.8572 H   0  0  0  0  0  0  0  0  0  0  0  0
    0.9341   -2.1308    6.3720 H   0  0  0  0  0  0  0  0  0  0  0  0
  1  2  3  0  0  0  0
  1 21  1  0  0  0  0
  2  3  1  0  0  0  0
  3  4  1  0  0  0  0
  3 22  1  0  0  0  0
  3 23  1  0  0  0  0
  4  5  1  0  0  0  0
  4 19  1  0  0  0  0
  5  6  1  0  0  0  0
  5 24  1  0  0  0  0
  5 25  1  0  0  0  0
  6  7  1  0  0  0  0
  6 26  1  0  0  0  0
  6 27  1  0  0  0  0
  7  8  1  0  0  0  0
  7 18  2  0  0  0  0
  8  9  1  0  0  0  0
  9 10  2  0  0  0  0
 10 11  1  0  0  0  0
 10 18  1  0  0  0  0
 11 12  1  0  0  0  0
 11 17  2  0  0  0  0
 12 13  2  0  0  0  0
 12 28  1  0  0  0  0
 13 14  1  0  0  0  0
 13 29  1  0  0  0  0
 14 15  1  0  0  0  0
 14 16  2  0  0  0  0
 16 17  1  0  0  0  0
 16 30  1  0  0  0  0
 17 31  1  0  0  0  0
 18 19  1  0  0  0  0
 19 20  2  0  0  0  0
M  END
>  <Energy>
137.842

$$$$

 OpenBabel04232616063D

 34 38  0  0  1  0  0  0  0  0999 V2000
    1.0650    0.1008   -0.3593 O   0  0  0  0  0  0  0  0  0  0  0  0
    2.0791   -0.1085   -0.9871 C   0  0  0  0  0  0  0  0  0  0  0  0
    2.9812    0.7044   -1.9424 C   0  0  2  0  0  0  0  0  0  0  0  0
    2.1902    1.3475   -3.4120 Cl  0  0  0  0  0  0  0  0  0  0  0  0
    3.8176   -0.6043   -2.0632 C   0  0  1  0  0  0  0  0  0  0  0  0
    5.3053   -0.6613   -1.6161 C   0  0  0  0  0  0  0  0  0  0  0  0
    6.1596    0.4467   -1.5635 C   0  0  0  0  0  0  0  0  0  0  0  0
    7.4806    0.3270   -1.1229 C   0  0  0  0  0  0  0  0  0  0  0  0
    8.3300    1.4460   -1.0689 C   0  0  0  0  0  0  0  0  0  0  0  0
    9.6417    1.3116   -0.6259 C   0  0  0  0  0  0  0  0  0  0  0  0
   10.1038    0.0607   -0.2360 C   0  0  0  0  0  0  0  0  0  0  0  0
    9.2517   -1.0507   -0.2963 C   0  0  0  0  0  0  0  0  0  0  0  0
    7.9378   -0.9476   -0.7387 C   0  0  0  0  0  0  0  0  0  0  0  0
    7.1486   -2.0379   -0.8042 N   0  0  0  0  0  0  0  0  0  0  0  0
    5.8678   -1.8768   -1.2167 C   0  0  0  0  0  0  0  0  0  0  0  0
    5.1652   -3.0521   -1.4517 O   0  0  0  0  0  0  0  0  0  0  0  0
    4.0290   -3.3117   -0.7080 C   0  0  0  0  0  0  0  0  0  0  0  0
    3.9340   -4.6354   -0.2547 C   0  0  0  0  0  0  0  0  0  0  0  0
    2.8341   -5.0563    0.4937 C   0  0  0  0  0  0  0  0  0  0  0  0
    1.8286   -4.1504    0.8126 C   0  0  0  0  0  0  0  0  0  0  0  0
    1.8947   -2.8399    0.3364 C   0  0  0  0  0  0  0  0  0  0  0  0
    2.9637   -2.4228   -0.4691 C   0  0  0  0  0  0  0  0  0  0  0  0
    2.9181   -1.1663   -1.0620 N   0  0  0  0  0  0  0  0  0  0  0  0
    3.4736    1.5343   -1.4245 H   0  0  0  0  0  0  0  0  0  0  0  0
    3.6690   -1.1054   -3.0308 H   0  0  0  0  0  0  0  0  0  0  0  0
    5.7934    1.4211   -1.8789 H   0  0  0  0  0  0  0  0  0  0  0  0
    7.9742    2.4288   -1.3721 H   0  0  0  0  0  0  0  0  0  0  0  0
   10.2971    2.1780   -0.5866 H   0  0  0  0  0  0  0  0  0  0  0  0
   11.1267   -0.0568    0.1137 H   0  0  0  0  0  0  0  0  0  0  0  0
    9.6278   -2.0251    0.0102 H   0  0  0  0  0  0  0  0  0  0  0  0
    4.7214   -5.3467   -0.4942 H   0  0  0  0  0  0  0  0  0  0  0  0
    2.7632   -6.0882    0.8282 H   0  0  0  0  0  0  0  0  0  0  0  0
    0.9759   -4.4657    1.4097 H   0  0  0  0  0  0  0  0  0  0  0  0
    1.0751   -2.1656    0.5752 H   0  0  0  0  0  0  0  0  0  0  0  0
  1  2  2  0  0  0  0
  2  3  1  0  0  0  0
  2 23  1  0  0  0  0
  3  5  1  0  0  0  0
  3  4  1  0  0  0  0
  3 24  1  1  0  0  0
  5  6  1  0  0  0  0
  5 23  1  0  0  0  0
  5 25  1  6  0  0  0
  6  7  1  0  0  0  0
  6 15  2  0  0  0  0
  7  8  2  0  0  0  0
  7 26  1  0  0  0  0
  8  9  1  0  0  0  0
  8 13  1  0  0  0  0
  9 10  2  0  0  0  0
  9 27  1  0  0  0  0
 10 11  1  0  0  0  0
 10 28  1  0  0  0  0
 11 12  2  0  0  0  0
 11 29  1  0  0  0  0
 12 13  1  0  0  0  0
 12 30  1  0  0  0  0
 13 14  2  0  0  0  0
 14 15  1  0  0  0  0
 15 16  1  0  0  0  0
 16 17  1  0  0  0  0
 17 18  1  0  0  0  0
 17 22  2  0  0  0  0
 18 19  2  0  0  0  0
 18 31  1  0  0  0  0
 19 20  1  0  0  0  0
 19 32  1  0  0  0  0
 20 21  2  0  0  0  0
 20 33  1  0  0  0  0
 21 22  1  0  0  0  0
 21 34  1  0  0  0  0
 22 23  1  0  0  0  0
M  END
>  <Energy>
82.0011

$$$$

 OpenBabel04232616063D

 27 29  0  0  0  0  0  0  0  0999 V2000
    2.9146   -0.6569   -0.8457 O   0  0  0  0  0  0  0  0  0  0  0  0
    2.2730   -0.0182   -0.0019 N   0  3  0  0  0  0  0  0  0  0  0  0
    1.0374    0.0857    0.0322 O   0  5  0  0  0  0  0  0  0  0  0  0
    3.0171    0.6014    1.0714 C   0  0  0  0  0  0  0  0  0  0  0  0
    2.6582    0.2466    2.3257 C   0  0  0  0  0  0  0  0  0  0  0  0
    3.3480    0.8053    3.4821 C   0  0  0  0  0  0  0  0  0  0  0  0
    4.3366    1.6913    3.2800 C   0  0  0  0  0  0  0  0  0  0  0  0
    4.6781    2.0528    1.9772 N   0  0  0  0  0  0  0  0  0  0  0  0
    5.6324    2.9395    1.5502 C   0  0  0  0  0  0  0  0  0  0  0  0
    5.5564    2.9328    0.1742 C   0  0  0  0  0  0  0  0  0  0  0  0
    6.3920    3.7006   -0.7317 C   0  0  0  0  0  0  0  0  0  0  0  0
    6.6444    3.2088   -2.0205 C   0  0  0  0  0  0  0  0  0  0  0  0
    7.4649    3.9149   -2.9048 C   0  0  0  0  0  0  0  0  0  0  0  0
    8.0269    5.1252   -2.5067 C   0  0  0  0  0  0  0  0  0  0  0  0
    9.1435    6.0800   -3.6956 Br  0  0  0  0  0  0  0  0  0  0  0  0
    7.7720    5.6380   -1.2362 C   0  0  0  0  0  0  0  0  0  0  0  0
    6.9566    4.9264   -0.3509 C   0  0  0  0  0  0  0  0  0  0  0  0
    4.5843    2.0577   -0.2525 N   0  0  0  0  0  0  0  0  0  0  0  0
    4.0618    1.5368    0.8404 C   0  0  0  0  0  0  0  0  0  0  0  0
    1.8574   -0.4639    2.5187 H   0  0  0  0  0  0  0  0  0  0  0  0
    3.0478    0.4932    4.4785 H   0  0  0  0  0  0  0  0  0  0  0  0
    4.8933    2.1516    4.0877 H   0  0  0  0  0  0  0  0  0  0  0  0
    6.2701    3.4688    2.2426 H   0  0  0  0  0  0  0  0  0  0  0  0
    6.2062    2.2636   -2.3387 H   0  0  0  0  0  0  0  0  0  0  0  0
    7.6556    3.5103   -3.8952 H   0  0  0  0  0  0  0  0  0  0  0  0
    8.1990    6.5878   -0.9260 H   0  0  0  0  0  0  0  0  0  0  0  0
    6.7595    5.3494    0.6308 H   0  0  0  0  0  0  0  0  0  0  0  0
  1  2  2  0  0  0  0
  2  3  1  0  0  0  0
  2  4  1  0  0  0  0
  4  5  2  0  0  0  0
  4 19  1  0  0  0  0
  5  6  1  0  0  0  0
  5 20  1  0  0  0  0
  6  7  2  0  0  0  0
  6 21  1  0  0  0  0
  7  8  1  0  0  0  0
  7 22  1  0  0  0  0
  8  9  1  0  0  0  0
  8 19  1  0  0  0  0
  9 10  2  0  0  0  0
  9 23  1  0  0  0  0
 10 11  1  0  0  0  0
 10 18  1  0  0  0  0
 11 12  1  0  0  0  0
 11 17  2  0  0  0  0
 12 13  2  0  0  0  0
 12 24  1  0  0  0  0
 13 14  1  0  0  0  0
 13 25  1  0  0  0  0
 14 15  1  0  0  0  0
 14 16  2  0  0  0  0
 16 17  1  0  0  0  0
 16 26  1  0  0  0  0
 17 27  1  0  0  0  0
 18 19  2  0  0  0  0
M  CHG  2   2   1   3  -1
M  END
>  <Energy>
63.1668

$$$$

 OpenBabel04232616063D

 44 47  0  0  0  0  0  0  0  0999 V2000
    1.1639    0.0027    1.1946 C   0  0  0  0  0  0  0  0  0  0  0  0
    2.5531    0.0170    0.5975 C   0  0  0  0  0  0  0  0  0  0  0  0
    3.1995   -1.1697    0.6256 C   0  0  0  0  0  0  0  0  0  0  0  0
    4.5194   -1.3093   -0.0029 C   0  0  0  0  0  0  0  0  0  0  0  0
    5.1211   -2.3722    0.0092 O   0  0  0  0  0  0  0  0  0  0  0  0
    5.0840   -0.1134   -0.6407 C   0  0  0  0  0  0  0  0  0  0  0  0
    4.4054    1.0495   -0.6259 C   0  0  0  0  0  0  0  0  0  0  0  0
    5.1442    2.2295   -1.2259 C   0  0  0  0  0  0  0  0  0  0  0  0
    3.1146    1.1761   -0.0199 N   0  0  0  0  0  0  0  0  0  0  0  0
    2.3926    2.4297   -0.0573 C   0  0  0  0  0  0  0  0  0  0  0  0
    1.7485    2.9523    1.0780 C   0  0  0  0  0  0  0  0  0  0  0  0
    1.0256    4.1567    1.0625 C   0  0  0  0  0  0  0  0  0  0  0  0
    1.0969    4.9350   -0.0984 C   0  0  0  0  0  0  0  0  0  0  0  0
    1.7139    4.4529   -1.2457 C   0  0  0  0  0  0  0  0  0  0  0  0
    2.3061    3.1799   -1.2427 C   0  0  0  0  0  0  0  0  0  0  0  0
    1.6486    5.3561   -2.2654 N   0  0  0  0  0  0  0  0  0  0  0  0
    1.0431    6.4150   -1.7664 C   0  0  0  0  0  0  0  0  0  0  0  0
    0.9853    7.7247   -2.4717 C   0  0  0  0  0  0  0  0  0  0  0  0
    0.6137    6.1897   -0.4577 N   0  0  0  0  0  0  0  0  0  0  0  0
   -0.1006    7.0984    0.3726 C   0  0  0  0  0  0  0  0  0  0  0  0
   -1.1234    7.8890   -0.1665 C   0  0  0  0  0  0  0  0  0  0  0  0
   -1.7739    8.8317    0.6317 C   0  0  0  0  0  0  0  0  0  0  0  0
   -1.4133    8.9840    1.9689 C   0  0  0  0  0  0  0  0  0  0  0  0
   -0.4192    8.1771    2.5186 C   0  0  0  0  0  0  0  0  0  0  0  0
    0.2349    7.2322    1.7259 C   0  0  0  0  0  0  0  0  0  0  0  0
    0.7941   -1.0184    1.3486 H   0  0  0  0  0  0  0  0  0  0  0  0
    0.4368    0.4952    0.5420 H   0  0  0  0  0  0  0  0  0  0  0  0
    1.1569    0.4687    2.1849 H   0  0  0  0  0  0  0  0  0  0  0  0
    2.7953   -2.0639    1.0758 H   0  0  0  0  0  0  0  0  0  0  0  0
    6.0639   -0.2351   -1.0840 H   0  0  0  0  0  0  0  0  0  0  0  0
    6.2117    2.0139   -1.3641 H   0  0  0  0  0  0  0  0  0  0  0  0
    5.0934    3.1118   -0.5815 H   0  0  0  0  0  0  0  0  0  0  0  0
    4.7655    2.4697   -2.2235 H   0  0  0  0  0  0  0  0  0  0  0  0
    1.8028    2.4294    2.0280 H   0  0  0  0  0  0  0  0  0  0  0  0
    0.4697    4.4694    1.9402 H   0  0  0  0  0  0  0  0  0  0  0  0
    2.7113    2.8163   -2.1775 H   0  0  0  0  0  0  0  0  0  0  0  0
    1.6898    7.7263   -3.3109 H   0  0  0  0  0  0  0  0  0  0  0  0
    1.2703    8.5500   -1.8116 H   0  0  0  0  0  0  0  0  0  0  0  0
   -0.0095    7.9089   -2.8833 H   0  0  0  0  0  0  0  0  0  0  0  0
   -1.4595    7.7636   -1.1920 H   0  0  0  0  0  0  0  0  0  0  0  0
   -2.5643    9.4474    0.2094 H   0  0  0  0  0  0  0  0  0  0  0  0
   -1.9072    9.7323    2.5835 H   0  0  0  0  0  0  0  0  0  0  0  0
   -0.1380    8.2970    3.5621 H   0  0  0  0  0  0  0  0  0  0  0  0
    1.0424    6.6599    2.1742 H   0  0  0  0  0  0  0  0  0  0  0  0
  1  2  1  0  0  0  0
  1 26  1  0  0  0  0
  1 27  1  0  0  0  0
  1 28  1  0  0  0  0
  2  3  2  0  0  0  0
  2  9  1  0  0  0  0
  3  4  1  0  0  0  0
  3 29  1  0  0  0  0
  4  5  2  0  0  0  0
  4  6  1  0  0  0  0
  6  7  2  0  0  0  0
  6 30  1  0  0  0  0
  7  8  1  0  0  0  0
  7  9  1  0  0  0  0
  8 31  1  0  0  0  0
  8 32  1  0  0  0  0
  8 33  1  0  0  0  0
  9 10  1  0  0  0  0
 10 11  1  0  0  0  0
 10 15  2  0  0  0  0
 11 12  2  0  0  0  0
 11 34  1  0  0  0  0
 12 13  1  0  0  0  0
 12 35  1  0  0  0  0
 13 14  2  0  0  0  0
 13 19  1  0  0  0  0
 14 15  1  0  0  0  0
 14 16  1  0  0  0  0
 15 36  1  0  0  0  0
 16 17  2  0  0  0  0
 17 18  1  0  0  0  0
 17 19  1  0  0  0  0
 18 37  1  0  0  0  0
 18 38  1  0  0  0  0
 18 39  1  0  0  0  0
 19 20  1  0  0  0  0
 20 21  1  0  0  0  0
 20 25  2  0  0  0  0
 21 22  2  0  0  0  0
 21 40  1  0  0  0  0
 22 23  1  0  0  0  0
 22 41  1  0  0  0  0
 23 24  2  0  0  0  0
 23 42  1  0  0  0  0
 24 25  1  0  0  0  0
 24 43  1  0  0  0  0
 25 44  1  0  0  0  0
M  END
>  <Energy>
84.0727

$$$$

 OpenBabel04232616063D

 45 48  0  0  0  0  0  0  0  0999 V2000
    0.9805    0.0234    0.0646 C   0  0  0  0  0  0  0  0  0  0  0  0
    2.4842   -0.0258    0.0631 C   0  0  0  0  0  0  0  0  0  0  0  0
    3.1978    1.1860    0.0636 C   0  0  0  0  0  0  0  0  0  0  0  0
    4.5882    1.1763    0.0691 C   0  0  0  0  0  0  0  0  0  0  0  0
    5.2446    2.4202    0.0808 N   0  0  0  0  0  0  0  0  0  0  0  0
    6.6169    2.5985    0.1040 C   0  0  0  0  0  0  0  0  0  0  0  0
    7.4554    1.7011    0.0684 O   0  0  0  0  0  0  0  0  0  0  0  0
    7.0416    4.0820    0.1444 C   0  0  0  0  0  0  0  0  0  0  0  0
    8.5774    4.1899    0.0874 C   0  0  0  0  0  0  0  0  0  0  0  0
    9.0814    5.6235    0.2174 C   0  0  0  0  0  0  0  0  0  0  0  0
    8.5430    6.2901    1.4764 C   0  0  0  0  0  0  0  0  0  0  0  0
    7.0210    6.2326    1.5181 C   0  0  0  0  0  0  0  0  0  0  0  0
    6.4983    4.8007    1.3907 C   0  0  0  0  0  0  0  0  0  0  0  0
    5.2762    0.0239    0.0727 N   0  0  0  0  0  0  0  0  0  0  0  0
    4.6006   -1.1603    0.0673 C   0  0  0  0  0  0  0  0  0  0  0  0
    3.2113   -1.2316    0.0630 C   0  0  0  0  0  0  0  0  0  0  0  0
    2.5491   -2.5660    0.0608 C   0  0  0  0  0  0  0  0  0  0  0  0
    1.3315   -2.6979    0.0572 O   0  0  0  0  0  0  0  0  0  0  0  0
    3.3695   -3.6865    0.0627 O   0  0  0  0  0  0  0  0  0  0  0  0
    4.7729   -3.6088    0.0649 C   0  0  0  0  0  0  0  0  0  0  0  0
    5.4630   -4.8217    0.0662 C   0  0  0  0  0  0  0  0  0  0  0  0
    6.8533   -4.8094    0.0677 C   0  0  0  0  0  0  0  0  0  0  0  0
    7.5307   -3.5906    0.0677 C   0  0  0  0  0  0  0  0  0  0  0  0
    6.8173   -2.3826    0.0665 C   0  0  0  0  0  0  0  0  0  0  0  0
    5.4146   -2.3733    0.0661 C   0  0  0  0  0  0  0  0  0  0  0  0
    0.6112    1.0545    0.0666 H   0  0  0  0  0  0  0  0  0  0  0  0
    0.5832   -0.4600    0.9628 H   0  0  0  0  0  0  0  0  0  0  0  0
    0.5802   -0.4581   -0.8332 H   0  0  0  0  0  0  0  0  0  0  0  0
    2.6567    2.1277    0.0649 H   0  0  0  0  0  0  0  0  0  0  0  0
    4.6614    3.2441    0.0657 H   0  0  0  0  0  0  0  0  0  0  0  0
    6.6301    4.5635   -0.7535 H   0  0  0  0  0  0  0  0  0  0  0  0
    8.9451    3.7632   -0.8539 H   0  0  0  0  0  0  0  0  0  0  0  0
    9.0193    3.5892    0.8936 H   0  0  0  0  0  0  0  0  0  0  0  0
    8.7807    6.2018   -0.6644 H   0  0  0  0  0  0  0  0  0  0  0  0
   10.1773    5.6252    0.2421 H   0  0  0  0  0  0  0  0  0  0  0  0
    8.8775    7.3331    1.5146 H   0  0  0  0  0  0  0  0  0  0  0  0
    8.9541    5.7907    2.3624 H   0  0  0  0  0  0  0  0  0  0  0  0
    6.6121    6.8452    0.7050 H   0  0  0  0  0  0  0  0  0  0  0  0
    6.6645    6.6720    2.4568 H   0  0  0  0  0  0  0  0  0  0  0  0
    5.4030    4.8338    1.3694 H   0  0  0  0  0  0  0  0  0  0  0  0
    6.7716    4.2338    2.2898 H   0  0  0  0  0  0  0  0  0  0  0  0
    4.9202   -5.7628    0.0654 H   0  0  0  0  0  0  0  0  0  0  0  0
    7.4076   -5.7448    0.0693 H   0  0  0  0  0  0  0  0  0  0  0  0
    8.6182   -3.5743    0.0689 H   0  0  0  0  0  0  0  0  0  0  0  0
    7.3702   -1.4427    0.0662 H   0  0  0  0  0  0  0  0  0  0  0  0
  1  2  1  0  0  0  0
  1 26  1  0  0  0  0
  1 27  1  0  0  0  0
  1 28  1  0  0  0  0
  2  3  1  0  0  0  0
  2 16  2  0  0  0  0
  3  4  2  0  0  0  0
  3 29  1  0  0  0  0
  4  5  1  0  0  0  0
  4 14  1  0  0  0  0
  5  6  1  0  0  0  0
  5 30  1  0  0  0  0
  6  7  2  0  0  0  0
  6  8  1  0  0  0  0
  8  9  1  0  0  0  0
  8 13  1  0  0  0  0
  8 31  1  0  0  0  0
  9 10  1  0  0  0  0
  9 32  1  0  0  0  0
  9 33  1  0  0  0  0
 10 11  1  0  0  0  0
 10 34  1  0  0  0  0
 10 35  1  0  0  0  0
 11 12  1  0  0  0  0
 11 36  1  0  0  0  0
 11 37  1  0  0  0  0
 12 13  1  0  0  0  0
 12 38  1  0  0  0  0
 12 39  1  0  0  0  0
 13 40  1  0  0  0  0
 13 41  1  0  0  0  0
 14 15  2  0  0  0  0
 15 16  1  0  0  0  0
 15 25  1  0  0  0  0
 16 17  1  0  0  0  0
 17 18  2  0  0  0  0
 17 19  1  0  0  0  0
 19 20  1  0  0  0  0
 20 21  1  0  0  0  0
 20 25  2  0  0  0  0
 21 22  2  0  0  0  0
 21 42  1  0  0  0  0
 22 23  1  0  0  0  0
 22 43  1  0  0  0  0
 23 24  2  0  0  0  0
 23 44  1  0  0  0  0
 24 25  1  0  0  0  0
 24 45  1  0  0  0  0
M  END
>  <Energy>
24.7986

$$$$

 OpenBabel04232616063D

 41 44  0  0  0  0  0  0  0  0999 V2000
    2.0553    1.4071    0.6903 C   0  0  0  0  0  0  0  0  0  0  0  0
    2.4491    0.0649    0.0292 C   0  0  0  0  0  0  0  0  0  0  0  0
    3.5264   -0.5842    0.9237 C   0  0  0  0  0  0  0  0  0  0  0  0
    1.1888   -0.8258    0.0249 C   0  0  0  0  0  0  0  0  0  0  0  0
    2.9923    0.2199   -1.4019 C   0  0  0  0  0  0  0  0  0  0  0  0
    3.1231    1.4704   -2.0222 C   0  0  0  0  0  0  0  0  0  0  0  0
    3.6314    1.5903   -3.3218 C   0  0  0  0  0  0  0  0  0  0  0  0
    4.0206    0.4658   -4.0551 C   0  0  0  0  0  0  0  0  0  0  0  0
    4.5321    0.5710   -5.4216 C   0  0  0  0  0  0  0  0  0  0  0  0
    5.3343   -0.2904   -6.0480 N   0  0  0  0  0  0  0  0  0  0  0  0
    5.5663    0.1639   -7.3455 N   0  0  0  0  0  0  0  0  0  0  0  0
    4.8858    1.2667   -7.4531 C   0  0  0  0  0  0  0  0  0  0  0  0
    4.5628    2.4352   -8.6546 S   0  0  0  0  0  0  0  0  0  0  0  0
    3.5243    3.2425   -7.4414 C   0  0  0  0  0  0  0  0  0  0  0  0
    2.8063    4.4920   -7.7993 C   0  0  0  0  0  0  0  0  0  0  0  0
    2.0441    5.1388   -6.8291 C   0  0  0  0  0  0  0  0  0  0  0  0
    1.3783    6.3100   -7.1794 C   0  0  0  0  0  0  0  0  0  0  0  0
    1.4888    6.7918   -8.4778 C   0  0  0  0  0  0  0  0  0  0  0  0
    2.2661    6.0813   -9.3797 C   0  0  0  0  0  0  0  0  0  0  0  0
    2.9275    4.9445   -9.0704 N   0  0  0  0  0  0  0  0  0  0  0  0
    3.4436    2.6845   -6.2587 N   0  0  0  0  0  0  0  0  0  0  0  0
    4.2284    1.5731   -6.3132 N   0  0  0  0  0  0  0  0  0  0  0  0
    3.9090   -0.7862   -3.4429 C   0  0  0  0  0  0  0  0  0  0  0  0
    3.3976   -0.9069   -2.1421 C   0  0  0  0  0  0  0  0  0  0  0  0
    1.6779    1.2533    1.7080 H   0  0  0  0  0  0  0  0  0  0  0  0
    1.2648    1.9164    0.1263 H   0  0  0  0  0  0  0  0  0  0  0  0
    2.9125    2.0865    0.7642 H   0  0  0  0  0  0  0  0  0  0  0  0
    3.1656   -0.7038    1.9522 H   0  0  0  0  0  0  0  0  0  0  0  0
    4.4329    0.0315    0.9582 H   0  0  0  0  0  0  0  0  0  0  0  0
    3.8173   -1.5783    0.5678 H   0  0  0  0  0  0  0  0  0  0  0  0
    0.7927   -0.9508    1.0402 H   0  0  0  0  0  0  0  0  0  0  0  0
    1.3884   -1.8282   -0.3672 H   0  0  0  0  0  0  0  0  0  0  0  0
    0.3945   -0.3832   -0.5882 H   0  0  0  0  0  0  0  0  0  0  0  0
    2.8404    2.3890   -1.5167 H   0  0  0  0  0  0  0  0  0  0  0  0
    3.7224    2.5905   -3.7379 H   0  0  0  0  0  0  0  0  0  0  0  0
    1.9660    4.7473   -5.8197 H   0  0  0  0  0  0  0  0  0  0  0  0
    0.7769    6.8398   -6.4451 H   0  0  0  0  0  0  0  0  0  0  0  0
    0.9805    7.7013   -8.7830 H   0  0  0  0  0  0  0  0  0  0  0  0
    2.3792    6.4195  -10.4061 H   0  0  0  0  0  0  0  0  0  0  0  0
    4.2128   -1.6853   -3.9788 H   0  0  0  0  0  0  0  0  0  0  0  0
    3.3254   -1.9045   -1.7151 H   0  0  0  0  0  0  0  0  0  0  0  0
  1  2  1  0  0  0  0
  1 25  1  0  0  0  0
  1 26  1  0  0  0  0
  1 27  1  0  0  0  0
  2  3  1  0  0  0  0
  2  4  1  0  0  0  0
  2  5  1  0  0  0  0
  3 28  1  0  0  0  0
  3 29  1  0  0  0  0
  3 30  1  0  0  0  0
  4 31  1  0  0  0  0
  4 32  1  0  0  0  0
  4 33  1  0  0  0  0
  5  6  1  0  0  0  0
  5 24  2  0  0  0  0
  6  7  2  0  0  0  0
  6 34  1  0  0  0  0
  7  8  1  0  0  0  0
  7 35  1  0  0  0  0
  8  9  1  0  0  0  0
  8 23  2  0  0  0  0
  9 10  2  0  0  0  0
  9 22  1  0  0  0  0
 10 11  1  0  0  0  0
 11 12  2  0  0  0  0
 12 13  1  0  0  0  0
 12 22  1  0  0  0  0
 13 14  1  0  0  0  0
 14 15  1  0  0  0  0
 14 21  2  0  0  0  0
 15 16  1  0  0  0  0
 15 20  2  0  0  0  0
 16 17  2  0  0  0  0
 16 36  1  0  0  0  0
 17 18  1  0  0  0  0
 17 37  1  0  0  0  0
 18 19  2  0  0  0  0
 18 38  1  0  0  0  0
 19 20  1  0  0  0  0
 19 39  1  0  0  0  0
 21 22  1  0  0  0  0
 23 24  1  0  0  0  0
 23 40  1  0  0  0  0
 24 41  1  0  0  0  0
M  END
>  <Energy>
123.493

$$$$

 OpenBabel04232616063D

 43 46  0  0  1  0  0  0  0  0999 V2000
    0.9754   -0.4795   -0.2483 C   0  0  0  0  0  0  0  0  0  0  0  0
    2.4175   -0.0130   -0.0786 C   0  0  3  0  0  0  0  0  0  0  0  0
    3.0675   -0.1361    1.3412 C   0  0  0  0  0  0  0  0  0  0  0  0
    4.0553   -0.8615    1.5132 O   0  0  0  0  0  0  0  0  0  0  0  0
    2.5826    0.6375    2.3971 N   0  0  0  0  0  0  0  0  0  0  0  0
    1.4166    1.5182    2.3077 C   0  0  0  0  0  0  0  0  0  0  0  0
    1.2035    2.4667    3.4930 C   0  0  0  0  0  0  0  0  0  0  0  0
    1.3898    1.7420    4.7962 C   0  0  0  0  0  0  0  0  0  0  0  0
    0.5932    2.0051    5.9149 C   0  0  0  0  0  0  0  0  0  0  0  0
    0.8358    1.3373    7.1151 C   0  0  0  0  0  0  0  0  0  0  0  0
    1.8836    0.4218    7.2066 C   0  0  0  0  0  0  0  0  0  0  0  0
    2.6891    0.1654    6.0954 C   0  0  0  0  0  0  0  0  0  0  0  0
    2.4388    0.8128    4.8793 C   0  0  0  0  0  0  0  0  0  0  0  0
    3.3183    0.5940    3.6715 C   0  0  0  0  0  0  0  0  0  0  0  0
    3.3096   -0.7326   -0.9985 N   0  0  0  0  0  0  0  0  0  0  0  0
    4.4342   -0.1495   -1.5179 C   0  0  0  0  0  0  0  0  0  0  0  0
    4.7867    1.0164   -1.4589 O   0  0  0  0  0  0  0  0  0  0  0  0
    5.2009   -1.2139   -2.1520 C   0  0  0  0  0  0  0  0  0  0  0  0
    6.4227   -1.1748   -2.7881 C   0  0  0  0  0  0  0  0  0  0  0  0
    6.9501   -2.3916   -3.2327 C   0  0  0  0  0  0  0  0  0  0  0  0
    6.2461   -3.5994   -3.0404 C   0  0  0  0  0  0  0  0  0  0  0  0
    5.0041   -3.6103   -2.3988 C   0  0  0  0  0  0  0  0  0  0  0  0
    4.5136   -2.3975   -1.9596 C   0  0  0  0  0  0  0  0  0  0  0  0
    3.3116   -2.0879   -1.1922 C   0  0  0  0  0  0  0  0  0  0  0  0
    2.5229   -2.9384   -0.8178 O   0  0  0  0  0  0  0  0  0  0  0  0
    0.2579    0.1621    0.2619 H   0  0  0  0  0  0  0  0  0  0  0  0
    0.8175   -1.4968    0.1193 H   0  0  0  0  0  0  0  0  0  0  0  0
    0.7047   -0.4652   -1.3132 H   0  0  0  0  0  0  0  0  0  0  0  0
    2.4740    1.0473   -0.3541 H   0  0  0  0  0  0  0  0  0  0  0  0
    0.5485    0.8547    2.2412 H   0  0  0  0  0  0  0  0  0  0  0  0
    1.4720    2.0982    1.3814 H   0  0  0  0  0  0  0  0  0  0  0  0
    0.1966    2.8949    3.4281 H   0  0  0  0  0  0  0  0  0  0  0  0
    1.9204    3.2955    3.4532 H   0  0  0  0  0  0  0  0  0  0  0  0
   -0.2170    2.7277    5.8605 H   0  0  0  0  0  0  0  0  0  0  0  0
    0.2125    1.5364    7.9834 H   0  0  0  0  0  0  0  0  0  0  0  0
    2.0768   -0.0887    8.1468 H   0  0  0  0  0  0  0  0  0  0  0  0
    3.5122   -0.5400    6.1863 H   0  0  0  0  0  0  0  0  0  0  0  0
    3.8577   -0.3541    3.7693 H   0  0  0  0  0  0  0  0  0  0  0  0
    4.0689    1.3951    3.6382 H   0  0  0  0  0  0  0  0  0  0  0  0
    6.9611   -0.2405   -2.9095 H   0  0  0  0  0  0  0  0  0  0  0  0
    7.9259   -2.4113   -3.7147 H   0  0  0  0  0  0  0  0  0  0  0  0
    6.6873   -4.5362   -3.3763 H   0  0  0  0  0  0  0  0  0  0  0  0
    4.4605   -4.5332   -2.2237 H   0  0  0  0  0  0  0  0  0  0  0  0
  1  2  1  0  0  0  0
  1 26  1  0  0  0  0
  1 27  1  0  0  0  0
  1 28  1  0  0  0  0
  2  3  1  0  0  0  0
  2 15  1  0  0  0  0
  2 29  1  0  0  0  0
  3  4  2  0  0  0  0
  3  5  1  0  0  0  0
  5  6  1  0  0  0  0
  5 14  1  0  0  0  0
  6  7  1  0  0  0  0
  6 30  1  0  0  0  0
  6 31  1  0  0  0  0
  7  8  1  0  0  0  0
  7 32  1  0  0  0  0
  7 33  1  0  0  0  0
  8  9  1  0  0  0  0
  8 13  2  0  0  0  0
  9 10  2  0  0  0  0
  9 34  1  0  0  0  0
 10 11  1  0  0  0  0
 10 35  1  0  0  0  0
 11 12  2  0  0  0  0
 11 36  1  0  0  0  0
 12 13  1  0  0  0  0
 12 37  1  0  0  0  0
 13 14  1  0  0  0  0
 14 38  1  0  0  0  0
 14 39  1  0  0  0  0
 15 16  1  0  0  0  0
 15 24  1  0  0  0  0
 16 17  2  0  0  0  0
 16 18  1  0  0  0  0
 18 19  1  0  0  0  0
 18 23  2  0  0  0  0
 19 20  2  0  0  0  0
 19 40  1  0  0  0  0
 20 21  1  0  0  0  0
 20 41  1  0  0  0  0
 21 22  2  0  0  0  0
 21 42  1  0  0  0  0
 22 23  1  0  0  0  0
 22 43  1  0  0  0  0
 23 24  1  0  0  0  0
 24 25  2  0  0  0  0
M  END
>  <Energy>
34.4426

$$$$

 OpenBabel04232616063D

 39 42  0  0  0  0  0  0  0  0999 V2000
    1.2299   -1.9851    0.6295 N   0  0  0  0  0  0  0  0  0  0  0  0
    2.5947   -2.0133    0.4331 C   0  0  0  0  0  0  0  0  0  0  0  0
    3.1761   -3.2088    0.3138 N   0  0  0  0  0  0  0  0  0  0  0  0
    4.4994   -3.2138    0.1250 C   0  0  0  0  0  0  0  0  0  0  0  0
    5.0762   -4.4890    0.0227 N   0  0  0  0  0  0  0  0  0  0  0  0
    5.2740   -2.0509    0.0470 C   0  0  0  0  0  0  0  0  0  0  0  0
    6.6780   -2.0044   -0.2007 C   0  0  0  0  0  0  0  0  0  0  0  0
    7.4158   -0.8048   -0.2242 C   0  0  0  0  0  0  0  0  0  0  0  0
    8.8047   -0.7703   -0.4762 N   0  0  0  0  0  0  0  0  0  0  0  0
    9.5362    0.4529   -0.1027 C   0  0  0  0  0  0  0  0  0  0  0  0
   10.9776    0.5016   -0.6094 C   0  0  0  0  0  0  0  0  0  0  0  0
   11.7302   -0.7798   -0.4307 C   0  0  0  0  0  0  0  0  0  0  0  0
   13.1339   -0.7802   -0.4280 C   0  0  0  0  0  0  0  0  0  0  0  0
   13.8428   -1.9786   -0.3587 C   0  0  0  0  0  0  0  0  0  0  0  0
   13.1557   -3.1862   -0.3002 C   0  0  0  0  0  0  0  0  0  0  0  0
   11.7607   -3.1906   -0.3006 C   0  0  0  0  0  0  0  0  0  0  0  0
   11.0331   -1.9883   -0.3663 C   0  0  0  0  0  0  0  0  0  0  0  0
    9.5231   -2.0546   -0.3593 C   0  0  0  0  0  0  0  0  0  0  0  0
    6.6543    0.3561   -0.0202 C   0  0  0  0  0  0  0  0  0  0  0  0
    5.2667    0.3160    0.1965 C   0  0  0  0  0  0  0  0  0  0  0  0
    4.5598   -0.8731    0.2294 C   0  0  0  0  0  0  0  0  0  0  0  0
    3.2383   -0.8466    0.4317 N   0  0  0  0  0  0  0  0  0  0  0  0
    0.9190   -2.8569    1.0317 H   0  0  0  0  0  0  0  0  0  0  0  0
    0.9700   -1.1308    1.1020 H   0  0  0  0  0  0  0  0  0  0  0  0
    4.3183   -5.1590    0.1411 H   0  0  0  0  0  0  0  0  0  0  0  0
    5.7930   -4.6194    0.7272 H   0  0  0  0  0  0  0  0  0  0  0  0
    7.1696   -2.9555   -0.3870 H   0  0  0  0  0  0  0  0  0  0  0  0
    9.5181    0.5722    0.9866 H   0  0  0  0  0  0  0  0  0  0  0  0
    9.0588    1.3349   -0.5465 H   0  0  0  0  0  0  0  0  0  0  0  0
   10.9849    0.7479   -1.6786 H   0  0  0  0  0  0  0  0  0  0  0  0
   11.4955    1.3141   -0.0853 H   0  0  0  0  0  0  0  0  0  0  0  0
   13.6827    0.1567   -0.4946 H   0  0  0  0  0  0  0  0  0  0  0  0
   14.9295   -1.9700   -0.3647 H   0  0  0  0  0  0  0  0  0  0  0  0
   13.7036   -4.1240   -0.2609 H   0  0  0  0  0  0  0  0  0  0  0  0
   11.2375   -4.1441   -0.2596 H   0  0  0  0  0  0  0  0  0  0  0  0
    9.2411   -2.5523    0.5783 H   0  0  0  0  0  0  0  0  0  0  0  0
    9.2317   -2.6891   -1.2061 H   0  0  0  0  0  0  0  0  0  0  0  0
    7.1031    1.3425   -0.0311 H   0  0  0  0  0  0  0  0  0  0  0  0
    4.7275    1.2507    0.3369 H   0  0  0  0  0  0  0  0  0  0  0  0
  1  2  1  0  0  0  0
  1 23  1  0  0  0  0
  1 24  1  0  0  0  0
  2  3  1  0  0  0  0
  2 22  2  0  0  0  0
  3  4  2  0  0  0  0
  4  5  1  0  0  0  0
  4  6  1  0  0  0  0
  5 25  1  0  0  0  0
  5 26  1  0  0  0  0
  6  7  1  0  0  0  0
  6 21  2  0  0  0  0
  7  8  2  0  0  0  0
  7 27  1  0  0  0  0
  8  9  1  0  0  0  0
  8 19  1  0  0  0  0
  9 10  1  0  0  0  0
  9 18  1  0  0  0  0
 10 11  1  0  0  0  0
 10 28  1  0  0  0  0
 10 29  1  0  0  0  0
 11 12  1  0  0  0  0
 11 30  1  0  0  0  0
 11 31  1  0  0  0  0
 12 13  1  0  0  0  0
 12 17  2  0  0  0  0
 13 14  2  0  0  0  0
 13 32  1  0  0  0  0
 14 15  1  0  0  0  0
 14 33  1  0  0  0  0
 15 16  2  0  0  0  0
 15 34  1  0  0  0  0
 16 17  1  0  0  0  0
 16 35  1  0  0  0  0
 17 18  1  0  0  0  0
 18 36  1  0  0  0  0
 18 37  1  0  0  0  0
 19 20  2  0  0  0  0
 19 38  1  0  0  0  0
 20 21  1  0  0  0  0
 20 39  1  0  0  0  0
 21 22  1  0  0  0  0
M  END
>  <Energy>
-70.844

$$$$

 OpenBabel04232616063D

 28 30  0  0  0  0  0  0  0  0999 V2000
    0.9691    0.0633    0.2110 O   0  0  0  0  0  0  0  0  0  0  0  0
    2.1945    0.1324    0.1352 C   0  0  0  0  0  0  0  0  0  0  0  0
    2.9591   -1.1335    0.1042 C   0  0  0  0  0  0  0  0  0  0  0  0
    2.3095   -2.3726    0.0587 C   0  0  0  0  0  0  0  0  0  0  0  0
    3.0608   -3.5494    0.0201 C   0  0  0  0  0  0  0  0  0  0  0  0
    4.4548   -3.4892    0.0491 C   0  0  0  0  0  0  0  0  0  0  0  0
    5.1010   -2.2530    0.0978 C   0  0  0  0  0  0  0  0  0  0  0  0
    4.3452   -1.0799    0.1060 C   0  0  0  0  0  0  0  0  0  0  0  0
    4.9899    0.1521    0.0988 N   0  0  0  0  0  0  0  0  0  0  0  0
    4.3444    1.3603    0.0501 C   0  0  0  0  0  0  0  0  0  0  0  0
    5.3556    2.7064    0.0653 S   0  0  0  0  0  0  0  0  0  0  0  0
    2.9398    1.3239    0.0428 N   0  0  0  0  0  0  0  0  0  0  0  0
    2.1868    2.5433   -0.0130 C   0  0  0  0  0  0  0  0  0  0  0  0
    2.2945    3.3950   -1.1235 C   0  0  0  0  0  0  0  0  0  0  0  0
    1.6102    4.6108   -1.1512 C   0  0  0  0  0  0  0  0  0  0  0  0
    0.8151    4.9849   -0.0691 C   0  0  0  0  0  0  0  0  0  0  0  0
    0.6845    4.1281    1.0234 C   0  0  0  0  0  0  0  0  0  0  0  0
   -0.2851    4.6027    2.3641 Cl  0  0  0  0  0  0  0  0  0  0  0  0
    1.3499    2.9033    1.0509 C   0  0  0  0  0  0  0  0  0  0  0  0
    1.2231   -2.4245    0.0403 H   0  0  0  0  0  0  0  0  0  0  0  0
    2.5587   -4.5131   -0.0324 H   0  0  0  0  0  0  0  0  0  0  0  0
    5.0384   -4.4068    0.0256 H   0  0  0  0  0  0  0  0  0  0  0  0
    6.1866   -2.2209    0.1160 H   0  0  0  0  0  0  0  0  0  0  0  0
    6.0032    0.1877    0.1160 H   0  0  0  0  0  0  0  0  0  0  0  0
    2.9064    3.1143   -1.9776 H   0  0  0  0  0  0  0  0  0  0  0  0
    1.7052    5.2686   -2.0114 H   0  0  0  0  0  0  0  0  0  0  0  0
    0.3015    5.9427   -0.0823 H   0  0  0  0  0  0  0  0  0  0  0  0
    1.2429    2.2488    1.9117 H   0  0  0  0  0  0  0  0  0  0  0  0
  1  2  2  0  0  0  0
  2  3  1  0  0  0  0
  2 12  1  0  0  0  0
  3  4  1  0  0  0  0
  3  8  2  0  0  0  0
  4  5  2  0  0  0  0
  4 20  1  0  0  0  0
  5  6  1  0  0  0  0
  5 21  1  0  0  0  0
  6  7  2  0  0  0  0
  6 22  1  0  0  0  0
  7  8  1  0  0  0  0
  7 23  1  0  0  0  0
  8  9  1  0  0  0  0
  9 10  1  0  0  0  0
  9 24  1  0  0  0  0
 10 11  2  0  0  0  0
 10 12  1  0  0  0  0
 12 13  1  0  0  0  0
 13 14  1  0  0  0  0
 13 19  2  0  0  0  0
 14 15  2  0  0  0  0
 14 25  1  0  0  0  0
 15 16  1  0  0  0  0
 15 26  1  0  0  0  0
 16 17  2  0  0  0  0
 16 27  1  0  0  0  0
 17 18  1  0  0  0  0
 17 19  1  0  0  0  0
 19 28  1  0  0  0  0
M  END
>  <Energy>
29.9504

$$$$

 OpenBabel04232616063D

 42 44  0  0  1  0  0  0  0  0999 V2000
    1.6244    0.6654   -1.2860 O   0  0  0  0  0  0  0  0  0  0  0  0
    0.8112    0.2965   -0.4344 C   0  0  0  0  0  0  0  0  0  0  0  0
    0.1551   -0.8880   -0.6003 N   0  0  0  0  0  0  0  0  0  0  0  0
   -0.8907   -1.4049    0.2538 C   0  0  0  0  0  0  0  0  0  0  0  0
   -2.1548   -0.5546    0.1806 C   0  0  0  0  0  0  0  0  0  0  0  0
   -2.0886    0.7357    1.0004 C   0  0  0  0  0  0  0  0  0  0  0  0
   -0.9897    1.7202    0.5889 C   0  0  0  0  0  0  0  0  0  0  0  0
    0.4239    1.1627    0.7739 C   0  0  3  0  0  0  0  0  0  0  0  0
    1.3958    2.2537    0.8599 N   0  0  0  0  0  0  0  0  0  0  0  0
    2.4704    2.1491    1.7222 C   0  0  0  0  0  0  0  0  0  0  0  0
    2.6133    1.1385    2.4069 O   0  0  0  0  0  0  0  0  0  0  0  0
    3.2676    3.3013    1.7953 N   0  0  0  0  0  0  0  0  0  0  0  0
    2.9182    4.5594    1.1186 C   0  0  0  0  0  0  0  0  0  0  0  0
    2.7699    5.6838    2.1246 C   0  0  0  0  0  0  0  0  0  0  0  0
    4.1092    5.9291    2.7958 C   0  0  0  0  0  0  0  0  0  0  0  0
    4.8078    4.6492    3.1795 C   0  0  0  0  0  0  0  0  0  0  0  0
    5.9048    4.7430    4.0553 C   0  0  0  0  0  0  0  0  0  0  0  0
    6.5920    3.6028    4.4586 C   0  0  0  0  0  0  0  0  0  0  0  0
    6.1963    2.3595    3.9814 C   0  0  0  0  0  0  0  0  0  0  0  0
    5.1099    2.2548    3.1060 C   0  0  0  0  0  0  0  0  0  0  0  0
    4.3943    3.3881    2.6932 C   0  0  0  0  0  0  0  0  0  0  0  0
    0.4323   -1.4133   -1.4207 H   0  0  0  0  0  0  0  0  0  0  0  0
   -0.5155   -1.4789    1.2801 H   0  0  0  0  0  0  0  0  0  0  0  0
   -1.1057   -2.4199   -0.0980 H   0  0  0  0  0  0  0  0  0  0  0  0
   -2.9916   -1.1492    0.5654 H   0  0  0  0  0  0  0  0  0  0  0  0
   -2.3895   -0.3160   -0.8639 H   0  0  0  0  0  0  0  0  0  0  0  0
   -1.9713    0.4850    2.0628 H   0  0  0  0  0  0  0  0  0  0  0  0
   -3.0567    1.2460    0.9123 H   0  0  0  0  0  0  0  0  0  0  0  0
   -1.1073    2.6200    1.2078 H   0  0  0  0  0  0  0  0  0  0  0  0
   -1.1488    2.0378   -0.4496 H   0  0  0  0  0  0  0  0  0  0  0  0
    0.4809    0.5614    1.6864 H   0  0  0  0  0  0  0  0  0  0  0  0
    1.6685    2.6026   -0.0510 H   0  0  0  0  0  0  0  0  0  0  0  0
    1.9880    4.4859    0.5520 H   0  0  0  0  0  0  0  0  0  0  0  0
    3.7130    4.7755    0.3926 H   0  0  0  0  0  0  0  0  0  0  0  0
    2.0156    5.4105    2.8731 H   0  0  0  0  0  0  0  0  0  0  0  0
    2.4261    6.5996    1.6319 H   0  0  0  0  0  0  0  0  0  0  0  0
    3.9472    6.5497    3.6853 H   0  0  0  0  0  0  0  0  0  0  0  0
    4.7642    6.4861    2.1147 H   0  0  0  0  0  0  0  0  0  0  0  0
    6.2199    5.7130    4.4341 H   0  0  0  0  0  0  0  0  0  0  0  0
    7.4335    3.6844    5.1411 H   0  0  0  0  0  0  0  0  0  0  0  0
    6.7323    1.4636    4.2841 H   0  0  0  0  0  0  0  0  0  0  0  0
    4.8606    1.2640    2.7365 H   0  0  0  0  0  0  0  0  0  0  0  0
  1  2  2  0  0  0  0
  2  3  1  0  0  0  0
  2  8  1  0  0  0  0
  3  4  1  0  0  0  0
  3 22  1  0  0  0  0
  4  5  1  0  0  0  0
  4 23  1  0  0  0  0
  4 24  1  0  0  0  0
  5  6  1  0  0  0  0
  5 25  1  0  0  0  0
  5 26  1  0  0  0  0
  6  7  1  0  0  0  0
  6 27  1  0  0  0  0
  6 28  1  0  0  0  0
  7  8  1  0  0  0  0
  7 29  1  0  0  0  0
  7 30  1  0  0  0  0
  8  9  1  0  0  0  0
  8 31  1  0  0  0  0
  9 10  1  0  0  0  0
  9 32  1  0  0  0  0
 10 11  2  0  0  0  0
 10 12  1  0  0  0  0
 12 13  1  0  0  0  0
 12 21  1  0  0  0  0
 13 14  1  0  0  0  0
 13 33  1  0  0  0  0
 13 34  1  0  0  0  0
 14 15  1  0  0  0  0
 14 35  1  0  0  0  0
 14 36  1  0  0  0  0
 15 16  1  0  0  0  0
 15 37  1  0  0  0  0
 15 38  1  0  0  0  0
 16 17  1  0  0  0  0
 16 21  2  0  0  0  0
 17 18  2  0  0  0  0
 17 39  1  0  0  0  0
 18 19  1  0  0  0  0
 18 40  1  0  0  0  0
 19 20  2  0  0  0  0
 19 41  1  0  0  0  0
 20 21  1  0  0  0  0
 20 42  1  0  0  0  0
M  END
>  <Energy>
-29.3067

$$$$

 OpenBabel04232616063D

 26 27  0  0  0  0  0  0  0  0999 V2000
    1.0801    0.0135    0.0624 N   0  0  0  0  0  0  0  0  0  0  0  0
    2.2396    0.0815    0.0685 C   0  0  0  0  0  0  0  0  0  0  0  0
    3.6738    0.1128    0.0716 C   0  0  0  0  0  0  0  0  0  0  0  0
    4.3853   -1.0945    0.0939 C   0  0  0  0  0  0  0  0  0  0  0  0
    5.7848   -1.0826    0.0858 C   0  0  0  0  0  0  0  0  0  0  0  0
    6.5146   -2.3697    0.1162 C   0  0  0  0  0  0  0  0  0  0  0  0
    6.1862   -3.1943    0.9653 O   0  0  0  0  0  0  0  0  0  0  0  0
    7.5196   -2.5833   -0.8069 N   0  0  0  0  0  0  0  0  0  0  0  0
    8.2803   -3.8204   -0.7641 C   0  0  0  0  0  0  0  0  0  0  0  0
    9.1144   -3.7237   -1.9955 C   0  0  0  0  0  0  0  0  0  0  0  0
    8.8194   -2.6252   -2.6988 C   0  0  0  0  0  0  0  0  0  0  0  0
    7.7599   -1.8245   -2.0283 C   0  0  0  0  0  0  0  0  0  0  0  0
    6.4812    0.1298    0.1164 C   0  0  0  0  0  0  0  0  0  0  0  0
    5.7733    1.3285    0.0765 C   0  0  0  0  0  0  0  0  0  0  0  0
    6.7437    2.9561    0.0489 Br  0  0  0  0  0  0  0  0  0  0  0  0
    4.3745    1.3246    0.0479 C   0  0  0  0  0  0  0  0  0  0  0  0
    3.6712    2.4987    0.0002 O   0  0  0  0  0  0  0  0  0  0  0  0
    3.8556   -2.0468    0.1197 H   0  0  0  0  0  0  0  0  0  0  0  0
    7.6053   -4.6808   -0.7943 H   0  0  0  0  0  0  0  0  0  0  0  0
    8.8831   -3.8452    0.1484 H   0  0  0  0  0  0  0  0  0  0  0  0
    9.8555   -4.4589   -2.2724 H   0  0  0  0  0  0  0  0  0  0  0  0
    9.2881   -2.3383   -3.6289 H   0  0  0  0  0  0  0  0  0  0  0  0
    6.8410   -1.7703   -2.6192 H   0  0  0  0  0  0  0  0  0  0  0  0
    8.1239   -0.8224   -1.7940 H   0  0  0  0  0  0  0  0  0  0  0  0
    7.5657    0.1318    0.1823 H   0  0  0  0  0  0  0  0  0  0  0  0
    4.3047    3.2408    0.0042 H   0  0  0  0  0  0  0  0  0  0  0  0
  1  2  3  0  0  0  0
  2  3  1  0  0  0  0
  3  4  1  0  0  0  0
  3 16  2  0  0  0  0
  4  5  2  0  0  0  0
  4 18  1  0  0  0  0
  5  6  1  0  0  0  0
  5 13  1  0  0  0  0
  6  7  2  0  0  0  0
  6  8  1  0  0  0  0
  8  9  1  0  0  0  0
  8 12  1  0  0  0  0
  9 10  1  0  0  0  0
  9 19  1  0  0  0  0
  9 20  1  0  0  0  0
 10 11  2  0  0  0  0
 10 21  1  0  0  0  0
 11 12  1  0  0  0  0
 11 22  1  0  0  0  0
 12 23  1  0  0  0  0
 12 24  1  0  0  0  0
 13 14  2  0  0  0  0
 13 25  1  0  0  0  0
 14 15  1  0  0  0  0
 14 16  1  0  0  0  0
 16 17  1  0  0  0  0
 17 26  1  0  0  0  0
M  END
>  <Energy>
14.6301

$$$$

 OpenBabel04232616063D

 38 41  0  0  0  0  0  0  0  0999 V2000
    1.4524   -0.0460    0.0526 C   0  0  0  0  0  0  0  0  0  0  0  0
    2.8937    0.0054    0.1016 N   0  0  0  0  0  0  0  0  0  0  0  0
    3.7309   -1.1009    0.1002 C   0  0  0  0  0  0  0  0  0  0  0  0
    3.5103   -2.4907    0.1086 C   0  0  0  0  0  0  0  0  0  0  0  0
    4.6678   -3.2593    0.0985 C   0  0  0  0  0  0  0  0  0  0  0  0
    5.9528   -2.7199    0.0819 C   0  0  0  0  0  0  0  0  0  0  0  0
    6.1558   -1.3512    0.0653 C   0  0  0  0  0  0  0  0  0  0  0  0
    5.0106   -0.5450    0.0741 C   0  0  0  0  0  0  0  0  0  0  0  0
    4.9574    0.8121    0.0530 N   0  0  0  0  0  0  0  0  0  0  0  0
    3.6802    1.1458    0.0855 C   0  0  0  0  0  0  0  0  0  0  0  0
    3.2691    2.5529    0.0667 C   0  0  0  0  0  0  0  0  0  0  0  0
    4.0547    3.4481   -0.6720 C   0  0  0  0  0  0  0  0  0  0  0  0
    3.7808    4.8004   -0.6091 C   0  0  0  0  0  0  0  0  0  0  0  0
    2.7775    5.3193    0.1252 N   0  0  0  0  0  0  0  0  0  0  0  0
    2.0346    4.4460    0.8379 C   0  0  0  0  0  0  0  0  0  0  0  0
    2.2358    3.0721    0.8433 C   0  0  0  0  0  0  0  0  0  0  0  0
    6.9809   -3.8266    0.0877 C   0  0  0  0  0  0  0  0  0  0  0  0
    7.8241   -3.7872    1.3619 C   0  0  0  0  0  0  0  0  0  0  0  0
    7.8509   -3.7919   -1.1671 C   0  0  0  0  0  0  0  0  0  0  0  0
    6.0732   -5.0801    0.0858 C   0  0  0  0  0  0  0  0  0  0  0  0
    6.4288   -6.2452    0.0782 O   0  0  0  0  0  0  0  0  0  0  0  0
    4.7514   -4.6435    0.1002 N   0  0  0  0  0  0  0  0  0  0  0  0
    1.1134   -1.0758   -0.0795 H   0  0  0  0  0  0  0  0  0  0  0  0
    1.1058    0.5542   -0.7917 H   0  0  0  0  0  0  0  0  0  0  0  0
    1.0568    0.3347    0.9958 H   0  0  0  0  0  0  0  0  0  0  0  0
    2.5228   -2.9320    0.1222 H   0  0  0  0  0  0  0  0  0  0  0  0
    7.1424   -0.9051    0.0473 H   0  0  0  0  0  0  0  0  0  0  0  0
    4.8980    3.0928   -1.2598 H   0  0  0  0  0  0  0  0  0  0  0  0
    4.3925    5.5186   -1.1474 H   0  0  0  0  0  0  0  0  0  0  0  0
    1.2583    4.8997    1.4471 H   0  0  0  0  0  0  0  0  0  0  0  0
    1.6279    2.4538    1.4908 H   0  0  0  0  0  0  0  0  0  0  0  0
    8.3754   -2.8436    1.4489 H   0  0  0  0  0  0  0  0  0  0  0  0
    8.5532   -4.6046    1.3780 H   0  0  0  0  0  0  0  0  0  0  0  0
    7.2014   -3.8890    2.2587 H   0  0  0  0  0  0  0  0  0  0  0  0
    8.4079   -2.8506   -1.2436 H   0  0  0  0  0  0  0  0  0  0  0  0
    7.2481   -3.8929   -2.0775 H   0  0  0  0  0  0  0  0  0  0  0  0
    8.5782   -4.6112   -1.1662 H   0  0  0  0  0  0  0  0  0  0  0  0
    3.9730   -5.2849    0.1020 H   0  0  0  0  0  0  0  0  0  0  0  0
  1  2  1  0  0  0  0
  1 23  1  0  0  0  0
  1 24  1  0  0  0  0
  1 25  1  0  0  0  0
  2  3  1  0  0  0  0
  2 10  1  0  0  0  0
  3  4  1  0  0  0  0
  3  8  2  0  0  0  0
  4  5  2  0  0  0  0
  4 26  1  0  0  0  0
  5  6  1  0  0  0  0
  5 22  1  0  0  0  0
  6  7  2  0  0  0  0
  6 17  1  0  0  0  0
  7  8  1  0  0  0  0
  7 27  1  0  0  0  0
  8  9  1  0  0  0  0
  9 10  2  0  0  0  0
 10 11  1  0  0  0  0
 11 12  1  0  0  0  0
 11 16  2  0  0  0  0
 12 13  2  0  0  0  0
 12 28  1  0  0  0  0
 13 14  1  0  0  0  0
 13 29  1  0  0  0  0
 14 15  2  0  0  0  0
 15 16  1  0  0  0  0
 15 30  1  0  0  0  0
 16 31  1  0  0  0  0
 17 18  1  0  0  0  0
 17 19  1  0  0  0  0
 17 20  1  0  0  0  0
 18 32  1  0  0  0  0
 18 33  1  0  0  0  0
 18 34  1  0  0  0  0
 19 35  1  0  0  0  0
 19 36  1  0  0  0  0
 19 37  1  0  0  0  0
 20 21  2  0  0  0  0
 20 22  1  0  0  0  0
 22 38  1  0  0  0  0
M  END
>  <Energy>
29.7194

$$$$

 OpenBabel04232616063D

 32 35  0  0  1  0  0  0  0  0999 V2000
   -2.0638    0.0428   -0.0918 Cl  0  0  0  0  0  0  0  0  0  0  0  0
   -0.3430    0.0446   -0.0551 C   0  0  0  0  0  0  0  0  0  0  0  0
    0.3610    1.0605   -0.7026 C   0  0  0  0  0  0  0  0  0  0  0  0
    1.7588    1.0672   -0.6685 C   0  0  0  0  0  0  0  0  0  0  0  0
    2.4493    0.0565    0.0123 C   0  0  0  0  0  0  0  0  0  0  0  0
    3.9147    0.0538    0.0748 C   0  0  0  0  0  0  0  0  0  0  0  0
    4.5568    0.7119    1.0575 C   0  0  0  0  0  0  0  0  0  0  0  0
    6.0754    0.6533    1.1821 C   0  0  3  0  0  0  0  0  0  0  0  0
    6.5221    0.1863    2.5354 C   0  0  0  0  0  0  0  0  0  0  0  0
    6.7989   -1.0498    3.0889 C   0  0  0  0  0  0  0  0  0  0  0  0
    7.1818   -0.8143    4.4309 C   0  0  0  0  0  0  0  0  0  0  0  0
    7.0995    0.5443    4.6201 C   0  0  0  0  0  0  0  0  0  0  0  0
    6.6905    1.1601    3.4817 O   0  0  0  0  0  0  0  0  0  0  0  0
    6.6663   -0.1797    0.1253 N   0  0  0  0  0  0  0  0  0  0  0  0
    7.9913   -0.3981   -0.0364 N   0  0  0  0  0  0  0  0  0  0  0  0
    7.9807   -1.2125   -1.0974 C   0  0  0  0  0  0  0  0  0  0  0  0
    6.7484   -1.4840   -1.6314 N   0  0  0  0  0  0  0  0  0  0  0  0
    5.9388   -0.8137   -0.8508 C   0  0  0  0  0  0  0  0  0  0  0  0
    4.5998   -0.6809   -0.8674 N   0  0  0  0  0  0  0  0  0  0  0  0
    1.7301   -0.9620    0.6516 C   0  0  0  0  0  0  0  0  0  0  0  0
    0.3346   -0.9677    0.6180 C   0  0  0  0  0  0  0  0  0  0  0  0
   -0.1700    1.8486   -1.2299 H   0  0  0  0  0  0  0  0  0  0  0  0
    2.3029    1.8628   -1.1730 H   0  0  0  0  0  0  0  0  0  0  0  0
    4.0161    1.2796    1.8094 H   0  0  0  0  0  0  0  0  0  0  0  0
    6.4701    1.6613    0.9987 H   0  0  0  0  0  0  0  0  0  0  0  0
    6.7518   -2.0017    2.5775 H   0  0  0  0  0  0  0  0  0  0  0  0
    7.4868   -1.5442    5.1677 H   0  0  0  0  0  0  0  0  0  0  0  0
    7.2922    1.1958    5.4613 H   0  0  0  0  0  0  0  0  0  0  0  0
    8.8998   -1.6224   -1.4967 H   0  0  0  0  0  0  0  0  0  0  0  0
    4.0564   -1.1492   -1.5858 H   0  0  0  0  0  0  0  0  0  0  0  0
    2.2555   -1.7534    1.1827 H   0  0  0  0  0  0  0  0  0  0  0  0
   -0.2141   -1.7597    1.1216 H   0  0  0  0  0  0  0  0  0  0  0  0
  1  2  1  0  0  0  0
  2  3  1  0  0  0  0
  2 21  2  0  0  0  0
  3  4  2  0  0  0  0
  3 22  1  0  0  0  0
  4  5  1  0  0  0  0
  4 23  1  0  0  0  0
  5  6  1  0  0  0  0
  5 20  2  0  0  0  0
  6  7  2  0  0  0  0
  6 19  1  0  0  0  0
  7  8  1  0  0  0  0
  7 24  1  0  0  0  0
  8  9  1  0  0  0  0
  8 14  1  0  0  0  0
  8 25  1  0  0  0  0
  9 10  2  0  0  0  0
  9 13  1  0  0  0  0
 10 11  1  0  0  0  0
 10 26  1  0  0  0  0
 11 12  2  0  0  0  0
 11 27  1  0  0  0  0
 12 13  1  0  0  0  0
 12 28  1  0  0  0  0
 14 15  1  0  0  0  0
 14 18  1  0  0  0  0
 15 16  2  0  0  0  0
 16 17  1  0  0  0  0
 16 29  1  0  0  0  0
 17 18  2  0  0  0  0
 18 19  1  0  0  0  0
 19 30  1  0  0  0  0
 20 21  1  0  0  0  0
 20 31  1  0  0  0  0
 21 32  1  0  0  0  0
M  END
>  <Energy>
37.654

$$$$

 OpenBabel04232616063D

 39 42  0  0  0  0  0  0  0  0999 V2000
    0.9879   -0.1645   -0.0637 C   0  0  0  0  0  0  0  0  0  0  0  0
    2.4550   -0.0711   -0.0508 N   0  0  0  0  0  0  0  0  0  0  0  0
    3.0927    1.1864   -0.0528 C   0  0  0  0  0  0  0  0  0  0  0  0
    2.4215    2.4228   -0.0610 C   0  0  0  0  0  0  0  0  0  0  0  0
    3.1083    3.6472   -0.0672 C   0  0  0  0  0  0  0  0  0  0  0  0
    4.4955    3.6736   -0.0662 C   0  0  0  0  0  0  0  0  0  0  0  0
    5.1921    2.4745   -0.0559 C   0  0  0  0  0  0  0  0  0  0  0  0
    4.4964    1.2512   -0.0471 C   0  0  0  0  0  0  0  0  0  0  0  0
    5.2805    0.0032   -0.0294 C   0  0  0  0  0  0  0  0  0  0  0  0
    6.5061    0.0668   -0.0156 O   0  0  0  0  0  0  0  0  0  0  0  0
    4.5463   -1.2786   -0.0288 C   0  0  0  0  0  0  0  0  0  0  0  0
    5.2546   -2.5770   -0.0159 C   0  0  0  0  0  0  0  0  0  0  0  0
    6.4721   -2.7143   -0.0381 O   0  0  0  0  0  0  0  0  0  0  0  0
    4.4616   -3.6824    0.0094 N   0  0  0  0  0  0  0  0  0  0  0  0
    3.1078   -3.6002   -0.0498 C   0  0  0  0  0  0  0  0  0  0  0  0
    2.3793   -4.9296   -0.1146 C   0  0  0  0  0  0  0  0  0  0  0  0
    0.8594   -4.8240   -0.2044 C   0  0  0  0  0  0  0  0  0  0  0  0
    0.3406   -6.1804    0.2644 C   0  0  0  0  0  0  0  0  0  0  0  0
    1.4835   -6.8324    1.0400 C   0  0  0  0  0  0  0  0  0  0  0  0
    2.5759   -5.7758    1.1404 C   0  0  0  0  0  0  0  0  0  0  0  0
    2.4820   -2.4731   -0.0748 N   0  0  0  0  0  0  0  0  0  0  0  0
    3.1929   -1.2802   -0.0474 C   0  0  0  0  0  0  0  0  0  0  0  0
    0.4486    0.7819   -0.0636 H   0  0  0  0  0  0  0  0  0  0  0  0
    0.6409   -0.7126    0.8208 H   0  0  0  0  0  0  0  0  0  0  0  0
    0.6547   -0.7060   -0.9575 H   0  0  0  0  0  0  0  0  0  0  0  0
    1.3397    2.4958   -0.0629 H   0  0  0  0  0  0  0  0  0  0  0  0
    2.5502    4.5800   -0.0733 H   0  0  0  0  0  0  0  0  0  0  0  0
    5.0311    4.6192   -0.0725 H   0  0  0  0  0  0  0  0  0  0  0  0
    6.2807    2.4866   -0.0544 H   0  0  0  0  0  0  0  0  0  0  0  0
    4.9468   -4.5679    0.0063 H   0  0  0  0  0  0  0  0  0  0  0  0
    2.7605   -5.4799   -0.9858 H   0  0  0  0  0  0  0  0  0  0  0  0
    0.5242   -4.5873   -1.2197 H   0  0  0  0  0  0  0  0  0  0  0  0
    0.4722   -4.0401    0.4581 H   0  0  0  0  0  0  0  0  0  0  0  0
    0.0602   -6.8061   -0.5905 H   0  0  0  0  0  0  0  0  0  0  0  0
   -0.5515   -6.0614    0.8881 H   0  0  0  0  0  0  0  0  0  0  0  0
    1.8530   -7.7031    0.4850 H   0  0  0  0  0  0  0  0  0  0  0  0
    1.1644   -7.1837    2.0260 H   0  0  0  0  0  0  0  0  0  0  0  0
    3.5712   -6.2289    1.1920 H   0  0  0  0  0  0  0  0  0  0  0  0
    2.4396   -5.1712    2.0456 H   0  0  0  0  0  0  0  0  0  0  0  0
  1  2  1  0  0  0  0
  1 23  1  0  0  0  0
  1 24  1  0  0  0  0
  1 25  1  0  0  0  0
  2  3  1  0  0  0  0
  2 22  1  0  0  0  0
  3  4  1  0  0  0  0
  3  8  2  0  0  0  0
  4  5  2  0  0  0  0
  4 26  1  0  0  0  0
  5  6  1  0  0  0  0
  5 27  1  0  0  0  0
  6  7  2  0  0  0  0
  6 28  1  0  0  0  0
  7  8  1  0  0  0  0
  7 29  1  0  0  0  0
  8  9  1  0  0  0  0
  9 10  2  0  0  0  0
  9 11  1  0  0  0  0
 11 12  1  0  0  0  0
 11 22  2  0  0  0  0
 12 13  2  0  0  0  0
 12 14  1  0  0  0  0
 14 15  1  0  0  0  0
 14 30  1  0  0  0  0
 15 16  1  0  0  0  0
 15 21  2  0  0  0  0
 16 17  1  0  0  0  0
 16 20  1  0  0  0  0
 16 31  1  0  0  0  0
 17 18  1  0  0  0  0
 17 32  1  0  0  0  0
 17 33  1  0  0  0  0
 18 19  1  0  0  0  0
 18 34  1  0  0  0  0
 18 35  1  0  0  0  0
 19 20  1  0  0  0  0
 19 36  1  0  0  0  0
 19 37  1  0  0  0  0
 20 38  1  0  0  0  0
 20 39  1  0  0  0  0
 21 22  1  0  0  0  0
M  END
>  <Energy>
-18.5639

$$$$

 OpenBabel04232616063D

 31 32  0  0  0  0  0  0  0  0999 V2000
    2.9166   -0.0921   -0.0060 C   0  0  0  0  0  0  0  0  0  0  0  0
    1.4189   -0.0087   -0.0090 C   0  0  0  0  0  0  0  0  0  0  0  0
    0.7624    1.2205    0.0308 C   0  0  0  0  0  0  0  0  0  0  0  0
   -0.6335    1.2767    0.0570 C   0  0  0  0  0  0  0  0  0  0  0  0
   -1.4174    0.1076    0.0442 C   0  0  0  0  0  0  0  0  0  0  0  0
   -2.9108    0.2661    0.0917 C   0  0  0  0  0  0  0  0  0  0  0  0
   -0.7529   -1.1317   -0.0351 C   0  0  0  0  0  0  0  0  0  0  0  0
   -1.6131   -2.6935   -0.0649 S   0  0  0  0  0  0  0  0  0  0  0  0
   -0.6125   -3.7509   -0.0272 O   0  0  0  0  0  0  0  0  0  0  0  0
   -2.6105   -2.6420    0.9883 O   0  0  0  0  0  0  0  0  0  0  0  0
   -2.4780   -2.9691   -1.5481 C   0  0  0  0  0  0  0  0  0  0  0  0
   -3.5311   -3.8500   -1.5578 C   0  0  0  0  0  0  0  0  0  0  0  0
   -4.1791   -4.2115   -2.6876 N   0  0  0  0  0  0  0  0  0  0  0  0
   -3.7421   -3.6536   -3.8282 C   0  0  0  0  0  0  0  0  0  0  0  0
   -4.4896   -4.2045   -5.3291 S   0  0  0  0  0  0  0  0  0  0  0  0
   -2.7520   -2.7481   -3.9115 N   0  0  0  0  0  0  0  0  0  0  0  0
   -2.1445   -2.4390   -2.7570 C   0  0  0  0  0  0  0  0  0  0  0  0
   -1.1398   -1.5507   -2.9275 O   0  0  0  0  0  0  0  0  0  0  0  0
    0.6547   -1.1803   -0.0403 C   0  0  0  0  0  0  0  0  0  0  0  0
    3.3744    0.9022   -0.0187 H   0  0  0  0  0  0  0  0  0  0  0  0
    3.2660   -0.6334   -0.8910 H   0  0  0  0  0  0  0  0  0  0  0  0
    3.2627   -0.6113    0.8935 H   0  0  0  0  0  0  0  0  0  0  0  0
    1.3308    2.1480    0.0500 H   0  0  0  0  0  0  0  0  0  0  0  0
   -1.1088    2.2557    0.0977 H   0  0  0  0  0  0  0  0  0  0  0  0
   -3.1877    1.3006    0.3278 H   0  0  0  0  0  0  0  0  0  0  0  0
   -3.3570   -0.3455    0.8780 H   0  0  0  0  0  0  0  0  0  0  0  0
   -3.3537    0.0180   -0.8765 H   0  0  0  0  0  0  0  0  0  0  0  0
   -3.8863   -4.3313   -0.6498 H   0  0  0  0  0  0  0  0  0  0  0  0
   -5.1706   -5.1917   -4.7343 H   0  0  0  0  0  0  0  0  0  0  0  0
   -1.1828   -1.3918   -3.8902 H   0  0  0  0  0  0  0  0  0  0  0  0
    1.1714   -2.1396   -0.0671 H   0  0  0  0  0  0  0  0  0  0  0  0
  1  2  1  0  0  0  0
  1 20  1  0  0  0  0
  1 21  1  0  0  0  0
  1 22  1  0  0  0  0
  2  3  1  0  0  0  0
  2 19  2  0  0  0  0
  3  4  2  0  0  0  0
  3 23  1  0  0  0  0
  4  5  1  0  0  0  0
  4 24  1  0  0  0  0
  5  6  1  0  0  0  0
  5  7  2  0  0  0  0
  6 25  1  0  0  0  0
  6 26  1  0  0  0  0
  6 27  1  0  0  0  0
  7  8  1  0  0  0  0
  7 19  1  0  0  0  0
  8  9  2  0  0  0  0
  8 10  2  0  0  0  0
  8 11  1  0  0  0  0
 11 12  1  0  0  0  0
 11 17  2  0  0  0  0
 12 13  2  0  0  0  0
 12 28  1  0  0  0  0
 13 14  1  0  0  0  0
 14 15  1  0  0  0  0
 14 16  2  0  0  0  0
 15 29  1  0  0  0  0
 16 17  1  0  0  0  0
 17 18  1  0  0  0  0
 18 30  1  0  0  0  0
 19 31  1  0  0  0  0
M  END
>  <Energy>
-28.5551

$$$$

 OpenBabel04232616063D

 41 43  0  0  0  0  0  0  0  0999 V2000
    1.7616    1.0824   -0.3757 O   0  0  0  0  0  0  0  0  0  0  0  0
    2.6076    0.2505   -0.0524 C   0  0  0  0  0  0  0  0  0  0  0  0
    3.1865    0.3471    1.3179 C   0  0  0  0  0  0  0  0  0  0  0  0
    4.5761    0.4688    1.4755 C   0  0  0  0  0  0  0  0  0  0  0  0
    5.1406    0.5928    2.7438 C   0  0  0  0  0  0  0  0  0  0  0  0
    4.3180    0.6533    3.8655 C   0  0  0  0  0  0  0  0  0  0  0  0
    2.9305    0.5990    3.7232 C   0  0  0  0  0  0  0  0  0  0  0  0
    2.3699    0.4391    2.4496 C   0  0  0  0  0  0  0  0  0  0  0  0
    1.0102    0.3583    2.3420 O   0  0  0  0  0  0  0  0  0  0  0  0
    3.0577   -0.7374   -0.9399 N   0  0  0  0  0  0  0  0  0  0  0  0
    2.6411   -0.6301   -2.3470 C   0  0  0  0  0  0  0  0  0  0  0  0
    2.4166   -1.9990   -3.0085 C   0  0  0  0  0  0  0  0  0  0  0  0
    3.5635   -2.8818   -2.7841 N   0  0  0  0  0  0  0  0  0  0  0  0
    4.3036   -3.5358   -3.7656 C   0  0  0  0  0  0  0  0  0  0  0  0
    5.2995   -4.2019   -3.4525 O   0  0  0  0  0  0  0  0  0  0  0  0
    3.8304   -3.4130   -5.2411 C   0  0  0  0  0  0  0  0  0  0  0  0
    4.6853   -4.1582   -6.3099 C   0  0  0  0  0  0  0  0  0  0  0  0
    4.4726   -2.9654   -7.2520 C   0  0  0  0  0  0  0  0  0  0  0  0
    4.1717   -2.1081   -6.0116 C   0  0  0  0  0  0  0  0  0  0  0  0
    3.9148   -3.0523   -1.3733 C   0  0  0  0  0  0  0  0  0  0  0  0
    4.1383   -1.7018   -0.6793 C   0  0  0  0  0  0  0  0  0  0  0  0
    5.2304    0.4720    0.6049 H   0  0  0  0  0  0  0  0  0  0  0  0
    6.2220    0.6501    2.8578 H   0  0  0  0  0  0  0  0  0  0  0  0
    4.7568    0.7606    4.8576 H   0  0  0  0  0  0  0  0  0  0  0  0
    2.3055    0.6583    4.6049 H   0  0  0  0  0  0  0  0  0  0  0  0
    0.6066    0.8024    3.1067 H   0  0  0  0  0  0  0  0  0  0  0  0
    3.4452   -0.0947   -2.8685 H   0  0  0  0  0  0  0  0  0  0  0  0
    1.7315   -0.0274   -2.4432 H   0  0  0  0  0  0  0  0  0  0  0  0
    2.2072   -1.8670   -4.0703 H   0  0  0  0  0  0  0  0  0  0  0  0
    1.5456   -2.4904   -2.5585 H   0  0  0  0  0  0  0  0  0  0  0  0
    2.7715   -3.6918   -5.3457 H   0  0  0  0  0  0  0  0  0  0  0  0
    4.2747   -5.1092   -6.6604 H   0  0  0  0  0  0  0  0  0  0  0  0
    5.7362   -4.3096   -6.0355 H   0  0  0  0  0  0  0  0  0  0  0  0
    3.6187   -3.0853   -7.9270 H   0  0  0  0  0  0  0  0  0  0  0  0
    5.3473   -2.6620   -7.8322 H   0  0  0  0  0  0  0  0  0  0  0  0
    3.3462   -1.4019   -6.1365 H   0  0  0  0  0  0  0  0  0  0  0  0
    5.0426   -1.5694   -5.6207 H   0  0  0  0  0  0  0  0  0  0  0  0
    4.8023   -3.6791   -1.2498 H   0  0  0  0  0  0  0  0  0  0  0  0
    3.0756   -3.5757   -0.9002 H   0  0  0  0  0  0  0  0  0  0  0  0
    5.0614   -1.2475   -1.0619 H   0  0  0  0  0  0  0  0  0  0  0  0
    4.2570   -1.8793    0.3914 H   0  0  0  0  0  0  0  0  0  0  0  0
  1  2  2  0  0  0  0
  2  3  1  0  0  0  0
  2 10  1  0  0  0  0
  3  4  1  0  0  0  0
  3  8  2  0  0  0  0
  4  5  2  0  0  0  0
  4 22  1  0  0  0  0
  5  6  1  0  0  0  0
  5 23  1  0  0  0  0
  6  7  2  0  0  0  0
  6 24  1  0  0  0  0
  7  8  1  0  0  0  0
  7 25  1  0  0  0  0
  8  9  1  0  0  0  0
  9 26  1  0  0  0  0
 10 11  1  0  0  0  0
 10 21  1  0  0  0  0
 11 12  1  0  0  0  0
 11 27  1  0  0  0  0
 11 28  1  0  0  0  0
 12 13  1  0  0  0  0
 12 29  1  0  0  0  0
 12 30  1  0  0  0  0
 13 14  1  0  0  0  0
 13 20  1  0  0  0  0
 14 15  2  0  0  0  0
 14 16  1  0  0  0  0
 16 17  1  0  0  0  0
 16 19  1  0  0  0  0
 16 31  1  0  0  0  0
 17 18  1  0  0  0  0
 17 32  1  0  0  0  0
 17 33  1  0  0  0  0
 18 19  1  0  0  0  0
 18 34  1  0  0  0  0
 18 35  1  0  0  0  0
 19 36  1  0  0  0  0
 19 37  1  0  0  0  0
 20 21  1  0  0  0  0
 20 38  1  0  0  0  0
 20 39  1  0  0  0  0
 21 40  1  0  0  0  0
 21 41  1  0  0  0  0
M  END
>  <Energy>
66.8669

$$$$

 OpenBabel04232616063D

 34 36  0  0  0  0  0  0  0  0999 V2000
    0.9647   -0.5570   -0.1331 C   0  0  0  0  0  0  0  0  0  0  0  0
    2.4494   -0.4120   -0.3271 C   0  0  0  0  0  0  0  0  0  0  0  0
    3.0432    0.8391   -0.0791 C   0  0  0  0  0  0  0  0  0  0  0  0
    4.4122    0.9922   -0.2352 C   0  0  0  0  0  0  0  0  0  0  0  0
    5.2038   -0.0857   -0.6263 C   0  0  0  0  0  0  0  0  0  0  0  0
    4.6460   -1.3300   -0.8837 C   0  0  0  0  0  0  0  0  0  0  0  0
    3.2645   -1.4896   -0.7270 C   0  0  0  0  0  0  0  0  0  0  0  0
    2.5949   -3.0508   -1.0478 Cl  0  0  0  0  0  0  0  0  0  0  0  0
    6.6304    0.3245   -0.7899 C   0  0  0  0  0  0  0  0  0  0  0  0
    6.6191    1.7362   -0.1887 C   0  0  0  0  0  0  0  0  0  0  0  0
    5.2057    2.1493   -0.0666 N   0  0  0  0  0  0  0  0  0  0  0  0
    4.6975    3.4166    0.1930 C   0  0  0  0  0  0  0  0  0  0  0  0
    3.4941    3.6325    0.3094 O   0  0  0  0  0  0  0  0  0  0  0  0
    5.6484    4.4182    0.2688 N   0  0  0  0  0  0  0  0  0  0  0  0
    5.3963    5.8089    0.3853 C   0  0  0  0  0  0  0  0  0  0  0  0
    4.1383    6.3747    0.5845 C   0  0  0  0  0  0  0  0  0  0  0  0
    3.9906    7.7608    0.6311 C   0  0  0  0  0  0  0  0  0  0  0  0
    5.1178    8.5494    0.4837 C   0  0  0  0  0  0  0  0  0  0  0  0
    6.3581    8.0496    0.3104 N   0  0  0  0  0  0  0  0  0  0  0  0
    6.4657    6.6974    0.2687 C   0  0  0  0  0  0  0  0  0  0  0  0
    0.4873    0.4156    0.0349 H   0  0  0  0  0  0  0  0  0  0  0  0
    0.7591   -1.1844    0.7398 H   0  0  0  0  0  0  0  0  0  0  0  0
    0.4962   -0.9915   -1.0210 H   0  0  0  0  0  0  0  0  0  0  0  0
    2.4159    1.6669    0.2381 H   0  0  0  0  0  0  0  0  0  0  0  0
    5.2665   -2.1584   -1.2110 H   0  0  0  0  0  0  0  0  0  0  0  0
    6.8866    0.3615   -1.8545 H   0  0  0  0  0  0  0  0  0  0  0  0
    7.3269   -0.3362   -0.2659 H   0  0  0  0  0  0  0  0  0  0  0  0
    7.1911    2.4380   -0.8034 H   0  0  0  0  0  0  0  0  0  0  0  0
    7.0460    1.7355    0.8223 H   0  0  0  0  0  0  0  0  0  0  0  0
    6.6084    4.1541    0.1473 H   0  0  0  0  0  0  0  0  0  0  0  0
    3.2444    5.7735    0.7080 H   0  0  0  0  0  0  0  0  0  0  0  0
    3.0127    8.2070    0.7747 H   0  0  0  0  0  0  0  0  0  0  0  0
    5.0462    9.6329    0.4996 H   0  0  0  0  0  0  0  0  0  0  0  0
    7.4802    6.3446    0.1158 H   0  0  0  0  0  0  0  0  0  0  0  0
  1  2  1  0  0  0  0
  1 21  1  0  0  0  0
  1 22  1  0  0  0  0
  1 23  1  0  0  0  0
  2  3  1  0  0  0  0
  2  7  2  0  0  0  0
  3  4  2  0  0  0  0
  3 24  1  0  0  0  0
  4  5  1  0  0  0  0
  4 11  1  0  0  0  0
  5  6  2  0  0  0  0
  5  9  1  0  0  0  0
  6  7  1  0  0  0  0
  6 25  1  0  0  0  0
  7  8  1  0  0  0  0
  9 10  1  0  0  0  0
  9 26  1  0  0  0  0
  9 27  1  0  0  0  0
 10 11  1  0  0  0  0
 10 28  1  0  0  0  0
 10 29  1  0  0  0  0
 11 12  1  0  0  0  0
 12 13  2  0  0  0  0
 12 14  1  0  0  0  0
 14 15  1  0  0  0  0
 14 30  1  0  0  0  0
 15 16  1  0  0  0  0
 15 20  2  0  0  0  0
 16 17  2  0  0  0  0
 16 31  1  0  0  0  0
 17 18  1  0  0  0  0
 17 32  1  0  0  0  0
 18 19  2  0  0  0  0
 18 33  1  0  0  0  0
 19 20  1  0  0  0  0
 20 34  1  0  0  0  0
M  END
>  <Energy>
13.0838

$$$$

 OpenBabel04232616063D

 32 35  0  0  0  0  0  0  0  0999 V2000
    1.2067   -0.4968    0.3846 O   0  0  0  0  0  0  0  0  0  0  0  0
    2.4209   -0.4257    0.3193 C   0  0  0  0  0  0  0  0  0  0  0  0
    3.1955    0.7193    0.4080 N   0  0  0  0  0  0  0  0  0  0  0  0
    4.5341    0.4390    0.1493 C   0  0  0  0  0  0  0  0  0  0  0  0
    5.5676    1.3530    0.0834 C   0  0  0  0  0  0  0  0  0  0  0  0
    6.8193    0.8780   -0.3112 C   0  0  0  0  0  0  0  0  0  0  0  0
    6.9896   -0.4684   -0.6755 C   0  0  0  0  0  0  0  0  0  0  0  0
    5.9225   -1.3715   -0.6024 C   0  0  0  0  0  0  0  0  0  0  0  0
    4.7081   -0.9240   -0.1139 C   0  0  0  0  0  0  0  0  0  0  0  0
    3.4046   -1.5537    0.1255 C   0  0  0  0  0  0  0  0  0  0  0  0
    2.9848   -2.8189    0.2918 C   0  0  0  0  0  0  0  0  0  0  0  0
    1.6581   -3.2483    0.3478 N   0  0  0  0  0  0  0  0  0  0  0  0
    1.6023   -4.6087    0.0546 C   0  0  0  0  0  0  0  0  0  0  0  0
    0.4897   -5.4202   -0.0343 C   0  0  0  0  0  0  0  0  0  0  0  0
    0.6851   -6.8001   -0.1918 C   0  0  0  0  0  0  0  0  0  0  0  0
    1.9807   -7.3494   -0.2397 C   0  0  0  0  0  0  0  0  0  0  0  0
    3.1040   -6.5304   -0.1193 C   0  0  0  0  0  0  0  0  0  0  0  0
    2.8802   -5.1718    0.0223 C   0  0  0  0  0  0  0  0  0  0  0  0
    3.8360   -4.0907    0.3419 C   0  0  0  0  0  0  0  0  0  0  0  0
    5.0240   -4.3902    0.7375 N   0  0  0  0  0  0  0  0  0  0  0  0
    5.6424   -3.3261    1.3883 O   0  0  0  0  0  0  0  0  0  0  0  0
    2.8033    1.6369    0.5510 H   0  0  0  0  0  0  0  0  0  0  0  0
    5.4204    2.3997    0.3220 H   0  0  0  0  0  0  0  0  0  0  0  0
    7.6666    1.5581   -0.3609 H   0  0  0  0  0  0  0  0  0  0  0  0
    7.9625   -0.8152   -1.0174 H   0  0  0  0  0  0  0  0  0  0  0  0
    6.0609   -2.4028   -0.9113 H   0  0  0  0  0  0  0  0  0  0  0  0
    0.9221   -2.5979    0.0893 H   0  0  0  0  0  0  0  0  0  0  0  0
   -0.5119   -5.0114    0.0447 H   0  0  0  0  0  0  0  0  0  0  0  0
   -0.1772   -7.4613   -0.2501 H   0  0  0  0  0  0  0  0  0  0  0  0
    2.1062   -8.4263   -0.3357 H   0  0  0  0  0  0  0  0  0  0  0  0
    4.1070   -6.9396   -0.1027 H   0  0  0  0  0  0  0  0  0  0  0  0
    6.5089   -3.6989    1.6313 H   0  0  0  0  0  0  0  0  0  0  0  0
  1  2  2  0  0  0  0
  2  3  1  0  0  0  0
  2 10  1  0  0  0  0
  3  4  1  0  0  0  0
  3 22  1  0  0  0  0
  4  5  1  0  0  0  0
  4  9  2  0  0  0  0
  5  6  2  0  0  0  0
  5 23  1  0  0  0  0
  6  7  1  0  0  0  0
  6 24  1  0  0  0  0
  7  8  2  0  0  0  0
  7 25  1  0  0  0  0
  8  9  1  0  0  0  0
  8 26  1  0  0  0  0
  9 10  1  0  0  0  0
 10 11  2  0  0  0  0
 11 12  1  0  0  0  0
 11 19  1  0  0  0  0
 12 13  1  0  0  0  0
 12 27  1  0  0  0  0
 13 14  1  0  0  0  0
 13 18  2  0  0  0  0
 14 15  2  0  0  0  0
 14 28  1  0  0  0  0
 15 16  1  0  0  0  0
 15 29  1  0  0  0  0
 16 17  2  0  0  0  0
 16 30  1  0  0  0  0
 17 18  1  0  0  0  0
 17 31  1  0  0  0  0
 18 19  1  0  0  0  0
 19 20  2  0  0  0  0
 20 21  1  0  0  0  0
 21 32  1  0  0  0  0
M  END
>  <Energy>
101.989

$$$$

 OpenBabel04232616063D

 41 44  0  0  1  0  0  0  0  0999 V2000
    0.8397    0.3253   -0.4974 C   0  0  0  0  0  0  0  0  0  0  0  0
    2.3638    0.2171   -0.3805 C   0  0  3  0  0  0  0  0  0  0  0  0
    3.0769    1.1089   -1.4159 C   0  0  0  0  0  0  0  0  0  0  0  0
    2.9899    0.5469   -2.8404 C   0  0  0  0  0  0  0  0  0  0  0  0
    3.4492   -0.9096   -2.8680 C   0  0  0  0  0  0  0  0  0  0  0  0
    2.6612   -1.6840   -1.9121 N   0  0  0  0  0  0  0  0  0  0  0  0
    1.7625   -2.7196   -2.1841 C   0  0  0  0  0  0  0  0  0  0  0  0
    1.2765   -3.3816   -1.2676 O   0  0  0  0  0  0  0  0  0  0  0  0
    1.4082   -3.0180   -3.5597 C   0  0  0  0  0  0  0  0  0  0  0  0
    1.0438   -4.2566   -4.0698 C   0  0  0  0  0  0  0  0  0  0  0  0
    0.8001   -4.1262   -5.4619 C   0  0  0  0  0  0  0  0  0  0  0  0
    0.4577   -5.0248   -6.4899 C   0  0  0  0  0  0  0  0  0  0  0  0
    0.3199   -4.5498   -7.8020 C   0  0  0  0  0  0  0  0  0  0  0  0
    0.5188   -3.1930   -8.0991 C   0  0  0  0  0  0  0  0  0  0  0  0
    0.4103   -2.6618   -9.3895 C   0  0  0  0  0  0  0  0  0  0  0  0
    0.6350   -1.3010   -9.5972 C   0  0  0  0  0  0  0  0  0  0  0  0
    0.9604   -0.5038   -8.5070 C   0  0  0  0  0  0  0  0  0  0  0  0
    1.0704   -0.9592   -7.2395 N   0  0  0  0  0  0  0  0  0  0  0  0
    0.8473   -2.2858   -7.0750 C   0  0  0  0  0  0  0  0  0  0  0  0
    0.9714   -2.7817   -5.7733 C   0  0  0  0  0  0  0  0  0  0  0  0
    1.2466   -2.1263   -4.5963 N   0  0  0  0  0  0  0  0  0  0  0  0
    2.8215   -1.2435   -0.5268 C   0  0  0  0  0  0  0  0  0  0  0  0
    0.5154    1.3642   -0.3807 H   0  0  0  0  0  0  0  0  0  0  0  0
    0.3527   -0.2676    0.2842 H   0  0  0  0  0  0  0  0  0  0  0  0
    0.4705   -0.0339   -1.4632 H   0  0  0  0  0  0  0  0  0  0  0  0
    2.6403    0.5666    0.6221 H   0  0  0  0  0  0  0  0  0  0  0  0
    4.1363    1.1864   -1.1387 H   0  0  0  0  0  0  0  0  0  0  0  0
    2.6710    2.1266   -1.3904 H   0  0  0  0  0  0  0  0  0  0  0  0
    3.6072    1.1487   -3.5158 H   0  0  0  0  0  0  0  0  0  0  0  0
    1.9562    0.6223   -3.1973 H   0  0  0  0  0  0  0  0  0  0  0  0
    4.4996   -0.9755   -2.5570 H   0  0  0  0  0  0  0  0  0  0  0  0
    3.4141   -1.3218   -3.8759 H   0  0  0  0  0  0  0  0  0  0  0  0
    0.9964   -5.1692   -3.4878 H   0  0  0  0  0  0  0  0  0  0  0  0
    0.3110   -6.0785   -6.2705 H   0  0  0  0  0  0  0  0  0  0  0  0
    0.0624   -5.2532   -8.5903 H   0  0  0  0  0  0  0  0  0  0  0  0
    0.1558   -3.2997  -10.2316 H   0  0  0  0  0  0  0  0  0  0  0  0
    0.5581   -0.8720  -10.5905 H   0  0  0  0  0  0  0  0  0  0  0  0
    1.1470    0.5591   -8.6352 H   0  0  0  0  0  0  0  0  0  0  0  0
    1.3405   -1.1238   -4.5425 H   0  0  0  0  0  0  0  0  0  0  0  0
    3.8864   -1.3314   -0.2766 H   0  0  0  0  0  0  0  0  0  0  0  0
    2.2773   -1.8840    0.1743 H   0  0  0  0  0  0  0  0  0  0  0  0
  1  2  1  0  0  0  0
  1 23  1  0  0  0  0
  1 24  1  0  0  0  0
  1 25  1  0  0  0  0
  2  3  1  0  0  0  0
  2 22  1  0  0  0  0
  2 26  1  0  0  0  0
  3  4  1  0  0  0  0
  3 27  1  0  0  0  0
  3 28  1  0  0  0  0
  4  5  1  0  0  0  0
  4 29  1  0  0  0  0
  4 30  1  0  0  0  0
  5  6  1  0  0  0  0
  5 31  1  0  0  0  0
  5 32  1  0  0  0  0
  6  7  1  0  0  0  0
  6 22  1  0  0  0  0
  7  8  2  0  0  0  0
  7  9  1  0  0  0  0
  9 10  2  0  0  0  0
  9 21  1  0  0  0  0
 10 11  1  0  0  0  0
 10 33  1  0  0  0  0
 11 12  1  0  0  0  0
 11 20  2  0  0  0  0
 12 13  2  0  0  0  0
 12 34  1  0  0  0  0
 13 14  1  0  0  0  0
 13 35  1  0  0  0  0
 14 15  1  0  0  0  0
 14 19  2  0  0  0  0
 15 16  2  0  0  0  0
 15 36  1  0  0  0  0
 16 17  1  0  0  0  0
 16 37  1  0  0  0  0
 17 18  2  0  0  0  0
 17 38  1  0  0  0  0
 18 19  1  0  0  0  0
 19 20  1  0  0  0  0
 20 21  1  0  0  0  0
 21 39  1  0  0  0  0
 22 40  1  0  0  0  0
 22 41  1  0  0  0  0
M  END
>  <Energy>
13.7232

$$$$

 OpenBabel04232616063D

 39 40  0  0  0  0  0  0  0  0999 V2000
    2.9472   -1.1192   -0.7154 O   0  0  0  0  0  0  0  0  0  0  0  0
    2.3854   -0.1293   -0.2700 C   0  0  0  0  0  0  0  0  0  0  0  0
    1.0120    0.0766   -0.2269 N   0  0  0  0  0  0  0  0  0  0  0  0
    0.1847   -0.8329   -0.8061 N   0  0  0  0  0  0  0  0  0  0  0  0
   -1.0865   -0.6519   -0.6544 C   0  0  0  0  0  0  0  0  0  0  0  0
   -2.0434   -1.5779   -1.2892 C   0  0  0  0  0  0  0  0  0  0  0  0
   -1.5899   -2.6170   -2.1113 C   0  0  0  0  0  0  0  0  0  0  0  0
   -2.5081   -3.4754   -2.7214 C   0  0  0  0  0  0  0  0  0  0  0  0
   -3.8754   -3.2988   -2.5089 C   0  0  0  0  0  0  0  0  0  0  0  0
   -4.3273   -2.2652   -1.6864 C   0  0  0  0  0  0  0  0  0  0  0  0
   -3.4091   -1.4082   -1.0813 C   0  0  0  0  0  0  0  0  0  0  0  0
   -3.8641   -0.4206   -0.2969 F   0  0  0  0  0  0  0  0  0  0  0  0
    3.1601    1.0569    0.3611 C   0  0  0  0  0  0  0  0  0  0  0  0
    2.4931    1.8700    1.0048 O   0  0  0  0  0  0  0  0  0  0  0  0
    4.5501    1.1640    0.1794 N   0  0  0  0  0  0  0  0  0  0  0  0
    5.2632    2.1841    0.9412 C   0  0  0  0  0  0  0  0  0  0  0  0
    5.5285    3.4363    0.1109 C   0  0  0  0  0  0  0  0  0  0  0  0
    6.7026    3.3071   -0.8573 C   0  0  0  0  0  0  0  0  0  0  0  0
    6.5966    2.1531   -1.8523 C   0  0  0  0  0  0  0  0  0  0  0  0
    6.6672    0.7813   -1.1836 C   0  0  0  0  0  0  0  0  0  0  0  0
    5.3059    0.2767   -0.7046 C   0  0  0  0  0  0  0  0  0  0  0  0
    0.6541    0.9051    0.2421 H   0  0  0  0  0  0  0  0  0  0  0  0
   -1.4974    0.1838   -0.0589 H   0  0  0  0  0  0  0  0  0  0  0  0
   -0.5243   -2.7605   -2.2832 H   0  0  0  0  0  0  0  0  0  0  0  0
   -2.1507   -4.2781   -3.3619 H   0  0  0  0  0  0  0  0  0  0  0  0
   -4.5871   -3.9685   -2.9859 H   0  0  0  0  0  0  0  0  0  0  0  0
   -5.3901   -2.1230   -1.5148 H   0  0  0  0  0  0  0  0  0  0  0  0
    6.1859    1.7550    1.3482 H   0  0  0  0  0  0  0  0  0  0  0  0
    4.6567    2.4695    1.8082 H   0  0  0  0  0  0  0  0  0  0  0  0
    5.7541    4.2642    0.7948 H   0  0  0  0  0  0  0  0  0  0  0  0
    4.6250    3.7215   -0.4428 H   0  0  0  0  0  0  0  0  0  0  0  0
    7.6341    3.2074   -0.2858 H   0  0  0  0  0  0  0  0  0  0  0  0
    6.7883    4.2444   -1.4204 H   0  0  0  0  0  0  0  0  0  0  0  0
    7.4396    2.2375   -2.5493 H   0  0  0  0  0  0  0  0  0  0  0  0
    5.6842    2.2477   -2.4530 H   0  0  0  0  0  0  0  0  0  0  0  0
    7.3938    0.7886   -0.3628 H   0  0  0  0  0  0  0  0  0  0  0  0
    7.0466    0.0565   -1.9154 H   0  0  0  0  0  0  0  0  0  0  0  0
    5.4464   -0.6685   -0.1670 H   0  0  0  0  0  0  0  0  0  0  0  0
    4.7023    0.0762   -1.5949 H   0  0  0  0  0  0  0  0  0  0  0  0
  1  2  2  0  0  0  0
  2  3  1  0  0  0  0
  2 13  1  0  0  0  0
  3  4  1  0  0  0  0
  3 22  1  0  0  0  0
  4  5  2  0  0  0  0
  5  6  1  0  0  0  0
  5 23  1  0  0  0  0
  6  7  1  0  0  0  0
  6 11  2  0  0  0  0
  7  8  2  0  0  0  0
  7 24  1  0  0  0  0
  8  9  1  0  0  0  0
  8 25  1  0  0  0  0
  9 10  2  0  0  0  0
  9 26  1  0  0  0  0
 10 11  1  0  0  0  0
 10 27  1  0  0  0  0
 11 12  1  0  0  0  0
 13 14  2  0  0  0  0
 13 15  1  0  0  0  0
 15 16  1  0  0  0  0
 15 21  1  0  0  0  0
 16 17  1  0  0  0  0
 16 28  1  0  0  0  0
 16 29  1  0  0  0  0
 17 18  1  0  0  0  0
 17 30  1  0  0  0  0
 17 31  1  0  0  0  0
 18 19  1  0  0  0  0
 18 32  1  0  0  0  0
 18 33  1  0  0  0  0
 19 20  1  0  0  0  0
 19 34  1  0  0  0  0
 19 35  1  0  0  0  0
 20 21  1  0  0  0  0
 20 36  1  0  0  0  0
 20 37  1  0  0  0  0
 21 38  1  0  0  0  0
 21 39  1  0  0  0  0
M  END
>  <Energy>
106.991

$$$$

 OpenBabel04232616063D

 34 36  0  0  0  0  0  0  0  0999 V2000
    2.6744    1.1805   -0.5951 O   0  0  0  0  0  0  0  0  0  0  0  0
    3.1045    0.4899    0.3222 C   0  0  0  0  0  0  0  0  0  0  0  0
    2.3414    0.4764    1.6041 C   0  0  0  0  0  0  0  0  0  0  0  0
    1.8323    1.6037    2.1241 C   0  0  0  0  0  0  0  0  0  0  0  0
    1.4419    1.5687    3.5347 C   0  0  0  0  0  0  0  0  0  0  0  0
    2.3178    2.1238    4.4772 C   0  0  0  0  0  0  0  0  0  0  0  0
    2.0876    1.9496    5.8418 C   0  0  0  0  0  0  0  0  0  0  0  0
    0.9780    1.2250    6.2716 C   0  0  0  0  0  0  0  0  0  0  0  0
    0.0885    0.6900    5.3389 C   0  0  0  0  0  0  0  0  0  0  0  0
    0.3168    0.8627    3.9716 C   0  0  0  0  0  0  0  0  0  0  0  0
    4.2494   -0.3211    0.2990 N   0  0  0  0  0  0  0  0  0  0  0  0
    4.6991   -0.9632    1.4608 C   0  0  0  0  0  0  0  0  0  0  0  0
    4.7046   -0.4909    2.5916 O   0  0  0  0  0  0  0  0  0  0  0  0
    5.3503   -2.3217    1.2500 C   0  0  0  0  0  0  0  0  0  0  0  0
    5.2007   -3.2300    2.0518 O   0  0  0  0  0  0  0  0  0  0  0  0
    6.1348   -2.4158    0.1379 N   0  0  0  0  0  0  0  0  0  0  0  0
    6.0955   -1.4555   -0.8727 C   0  0  0  0  0  0  0  0  0  0  0  0
    7.0357   -1.5535   -1.9003 C   0  0  0  0  0  0  0  0  0  0  0  0
    7.0008   -0.6460   -2.9512 C   0  0  0  0  0  0  0  0  0  0  0  0
    5.9935    0.3131   -2.9979 C   0  0  0  0  0  0  0  0  0  0  0  0
    5.0415    0.3995   -1.9719 C   0  0  0  0  0  0  0  0  0  0  0  0
    5.0963   -0.4567   -0.8650 C   0  0  0  0  0  0  0  0  0  0  0  0
    2.3229   -0.4446    2.1760 H   0  0  0  0  0  0  0  0  0  0  0  0
    1.8698    2.5627    1.6178 H   0  0  0  0  0  0  0  0  0  0  0  0
    3.2143    2.6485    4.1534 H   0  0  0  0  0  0  0  0  0  0  0  0
    2.7928    2.3511    6.5648 H   0  0  0  0  0  0  0  0  0  0  0  0
    0.8157    1.0637    7.3340 H   0  0  0  0  0  0  0  0  0  0  0  0
   -0.7679    0.1134    5.6771 H   0  0  0  0  0  0  0  0  0  0  0  0
   -0.3636    0.4109    3.2543 H   0  0  0  0  0  0  0  0  0  0  0  0
    6.7006   -3.2500    0.0507 H   0  0  0  0  0  0  0  0  0  0  0  0
    7.8136   -2.3121   -1.8762 H   0  0  0  0  0  0  0  0  0  0  0  0
    7.7554   -0.6857   -3.7327 H   0  0  0  0  0  0  0  0  0  0  0  0
    5.9561    1.0176   -3.8265 H   0  0  0  0  0  0  0  0  0  0  0  0
    4.3029    1.1905   -2.0632 H   0  0  0  0  0  0  0  0  0  0  0  0
  1  2  2  0  0  0  0
  2  3  1  0  0  0  0
  2 11  1  0  0  0  0
  3  4  2  0  0  0  0
  3 23  1  0  0  0  0
  4  5  1  0  0  0  0
  4 24  1  0  0  0  0
  5  6  1  0  0  0  0
  5 10  2  0  0  0  0
  6  7  2  0  0  0  0
  6 25  1  0  0  0  0
  7  8  1  0  0  0  0
  7 26  1  0  0  0  0
  8  9  2  0  0  0  0
  8 27  1  0  0  0  0
  9 10  1  0  0  0  0
  9 28  1  0  0  0  0
 10 29  1  0  0  0  0
 11 12  1  0  0  0  0
 11 22  1  0  0  0  0
 12 13  2  0  0  0  0
 12 14  1  0  0  0  0
 14 15  2  0  0  0  0
 14 16  1  0  0  0  0
 16 17  1  0  0  0  0
 16 30  1  0  0  0  0
 17 18  1  0  0  0  0
 17 22  2  0  0  0  0
 18 19  2  0  0  0  0
 18 31  1  0  0  0  0
 19 20  1  0  0  0  0
 19 32  1  0  0  0  0
 20 21  2  0  0  0  0
 20 33  1  0  0  0  0
 21 22  1  0  0  0  0
 21 34  1  0  0  0  0
M  END
>  <Energy>
81.6123

$$$$

 OpenBabel04232616063D

 30 32  0  0  0  0  0  0  0  0999 V2000
    0.9277   -0.3118    0.1676 O   0  0  0  0  0  0  0  0  0  0  0  0
    2.1331   -0.1035    0.0511 C   0  0  0  0  0  0  0  0  0  0  0  0
    2.7456    0.2108   -1.1425 N   0  0  0  0  0  0  0  0  0  0  0  0
    2.0891    0.4444   -2.3745 C   0  0  0  0  0  0  0  0  0  0  0  0
    0.7339    0.7693   -2.4690 C   0  0  0  0  0  0  0  0  0  0  0  0
    0.0987    0.9294   -3.7077 C   0  0  0  0  0  0  0  0  0  0  0  0
    0.8723    0.7654   -4.8601 C   0  0  0  0  0  0  0  0  0  0  0  0
    0.4502    0.8473   -6.5273 S   0  0  0  0  0  0  0  0  0  0  0  0
    2.0070    0.5299   -7.0449 N   0  0  0  0  0  0  0  0  0  0  0  0
    2.8583    0.3608   -6.0479 N   0  0  0  0  0  0  0  0  0  0  0  0
    2.2387    0.4819   -4.8085 C   0  0  0  0  0  0  0  0  0  0  0  0
    2.8537    0.3354   -3.5455 C   0  0  0  0  0  0  0  0  0  0  0  0
    2.9906   -0.2326    1.1369 N   0  0  0  0  0  0  0  0  0  0  0  0
    2.4454   -0.7815    2.3849 C   0  0  0  0  0  0  0  0  0  0  0  0
    3.2377   -1.9955    2.8698 C   0  0  0  0  0  0  0  0  0  0  0  0
    4.9846   -1.5826    3.2045 S   0  0  0  0  0  0  0  0  0  0  0  0
    5.3738   -0.7812    1.6116 C   0  0  0  0  0  0  0  0  0  0  0  0
    4.3557    0.2988    1.2399 C   0  0  0  0  0  0  0  0  0  0  0  0
    3.7161   -0.0461   -1.2078 H   0  0  0  0  0  0  0  0  0  0  0  0
    0.1259    0.9049   -1.5774 H   0  0  0  0  0  0  0  0  0  0  0  0
   -0.9609    1.1590   -3.7613 H   0  0  0  0  0  0  0  0  0  0  0  0
    3.9133    0.1057   -3.5146 H   0  0  0  0  0  0  0  0  0  0  0  0
    1.4031   -1.0904    2.2536 H   0  0  0  0  0  0  0  0  0  0  0  0
    2.4441    0.0191    3.1342 H   0  0  0  0  0  0  0  0  0  0  0  0
    3.2123   -2.7944    2.1205 H   0  0  0  0  0  0  0  0  0  0  0  0
    2.7942   -2.3876    3.7902 H   0  0  0  0  0  0  0  0  0  0  0  0
    5.4107   -1.5558    0.8384 H   0  0  0  0  0  0  0  0  0  0  0  0
    6.3721   -0.3398    1.6912 H   0  0  0  0  0  0  0  0  0  0  0  0
    4.6649    0.7866    0.3122 H   0  0  0  0  0  0  0  0  0  0  0  0
    4.3399    1.0887    2.0018 H   0  0  0  0  0  0  0  0  0  0  0  0
  1  2  2  0  0  0  0
  2  3  1  0  0  0  0
  2 13  1  0  0  0  0
  3  4  1  0  0  0  0
  3 19  1  0  0  0  0
  4  5  1  0  0  0  0
  4 12  2  0  0  0  0
  5  6  2  0  0  0  0
  5 20  1  0  0  0  0
  6  7  1  0  0  0  0
  6 21  1  0  0  0  0
  7  8  1  0  0  0  0
  7 11  2  0  0  0  0
  8  9  1  0  0  0  0
  9 10  2  0  0  0  0
 10 11  1  0  0  0  0
 11 12  1  0  0  0  0
 12 22  1  0  0  0  0
 13 14  1  0  0  0  0
 13 18  1  0  0  0  0
 14 15  1  0  0  0  0
 14 23  1  0  0  0  0
 14 24  1  0  0  0  0
 15 16  1  0  0  0  0
 15 25  1  0  0  0  0
 15 26  1  0  0  0  0
 16 17  1  0  0  0  0
 17 18  1  0  0  0  0
 17 27  1  0  0  0  0
 17 28  1  0  0  0  0
 18 29  1  0  0  0  0
 18 30  1  0  0  0  0
M  END
>  <Energy>
-10.254

$$$$

 OpenBabel04232616063D

 29 31  0  0  0  0  0  0  0  0999 V2000
    0.8541   -0.0714    0.1980 O   0  0  0  0  0  0  0  0  0  0  0  0
    2.0782   -0.0724    0.1234 C   0  0  0  0  0  0  0  0  0  0  0  0
    2.8141   -1.3516    0.0326 C   0  0  0  0  0  0  0  0  0  0  0  0
    2.0640   -2.5149    0.0001 O   0  0  0  0  0  0  0  0  0  0  0  0
    4.1551   -1.3169   -0.0308 C   0  0  0  0  0  0  0  0  0  0  0  0
    4.9230   -2.5657   -0.1316 C   0  0  0  0  0  0  0  0  0  0  0  0
    5.2244   -3.0824   -1.4001 C   0  0  0  0  0  0  0  0  0  0  0  0
    5.8318   -4.3334   -1.5286 C   0  0  0  0  0  0  0  0  0  0  0  0
    6.1485   -5.0752   -0.3913 C   0  0  0  0  0  0  0  0  0  0  0  0
    5.8759   -4.5626    0.8779 C   0  0  0  0  0  0  0  0  0  0  0  0
    5.2673   -3.3124    1.0034 C   0  0  0  0  0  0  0  0  0  0  0  0
    4.9869   -2.8133    2.2474 O   0  0  0  0  0  0  0  0  0  0  0  0
    4.9217   -0.1611   -0.0301 O   0  0  0  0  0  0  0  0  0  0  0  0
    4.2671    1.0467    0.0133 C   0  0  0  0  0  0  0  0  0  0  0  0
    5.0448    2.2038   -0.0370 C   0  0  0  0  0  0  0  0  0  0  0  0
    4.4267    3.4593   -0.0213 C   0  0  0  0  0  0  0  0  0  0  0  0
    3.0361    3.5529    0.0532 C   0  0  0  0  0  0  0  0  0  0  0  0
    2.2820    5.0997    0.0553 Cl  0  0  0  0  0  0  0  0  0  0  0  0
    2.2527    2.4046    0.1153 C   0  0  0  0  0  0  0  0  0  0  0  0
    2.8791    1.1549    0.0913 C   0  0  0  0  0  0  0  0  0  0  0  0
    1.1346   -2.2171    0.0778 H   0  0  0  0  0  0  0  0  0  0  0  0
    4.9564   -2.5265   -2.2956 H   0  0  0  0  0  0  0  0  0  0  0  0
    6.0375   -4.7370   -2.5168 H   0  0  0  0  0  0  0  0  0  0  0  0
    6.6008   -6.0584   -0.4948 H   0  0  0  0  0  0  0  0  0  0  0  0
    6.1289   -5.1550    1.7514 H   0  0  0  0  0  0  0  0  0  0  0  0
    5.2098   -3.4866    2.9099 H   0  0  0  0  0  0  0  0  0  0  0  0
    6.1281    2.1328   -0.0960 H   0  0  0  0  0  0  0  0  0  0  0  0
    5.0342    4.3599   -0.0718 H   0  0  0  0  0  0  0  0  0  0  0  0
    1.1691    2.4743    0.1722 H   0  0  0  0  0  0  0  0  0  0  0  0
  1  2  2  0  0  0  0
  2  3  1  0  0  0  0
  2 20  1  0  0  0  0
  3  4  1  0  0  0  0
  3  5  2  0  0  0  0
  4 21  1  0  0  0  0
  5  6  1  0  0  0  0
  5 13  1  0  0  0  0
  6  7  1  0  0  0  0
  6 11  2  0  0  0  0
  7  8  2  0  0  0  0
  7 22  1  0  0  0  0
  8  9  1  0  0  0  0
  8 23  1  0  0  0  0
  9 10  2  0  0  0  0
  9 24  1  0  0  0  0
 10 11  1  0  0  0  0
 10 25  1  0  0  0  0
 11 12  1  0  0  0  0
 12 26  1  0  0  0  0
 13 14  1  0  0  0  0
 14 15  1  0  0  0  0
 14 20  2  0  0  0  0
 15 16  2  0  0  0  0
 15 27  1  0  0  0  0
 16 17  1  0  0  0  0
 16 28  1  0  0  0  0
 17 18  1  0  0  0  0
 17 19  2  0  0  0  0
 19 20  1  0  0  0  0
 19 29  1  0  0  0  0
M  END
>  <Energy>
68.3445

$$$$

 OpenBabel04232616063D

 38 40  0  0  1  0  0  0  0  0999 V2000
    0.9126    0.2146    0.1478 C   0  0  0  0  0  0  0  0  0  0  0  0
    2.3942    0.0694    0.2007 C   0  0  0  0  0  0  0  0  0  0  0  0
    3.3665    1.0497    0.1623 C   0  0  0  0  0  0  0  0  0  0  0  0
    4.6773    0.5009    0.1337 C   0  0  0  0  0  0  0  0  0  0  0  0
    4.6668   -0.8648    0.1302 C   0  0  0  0  0  0  0  0  0  0  0  0
    3.0867   -1.4932    0.2951 S   0  0  0  0  0  0  0  0  0  0  0  0
    5.8409   -1.7438   -0.0582 C   0  0  1  0  0  0  0  0  0  0  0  0
    5.7698   -2.3595   -1.3846 N   0  0  0  0  0  0  0  0  0  0  0  0
    5.7296   -1.6172   -2.6227 C   0  0  0  0  0  0  0  0  0  0  0  0
    5.3921   -2.6817   -3.6469 C   0  0  0  0  0  0  0  0  0  0  0  0
    6.0552   -3.9355   -3.0910 C   0  0  0  0  0  0  0  0  0  0  0  0
    6.0374   -3.7032   -1.6009 C   0  0  0  0  0  0  0  0  0  0  0  0
    6.2683   -4.5484   -0.7529 O   0  0  0  0  0  0  0  0  0  0  0  0
    7.1567   -0.9662    0.1795 C   0  0  2  0  0  0  0  0  0  0  0  0
    7.7790   -1.4351    1.3976 O   0  0  0  0  0  0  0  0  0  0  0  0
    7.0696    0.6084    0.1625 C   0  0  0  0  0  0  0  0  0  0  0  0
    7.6850    1.2308    1.4323 C   0  0  0  0  0  0  0  0  0  0  0  0
    7.8880    1.1291   -1.0384 C   0  0  0  0  0  0  0  0  0  0  0  0
    5.7872    1.2516    0.0065 O   0  0  0  0  0  0  0  0  0  0  0  0
    0.6207    1.2691    0.1263 H   0  0  0  0  0  0  0  0  0  0  0  0
    0.4387   -0.2521    1.0172 H   0  0  0  0  0  0  0  0  0  0  0  0
    0.5171   -0.2582   -0.7586 H   0  0  0  0  0  0  0  0  0  0  0  0
    3.1486    2.1090    0.1099 H   0  0  0  0  0  0  0  0  0  0  0  0
    5.7859   -2.5587    0.6768 H   0  0  0  0  0  0  0  0  0  0  0  0
    6.7204   -1.1930   -2.8082 H   0  0  0  0  0  0  0  0  0  0  0  0
    4.9796   -0.8243   -2.5996 H   0  0  0  0  0  0  0  0  0  0  0  0
    5.7347   -2.4261   -4.6523 H   0  0  0  0  0  0  0  0  0  0  0  0
    4.3049   -2.8283   -3.6847 H   0  0  0  0  0  0  0  0  0  0  0  0
    7.0957   -4.0181   -3.4200 H   0  0  0  0  0  0  0  0  0  0  0  0
    5.4985   -4.8377   -3.3544 H   0  0  0  0  0  0  0  0  0  0  0  0
    7.8782   -1.2836   -0.5813 H   0  0  0  0  0  0  0  0  0  0  0  0
    7.1192   -1.3975    2.1119 H   0  0  0  0  0  0  0  0  0  0  0  0
    8.7243    0.9200    1.5791 H   0  0  0  0  0  0  0  0  0  0  0  0
    7.1032    0.9567    2.3198 H   0  0  0  0  0  0  0  0  0  0  0  0
    7.6649    2.3263    1.3843 H   0  0  0  0  0  0  0  0  0  0  0  0
    8.9075    0.7298   -1.0444 H   0  0  0  0  0  0  0  0  0  0  0  0
    7.9527    2.2241   -1.0260 H   0  0  0  0  0  0  0  0  0  0  0  0
    7.4010    0.8679   -1.9833 H   0  0  0  0  0  0  0  0  0  0  0  0
  1  2  1  0  0  0  0
  1 20  1  0  0  0  0
  1 21  1  0  0  0  0
  1 22  1  0  0  0  0
  2  3  2  0  0  0  0
  2  6  1  0  0  0  0
  3  4  1  0  0  0  0
  3 23  1  0  0  0  0
  4  5  2  0  0  0  0
  4 19  1  0  0  0  0
  5  6  1  0  0  0  0
  5  7  1  0  0  0  0
  7 14  1  0  0  0  0
  7  8  1  0  0  0  0
  7 24  1  1  0  0  0
  8  9  1  0  0  0  0
  8 12  1  0  0  0  0
  9 10  1  0  0  0  0
  9 25  1  0  0  0  0
  9 26  1  0  0  0  0
 10 11  1  0  0  0  0
 10 27  1  0  0  0  0
 10 28  1  0  0  0  0
 11 12  1  0  0  0  0
 11 29  1  0  0  0  0
 11 30  1  0  0  0  0
 12 13  2  0  0  0  0
 14 15  1  0  0  0  0
 14 16  1  0  0  0  0
 14 31  1  6  0  0  0
 15 32  1  0  0  0  0
 16 17  1  0  0  0  0
 16 18  1  0  0  0  0
 16 19  1  0  0  0  0
 17 33  1  0  0  0  0
 17 34  1  0  0  0  0
 17 35  1  0  0  0  0
 18 36  1  0  0  0  0
 18 37  1  0  0  0  0
 18 38  1  0  0  0  0
M  END
>  <Energy>
39.5551

$$$$

 OpenBabel04232616063D

 33 35  0  0  0  0  0  0  0  0999 V2000
    3.9215   -2.8031   -0.8463 C   0  0  0  0  0  0  0  0  0  0  0  0
    4.1046   -1.3438   -0.7226 C   0  0  0  0  0  0  0  0  0  0  0  0
    3.2140   -0.4171   -0.4442 N   0  0  0  0  0  0  0  0  0  0  0  0
    3.9369    0.7574   -0.4366 C   0  0  0  0  0  0  0  0  0  0  0  0
    3.2868    2.0375   -0.0850 C   0  0  0  0  0  0  0  0  0  0  0  0
    5.2618    0.4933   -0.7234 C   0  0  0  0  0  0  0  0  0  0  0  0
    6.4562    1.3177   -0.7826 C   0  0  0  0  0  0  0  0  0  0  0  0
    6.4166    2.5433   -0.7552 O   0  0  0  0  0  0  0  0  0  0  0  0
    7.5960    0.5359   -0.7596 N   0  0  0  0  0  0  0  0  0  0  0  0
    8.7597    1.0277   -0.2386 C   0  0  0  0  0  0  0  0  0  0  0  0
    9.3350    2.1892   -0.3559 N   0  0  0  0  0  0  0  0  0  0  0  0
   10.3578    2.2927    0.5860 C   0  0  0  0  0  0  0  0  0  0  0  0
   11.2161    3.4001    0.8005 C   0  0  0  0  0  0  0  0  0  0  0  0
   11.3132    4.5498   -0.1625 C   0  0  0  0  0  0  0  0  0  0  0  0
   12.0077    3.4087    1.9681 C   0  0  0  0  0  0  0  0  0  0  0  0
   12.0454    2.3161    2.8302 C   0  0  0  0  0  0  0  0  0  0  0  0
   11.3355    1.1558    2.5342 C   0  0  0  0  0  0  0  0  0  0  0  0
   10.4928    1.1715    1.4136 C   0  0  0  0  0  0  0  0  0  0  0  0
    9.5035   -0.0973    0.8080 S   0  0  0  0  0  0  0  0  0  0  0  0
    5.3728   -0.8683   -0.8981 O   0  0  0  0  0  0  0  0  0  0  0  0
    2.8645   -3.0695   -0.7593 H   0  0  0  0  0  0  0  0  0  0  0  0
    4.4727   -3.3239   -0.0577 H   0  0  0  0  0  0  0  0  0  0  0  0
    4.2864   -3.1554   -1.8158 H   0  0  0  0  0  0  0  0  0  0  0  0
    2.2001    1.9181   -0.0347 H   0  0  0  0  0  0  0  0  0  0  0  0
    3.5081    2.8084   -0.8283 H   0  0  0  0  0  0  0  0  0  0  0  0
    3.6316    2.3834    0.8942 H   0  0  0  0  0  0  0  0  0  0  0  0
    7.4353   -0.4470   -0.5855 H   0  0  0  0  0  0  0  0  0  0  0  0
   11.4644    4.1674   -1.1781 H   0  0  0  0  0  0  0  0  0  0  0  0
   12.1744    5.1870    0.0674 H   0  0  0  0  0  0  0  0  0  0  0  0
   10.4085    5.1615   -0.1362 H   0  0  0  0  0  0  0  0  0  0  0  0
   12.6100    4.2830    2.2066 H   0  0  0  0  0  0  0  0  0  0  0  0
   12.6570    2.3568    3.7290 H   0  0  0  0  0  0  0  0  0  0  0  0
   11.4000    0.2817    3.1743 H   0  0  0  0  0  0  0  0  0  0  0  0
  1  2  1  0  0  0  0
  1 21  1  0  0  0  0
  1 22  1  0  0  0  0
  1 23  1  0  0  0  0
  2  3  2  0  0  0  0
  2 20  1  0  0  0  0
  3  4  1  0  0  0  0
  4  5  1  0  0  0  0
  4  6  2  0  0  0  0
  5 24  1  0  0  0  0
  5 25  1  0  0  0  0
  5 26  1  0  0  0  0
  6  7  1  0  0  0  0
  6 20  1  0  0  0  0
  7  8  2  0  0  0  0
  7  9  1  0  0  0  0
  9 10  1  0  0  0  0
  9 27  1  0  0  0  0
 10 11  2  0  0  0  0
 10 19  1  0  0  0  0
 11 12  1  0  0  0  0
 12 13  1  0  0  0  0
 12 18  2  0  0  0  0
 13 14  1  0  0  0  0
 13 15  2  0  0  0  0
 14 28  1  0  0  0  0
 14 29  1  0  0  0  0
 14 30  1  0  0  0  0
 15 16  1  0  0  0  0
 15 31  1  0  0  0  0
 16 17  2  0  0  0  0
 16 32  1  0  0  0  0
 17 18  1  0  0  0  0
 17 33  1  0  0  0  0
 18 19  1  0  0  0  0
M  END
>  <Energy>
0.515372

$$$$

 OpenBabel04232616063D

 32 35  0  0  0  0  0  0  0  0999 V2000
    1.5588    0.8190   -0.1721 N   0  0  0  0  0  0  0  0  0  0  0  0
    2.4295   -0.2062    0.2676 N   0  0  0  0  0  0  0  0  0  0  0  0
    3.1099   -0.9894   -0.6979 C   0  0  0  0  0  0  0  0  0  0  0  0
    4.2733   -1.5127   -0.2713 N   0  0  0  0  0  0  0  0  0  0  0  0
    4.9617   -2.2786   -1.1210 C   0  0  0  0  0  0  0  0  0  0  0  0
    6.1281   -2.7775   -0.6141 O   0  0  0  0  0  0  0  0  0  0  0  0
    4.5223   -2.5381   -2.4102 C   0  0  0  0  0  0  0  0  0  0  0  0
    5.0221   -3.3101   -3.5091 C   0  0  0  0  0  0  0  0  0  0  0  0
    4.2090   -3.2142   -4.6267 C   0  0  0  0  0  0  0  0  0  0  0  0
    2.8382   -2.2462   -4.3354 S   0  0  0  0  0  0  0  0  0  0  0  0
    3.3218   -1.9298   -2.7303 C   0  0  0  0  0  0  0  0  0  0  0  0
    2.5747   -1.1634   -1.9158 N   0  0  0  0  0  0  0  0  0  0  0  0
    4.4994   -3.9107   -5.8903 C   0  0  0  0  0  0  0  0  0  0  0  0
    3.8959   -3.5956   -7.1126 C   0  0  0  0  0  0  0  0  0  0  0  0
    4.2436   -4.2929   -8.2703 C   0  0  0  0  0  0  0  0  0  0  0  0
    5.1945   -5.3138   -8.2233 C   0  0  0  0  0  0  0  0  0  0  0  0
    5.8062   -5.6391   -7.0157 C   0  0  0  0  0  0  0  0  0  0  0  0
    5.4804   -4.9347   -5.8489 C   0  0  0  0  0  0  0  0  0  0  0  0
    6.1147   -5.3245   -4.5251 C   0  0  0  0  0  0  0  0  0  0  0  0
    6.2738   -4.1369   -3.5576 C   0  0  0  0  0  0  0  0  0  0  0  0
    1.0085    1.1729    0.6127 H   0  0  0  0  0  0  0  0  0  0  0  0
    0.8784    0.4128   -0.8246 H   0  0  0  0  0  0  0  0  0  0  0  0
    3.1395    0.0486    0.9545 H   0  0  0  0  0  0  0  0  0  0  0  0
    6.1106   -2.4013    0.2838 H   0  0  0  0  0  0  0  0  0  0  0  0
    3.1576   -2.8019   -7.1855 H   0  0  0  0  0  0  0  0  0  0  0  0
    3.7714   -4.0401   -9.2166 H   0  0  0  0  0  0  0  0  0  0  0  0
    5.4543   -5.8564   -9.1293 H   0  0  0  0  0  0  0  0  0  0  0  0
    6.5383   -6.4438   -6.9882 H   0  0  0  0  0  0  0  0  0  0  0  0
    7.0989   -5.7783   -4.6912 H   0  0  0  0  0  0  0  0  0  0  0  0
    5.4742   -6.0889   -4.0651 H   0  0  0  0  0  0  0  0  0  0  0  0
    7.0992   -3.4963   -3.8939 H   0  0  0  0  0  0  0  0  0  0  0  0
    6.5361   -4.5192   -2.5653 H   0  0  0  0  0  0  0  0  0  0  0  0
  1  2  1  0  0  0  0
  1 21  1  0  0  0  0
  1 22  1  0  0  0  0
  2  3  1  0  0  0  0
  2 23  1  0  0  0  0
  3  4  1  0  0  0  0
  3 12  2  0  0  0  0
  4  5  2  0  0  0  0
  5  6  1  0  0  0  0
  5  7  1  0  0  0  0
  6 24  1  0  0  0  0
  7  8  1  0  0  0  0
  7 11  2  0  0  0  0
  8  9  2  0  0  0  0
  8 20  1  0  0  0  0
  9 10  1  0  0  0  0
  9 13  1  0  0  0  0
 10 11  1  0  0  0  0
 11 12  1  0  0  0  0
 13 14  1  0  0  0  0
 13 18  2  0  0  0  0
 14 15  2  0  0  0  0
 14 25  1  0  0  0  0
 15 16  1  0  0  0  0
 15 26  1  0  0  0  0
 16 17  2  0  0  0  0
 16 27  1  0  0  0  0
 17 18  1  0  0  0  0
 17 28  1  0  0  0  0
 18 19  1  0  0  0  0
 19 20  1  0  0  0  0
 19 29  1  0  0  0  0
 19 30  1  0  0  0  0
 20 31  1  0  0  0  0
 20 32  1  0  0  0  0
M  END
>  <Energy>
9.81311

$$$$

 OpenBabel04232616063D

 33 36  0  0  0  0  0  0  0  0999 V2000
    1.0083    0.0298    0.1668 O   0  0  0  0  0  0  0  0  0  0  0  0
    2.2348    0.0006    0.1680 C   0  0  0  0  0  0  0  0  0  0  0  0
    2.9332   -1.1692    0.1555 N   0  0  0  0  0  0  0  0  0  0  0  0
    4.2372   -1.2290    0.0924 C   0  0  0  0  0  0  0  0  0  0  0  0
    4.9411   -2.4744    0.0438 N   0  0  0  0  0  0  0  0  0  0  0  0
    4.1815   -3.7001    0.1482 C   0  0  0  0  0  0  0  0  0  0  0  0
    3.0041   -3.8987   -0.5983 C   0  0  0  0  0  0  0  0  0  0  0  0
    2.2411   -5.0652   -0.4716 C   0  0  0  0  0  0  0  0  0  0  0  0
    2.6629   -6.0848    0.3738 C   0  0  0  0  0  0  0  0  0  0  0  0
    3.8311   -5.9258    1.1109 C   0  0  0  0  0  0  0  0  0  0  0  0
    4.5668   -4.7369    1.0186 C   0  0  0  0  0  0  0  0  0  0  0  0
    6.3881   -2.4289   -0.0101 C   0  0  0  0  0  0  0  0  0  0  0  0
    7.1863   -3.5791   -0.1748 C   0  0  0  0  0  0  0  0  0  0  0  0
    8.5840   -3.5147   -0.1547 C   0  0  0  0  0  0  0  0  0  0  0  0
    9.2264   -2.2927   -0.0156 C   0  0  0  0  0  0  0  0  0  0  0  0
    8.4697   -1.1294    0.0750 C   0  0  0  0  0  0  0  0  0  0  0  0
    7.0659   -1.1915    0.0674 C   0  0  0  0  0  0  0  0  0  0  0  0
    6.3220    0.0631    0.0989 C   0  0  0  0  0  0  0  0  0  0  0  0
    4.9877    0.0594    0.0894 C   0  0  0  0  0  0  0  0  0  0  0  0
    4.2546    1.3330    0.1022 C   0  0  0  0  0  0  0  0  0  0  0  0
    4.7964    2.4305    0.0594 O   0  0  0  0  0  0  0  0  0  0  0  0
    2.9078    1.1868    0.1575 N   0  0  0  0  0  0  0  0  0  0  0  0
    2.6482   -3.1347   -1.2851 H   0  0  0  0  0  0  0  0  0  0  0  0
    1.3145   -5.1665   -1.0307 H   0  0  0  0  0  0  0  0  0  0  0  0
    2.0748   -6.9946    0.4661 H   0  0  0  0  0  0  0  0  0  0  0  0
    4.1652   -6.7201    1.7753 H   0  0  0  0  0  0  0  0  0  0  0  0
    5.4429   -4.6287    1.6537 H   0  0  0  0  0  0  0  0  0  0  0  0
    6.7394   -4.5574   -0.3346 H   0  0  0  0  0  0  0  0  0  0  0  0
    9.1694   -4.4268   -0.2541 H   0  0  0  0  0  0  0  0  0  0  0  0
   10.3119   -2.2405   -0.0008 H   0  0  0  0  0  0  0  0  0  0  0  0
    8.9842   -0.1733    0.1460 H   0  0  0  0  0  0  0  0  0  0  0  0
    6.8812    0.9946    0.1058 H   0  0  0  0  0  0  0  0  0  0  0  0
    2.3401    2.0184    0.1518 H   0  0  0  0  0  0  0  0  0  0  0  0
  1  2  2  0  0  0  0
  2  3  1  0  0  0  0
  2 22  1  0  0  0  0
  3  4  2  0  0  0  0
  4  5  1  0  0  0  0
  4 19  1  0  0  0  0
  5  6  1  0  0  0  0
  5 12  1  0  0  0  0
  6  7  1  0  0  0  0
  6 11  2  0  0  0  0
  7  8  2  0  0  0  0
  7 23  1  0  0  0  0
  8  9  1  0  0  0  0
  8 24  1  0  0  0  0
  9 10  2  0  0  0  0
  9 25  1  0  0  0  0
 10 11  1  0  0  0  0
 10 26  1  0  0  0  0
 11 27  1  0  0  0  0
 12 13  1  0  0  0  0
 12 17  2  0  0  0  0
 13 14  2  0  0  0  0
 13 28  1  0  0  0  0
 14 15  1  0  0  0  0
 14 29  1  0  0  0  0
 15 16  2  0  0  0  0
 15 30  1  0  0  0  0
 16 17  1  0  0  0  0
 16 31  1  0  0  0  0
 17 18  1  0  0  0  0
 18 19  2  0  0  0  0
 18 32  1  0  0  0  0
 19 20  1  0  0  0  0
 20 21  2  0  0  0  0
 20 22  1  0  0  0  0
 22 33  1  0  0  0  0
M  END
>  <Energy>
-50.4358

$$$$

 OpenBabel04232616063D

 32 33  0  0  0  0  0  0  0  0999 V2000
    2.8730    1.5302    0.1865 C   0  0  0  0  0  0  0  0  0  0  0  0
    2.6060    0.0164    0.0585 C   0  0  0  0  0  0  0  0  0  0  0  0
    1.0989   -0.1851   -0.1934 C   0  0  0  0  0  0  0  0  0  0  0  0
    3.3986   -0.5091   -1.1530 C   0  0  0  0  0  0  0  0  0  0  0  0
    3.0293   -0.6950    1.3353 C   0  0  0  0  0  0  0  0  0  0  0  0
    3.5354   -0.1101    2.4055 N   0  0  0  0  0  0  0  0  0  0  0  0
    3.7700   -1.0022    3.4356 N   0  0  0  0  0  0  0  0  0  0  0  0
    3.4839   -2.2382    3.0935 C   0  0  0  0  0  0  0  0  0  0  0  0
    3.6241   -3.3028    3.9544 N   0  0  0  0  0  0  0  0  0  0  0  0
    3.5974   -4.6272    3.5849 C   0  0  0  0  0  0  0  0  0  0  0  0
    3.4815   -5.0722    2.4471 O   0  0  0  0  0  0  0  0  0  0  0  0
    3.7902   -5.6135    4.6743 C   0  0  0  0  0  0  0  0  0  0  0  0
    3.3872   -5.4016    5.9955 C   0  0  0  0  0  0  0  0  0  0  0  0
    3.5895   -6.4154    6.9354 C   0  0  0  0  0  0  0  0  0  0  0  0
    4.1860   -7.5954    6.5159 C   0  0  0  0  0  0  0  0  0  0  0  0
    4.4592   -8.8850    7.6105 Cl  0  0  0  0  0  0  0  0  0  0  0  0
    4.5817   -7.8347    5.2517 N   0  0  0  0  0  0  0  0  0  0  0  0
    4.3640   -6.8410    4.3563 C   0  0  0  0  0  0  0  0  0  0  0  0
    2.8507   -2.3985    1.5231 S   0  0  0  0  0  0  0  0  0  0  0  0
    2.5686    2.0649   -0.7214 H   0  0  0  0  0  0  0  0  0  0  0  0
    3.9376    1.7356    0.3505 H   0  0  0  0  0  0  0  0  0  0  0  0
    2.3199    1.9650    1.0272 H   0  0  0  0  0  0  0  0  0  0  0  0
    0.7777    0.3349   -1.1030 H   0  0  0  0  0  0  0  0  0  0  0  0
    0.5013    0.1984    0.6418 H   0  0  0  0  0  0  0  0  0  0  0  0
    0.8429   -1.2430   -0.3213 H   0  0  0  0  0  0  0  0  0  0  0  0
    3.1055    0.0145   -2.0706 H   0  0  0  0  0  0  0  0  0  0  0  0
    3.2254   -1.5776   -1.3243 H   0  0  0  0  0  0  0  0  0  0  0  0
    4.4768   -0.3674   -1.0169 H   0  0  0  0  0  0  0  0  0  0  0  0
    3.9198   -3.0276    4.8808 H   0  0  0  0  0  0  0  0  0  0  0  0
    2.8892   -4.4870    6.3020 H   0  0  0  0  0  0  0  0  0  0  0  0
    3.2757   -6.2902    7.9663 H   0  0  0  0  0  0  0  0  0  0  0  0
    4.6787   -7.0694    3.3395 H   0  0  0  0  0  0  0  0  0  0  0  0
  1  2  1  0  0  0  0
  1 20  1  0  0  0  0
  1 21  1  0  0  0  0
  1 22  1  0  0  0  0
  2  3  1  0  0  0  0
  2  4  1  0  0  0  0
  2  5  1  0  0  0  0
  3 23  1  0  0  0  0
  3 24  1  0  0  0  0
  3 25  1  0  0  0  0
  4 26  1  0  0  0  0
  4 27  1  0  0  0  0
  4 28  1  0  0  0  0
  5  6  2  0  0  0  0
  5 19  1  0  0  0  0
  6  7  1  0  0  0  0
  7  8  2  0  0  0  0
  8  9  1  0  0  0  0
  8 19  1  0  0  0  0
  9 10  1  0  0  0  0
  9 29  1  0  0  0  0
 10 11  2  0  0  0  0
 10 12  1  0  0  0  0
 12 13  1  0  0  0  0
 12 18  2  0  0  0  0
 13 14  2  0  0  0  0
 13 30  1  0  0  0  0
 14 15  1  0  0  0  0
 14 31  1  0  0  0  0
 15 16  1  0  0  0  0
 15 17  2  0  0  0  0
 17 18  1  0  0  0  0
 18 32  1  0  0  0  0
M  END
>  <Energy>
11.4776

$$$$

 OpenBabel04232616063D

 32 35  0  0  1  0  0  0  0  0999 V2000
   -1.8588   -0.0817    1.4117 Cl  0  0  0  0  0  0  0  0  0  0  0  0
   -0.3184   -0.0559    0.6269 C   0  0  0  0  0  0  0  0  0  0  0  0
    0.3901    1.1505    0.6186 C   0  0  0  0  0  0  0  0  0  0  0  0
    1.6395    1.2274    0.0017 C   0  0  0  0  0  0  0  0  0  0  0  0
    2.1887    0.0975   -0.5995 C   0  0  0  0  0  0  0  0  0  0  0  0
    1.4844   -1.1082   -0.5936 C   0  0  0  0  0  0  0  0  0  0  0  0
    0.2201   -1.1979    0.0131 C   0  0  0  0  0  0  0  0  0  0  0  0
   -0.4925   -2.4813   -0.0757 C   0  0  0  0  0  0  0  0  0  0  0  0
   -1.3534   -2.7025   -1.0865 C   0  0  0  0  0  0  0  0  0  0  0  0
   -2.0538   -4.0461   -1.2481 C   0  0  3  0  0  0  0  0  0  0  0  0
   -1.8461   -4.6292   -2.6135 C   0  0  0  0  0  0  0  0  0  0  0  0
   -0.9175   -5.4918   -3.1667 C   0  0  0  0  0  0  0  0  0  0  0  0
   -1.2617   -5.6313   -4.5320 C   0  0  0  0  0  0  0  0  0  0  0  0
   -2.3698   -4.8411   -4.7326 C   0  0  0  0  0  0  0  0  0  0  0  0
   -2.7265   -4.2224   -3.5785 O   0  0  0  0  0  0  0  0  0  0  0  0
   -1.6372   -4.9928   -0.2050 N   0  0  0  0  0  0  0  0  0  0  0  0
   -2.0912   -6.2615   -0.0865 N   0  0  0  0  0  0  0  0  0  0  0  0
   -1.4049   -6.6719    0.9857 C   0  0  0  0  0  0  0  0  0  0  0  0
   -0.5851   -5.7389    1.5648 N   0  0  0  0  0  0  0  0  0  0  0  0
   -0.7548   -4.6884    0.8020 C   0  0  0  0  0  0  0  0  0  0  0  0
   -0.2133   -3.4564    0.8572 N   0  0  0  0  0  0  0  0  0  0  0  0
   -0.0297    2.0374    1.0872 H   0  0  0  0  0  0  0  0  0  0  0  0
    2.1833    2.1692   -0.0108 H   0  0  0  0  0  0  0  0  0  0  0  0
    3.1623    0.1550   -1.0810 H   0  0  0  0  0  0  0  0  0  0  0  0
    1.9219   -1.9800   -1.0776 H   0  0  0  0  0  0  0  0  0  0  0  0
   -1.5589   -1.9429   -1.8350 H   0  0  0  0  0  0  0  0  0  0  0  0
   -3.1275   -3.8928   -1.0780 H   0  0  0  0  0  0  0  0  0  0  0  0
   -0.1012   -5.9702   -2.6423 H   0  0  0  0  0  0  0  0  0  0  0  0
   -0.7662   -6.2375   -5.2779 H   0  0  0  0  0  0  0  0  0  0  0  0
   -2.9865   -4.6261   -5.5914 H   0  0  0  0  0  0  0  0  0  0  0  0
   -1.5024   -7.6838    1.3581 H   0  0  0  0  0  0  0  0  0  0  0  0
    0.4121   -3.2167    1.6200 H   0  0  0  0  0  0  0  0  0  0  0  0
  1  2  1  0  0  0  0
  2  3  1  0  0  0  0
  2  7  2  0  0  0  0
  3  4  2  0  0  0  0
  3 22  1  0  0  0  0
  4  5  1  0  0  0  0
  4 23  1  0  0  0  0
  5  6  2  0  0  0  0
  5 24  1  0  0  0  0
  6  7  1  0  0  0  0
  6 25  1  0  0  0  0
  7  8  1  0  0  0  0
  8  9  2  0  0  0  0
  8 21  1  0  0  0  0
  9 10  1  0  0  0  0
  9 26  1  0  0  0  0
 10 11  1  0  0  0  0
 10 16  1  0  0  0  0
 10 27  1  0  0  0  0
 11 12  2  0  0  0  0
 11 15  1  0  0  0  0
 12 13  1  0  0  0  0
 12 28  1  0  0  0  0
 13 14  2  0  0  0  0
 13 29  1  0  0  0  0
 14 15  1  0  0  0  0
 14 30  1  0  0  0  0
 16 17  1  0  0  0  0
 16 20  1  0  0  0  0
 17 18  2  0  0  0  0
 18 19  1  0  0  0  0
 18 31  1  0  0  0  0
 19 20  2  0  0  0  0
 20 21  1  0  0  0  0
 21 32  1  0  0  0  0
M  END
>  <Energy>
48.5706

$$$$

 OpenBabel04232616063D

 37 40  0  0  0  0  0  0  0  0999 V2000
    1.3154   -0.0176   -0.0009 C   0  0  0  0  0  0  0  0  0  0  0  0
    2.8139    0.0790    0.0784 C   0  0  0  0  0  0  0  0  0  0  0  0
    3.4411    1.2999   -0.1874 C   0  0  0  0  0  0  0  0  0  0  0  0
    4.8366    1.4612   -0.0043 C   0  0  0  0  0  0  0  0  0  0  0  0
    5.5198    2.6766   -0.0726 C   0  0  0  0  0  0  0  0  0  0  0  0
    4.8436    3.8861   -0.2988 N   0  0  0  0  0  0  0  0  0  0  0  0
    6.8398    2.7927    0.1125 N   0  0  0  0  0  0  0  0  0  0  0  0
    7.5002    1.6729    0.4084 C   0  0  0  0  0  0  0  0  0  0  0  0
    8.8575    1.7747    0.6300 N   0  0  0  0  0  0  0  0  0  0  0  0
    6.9559    0.4617    0.5070 N   0  0  0  0  0  0  0  0  0  0  0  0
    5.6337    0.3630    0.3250 C   0  0  0  0  0  0  0  0  0  0  0  0
    5.0116   -0.8526    0.5548 C   0  0  0  0  0  0  0  0  0  0  0  0
    3.6138   -0.9928    0.5081 C   0  0  0  0  0  0  0  0  0  0  0  0
    3.0303   -2.1236    1.2057 C   0  0  0  0  0  0  0  0  0  0  0  0
    2.2601   -3.1208    0.6513 C   0  0  0  0  0  0  0  0  0  0  0  0
    1.7900   -3.9010    1.6819 N   0  0  0  0  0  0  0  0  0  0  0  0
    2.2244   -3.4122    2.8953 C   0  0  0  0  0  0  0  0  0  0  0  0
    1.9543   -3.8316    4.2036 C   0  0  0  0  0  0  0  0  0  0  0  0
    2.5494   -3.1172    5.2518 C   0  0  0  0  0  0  0  0  0  0  0  0
    3.3865   -2.0325    5.0042 C   0  0  0  0  0  0  0  0  0  0  0  0
    3.6341   -1.6202    3.6948 C   0  0  0  0  0  0  0  0  0  0  0  0
    3.0392   -2.3170    2.6218 C   0  0  0  0  0  0  0  0  0  0  0  0
    0.8731    0.9151   -0.3674 H   0  0  0  0  0  0  0  0  0  0  0  0
    0.8881   -0.2172    0.9870 H   0  0  0  0  0  0  0  0  0  0  0  0
    1.0198   -0.8087   -0.6972 H   0  0  0  0  0  0  0  0  0  0  0  0
    2.8406    2.1601   -0.4828 H   0  0  0  0  0  0  0  0  0  0  0  0
    4.1184    4.0182    0.3990 H   0  0  0  0  0  0  0  0  0  0  0  0
    5.5439    4.6220   -0.2342 H   0  0  0  0  0  0  0  0  0  0  0  0
    9.2218    2.5919    0.1624 H   0  0  0  0  0  0  0  0  0  0  0  0
    9.3011    0.8876    0.4385 H   0  0  0  0  0  0  0  0  0  0  0  0
    5.6231   -1.6907    0.8881 H   0  0  0  0  0  0  0  0  0  0  0  0
    1.9802   -3.3317   -0.3713 H   0  0  0  0  0  0  0  0  0  0  0  0
    1.1780   -4.6981    1.5749 H   0  0  0  0  0  0  0  0  0  0  0  0
    1.2976   -4.6702    4.4093 H   0  0  0  0  0  0  0  0  0  0  0  0
    2.3528   -3.4105    6.2801 H   0  0  0  0  0  0  0  0  0  0  0  0
    3.8434   -1.4922    5.8293 H   0  0  0  0  0  0  0  0  0  0  0  0
    4.2753   -0.7629    3.5054 H   0  0  0  0  0  0  0  0  0  0  0  0
  1  2  1  0  0  0  0
  1 23  1  0  0  0  0
  1 24  1  0  0  0  0
  1 25  1  0  0  0  0
  2  3  1  0  0  0  0
  2 13  2  0  0  0  0
  3  4  2  0  0  0  0
  3 26  1  0  0  0  0
  4  5  1  0  0  0  0
  4 11  1  0  0  0  0
  5  6  1  0  0  0  0
  5  7  2  0  0  0  0
  6 27  1  0  0  0  0
  6 28  1  0  0  0  0
  7  8  1  0  0  0  0
  8  9  1  0  0  0  0
  8 10  2  0  0  0  0
  9 29  1  0  0  0  0
  9 30  1  0  0  0  0
 10 11  1  0  0  0  0
 11 12  2  0  0  0  0
 12 13  1  0  0  0  0
 12 31  1  0  0  0  0
 13 14  1  0  0  0  0
 14 15  2  0  0  0  0
 14 22  1  0  0  0  0
 15 16  1  0  0  0  0
 15 32  1  0  0  0  0
 16 17  1  0  0  0  0
 16 33  1  0  0  0  0
 17 18  1  0  0  0  0
 17 22  2  0  0  0  0
 18 19  2  0  0  0  0
 18 34  1  0  0  0  0
 19 20  1  0  0  0  0
 19 35  1  0  0  0  0
 20 21  2  0  0  0  0
 20 36  1  0  0  0  0
 21 22  1  0  0  0  0
 21 37  1  0  0  0  0
M  END
>  <Energy>
-84.2761

$$$$

 OpenBabel04232616063D

 30 33  0  0  0  0  0  0  0  0999 V2000
    0.9413    0.0092    0.0266 O   0  0  0  0  0  0  0  0  0  0  0  0
    2.1665   -0.0036    0.0901 C   0  0  0  0  0  0  0  0  0  0  0  0
    2.8784   -1.1676    0.1217 N   0  0  0  0  0  0  0  0  0  0  0  0
    4.1837   -1.1901    0.1530 C   0  0  0  0  0  0  0  0  0  0  0  0
    4.8904   -2.4112    0.1983 N   0  0  0  0  0  0  0  0  0  0  0  0
    4.1260   -3.6209   -0.2140 C   0  0  0  0  0  0  0  0  0  0  0  0
    2.9206   -4.0820    0.5778 C   0  0  0  0  0  0  0  0  0  0  0  0
    4.1292   -4.9526    0.4941 C   0  0  0  0  0  0  0  0  0  0  0  0
    6.3240   -2.3977    0.1419 C   0  0  0  0  0  0  0  0  0  0  0  0
    7.0985   -3.5682    0.1523 C   0  0  0  0  0  0  0  0  0  0  0  0
    8.4948   -3.5058    0.1019 C   0  0  0  0  0  0  0  0  0  0  0  0
    9.4161   -4.9598    0.1381 Cl  0  0  0  0  0  0  0  0  0  0  0  0
    9.1519   -2.2832    0.0265 C   0  0  0  0  0  0  0  0  0  0  0  0
    8.4079   -1.1074    0.0199 C   0  0  0  0  0  0  0  0  0  0  0  0
    7.0074   -1.1581    0.0882 C   0  0  0  0  0  0  0  0  0  0  0  0
    6.2604    0.0997    0.0887 C   0  0  0  0  0  0  0  0  0  0  0  0
    4.9235    0.1002    0.1273 C   0  0  0  0  0  0  0  0  0  0  0  0
    4.1726    1.3606    0.1013 C   0  0  0  0  0  0  0  0  0  0  0  0
    4.7015    2.4658    0.0460 O   0  0  0  0  0  0  0  0  0  0  0  0
    2.8266    1.1906    0.1245 N   0  0  0  0  0  0  0  0  0  0  0  0
    4.0179   -3.6501   -1.2972 H   0  0  0  0  0  0  0  0  0  0  0  0
    2.0335   -4.3516    0.0168 H   0  0  0  0  0  0  0  0  0  0  0  0
    2.7105   -3.6062    1.5291 H   0  0  0  0  0  0  0  0  0  0  0  0
    4.0575   -5.8455   -0.1178 H   0  0  0  0  0  0  0  0  0  0  0  0
    4.7016   -5.0801    1.4038 H   0  0  0  0  0  0  0  0  0  0  0  0
    6.6367   -4.5461    0.2143 H   0  0  0  0  0  0  0  0  0  0  0  0
   10.2368   -2.2376   -0.0237 H   0  0  0  0  0  0  0  0  0  0  0  0
    8.9289   -0.1537   -0.0393 H   0  0  0  0  0  0  0  0  0  0  0  0
    6.8185    1.0316    0.0472 H   0  0  0  0  0  0  0  0  0  0  0  0
    2.2455    2.0149    0.0785 H   0  0  0  0  0  0  0  0  0  0  0  0
  1  2  2  0  0  0  0
  2  3  1  0  0  0  0
  2 20  1  0  0  0  0
  3  4  2  0  0  0  0
  4  5  1  0  0  0  0
  4 17  1  0  0  0  0
  5  6  1  0  0  0  0
  5  9  1  0  0  0  0
  6  7  1  0  0  0  0
  6  8  1  0  0  0  0
  6 21  1  0  0  0  0
  7  8  1  0  0  0  0
  7 22  1  0  0  0  0
  7 23  1  0  0  0  0
  8 24  1  0  0  0  0
  8 25  1  0  0  0  0
  9 10  1  0  0  0  0
  9 15  2  0  0  0  0
 10 11  2  0  0  0  0
 10 26  1  0  0  0  0
 11 12  1  0  0  0  0
 11 13  1  0  0  0  0
 13 14  2  0  0  0  0
 13 27  1  0  0  0  0
 14 15  1  0  0  0  0
 14 28  1  0  0  0  0
 15 16  1  0  0  0  0
 16 17  2  0  0  0  0
 16 29  1  0  0  0  0
 17 18  1  0  0  0  0
 18 19  2  0  0  0  0
 18 20  1  0  0  0  0
 20 30  1  0  0  0  0
M  END
>  <Energy>
-76.9237

$$$$

 OpenBabel04232616063D

 31 34  0  0  0  0  0  0  0  0999 V2000
   -2.3271    1.8620   -0.0003 O   0  0  0  0  0  0  0  0  0  0  0  0
   -1.8578    0.7301    0.0007 C   0  0  0  0  0  0  0  0  0  0  0  0
   -2.7080   -0.4880   -0.0170 C   0  0  0  0  0  0  0  0  0  0  0  0
   -4.1726   -0.4081   -0.0365 C   0  0  0  0  0  0  0  0  0  0  0  0
   -4.8586   -0.3658   -1.2713 C   0  0  0  0  0  0  0  0  0  0  0  0
   -6.2550   -0.2930   -1.3134 C   0  0  0  0  0  0  0  0  0  0  0  0
   -6.9304   -0.2614   -0.1132 C   0  0  0  0  0  0  0  0  0  0  0  0
   -6.2688   -0.3056    1.0918 C   0  0  0  0  0  0  0  0  0  0  0  0
   -4.8933   -0.3829    1.1664 C   0  0  0  0  0  0  0  0  0  0  0  0
   -7.1205   -0.2622    2.1517 O   0  0  0  0  0  0  0  0  0  0  0  0
   -8.3890   -0.1368    1.4753 C   0  0  0  0  0  0  0  0  0  0  0  0
   -8.2795   -0.1830    0.0375 O   0  0  0  0  0  0  0  0  0  0  0  0
   -2.0934   -1.6795   -0.0239 C   0  0  0  0  0  0  0  0  0  0  0  0
   -0.7363   -1.8983   -0.0217 O   0  0  0  0  0  0  0  0  0  0  0  0
    0.0867   -0.7992   -0.0079 C   0  0  0  0  0  0  0  0  0  0  0  0
    1.4624   -1.0363   -0.0167 C   0  0  0  0  0  0  0  0  0  0  0  0
    2.3379    0.0466   -0.0001 C   0  0  0  0  0  0  0  0  0  0  0  0
    3.6893   -0.1319   -0.0172 O   0  0  0  0  0  0  0  0  0  0  0  0
    1.8613    1.3544    0.0324 C   0  0  0  0  0  0  0  0  0  0  0  0
    0.4859    1.5902    0.0377 C   0  0  0  0  0  0  0  0  0  0  0  0
   -0.4002    0.5080    0.0129 C   0  0  0  0  0  0  0  0  0  0  0  0
   -4.3020   -0.3768   -2.2066 H   0  0  0  0  0  0  0  0  0  0  0  0
   -6.7885   -0.2524   -2.2563 H   0  0  0  0  0  0  0  0  0  0  0  0
   -4.3973   -0.4084    2.1303 H   0  0  0  0  0  0  0  0  0  0  0  0
   -8.8462    0.8178    1.7615 H   0  0  0  0  0  0  0  0  0  0  0  0
   -9.0437   -0.9520    1.8034 H   0  0  0  0  0  0  0  0  0  0  0  0
   -2.6177   -2.6278   -0.0362 H   0  0  0  0  0  0  0  0  0  0  0  0
    1.8298   -2.0570   -0.0370 H   0  0  0  0  0  0  0  0  0  0  0  0
    3.8843   -1.0820   -0.0750 H   0  0  0  0  0  0  0  0  0  0  0  0
    2.5591    2.1879    0.0497 H   0  0  0  0  0  0  0  0  0  0  0  0
    0.1098    2.6108    0.0585 H   0  0  0  0  0  0  0  0  0  0  0  0
  1  2  2  0  0  0  0
  2  3  1  0  0  0  0
  2 21  1  0  0  0  0
  3  4  1  0  0  0  0
  3 13  2  0  0  0  0
  4  5  1  0  0  0  0
  4  9  2  0  0  0  0
  5  6  2  0  0  0  0
  5 22  1  0  0  0  0
  6  7  1  0  0  0  0
  6 23  1  0  0  0  0
  7  8  2  0  0  0  0
  7 12  1  0  0  0  0
  8  9  1  0  0  0  0
  8 10  1  0  0  0  0
  9 24  1  0  0  0  0
 10 11  1  0  0  0  0
 11 12  1  0  0  0  0
 11 25  1  0  0  0  0
 11 26  1  0  0  0  0
 13 14  1  0  0  0  0
 13 27  1  0  0  0  0
 14 15  1  0  0  0  0
 15 16  1  0  0  0  0
 15 21  2  0  0  0  0
 16 17  2  0  0  0  0
 16 28  1  0  0  0  0
 17 18  1  0  0  0  0
 17 19  1  0  0  0  0
 18 29  1  0  0  0  0
 19 20  2  0  0  0  0
 19 30  1  0  0  0  0
 20 21  1  0  0  0  0
 20 31  1  0  0  0  0
M  END
>  <Energy>
54.7986

$$$$

 OpenBabel04232616063D

 30 32  0  0  0  0  0  0  0  0999 V2000
    2.2252   -0.2582    0.7154 C   0  0  0  0  0  0  0  0  0  0  0  0
    0.7790   -0.3517    0.3651 C   0  0  0  0  0  0  0  0  0  0  0  0
    0.1231   -1.3690   -0.2937 C   0  0  0  0  0  0  0  0  0  0  0  0
   -1.2625   -1.0895   -0.4730 C   0  0  0  0  0  0  0  0  0  0  0  0
   -1.6353    0.1356    0.0510 C   0  0  0  0  0  0  0  0  0  0  0  0
   -2.9222    0.7640    0.0271 C   0  0  0  0  0  0  0  0  0  0  0  0
   -3.7293    0.5008    1.0703 C   0  0  0  0  0  0  0  0  0  0  0  0
   -5.0865    1.0672    1.1763 C   0  0  0  0  0  0  0  0  0  0  0  0
   -5.8026    0.7987    2.1345 O   0  0  0  0  0  0  0  0  0  0  0  0
   -5.4917    1.8865    0.1663 N   0  0  0  0  0  0  0  0  0  0  0  0
   -4.7196    2.2053   -0.9666 C   0  0  0  0  0  0  0  0  0  0  0  0
   -5.1906    3.0451   -1.9980 C   0  0  0  0  0  0  0  0  0  0  0  0
   -6.5293    3.6563   -1.9569 N   0  3  0  0  0  0  0  0  0  0  0  0
   -7.2563    3.4144   -0.9835 O   0  0  0  0  0  0  0  0  0  0  0  0
   -6.8601    4.3823   -2.9051 O   0  5  0  0  0  0  0  0  0  0  0  0
   -4.3812    3.3197   -3.1142 C   0  0  0  0  0  0  0  0  0  0  0  0
   -3.1109    2.7581   -3.2057 C   0  0  0  0  0  0  0  0  0  0  0  0
   -2.6399    1.9283   -2.1878 C   0  0  0  0  0  0  0  0  0  0  0  0
   -3.4287    1.6447   -1.0596 C   0  0  0  0  0  0  0  0  0  0  0  0
   -0.2884    0.9185    0.7819 S   0  0  0  0  0  0  0  0  0  0  0  0
    2.7631   -1.1576    0.3966 H   0  0  0  0  0  0  0  0  0  0  0  0
    2.3631   -0.1518    1.7964 H   0  0  0  0  0  0  0  0  0  0  0  0
    2.6881    0.5999    0.2166 H   0  0  0  0  0  0  0  0  0  0  0  0
    0.6140   -2.2704   -0.6418 H   0  0  0  0  0  0  0  0  0  0  0  0
   -1.9550   -1.7543   -0.9759 H   0  0  0  0  0  0  0  0  0  0  0  0
   -3.4358   -0.1388    1.8959 H   0  0  0  0  0  0  0  0  0  0  0  0
   -6.4316    2.2702    0.2619 H   0  0  0  0  0  0  0  0  0  0  0  0
   -4.7255    3.9656   -3.9207 H   0  0  0  0  0  0  0  0  0  0  0  0
   -2.4841    2.9658   -4.0710 H   0  0  0  0  0  0  0  0  0  0  0  0
   -1.6417    1.5054   -2.2909 H   0  0  0  0  0  0  0  0  0  0  0  0
  1  2  1  0  0  0  0
  1 21  1  0  0  0  0
  1 22  1  0  0  0  0
  1 23  1  0  0  0  0
  2  3  2  0  0  0  0
  2 20  1  0  0  0  0
  3  4  1  0  0  0  0
  3 24  1  0  0  0  0
  4  5  2  0  0  0  0
  4 25  1  0  0  0  0
  5  6  1  0  0  0  0
  5 20  1  0  0  0  0
  6  7  2  0  0  0  0
  6 19  1  0  0  0  0
  7  8  1  0  0  0  0
  7 26  1  0  0  0  0
  8  9  2  0  0  0  0
  8 10  1  0  0  0  0
 10 11  1  0  0  0  0
 10 27  1  0  0  0  0
 11 12  1  0  0  0  0
 11 19  2  0  0  0  0
 12 13  1  0  0  0  0
 12 16  2  0  0  0  0
 13 14  2  0  0  0  0
 13 15  1  0  0  0  0
 16 17  1  0  0  0  0
 16 28  1  0  0  0  0
 17 18  2  0  0  0  0
 17 29  1  0  0  0  0
 18 19  1  0  0  0  0
 18 30  1  0  0  0  0
M  CHG  2  13   1  15  -1
M  END
>  <Energy>
39.1988

$$$$

 OpenBabel04232616063D

 36 39  0  0  0  0  0  0  0  0999 V2000
    0.9487   -0.0649   -0.0452 O   0  0  0  0  0  0  0  0  0  0  0  0
    2.3108   -0.0844   -0.0522 C   0  0  0  0  0  0  0  0  0  0  0  0
    3.0105   -1.2614    0.1918 C   0  0  0  0  0  0  0  0  0  0  0  0
    4.4153   -1.2532    0.1763 C   0  0  0  0  0  0  0  0  0  0  0  0
    5.1357   -0.0622   -0.0663 C   0  0  0  0  0  0  0  0  0  0  0  0
    4.3933    1.1097   -0.3195 C   0  0  0  0  0  0  0  0  0  0  0  0
    3.0005    1.0970   -0.3054 C   0  0  0  0  0  0  0  0  0  0  0  0
    2.2937    2.2425   -0.5332 O   0  0  0  0  0  0  0  0  0  0  0  0
    6.6122   -0.0627   -0.0214 C   0  0  0  0  0  0  0  0  0  0  0  0
    7.3879    1.0979    0.1247 C   0  0  0  0  0  0  0  0  0  0  0  0
    8.7790    1.0327    0.1799 C   0  0  0  0  0  0  0  0  0  0  0  0
    9.5660    2.1920    0.3110 C   0  0  0  0  0  0  0  0  0  0  0  0
   10.9585    2.1091    0.3738 C   0  0  0  0  0  0  0  0  0  0  0  0
   11.5623    0.8627    0.3084 C   0  0  0  0  0  0  0  0  0  0  0  0
   12.9172    0.7107    0.3727 O   0  0  0  0  0  0  0  0  0  0  0  0
   10.7908   -0.2909    0.1736 C   0  0  0  0  0  0  0  0  0  0  0  0
   11.4200   -1.5068    0.1134 O   0  0  0  0  0  0  0  0  0  0  0  0
    9.3947   -0.2251    0.1041 C   0  0  0  0  0  0  0  0  0  0  0  0
    8.5899   -1.3583   -0.0394 C   0  0  0  0  0  0  0  0  0  0  0  0
    7.2394   -1.2719   -0.0979 N   0  3  0  0  0  0  0  0  0  0  0  0
    6.4689   -2.5232   -0.3269 C   0  0  0  0  0  0  0  0  0  0  0  0
    5.1821   -2.5111    0.4770 C   0  0  0  0  0  0  0  0  0  0  0  0
    0.5949   -0.9474    0.1502 H   0  0  0  0  0  0  0  0  0  0  0  0
    2.4692   -2.1817    0.3966 H   0  0  0  0  0  0  0  0  0  0  0  0
    4.8890    2.0526   -0.5331 H   0  0  0  0  0  0  0  0  0  0  0  0
    2.8855    3.0007   -0.6544 H   0  0  0  0  0  0  0  0  0  0  0  0
    6.9116    2.0718    0.2152 H   0  0  0  0  0  0  0  0  0  0  0  0
    9.1008    3.1765    0.3634 H   0  0  0  0  0  0  0  0  0  0  0  0
   11.5433    3.0194    0.4741 H   0  0  0  0  0  0  0  0  0  0  0  0
   13.3296    1.5889    0.4702 H   0  0  0  0  0  0  0  0  0  0  0  0
   12.3775   -1.2989    0.1921 H   0  0  0  0  0  0  0  0  0  0  0  0
    9.0311   -2.3514   -0.1190 H   0  0  0  0  0  0  0  0  0  0  0  0
    7.0848   -3.3788   -0.0321 H   0  0  0  0  0  0  0  0  0  0  0  0
    6.2862   -2.5718   -1.4067 H   0  0  0  0  0  0  0  0  0  0  0  0
    5.3990   -2.5418    1.5518 H   0  0  0  0  0  0  0  0  0  0  0  0
    4.5915   -3.3984    0.2240 H   0  0  0  0  0  0  0  0  0  0  0  0
  1  2  1  0  0  0  0
  1 23  1  0  0  0  0
  2  3  1  0  0  0  0
  2  7  2  0  0  0  0
  3  4  2  0  0  0  0
  3 24  1  0  0  0  0
  4  5  1  0  0  0  0
  4 22  1  0  0  0  0
  5  6  2  0  0  0  0
  5  9  1  0  0  0  0
  6  7  1  0  0  0  0
  6 25  1  0  0  0  0
  7  8  1  0  0  0  0
  8 26  1  0  0  0  0
  9 10  1  0  0  0  0
  9 20  2  0  0  0  0
 10 11  2  0  0  0  0
 10 27  1  0  0  0  0
 11 12  1  0  0  0  0
 11 18  1  0  0  0  0
 12 13  2  0  0  0  0
 12 28  1  0  0  0  0
 13 14  1  0  0  0  0
 13 29  1  0  0  0  0
 14 15  1  0  0  0  0
 14 16  2  0  0  0  0
 15 30  1  0  0  0  0
 16 17  1  0  0  0  0
 16 18  1  0  0  0  0
 17 31  1  0  0  0  0
 18 19  2  0  0  0  0
 19 20  1  0  0  0  0
 19 32  1  0  0  0  0
 20 21  1  0  0  0  0
 21 22  1  0  0  0  0
 21 33  1  0  0  0  0
 21 34  1  0  0  0  0
 22 35  1  0  0  0  0
 22 36  1  0  0  0  0
M  CHG  1  20   1
M  END
>  <Energy>
65.6208

$$$$

 OpenBabel04232616063D

 34 37  0  0  0  0  0  0  0  0999 V2000
    1.1091    0.2085    0.0362 C   0  0  0  0  0  0  0  0  0  0  0  0
    2.6087    0.1659    0.0669 C   0  0  0  0  0  0  0  0  0  0  0  0
    3.3787    1.3283    0.1379 C   0  0  0  0  0  0  0  0  0  0  0  0
    4.7748    1.2461    0.1719 C   0  0  0  0  0  0  0  0  0  0  0  0
    5.4190   -0.0086    0.1138 C   0  0  0  0  0  0  0  0  0  0  0  0
    4.6355   -1.1917    0.0338 C   0  0  0  0  0  0  0  0  0  0  0  0
    3.2562   -1.0769    0.0248 C   0  0  0  0  0  0  0  0  0  0  0  0
    5.1563   -2.4361   -0.0468 N   0  0  0  0  0  0  0  0  0  0  0  0
    6.4978   -2.5695   -0.0767 C   0  0  0  0  0  0  0  0  0  0  0  0
    7.3087   -1.4754   -0.0046 C   0  0  0  0  0  0  0  0  0  0  0  0
    8.7467   -1.3832   -0.1010 C   0  0  0  0  0  0  0  0  0  0  0  0
    9.4370   -2.3757   -0.2231 O   0  0  0  0  0  0  0  0  0  0  0  0
    9.0383   -0.0205   -0.0226 N   0  0  0  0  0  0  0  0  0  0  0  0
   10.3088    0.5346   -0.0678 C   0  0  0  0  0  0  0  0  0  0  0  0
   10.7430    1.7792    0.3447 C   0  0  0  0  0  0  0  0  0  0  0  0
   12.1608    1.9639    0.1624 C   0  0  0  0  0  0  0  0  0  0  0  0
   12.9505    3.1509    0.5998 C   0  0  0  0  0  0  0  0  0  0  0  0
   12.7166    0.8729   -0.4751 C   0  0  0  0  0  0  0  0  0  0  0  0
   11.5834   -0.3623   -0.7635 S   0  0  0  0  0  0  0  0  0  0  0  0
    7.8487    0.7732    0.2158 N   0  0  0  0  0  0  0  0  0  0  0  0
    6.8064   -0.1924    0.1097 C   0  0  0  0  0  0  0  0  0  0  0  0
    0.7335    1.2361    0.0280 H   0  0  0  0  0  0  0  0  0  0  0  0
    0.7008   -0.2957    0.9185 H   0  0  0  0  0  0  0  0  0  0  0  0
    0.7358   -0.2924   -0.8638 H   0  0  0  0  0  0  0  0  0  0  0  0
    2.8978    2.3039    0.1650 H   0  0  0  0  0  0  0  0  0  0  0  0
    5.3539    2.1646    0.2317 H   0  0  0  0  0  0  0  0  0  0  0  0
    2.6647   -1.9889   -0.0279 H   0  0  0  0  0  0  0  0  0  0  0  0
    6.8888   -3.5755   -0.1719 H   0  0  0  0  0  0  0  0  0  0  0  0
   10.0964    2.5048    0.8226 H   0  0  0  0  0  0  0  0  0  0  0  0
   12.3432    3.8429    1.1900 H   0  0  0  0  0  0  0  0  0  0  0  0
   13.3472    3.6879   -0.2677 H   0  0  0  0  0  0  0  0  0  0  0  0
   13.7963    2.8319    1.2200 H   0  0  0  0  0  0  0  0  0  0  0  0
   13.7486    0.7290   -0.7664 H   0  0  0  0  0  0  0  0  0  0  0  0
    7.7408    1.4894   -0.5033 H   0  0  0  0  0  0  0  0  0  0  0  0
  1  2  1  0  0  0  0
  1 22  1  0  0  0  0
  1 23  1  0  0  0  0
  1 24  1  0  0  0  0
  2  3  1  0  0  0  0
  2  7  2  0  0  0  0
  3  4  2  0  0  0  0
  3 25  1  0  0  0  0
  4  5  1  0  0  0  0
  4 26  1  0  0  0  0
  5  6  1  0  0  0  0
  5 21  2  0  0  0  0
  6  7  1  0  0  0  0
  6  8  2  0  0  0  0
  7 27  1  0  0  0  0
  8  9  1  0  0  0  0
  9 10  2  0  0  0  0
  9 28  1  0  0  0  0
 10 11  1  0  0  0  0
 10 21  1  0  0  0  0
 11 12  2  0  0  0  0
 11 13  1  0  0  0  0
 13 14  1  0  0  0  0
 13 20  1  0  0  0  0
 14 15  2  0  0  0  0
 14 19  1  0  0  0  0
 15 16  1  0  0  0  0
 15 29  1  0  0  0  0
 16 17  1  0  0  0  0
 16 18  2  0  0  0  0
 17 30  1  0  0  0  0
 17 31  1  0  0  0  0
 17 32  1  0  0  0  0
 18 19  1  0  0  0  0
 18 33  1  0  0  0  0
 20 21  1  0  0  0  0
 20 34  1  0  0  0  0
M  END
>  <Energy>
93.4365

$$$$

 OpenBabel04232616063D

 36 38  0  0  0  0  0  0  0  0999 V2000
    0.8659   -0.1579   -0.6612 C   0  0  0  0  0  0  0  0  0  0  0  0
    2.2061    0.2773   -0.4592 O   0  0  0  0  0  0  0  0  0  0  0  0
    2.7519    1.0569   -1.4442 C   0  0  0  0  0  0  0  0  0  0  0  0
    2.1285    1.3944   -2.6465 C   0  0  0  0  0  0  0  0  0  0  0  0
    2.7973    2.1821   -3.5811 C   0  0  0  0  0  0  0  0  0  0  0  0
    4.0953    2.6204   -3.3237 C   0  0  0  0  0  0  0  0  0  0  0  0
    4.7334    2.2956   -2.1222 C   0  0  0  0  0  0  0  0  0  0  0  0
    6.0220    2.7670   -1.8124 N   0  0  0  0  0  0  0  0  0  0  0  0
    6.9378    3.2161   -2.7422 C   0  0  0  0  0  0  0  0  0  0  0  0
    6.9075    3.1022   -3.9614 O   0  0  0  0  0  0  0  0  0  0  0  0
    8.0019    3.9189   -2.1293 N   0  0  0  0  0  0  0  0  0  0  0  0
    7.9701    4.2126   -0.7875 N   0  0  0  0  0  0  0  0  0  0  0  0
    8.8533    5.2112   -0.6777 C   0  0  0  0  0  0  0  0  0  0  0  0
    9.5469    5.4836   -1.8807 C   0  0  0  0  0  0  0  0  0  0  0  0
   10.4985    6.4310   -2.3252 C   0  0  0  0  0  0  0  0  0  0  0  0
   10.9213    7.6355   -1.5320 C   0  0  0  0  0  0  0  0  0  0  0  0
   11.0244    6.2666   -3.6249 C   0  0  0  0  0  0  0  0  0  0  0  0
   10.6115    5.2294   -4.4580 C   0  0  0  0  0  0  0  0  0  0  0  0
    9.6137    4.3477   -4.0520 C   0  0  0  0  0  0  0  0  0  0  0  0
    9.0827    4.5148   -2.7648 C   0  0  0  0  0  0  0  0  0  0  0  0
    4.0470    1.5254   -1.1792 C   0  0  0  0  0  0  0  0  0  0  0  0
    0.5740   -0.7604    0.2040 H   0  0  0  0  0  0  0  0  0  0  0  0
    0.7818   -0.7925   -1.5502 H   0  0  0  0  0  0  0  0  0  0  0  0
    0.1824    0.6960   -0.7195 H   0  0  0  0  0  0  0  0  0  0  0  0
    1.1248    1.0634   -2.8894 H   0  0  0  0  0  0  0  0  0  0  0  0
    2.3087    2.4619   -4.5109 H   0  0  0  0  0  0  0  0  0  0  0  0
    4.5717    3.2545   -4.0669 H   0  0  0  0  0  0  0  0  0  0  0  0
    6.3275    2.7735   -0.8410 H   0  0  0  0  0  0  0  0  0  0  0  0
    8.9686    5.7022    0.2806 H   0  0  0  0  0  0  0  0  0  0  0  0
   10.4780    7.6365   -0.5324 H   0  0  0  0  0  0  0  0  0  0  0  0
   10.5858    8.5435   -2.0465 H   0  0  0  0  0  0  0  0  0  0  0  0
   12.0096    7.6676   -1.4293 H   0  0  0  0  0  0  0  0  0  0  0  0
   11.7631    6.9732   -4.0007 H   0  0  0  0  0  0  0  0  0  0  0  0
   11.0402    5.1284   -5.4526 H   0  0  0  0  0  0  0  0  0  0  0  0
    9.2505    3.5725   -4.7220 H   0  0  0  0  0  0  0  0  0  0  0  0
    4.5201    1.2507   -0.2404 H   0  0  0  0  0  0  0  0  0  0  0  0
  1  2  1  0  0  0  0
  1 22  1  0  0  0  0
  1 23  1  0  0  0  0
  1 24  1  0  0  0  0
  2  3  1  0  0  0  0
  3  4  1  0  0  0  0
  3 21  2  0  0  0  0
  4  5  2  0  0  0  0
  4 25  1  0  0  0  0
  5  6  1  0  0  0  0
  5 26  1  0  0  0  0
  6  7  2  0  0  0  0
  6 27  1  0  0  0  0
  7  8  1  0  0  0  0
  7 21  1  0  0  0  0
  8  9  1  0  0  0  0
  8 28  1  0  0  0  0
  9 10  2  0  0  0  0
  9 11  1  0  0  0  0
 11 12  1  0  0  0  0
 11 20  1  0  0  0  0
 12 13  2  0  0  0  0
 13 14  1  0  0  0  0
 13 29  1  0  0  0  0
 14 15  1  0  0  0  0
 14 20  2  0  0  0  0
 15 16  1  0  0  0  0
 15 17  2  0  0  0  0
 16 30  1  0  0  0  0
 16 31  1  0  0  0  0
 16 32  1  0  0  0  0
 17 18  1  0  0  0  0
 17 33  1  0  0  0  0
 18 19  2  0  0  0  0
 18 34  1  0  0  0  0
 19 20  1  0  0  0  0
 19 35  1  0  0  0  0
 21 36  1  0  0  0  0
M  END
>  <Energy>
97.0052

$$$$

 OpenBabel04232616063D

 31 33  0  0  0  0  0  0  0  0999 V2000
    2.2552    0.2050    1.1218 C   0  0  0  0  0  0  0  0  0  0  0  0
    0.8774    0.1389    0.5318 C   0  0  0  0  0  0  0  0  0  0  0  0
    0.2371    1.2868    0.0627 C   0  0  0  0  0  0  0  0  0  0  0  0
   -1.0708    1.2119   -0.4084 C   0  0  0  0  0  0  0  0  0  0  0  0
   -1.7517   -0.0094   -0.4030 C   0  0  0  0  0  0  0  0  0  0  0  0
   -1.1296   -1.1943    0.0315 C   0  0  0  0  0  0  0  0  0  0  0  0
   -1.8435   -2.4966    0.0189 C   0  0  0  0  0  0  0  0  0  0  0  0
   -2.6233   -2.9375   -1.0561 C   0  0  0  0  0  0  0  0  0  0  0  0
   -2.7093   -2.2470   -2.2321 O   0  0  0  0  0  0  0  0  0  0  0  0
   -3.3296   -4.0893   -1.0879 N   0  0  0  0  0  0  0  0  0  0  0  0
   -3.2483   -4.9072   -0.0287 C   0  0  0  0  0  0  0  0  0  0  0  0
   -3.9406   -6.1093   -0.0282 C   0  0  0  0  0  0  0  0  0  0  0  0
   -3.8340   -6.9810    1.0500 C   0  0  0  0  0  0  0  0  0  0  0  0
   -4.6707   -8.4787    1.0510 Cl  0  0  0  0  0  0  0  0  0  0  0  0
   -3.0350   -6.6133    2.1177 C   0  0  0  0  0  0  0  0  0  0  0  0
   -2.3559   -5.4454    2.1739 N   0  0  0  0  0  0  0  0  0  0  0  0
   -2.4754   -4.6162    1.1053 C   0  0  0  0  0  0  0  0  0  0  0  0
   -1.8002   -3.3969    1.0988 C   0  0  0  0  0  0  0  0  0  0  0  0
   -1.0688   -3.0940    2.2328 O   0  0  0  0  0  0  0  0  0  0  0  0
    0.1971   -1.0897    0.4903 C   0  0  0  0  0  0  0  0  0  0  0  0
    2.6867    1.2075    1.0260 H   0  0  0  0  0  0  0  0  0  0  0  0
    2.9228   -0.4988    0.6165 H   0  0  0  0  0  0  0  0  0  0  0  0
    2.2138   -0.0410    2.1889 H   0  0  0  0  0  0  0  0  0  0  0  0
    0.7452    2.2482    0.0778 H   0  0  0  0  0  0  0  0  0  0  0  0
   -1.5710    2.1105   -0.7616 H   0  0  0  0  0  0  0  0  0  0  0  0
   -2.7888   -0.0190   -0.7373 H   0  0  0  0  0  0  0  0  0  0  0  0
   -1.9248   -1.6792   -2.2972 H   0  0  0  0  0  0  0  0  0  0  0  0
   -4.5569   -6.3637   -0.8848 H   0  0  0  0  0  0  0  0  0  0  0  0
   -2.9088   -7.2645    2.9791 H   0  0  0  0  0  0  0  0  0  0  0  0
   -1.1922   -3.8626    2.8302 H   0  0  0  0  0  0  0  0  0  0  0  0
    0.7141   -1.9779    0.8522 H   0  0  0  0  0  0  0  0  0  0  0  0
  1  2  1  0  0  0  0
  1 21  1  0  0  0  0
  1 22  1  0  0  0  0
  1 23  1  0  0  0  0
  2  3  1  0  0  0  0
  2 20  2  0  0  0  0
  3  4  2  0  0  0  0
  3 24  1  0  0  0  0
  4  5  1  0  0  0  0
  4 25  1  0  0  0  0
  5  6  2  0  0  0  0
  5 26  1  0  0  0  0
  6  7  1  0  0  0  0
  6 20  1  0  0  0  0
  7  8  1  0  0  0  0
  7 18  2  0  0  0  0
  8  9  1  0  0  0  0
  8 10  2  0  0  0  0
  9 27  1  0  0  0  0
 10 11  1  0  0  0  0
 11 12  1  0  0  0  0
 11 17  2  0  0  0  0
 12 13  2  0  0  0  0
 12 28  1  0  0  0  0
 13 14  1  0  0  0  0
 13 15  1  0  0  0  0
 15 16  2  0  0  0  0
 15 29  1  0  0  0  0
 16 17  1  0  0  0  0
 17 18  1  0  0  0  0
 18 19  1  0  0  0  0
 19 30  1  0  0  0  0
 20 31  1  0  0  0  0
M  END
>  <Energy>
72.0616

$$$$

 OpenBabel04232616063D

 22 23  0  0  0  0  0  0  0  0999 V2000
    4.1272    0.4822    2.3192 O   0  0  0  0  0  0  0  0  0  0  0  0
    3.9773    0.3672    0.9973 C   0  0  0  0  0  0  0  0  0  0  0  0
    4.2023   -0.8481    0.5065 N   0  0  0  0  0  0  0  0  0  0  0  0
    4.0396   -0.6914   -0.8653 O   0  0  0  0  0  0  0  0  0  0  0  0
    3.7137    0.6030   -1.1312 C   0  0  0  0  0  0  0  0  0  0  0  0
    3.5316    0.8566   -2.4167 O   0  0  0  0  0  0  0  0  0  0  0  0
    3.6397    1.3347    0.0371 C   0  0  0  0  0  0  0  0  0  0  0  0
    3.3333    2.7470    0.1133 C   0  0  0  0  0  0  0  0  0  0  0  0
    3.8757    3.4906   -0.8950 N   0  0  0  0  0  0  0  0  0  0  0  0
    3.6248    4.8203   -0.9254 C   0  0  0  0  0  0  0  0  0  0  0  0
    2.8730    5.4819    0.0288 C   0  0  0  0  0  0  0  0  0  0  0  0
    2.6275    6.9554   -0.0642 C   0  0  0  0  0  0  0  0  0  0  0  0
    3.1821    7.5343   -1.1634 F   0  0  0  0  0  0  0  0  0  0  0  0
    1.3005    7.2544   -0.1134 F   0  0  0  0  0  0  0  0  0  0  0  0
    3.1241    7.6321    1.0068 F   0  0  0  0  0  0  0  0  0  0  0  0
    2.3418    4.7149    1.0708 C   0  0  0  0  0  0  0  0  0  0  0  0
    2.5531    3.3319    1.1127 C   0  0  0  0  0  0  0  0  0  0  0  0
    1.7499    2.4628    2.3684 Cl  0  0  0  0  0  0  0  0  0  0  0  0
    4.3175   -0.4137    2.6464 H   0  0  0  0  0  0  0  0  0  0  0  0
    3.7690    0.0264   -2.8661 H   0  0  0  0  0  0  0  0  0  0  0  0
    4.0624    5.3420   -1.7749 H   0  0  0  0  0  0  0  0  0  0  0  0
    1.7379    5.1962    1.8389 H   0  0  0  0  0  0  0  0  0  0  0  0
  1  2  1  0  0  0  0
  1 19  1  0  0  0  0
  2  3  2  0  0  0  0
  2  7  1  0  0  0  0
  3  4  1  0  0  0  0
  4  5  1  0  0  0  0
  5  6  1  0  0  0  0
  5  7  2  0  0  0  0
  6 20  1  0  0  0  0
  7  8  1  0  0  0  0
  8  9  1  0  0  0  0
  8 17  2  0  0  0  0
  9 10  2  0  0  0  0
 10 11  1  0  0  0  0
 10 21  1  0  0  0  0
 11 12  1  0  0  0  0
 11 16  2  0  0  0  0
 12 13  1  0  0  0  0
 12 14  1  0  0  0  0
 12 15  1  0  0  0  0
 16 17  1  0  0  0  0
 16 22  1  0  0  0  0
 17 18  1  0  0  0  0
M  END
>  <Energy>
14.8431

$$$$

 OpenBabel04232616063D

 32 34  0  0  0  0  0  0  0  0999 V2000
    0.8154    0.6803   -0.0096 C   0  0  0  0  0  0  0  0  0  0  0  0
    2.2952    0.3924    0.0740 C   0  0  0  0  0  0  0  0  0  0  0  0
    3.1067    1.3985    0.1584 N   0  0  0  0  0  0  0  0  0  0  0  0
    4.4868    1.1509    0.1576 C   0  0  0  0  0  0  0  0  0  0  0  0
    5.3615    2.2359    0.1123 C   0  0  0  0  0  0  0  0  0  0  0  0
    6.7422    2.0367    0.0139 C   0  0  0  0  0  0  0  0  0  0  0  0
    7.2622    0.7432   -0.0228 C   0  0  0  0  0  0  0  0  0  0  0  0
    6.4019   -0.3520    0.0350 C   0  0  0  0  0  0  0  0  0  0  0  0
    5.0199   -0.1396    0.1186 C   0  0  0  0  0  0  0  0  0  0  0  0
    4.0767   -1.2632    0.0305 C   0  0  0  0  0  0  0  0  0  0  0  0
    4.4833   -2.4046   -0.1880 O   0  0  0  0  0  0  0  0  0  0  0  0
    2.7233   -0.9245    0.0625 N   0  0  0  0  0  0  0  0  0  0  0  0
    1.8693   -1.9398   -0.4384 N   0  0  0  0  0  0  0  0  0  0  0  0
    1.0450   -2.7188    0.3665 C   0  0  0  0  0  0  0  0  0  0  0  0
    0.7382   -2.4465    1.9954 S   0  0  0  0  0  0  0  0  0  0  0  0
    0.5133   -3.7826   -0.4292 N   0  0  0  0  0  0  0  0  0  0  0  0
    0.5306   -3.8905   -1.8194 C   0  0  0  0  0  0  0  0  0  0  0  0
    0.0391   -5.1200   -2.1959 C   0  0  0  0  0  0  0  0  0  0  0  0
   -0.3921   -5.7667   -1.0214 C   0  0  0  0  0  0  0  0  0  0  0  0
   -0.1421   -4.9173    0.0316 C   0  0  0  0  0  0  0  0  0  0  0  0
    0.6584    1.7044   -0.3625 H   0  0  0  0  0  0  0  0  0  0  0  0
    0.3734    0.5903    0.9852 H   0  0  0  0  0  0  0  0  0  0  0  0
    0.3045    0.0052   -0.6997 H   0  0  0  0  0  0  0  0  0  0  0  0
    4.9599    3.2467    0.1206 H   0  0  0  0  0  0  0  0  0  0  0  0
    7.4085    2.8936   -0.0515 H   0  0  0  0  0  0  0  0  0  0  0  0
    8.3349    0.5890   -0.1163 H   0  0  0  0  0  0  0  0  0  0  0  0
    6.8024   -1.3617   -0.0186 H   0  0  0  0  0  0  0  0  0  0  0  0
    2.3184   -2.4162   -1.2216 H   0  0  0  0  0  0  0  0  0  0  0  0
    0.8837   -3.0873   -2.4484 H   0  0  0  0  0  0  0  0  0  0  0  0
   -0.0261   -5.4883   -3.2111 H   0  0  0  0  0  0  0  0  0  0  0  0
   -0.8500   -6.7457   -0.9534 H   0  0  0  0  0  0  0  0  0  0  0  0
   -0.3408   -5.0513    1.0867 H   0  0  0  0  0  0  0  0  0  0  0  0
  1  2  1  0  0  0  0
  1 21  1  0  0  0  0
  1 22  1  0  0  0  0
  1 23  1  0  0  0  0
  2  3  2  0  0  0  0
  2 12  1  0  0  0  0
  3  4  1  0  0  0  0
  4  5  1  0  0  0  0
  4  9  2  0  0  0  0
  5  6  2  0  0  0  0
  5 24  1  0  0  0  0
  6  7  1  0  0  0  0
  6 25  1  0  0  0  0
  7  8  2  0  0  0  0
  7 26  1  0  0  0  0
  8  9  1  0  0  0  0
  8 27  1  0  0  0  0
  9 10  1  0  0  0  0
 10 11  2  0  0  0  0
 10 12  1  0  0  0  0
 12 13  1  0  0  0  0
 13 14  1  0  0  0  0
 13 28  1  0  0  0  0
 14 15  2  0  0  0  0
 14 16  1  0  0  0  0
 16 17  1  0  0  0  0
 16 20  1  0  0  0  0
 17 18  2  0  0  0  0
 17 29  1  0  0  0  0
 18 19  1  0  0  0  0
 18 30  1  0  0  0  0
 19 20  2  0  0  0  0
 19 31  1  0  0  0  0
 20 32  1  0  0  0  0
M  END
>  <Energy>
83.925

$$$$

 OpenBabel04232616063D

 34 38  0  0  1  0  0  0  0  0999 V2000
    0.8108    0.1779   -0.1634 O   0  0  0  0  0  0  0  0  0  0  0  0
    1.9983   -0.0384    0.0229 C   0  0  0  0  0  0  0  0  0  0  0  0
    2.6115   -1.4167   -0.0857 C   0  0  0  0  0  0  0  0  0  0  0  0
    4.1164   -1.1828   -0.0774 C   0  0  1  0  0  0  0  0  0  0  0  0
    4.7622   -2.1812    0.7125 O   0  0  0  0  0  0  0  0  0  0  0  0
    4.8457   -0.9932   -1.3817 C   0  0  0  0  0  0  0  0  0  0  0  0
    4.8307   -1.7913   -2.5141 C   0  0  0  0  0  0  0  0  0  0  0  0
    5.6150   -1.4064   -3.6048 C   0  0  0  0  0  0  0  0  0  0  0  0
    6.4165   -0.2534   -3.5461 C   0  0  0  0  0  0  0  0  0  0  0  0
    6.4142    0.5568   -2.4103 C   0  0  0  0  0  0  0  0  0  0  0  0
    5.6127    0.1809   -1.3479 C   0  0  0  0  0  0  0  0  0  0  0  0
    5.3162    0.9153   -0.1861 N   0  0  0  0  0  0  0  0  0  0  0  0
    5.4267    2.2909   -0.1293 C   0  0  0  0  0  0  0  0  0  0  0  0
    6.4307    2.9233   -0.4272 O   0  0  0  0  0  0  0  0  0  0  0  0
    4.1436    3.0053    0.1868 C   0  0  0  0  0  0  0  0  0  0  0  0
    4.1206    4.4035    0.1193 C   0  0  0  0  0  0  0  0  0  0  0  0
    2.9052    5.0820    0.1924 C   0  0  0  0  0  0  0  0  0  0  0  0
    1.7158    4.3686    0.3305 C   0  0  0  0  0  0  0  0  0  0  0  0
    1.7318    2.9728    0.3967 C   0  0  0  0  0  0  0  0  0  0  0  0
    2.9416    2.2776    0.3265 C   0  0  0  0  0  0  0  0  0  0  0  0
    2.9967    0.8702    0.3331 N   0  0  0  0  0  0  0  0  0  0  0  0
    4.2599    0.2318    0.5291 C   0  0  1  0  0  0  0  0  0  0  0  0
    2.2676   -1.9068   -1.0003 H   0  0  0  0  0  0  0  0  0  0  0  0
    2.2868   -2.0018    0.7818 H   0  0  0  0  0  0  0  0  0  0  0  0
    5.6121   -2.4025    0.2892 H   0  0  0  0  0  0  0  0  0  0  0  0
    4.2144   -2.6841   -2.5712 H   0  0  0  0  0  0  0  0  0  0  0  0
    5.6063   -2.0013   -4.5155 H   0  0  0  0  0  0  0  0  0  0  0  0
    7.0290    0.0245   -4.4001 H   0  0  0  0  0  0  0  0  0  0  0  0
    7.0151    1.4600   -2.3775 H   0  0  0  0  0  0  0  0  0  0  0  0
    5.0405    4.9620   -0.0432 H   0  0  0  0  0  0  0  0  0  0  0  0
    2.8821    6.1664    0.1106 H   0  0  0  0  0  0  0  0  0  0  0  0
    0.7657    4.8971    0.3713 H   0  0  0  0  0  0  0  0  0  0  0  0
    0.7845    2.4500    0.5008 H   0  0  0  0  0  0  0  0  0  0  0  0
    4.4931    0.2161    1.6020 H   0  0  0  0  0  0  0  0  0  0  0  0
  1  2  2  0  0  0  0
  2  3  1  0  0  0  0
  2 21  1  0  0  0  0
  3  4  1  0  0  0  0
  3 23  1  0  0  0  0
  3 24  1  0  0  0  0
  4  5  1  1  0  0  0
  4  6  1  0  0  0  0
  4 22  1  0  0  0  0
  5 25  1  0  0  0  0
  6  7  1  0  0  0  0
  6 11  2  0  0  0  0
  7  8  2  0  0  0  0
  7 26  1  0  0  0  0
  8  9  1  0  0  0  0
  8 27  1  0  0  0  0
  9 10  2  0  0  0  0
  9 28  1  0  0  0  0
 10 11  1  0  0  0  0
 10 29  1  0  0  0  0
 11 12  1  0  0  0  0
 12 13  1  0  0  0  0
 12 22  1  0  0  0  0
 13 14  2  0  0  0  0
 13 15  1  0  0  0  0
 15 16  1  0  0  0  0
 15 20  2  0  0  0  0
 16 17  2  0  0  0  0
 16 30  1  0  0  0  0
 17 18  1  0  0  0  0
 17 31  1  0  0  0  0
 18 19  2  0  0  0  0
 18 32  1  0  0  0  0
 19 20  1  0  0  0  0
 19 33  1  0  0  0  0
 20 21  1  0  0  0  0
 21 22  1  0  0  0  0
 22 34  1  1  0  0  0
M  END
>  <Energy>
55.9753

$$$$

 OpenBabel04232616063D

 31 33  0  0  0  0  0  0  0  0999 V2000
    1.0391   -0.1586    0.0903 C   0  0  0  0  0  0  0  0  0  0  0  0
    2.4666    0.0750   -0.0589 N   0  0  0  0  0  0  0  0  0  0  0  0
    3.1695   -0.6209   -1.1114 C   0  0  0  0  0  0  0  0  0  0  0  0
    4.3338   -1.2960   -0.5049 C   0  0  0  0  0  0  0  0  0  0  0  0
    4.6570   -2.6315   -0.3488 C   0  0  0  0  0  0  0  0  0  0  0  0
    3.8518   -3.8468   -0.6661 C   0  0  0  0  0  0  0  0  0  0  0  0
    2.4577   -3.6475   -0.4354 O   0  0  0  0  0  0  0  0  0  0  0  0
    5.9362   -2.7514    0.1419 N   0  0  0  0  0  0  0  0  0  0  0  0
    6.3689   -1.5239    0.3041 C   0  0  0  0  0  0  0  0  0  0  0  0
    5.4102   -0.5894   -0.0151 N   0  0  0  0  0  0  0  0  0  0  0  0
    5.5129    0.8181    0.0716 C   0  0  0  0  0  0  0  0  0  0  0  0
    6.7702    1.4172   -0.1229 C   0  0  0  0  0  0  0  0  0  0  0  0
    6.8913    2.8092   -0.1145 C   0  0  0  0  0  0  0  0  0  0  0  0
    5.7755    3.6036    0.1278 C   0  0  0  0  0  0  0  0  0  0  0  0
    5.9256    5.3161    0.1235 Cl  0  0  0  0  0  0  0  0  0  0  0  0
    4.5355    3.0188    0.3651 C   0  0  0  0  0  0  0  0  0  0  0  0
    4.3846    1.6220    0.3227 C   0  0  0  0  0  0  0  0  0  0  0  0
    3.0146    1.1320    0.6531 C   0  0  0  0  0  0  0  0  0  0  0  0
    2.3901    1.7287    1.5295 O   0  0  0  0  0  0  0  0  0  0  0  0
    0.6695   -0.8726   -0.6488 H   0  0  0  0  0  0  0  0  0  0  0  0
    0.5071    0.7901   -0.0368 H   0  0  0  0  0  0  0  0  0  0  0  0
    0.8464   -0.5393    1.0978 H   0  0  0  0  0  0  0  0  0  0  0  0
    3.4796    0.1045   -1.8729 H   0  0  0  0  0  0  0  0  0  0  0  0
    2.5111   -1.3423   -1.6088 H   0  0  0  0  0  0  0  0  0  0  0  0
    4.1762   -4.6920   -0.0507 H   0  0  0  0  0  0  0  0  0  0  0  0
    3.9876   -4.1191   -1.7172 H   0  0  0  0  0  0  0  0  0  0  0  0
    2.3838   -3.3737    0.4966 H   0  0  0  0  0  0  0  0  0  0  0  0
    7.3427   -1.2567    0.6913 H   0  0  0  0  0  0  0  0  0  0  0  0
    7.6586    0.8291   -0.3430 H   0  0  0  0  0  0  0  0  0  0  0  0
    7.8583    3.2690   -0.3087 H   0  0  0  0  0  0  0  0  0  0  0  0
    3.6749    3.6497    0.5846 H   0  0  0  0  0  0  0  0  0  0  0  0
  1  2  1  0  0  0  0
  1 20  1  0  0  0  0
  1 21  1  0  0  0  0
  1 22  1  0  0  0  0
  2  3  1  0  0  0  0
  2 18  1  0  0  0  0
  3  4  1  0  0  0  0
  3 23  1  0  0  0  0
  3 24  1  0  0  0  0
  4  5  2  0  0  0  0
  4 10  1  0  0  0  0
  5  6  1  0  0  0  0
  5  8  1  0  0  0  0
  6  7  1  0  0  0  0
  6 25  1  0  0  0  0
  6 26  1  0  0  0  0
  7 27  1  0  0  0  0
  8  9  2  0  0  0  0
  9 10  1  0  0  0  0
  9 28  1  0  0  0  0
 10 11  1  0  0  0  0
 11 12  1  0  0  0  0
 11 17  2  0  0  0  0
 12 13  2  0  0  0  0
 12 29  1  0  0  0  0
 13 14  1  0  0  0  0
 13 30  1  0  0  0  0
 14 15  1  0  0  0  0
 14 16  2  0  0  0  0
 16 17  1  0  0  0  0
 16 31  1  0  0  0  0
 17 18  1  0  0  0  0
 18 19  2  0  0  0  0
M  END
>  <Energy>
24.5104

$$$$

 OpenBabel04232616063D

 33 35  0  0  0  0  0  0  0  0999 V2000
    2.6544    0.3010   -0.9367 O   0  0  0  0  0  0  0  0  0  0  0  0
    2.2550   -0.0031    0.1908 C   0  0  0  0  0  0  0  0  0  0  0  0
    0.9182   -0.6908    0.2881 C   0  0  0  0  0  0  0  0  0  0  0  0
    0.6634   -1.7215    1.1129 C   0  0  0  0  0  0  0  0  0  0  0  0
   -0.5835   -2.3012    1.1598 N   0  0  0  0  0  0  0  0  0  0  0  0
   -1.6408   -1.9365    0.3511 C   0  0  0  0  0  0  0  0  0  0  0  0
   -2.7417   -2.4649    0.4705 O   0  0  0  0  0  0  0  0  0  0  0  0
   -1.3308   -0.8823   -0.6614 C   0  0  0  0  0  0  0  0  0  0  0  0
   -2.5345   -0.4686   -1.8155 Cl  0  0  0  0  0  0  0  0  0  0  0  0
   -0.1193   -0.3066   -0.6653 C   0  0  0  0  0  0  0  0  0  0  0  0
    2.9627    0.3418    1.3337 N   0  0  0  0  0  0  0  0  0  0  0  0
    2.5263    0.1136    2.7208 C   0  0  0  0  0  0  0  0  0  0  0  0
    3.3033    0.8860    3.7917 C   0  0  0  0  0  0  0  0  0  0  0  0
    4.7802    0.7386    3.5507 C   0  0  0  0  0  0  0  0  0  0  0  0
    5.6944    0.5306    4.5858 C   0  0  0  0  0  0  0  0  0  0  0  0
    7.0565    0.4359    4.2988 C   0  0  0  0  0  0  0  0  0  0  0  0
    7.5084    0.5692    2.9858 C   0  0  0  0  0  0  0  0  0  0  0  0
    6.5980    0.7803    1.9502 C   0  0  0  0  0  0  0  0  0  0  0  0
    5.2278    0.8460    2.2242 C   0  0  0  0  0  0  0  0  0  0  0  0
    4.2167    1.0815    1.1311 C   0  0  0  0  0  0  0  0  0  0  0  0
    1.3936   -2.1521    1.7849 H   0  0  0  0  0  0  0  0  0  0  0  0
   -0.7822   -3.0410    1.8237 H   0  0  0  0  0  0  0  0  0  0  0  0
    0.1393    0.4368   -1.4147 H   0  0  0  0  0  0  0  0  0  0  0  0
    2.6777   -0.9541    2.9158 H   0  0  0  0  0  0  0  0  0  0  0  0
    1.4578    0.3321    2.8083 H   0  0  0  0  0  0  0  0  0  0  0  0
    3.0274    0.5109    4.7817 H   0  0  0  0  0  0  0  0  0  0  0  0
    3.0457    1.9528    3.7560 H   0  0  0  0  0  0  0  0  0  0  0  0
    5.3571    0.4365    5.6148 H   0  0  0  0  0  0  0  0  0  0  0  0
    7.7699    0.2636    5.1009 H   0  0  0  0  0  0  0  0  0  0  0  0
    8.5719    0.5103    2.7685 H   0  0  0  0  0  0  0  0  0  0  0  0
    6.9629    0.8893    0.9314 H   0  0  0  0  0  0  0  0  0  0  0  0
    4.6528    0.8212    0.1599 H   0  0  0  0  0  0  0  0  0  0  0  0
    3.9626    2.1493    1.1043 H   0  0  0  0  0  0  0  0  0  0  0  0
  1  2  2  0  0  0  0
  2  3  1  0  0  0  0
  2 11  1  0  0  0  0
  3  4  2  0  0  0  0
  3 10  1  0  0  0  0
  4  5  1  0  0  0  0
  4 21  1  0  0  0  0
  5  6  1  0  0  0  0
  5 22  1  0  0  0  0
  6  7  2  0  0  0  0
  6  8  1  0  0  0  0
  8  9  1  0  0  0  0
  8 10  2  0  0  0  0
 10 23  1  0  0  0  0
 11 12  1  0  0  0  0
 11 20  1  0  0  0  0
 12 13  1  0  0  0  0
 12 24  1  0  0  0  0
 12 25  1  0  0  0  0
 13 14  1  0  0  0  0
 13 26  1  0  0  0  0
 13 27  1  0  0  0  0
 14 15  1  0  0  0  0
 14 19  2  0  0  0  0
 15 16  2  0  0  0  0
 15 28  1  0  0  0  0
 16 17  1  0  0  0  0
 16 29  1  0  0  0  0
 17 18  2  0  0  0  0
 17 30  1  0  0  0  0
 18 19  1  0  0  0  0
 18 31  1  0  0  0  0
 19 20  1  0  0  0  0
 20 32  1  0  0  0  0
 20 33  1  0  0  0  0
M  END
>  <Energy>
53.569

$$$$

 OpenBabel04232616063D

 35 38  0  0  0  0  0  0  0  0999 V2000
    1.4638    0.0234    0.8670 C   0  0  0  0  0  0  0  0  0  0  0  0
    2.5475    0.0750   -0.0558 O   0  0  0  0  0  0  0  0  0  0  0  0
    3.1700    1.2912   -0.1834 C   0  0  0  0  0  0  0  0  0  0  0  0
    2.7924    2.4559    0.4838 C   0  0  0  0  0  0  0  0  0  0  0  0
    3.4901    3.6538    0.2947 C   0  0  0  0  0  0  0  0  0  0  0  0
    4.5903    3.6848   -0.5788 C   0  0  0  0  0  0  0  0  0  0  0  0
    4.9531    2.5093   -1.2404 C   0  0  0  0  0  0  0  0  0  0  0  0
    4.2605    1.3028   -1.0643 C   0  0  0  0  0  0  0  0  0  0  0  0
    6.0499    2.8027   -2.0246 N   0  0  0  0  0  0  0  0  0  0  0  0
    6.3858    4.1205   -1.8763 C   0  0  0  0  0  0  0  0  0  0  0  0
    7.4641    4.8564   -2.4982 C   0  0  0  0  0  0  0  0  0  0  0  0
    8.3786    4.3194   -3.3965 C   0  0  0  0  0  0  0  0  0  0  0  0
    9.3847    5.1327   -3.9354 C   0  0  0  0  0  0  0  0  0  0  0  0
    9.4815    6.4839   -3.5789 C   0  0  0  0  0  0  0  0  0  0  0  0
   10.4196    7.3659   -4.0410 O   0  0  0  0  0  0  0  0  0  0  0  0
   11.3774    6.8601   -4.9631 C   0  0  0  0  0  0  0  0  0  0  0  0
    8.5643    7.0251   -2.6772 C   0  0  0  0  0  0  0  0  0  0  0  0
    7.5678    6.2103   -2.1475 C   0  0  0  0  0  0  0  0  0  0  0  0
    6.6579    6.8111   -1.2302 O   0  0  0  0  0  0  0  0  0  0  0  0
    5.5998    6.0976   -0.6163 C   0  0  0  0  0  0  0  0  0  0  0  0
    4.8366    6.6476    0.1683 O   0  0  0  0  0  0  0  0  0  0  0  0
    5.5019    4.6943   -0.9877 C   0  0  0  0  0  0  0  0  0  0  0  0
    1.0673   -0.9956    0.8732 H   0  0  0  0  0  0  0  0  0  0  0  0
    0.6534    0.6931    0.5588 H   0  0  0  0  0  0  0  0  0  0  0  0
    1.8030    0.2556    1.8828 H   0  0  0  0  0  0  0  0  0  0  0  0
    1.9527    2.4777    1.1696 H   0  0  0  0  0  0  0  0  0  0  0  0
    3.1812    4.5511    0.8255 H   0  0  0  0  0  0  0  0  0  0  0  0
    4.5569    0.3981   -1.5863 H   0  0  0  0  0  0  0  0  0  0  0  0
    6.5255    2.1319   -2.6112 H   0  0  0  0  0  0  0  0  0  0  0  0
    8.3341    3.2762   -3.6931 H   0  0  0  0  0  0  0  0  0  0  0  0
   10.0814    4.6789   -4.6330 H   0  0  0  0  0  0  0  0  0  0  0  0
   12.0531    7.6781   -5.2287 H   0  0  0  0  0  0  0  0  0  0  0  0
   10.8934    6.5146   -5.8830 H   0  0  0  0  0  0  0  0  0  0  0  0
   11.9789    6.0646   -4.5100 H   0  0  0  0  0  0  0  0  0  0  0  0
    8.6270    8.0711   -2.3916 H   0  0  0  0  0  0  0  0  0  0  0  0
  1  2  1  0  0  0  0
  1 23  1  0  0  0  0
  1 24  1  0  0  0  0
  1 25  1  0  0  0  0
  2  3  1  0  0  0  0
  3  4  1  0  0  0  0
  3  8  2  0  0  0  0
  4  5  2  0  0  0  0
  4 26  1  0  0  0  0
  5  6  1  0  0  0  0
  5 27  1  0  0  0  0
  6  7  2  0  0  0  0
  6 22  1  0  0  0  0
  7  8  1  0  0  0  0
  7  9  1  0  0  0  0
  8 28  1  0  0  0  0
  9 10  1  0  0  0  0
  9 29  1  0  0  0  0
 10 11  1  0  0  0  0
 10 22  2  0  0  0  0
 11 12  1  0  0  0  0
 11 18  2  0  0  0  0
 12 13  2  0  0  0  0
 12 30  1  0  0  0  0
 13 14  1  0  0  0  0
 13 31  1  0  0  0  0
 14 15  1  0  0  0  0
 14 17  2  0  0  0  0
 15 16  1  0  0  0  0
 16 32  1  0  0  0  0
 16 33  1  0  0  0  0
 16 34  1  0  0  0  0
 17 18  1  0  0  0  0
 17 35  1  0  0  0  0
 18 19  1  0  0  0  0
 19 20  1  0  0  0  0
 20 21  2  0  0  0  0
 20 22  1  0  0  0  0
M  END
>  <Energy>
68.9163

$$$$

 OpenBabel04232616063D

 25 27  0  0  0  0  0  0  0  0999 V2000
   -2.9773    0.9453    0.0948 O   0  0  0  0  0  0  0  0  0  0  0  0
   -1.8021    0.6387    0.0613 C   0  0  0  0  0  0  0  0  0  0  0  0
   -0.7253    1.5120    0.0543 N   0  0  0  0  0  0  0  0  0  0  0  0
    0.4869    0.8297    0.0370 C   0  0  0  0  0  0  0  0  0  0  0  0
    1.7488    1.3879    0.0286 C   0  0  0  0  0  0  0  0  0  0  0  0
    2.8363    0.5121    0.0060 C   0  0  0  0  0  0  0  0  0  0  0  0
    2.6378   -0.8808   -0.0089 C   0  0  0  0  0  0  0  0  0  0  0  0
    1.3475   -1.4249    0.0018 C   0  0  0  0  0  0  0  0  0  0  0  0
    0.2733   -0.5527    0.0283 C   0  0  0  0  0  0  0  0  0  0  0  0
   -1.1835   -0.7390    0.0426 C   0  0  0  0  0  0  0  0  0  0  0  0
   -1.8184   -1.9187    0.0245 C   0  0  0  0  0  0  0  0  0  0  0  0
   -3.2312   -2.0283   -0.0085 C   0  0  0  0  0  0  0  0  0  0  0  0
   -4.1482   -2.0026    1.0346 C   0  0  0  0  0  0  0  0  0  0  0  0
   -5.4399   -2.1639    0.4769 C   0  0  0  0  0  0  0  0  0  0  0  0
   -5.2508   -2.2860   -0.8770 C   0  0  0  0  0  0  0  0  0  0  0  0
   -6.6078   -2.5126   -2.1366 Br  0  0  0  0  0  0  0  0  0  0  0  0
   -3.9291   -2.2291   -1.1767 O   0  0  0  0  0  0  0  0  0  0  0  0
   -0.8412    2.5133    0.0602 H   0  0  0  0  0  0  0  0  0  0  0  0
    1.8984    2.4615    0.0379 H   0  0  0  0  0  0  0  0  0  0  0  0
    3.8490    0.9096   -0.0018 H   0  0  0  0  0  0  0  0  0  0  0  0
    3.5010   -1.5436   -0.0314 H   0  0  0  0  0  0  0  0  0  0  0  0
    1.2081   -2.5001   -0.0141 H   0  0  0  0  0  0  0  0  0  0  0  0
   -1.2631   -2.8493   -0.0113 H   0  0  0  0  0  0  0  0  0  0  0  0
   -3.9052   -1.8668    2.0792 H   0  0  0  0  0  0  0  0  0  0  0  0
   -6.3858   -2.1799    0.9993 H   0  0  0  0  0  0  0  0  0  0  0  0
  1  2  2  0  0  0  0
  2  3  1  0  0  0  0
  2 10  1  0  0  0  0
  3  4  1  0  0  0  0
  3 18  1  0  0  0  0
  4  5  1  0  0  0  0
  4  9  2  0  0  0  0
  5  6  2  0  0  0  0
  5 19  1  0  0  0  0
  6  7  1  0  0  0  0
  6 20  1  0  0  0  0
  7  8  2  0  0  0  0
  7 21  1  0  0  0  0
  8  9  1  0  0  0  0
  8 22  1  0  0  0  0
  9 10  1  0  0  0  0
 10 11  2  0  0  0  0
 11 12  1  0  0  0  0
 11 23  1  0  0  0  0
 12 13  2  0  0  0  0
 12 17  1  0  0  0  0
 13 14  1  0  0  0  0
 13 24  1  0  0  0  0
 14 15  2  0  0  0  0
 14 25  1  0  0  0  0
 15 16  1  0  0  0  0
 15 17  1  0  0  0  0
M  END
>  <Energy>
20.794

$$$$

 OpenBabel04232616063D

 44 45  0  0  1  0  0  0  0  0999 V2000
    5.9250    0.5613   -4.3297 C   0  0  0  0  0  0  0  0  0  0  0  0
    4.4407    0.5555   -3.9315 C   0  0  3  0  0  0  0  0  0  0  0  0
    3.5818    0.9046   -5.1754 C   0  0  0  0  0  0  0  0  0  0  0  0
    2.3185    1.7686   -5.0377 C   0  0  0  0  0  0  0  0  0  0  0  0
    1.0935    1.1674   -4.3116 C   0  0  0  0  0  0  0  0  0  0  0  0
    0.8526    1.9491   -3.0521 C   0  0  0  0  0  0  0  0  0  0  0  0
    0.6823    1.3842   -1.8475 C   0  0  0  0  0  0  0  0  0  0  0  0
    1.1976    1.9971   -0.5695 C   0  0  3  0  0  0  0  0  0  0  0  0
    2.0473    3.2682   -0.7417 C   0  0  0  0  0  0  0  0  0  0  0  0
    2.9418    3.3672    0.4838 C   0  0  3  0  0  0  0  0  0  0  0  0
    2.5015    4.4015    1.3529 O   0  0  0  0  0  0  0  0  0  0  0  0
    2.8904    2.0181    1.1971 C   0  0  0  0  0  0  0  0  0  0  0  0
    2.0963    1.0569    0.2932 C   0  0  3  0  0  0  0  0  0  0  0  0
    2.9183   -0.1306   -0.3209 C   0  0  3  0  0  0  0  0  0  0  0  0
    2.5647   -0.5205   -1.6321 O   0  0  0  0  0  0  0  0  0  0  0  0
    4.4160   -0.1574   -0.2732 C   0  0  0  0  0  0  0  0  0  0  0  0
    5.3245    0.5545   -0.9546 C   0  0  0  0  0  0  0  0  0  0  0  0
    5.0930    1.6618   -1.8969 C   0  0  0  0  0  0  0  0  0  0  0  0
    5.7005    2.7164   -1.7764 O   0  0  0  0  0  0  0  0  0  0  0  0
    4.1470    1.4573   -2.8432 O   0  0  0  0  0  0  0  0  0  0  0  0
    6.0940   -0.0172   -5.2430 H   0  0  0  0  0  0  0  0  0  0  0  0
    6.5497    0.1243   -3.5439 H   0  0  0  0  0  0  0  0  0  0  0  0
    6.2835    1.5847   -4.4909 H   0  0  0  0  0  0  0  0  0  0  0  0
    4.1727   -0.4566   -3.6109 H   0  0  0  0  0  0  0  0  0  0  0  0
    3.3337   -0.0272   -5.6982 H   0  0  0  0  0  0  0  0  0  0  0  0
    4.2241    1.4570   -5.8764 H   0  0  0  0  0  0  0  0  0  0  0  0
    1.9911    2.0005   -6.0602 H   0  0  0  0  0  0  0  0  0  0  0  0
    2.6125    2.7368   -4.6111 H   0  0  0  0  0  0  0  0  0  0  0  0
    1.2522    0.1019   -4.1096 H   0  0  0  0  0  0  0  0  0  0  0  0
    0.2108    1.2543   -4.9534 H   0  0  0  0  0  0  0  0  0  0  0  0
    1.0595    3.0146   -3.1226 H   0  0  0  0  0  0  0  0  0  0  0  0
    0.3928    0.3341   -1.7894 H   0  0  0  0  0  0  0  0  0  0  0  0
    0.3216    2.2645    0.0405 H   0  0  0  0  0  0  0  0  0  0  0  0
    1.4108    4.1512   -0.8729 H   0  0  0  0  0  0  0  0  0  0  0  0
    2.6898    3.1974   -1.6242 H   0  0  0  0  0  0  0  0  0  0  0  0
    3.9641    3.6176    0.1832 H   0  0  0  0  0  0  0  0  0  0  0  0
    1.5563    4.2669    1.5355 H   0  0  0  0  0  0  0  0  0  0  0  0
    2.3852    2.1186    2.1651 H   0  0  0  0  0  0  0  0  0  0  0  0
    3.9012    1.6698    1.4248 H   0  0  0  0  0  0  0  0  0  0  0  0
    1.3871    0.5436    0.9627 H   0  0  0  0  0  0  0  0  0  0  0  0
    2.6161   -0.9991    0.2811 H   0  0  0  0  0  0  0  0  0  0  0  0
    2.7188    0.2631   -2.1871 H   0  0  0  0  0  0  0  0  0  0  0  0
    4.8069   -0.9125    0.4150 H   0  0  0  0  0  0  0  0  0  0  0  0
    6.3780    0.3965   -0.7333 H   0  0  0  0  0  0  0  0  0  0  0  0
  1  2  1  0  0  0  0
  1 21  1  0  0  0  0
  1 22  1  0  0  0  0
  1 23  1  0  0  0  0
  2  3  1  0  0  0  0
  2 20  1  0  0  0  0
  2 24  1  0  0  0  0
  3  4  1  0  0  0  0
  3 25  1  0  0  0  0
  3 26  1  0  0  0  0
  4  5  1  0  0  0  0
  4 27  1  0  0  0  0
  4 28  1  0  0  0  0
  5  6  1  0  0  0  0
  5 29  1  0  0  0  0
  5 30  1  0  0  0  0
  6  7  2  0  0  0  0
  6 31  1  0  0  0  0
  7  8  1  0  0  0  0
  7 32  1  0  0  0  0
  8  9  1  0  0  0  0
  8 13  1  0  0  0  0
  8 33  1  0  0  0  0
  9 10  1  0  0  0  0
  9 34  1  0  0  0  0
  9 35  1  0  0  0  0
 10 11  1  0  0  0  0
 10 12  1  0  0  0  0
 10 36  1  0  0  0  0
 11 37  1  0  0  0  0
 12 13  1  0  0  0  0
 12 38  1  0  0  0  0
 12 39  1  0  0  0  0
 13 14  1  0  0  0  0
 13 40  1  0  0  0  0
 14 15  1  0  0  0  0
 14 16  1  0  0  0  0
 14 41  1  0  0  0  0
 15 42  1  0  0  0  0
 16 17  2  0  0  0  0
 16 43  1  0  0  0  0
 17 18  1  0  0  0  0
 17 44  1  0  0  0  0
 18 19  2  0  0  0  0
 18 20  1  0  0  0  0
M  END
>  <Energy>
74.7871

$$$$

 OpenBabel04232616063D

 30 32  0  0  1  0  0  0  0  0999 V2000
    1.0747    0.1307    0.0333 C   0  0  0  0  0  0  0  0  0  0  0  0
    2.5957    0.0260   -0.0012 C   0  0  3  0  0  0  0  0  0  0  0  0
    3.1696    1.2221    0.5742 N   0  0  0  0  0  0  0  0  0  0  0  0
    4.5706    1.2957    0.7194 C   0  0  0  0  0  0  0  0  0  0  0  0
    5.3644    0.1365    0.8031 C   0  0  0  0  0  0  0  0  0  0  0  0
    6.7447    0.1688    1.0238 C   0  0  0  0  0  0  0  0  0  0  0  0
    7.3643    1.3942    1.1889 C   0  0  0  0  0  0  0  0  0  0  0  0
    9.0619    1.4668    1.4509 Cl  0  0  0  0  0  0  0  0  0  0  0  0
    6.6175    2.5693    1.1472 C   0  0  0  0  0  0  0  0  0  0  0  0
    5.2235    2.5426    0.9221 C   0  0  0  0  0  0  0  0  0  0  0  0
    4.5117    3.8232    0.8781 C   0  0  0  0  0  0  0  0  0  0  0  0
    3.2182    4.2009    1.3431 C   0  0  0  0  0  0  0  0  0  0  0  0
    3.0447    5.5226    1.0048 C   0  0  0  0  0  0  0  0  0  0  0  0
    4.1532    6.0008    0.3888 O   0  0  0  0  0  0  0  0  0  0  0  0
    5.0387    4.9745    0.3210 C   0  0  0  0  0  0  0  0  0  0  0  0
    4.6151   -1.4447    0.6252 S   0  0  0  0  0  0  0  0  0  0  0  0
    4.9973   -2.2512    1.7590 O   0  0  0  0  0  0  0  0  0  0  0  0
    4.8373   -1.8689   -0.7411 O   0  0  0  0  0  0  0  0  0  0  0  0
    2.9962   -1.0914    0.8108 N   0  0  0  0  0  0  0  0  0  0  0  0
    0.7292    0.9837   -0.5610 H   0  0  0  0  0  0  0  0  0  0  0  0
    0.7006    0.2652    1.0552 H   0  0  0  0  0  0  0  0  0  0  0  0
    0.6142   -0.7766   -0.3729 H   0  0  0  0  0  0  0  0  0  0  0  0
    2.9014   -0.0927   -1.0478 H   0  0  0  0  0  0  0  0  0  0  0  0
    2.8126    2.0573    0.1121 H   0  0  0  0  0  0  0  0  0  0  0  0
    7.3187   -0.7543    1.0673 H   0  0  0  0  0  0  0  0  0  0  0  0
    7.1320    3.5151    1.3067 H   0  0  0  0  0  0  0  0  0  0  0  0
    2.4923    3.5859    1.8570 H   0  0  0  0  0  0  0  0  0  0  0  0
    2.2373    6.2312    1.1297 H   0  0  0  0  0  0  0  0  0  0  0  0
    5.9808    5.2178   -0.1521 H   0  0  0  0  0  0  0  0  0  0  0  0
    2.7512   -1.0076    1.7949 H   0  0  0  0  0  0  0  0  0  0  0  0
  1  2  1  0  0  0  0
  1 20  1  0  0  0  0
  1 21  1  0  0  0  0
  1 22  1  0  0  0  0
  2  3  1  0  0  0  0
  2 19  1  0  0  0  0
  2 23  1  0  0  0  0
  3  4  1  0  0  0  0
  3 24  1  0  0  0  0
  4  5  1  0  0  0  0
  4 10  2  0  0  0  0
  5  6  2  0  0  0  0
  5 16  1  0  0  0  0
  6  7  1  0  0  0  0
  6 25  1  0  0  0  0
  7  8  1  0  0  0  0
  7  9  2  0  0  0  0
  9 10  1  0  0  0  0
  9 26  1  0  0  0  0
 10 11  1  0  0  0  0
 11 12  1  0  0  0  0
 11 15  2  0  0  0  0
 12 13  2  0  0  0  0
 12 27  1  0  0  0  0
 13 14  1  0  0  0  0
 13 28  1  0  0  0  0
 14 15  1  0  0  0  0
 15 29  1  0  0  0  0
 16 17  2  0  0  0  0
 16 18  2  0  0  0  0
 16 19  1  0  0  0  0
 19 30  1  0  0  0  0
M  END
>  <Energy>
-132.228

$$$$

 OpenBabel04232616063D

 35 38  0  0  0  0  0  0  0  0999 V2000
    1.6743    0.4331    1.9704 S   0  0  0  0  0  0  0  0  0  0  0  0
    3.0417    0.6581    1.0153 C   0  0  0  0  0  0  0  0  0  0  0  0
    3.3158    0.0333   -0.1952 N   0  0  0  0  0  0  0  0  0  0  0  0
    2.5961   -0.8093   -1.0677 C   0  0  0  0  0  0  0  0  0  0  0  0
    1.2279   -1.0656   -1.0164 C   0  0  0  0  0  0  0  0  0  0  0  0
    0.6263   -1.9101   -1.9557 C   0  0  0  0  0  0  0  0  0  0  0  0
    1.3858   -2.5040   -2.9630 C   0  0  0  0  0  0  0  0  0  0  0  0
    2.7483   -2.2455   -3.0364 C   0  0  0  0  0  0  0  0  0  0  0  0
    3.3463   -1.4001   -2.0991 C   0  0  0  0  0  0  0  0  0  0  0  0
    4.0623    1.5182    1.4391 N   0  0  0  0  0  0  0  0  0  0  0  0
    4.1157    2.3401    2.6806 C   0  0  0  0  0  0  0  0  0  0  0  0
    5.5225    2.9836    2.6875 C   0  0  0  0  0  0  0  0  0  0  0  0
    6.1043    2.4651    1.4676 N   0  0  0  0  0  0  0  0  0  0  0  0
    5.2582    1.6577    0.7814 C   0  0  0  0  0  0  0  0  0  0  0  0
    5.7951    1.1634   -0.2993 N   0  0  0  0  0  0  0  0  0  0  0  0
    7.0898    1.6516   -0.2616 C   0  0  0  0  0  0  0  0  0  0  0  0
    8.1432    1.4190   -1.1566 C   0  0  0  0  0  0  0  0  0  0  0  0
    9.3969    1.9728   -0.8749 C   0  0  0  0  0  0  0  0  0  0  0  0
    9.5971    2.7507    0.2692 C   0  0  0  0  0  0  0  0  0  0  0  0
    8.5555    3.0191    1.1674 C   0  0  0  0  0  0  0  0  0  0  0  0
    7.3142    2.4551    0.8685 C   0  0  0  0  0  0  0  0  0  0  0  0
    4.2724    0.1947   -0.5110 H   0  0  0  0  0  0  0  0  0  0  0  0
    0.5825   -0.6047   -0.2815 H   0  0  0  0  0  0  0  0  0  0  0  0
   -0.4426   -2.0973   -1.9026 H   0  0  0  0  0  0  0  0  0  0  0  0
    0.9124   -3.1584   -3.6896 H   0  0  0  0  0  0  0  0  0  0  0  0
    3.3507   -2.6977   -3.8201 H   0  0  0  0  0  0  0  0  0  0  0  0
    4.4150   -1.2134   -2.1784 H   0  0  0  0  0  0  0  0  0  0  0  0
    3.9641    1.7023    3.5575 H   0  0  0  0  0  0  0  0  0  0  0  0
    3.3248    3.0973    2.6441 H   0  0  0  0  0  0  0  0  0  0  0  0
    5.4837    4.0742    2.6219 H   0  0  0  0  0  0  0  0  0  0  0  0
    6.1289    2.6579    3.5363 H   0  0  0  0  0  0  0  0  0  0  0  0
    7.9837    0.8060   -2.0365 H   0  0  0  0  0  0  0  0  0  0  0  0
   10.2258    1.7846   -1.5534 H   0  0  0  0  0  0  0  0  0  0  0  0
   10.5879    3.1555    0.4675 H   0  0  0  0  0  0  0  0  0  0  0  0
    8.7173    3.6228    2.0525 H   0  0  0  0  0  0  0  0  0  0  0  0
  1  2  2  0  0  0  0
  2  3  1  0  0  0  0
  2 10  1  0  0  0  0
  3  4  1  0  0  0  0
  3 22  1  0  0  0  0
  4  5  1  0  0  0  0
  4  9  2  0  0  0  0
  5  6  2  0  0  0  0
  5 23  1  0  0  0  0
  6  7  1  0  0  0  0
  6 24  1  0  0  0  0
  7  8  2  0  0  0  0
  7 25  1  0  0  0  0
  8  9  1  0  0  0  0
  8 26  1  0  0  0  0
  9 27  1  0  0  0  0
 10 11  1  0  0  0  0
 10 14  1  0  0  0  0
 11 12  1  0  0  0  0
 11 28  1  0  0  0  0
 11 29  1  0  0  0  0
 12 13  1  0  0  0  0
 12 30  1  0  0  0  0
 12 31  1  0  0  0  0
 13 14  1  0  0  0  0
 13 21  1  0  0  0  0
 14 15  2  0  0  0  0
 15 16  1  0  0  0  0
 16 17  1  0  0  0  0
 16 21  2  0  0  0  0
 17 18  2  0  0  0  0
 17 32  1  0  0  0  0
 18 19  1  0  0  0  0
 18 33  1  0  0  0  0
 19 20  2  0  0  0  0
 19 34  1  0  0  0  0
 20 21  1  0  0  0  0
 20 35  1  0  0  0  0
M  END
>  <Energy>
3.21876

$$$$

 OpenBabel04232616063D

 39 41  0  0  0  0  0  0  0  0999 V2000
    2.8909    0.3865    1.3129 C   0  0  0  0  0  0  0  0  0  0  0  0
    1.5254    0.2547    0.8699 N   0  0  0  0  0  0  0  0  0  0  0  0
    0.8945    1.1178    0.0222 C   0  0  0  0  0  0  0  0  0  0  0  0
    1.3252    2.1208   -0.5268 O   0  0  0  0  0  0  0  0  0  0  0  0
   -0.4710    0.6194   -0.1344 C   0  0  0  0  0  0  0  0  0  0  0  0
   -1.5292    1.1103   -0.8665 C   0  0  0  0  0  0  0  0  0  0  0  0
   -2.7318    0.3924   -0.8024 C   0  0  0  0  0  0  0  0  0  0  0  0
   -2.8571   -0.8002   -0.0359 C   0  0  0  0  0  0  0  0  0  0  0  0
   -4.1923   -1.4753   -0.0292 C   0  0  0  0  0  0  0  0  0  0  0  0
   -5.1929   -0.7883   -0.2077 O   0  0  0  0  0  0  0  0  0  0  0  0
   -4.2359   -2.8478    0.1590 N   0  0  0  0  0  0  0  0  0  0  0  0
   -5.5080   -3.5878    0.1597 C   0  0  0  0  0  0  0  0  0  0  0  0
   -5.4183   -4.8240    1.0721 C   0  0  0  0  0  0  0  0  0  0  0  0
   -6.6949   -5.6613    1.0477 C   0  0  0  0  0  0  0  0  0  0  0  0
   -7.0430   -6.0939   -0.3683 C   0  0  0  0  0  0  0  0  0  0  0  0
   -7.1715   -4.8836   -1.2875 C   0  0  0  0  0  0  0  0  0  0  0  0
   -5.9132   -4.0087   -1.2651 C   0  0  0  0  0  0  0  0  0  0  0  0
   -1.7638   -1.2660    0.7077 C   0  0  0  0  0  0  0  0  0  0  0  0
   -0.5914   -0.5284    0.6316 C   0  0  0  0  0  0  0  0  0  0  0  0
    0.6981   -0.7554    1.2798 C   0  0  0  0  0  0  0  0  0  0  0  0
    0.9235   -1.6858    2.0285 O   0  0  0  0  0  0  0  0  0  0  0  0
    3.3738    1.2481    0.8458 H   0  0  0  0  0  0  0  0  0  0  0  0
    3.4343   -0.5293    1.0625 H   0  0  0  0  0  0  0  0  0  0  0  0
    2.8945    0.5021    2.4008 H   0  0  0  0  0  0  0  0  0  0  0  0
   -1.4359    2.0126   -1.4634 H   0  0  0  0  0  0  0  0  0  0  0  0
   -3.5908    0.7611   -1.3641 H   0  0  0  0  0  0  0  0  0  0  0  0
   -3.3849   -3.3898    0.0968 H   0  0  0  0  0  0  0  0  0  0  0  0
   -6.2767   -2.9115    0.5570 H   0  0  0  0  0  0  0  0  0  0  0  0
   -5.2283   -4.5317    2.1098 H   0  0  0  0  0  0  0  0  0  0  0  0
   -4.5708   -5.4483    0.7601 H   0  0  0  0  0  0  0  0  0  0  0  0
   -7.5236   -5.0796    1.4705 H   0  0  0  0  0  0  0  0  0  0  0  0
   -6.5662   -6.5437    1.6847 H   0  0  0  0  0  0  0  0  0  0  0  0
   -7.9799   -6.6631   -0.3610 H   0  0  0  0  0  0  0  0  0  0  0  0
   -6.2632   -6.7658   -0.7480 H   0  0  0  0  0  0  0  0  0  0  0  0
   -8.0383   -4.2856   -0.9799 H   0  0  0  0  0  0  0  0  0  0  0  0
   -7.3679   -5.2256   -2.3102 H   0  0  0  0  0  0  0  0  0  0  0  0
   -6.0791   -3.1230   -1.8893 H   0  0  0  0  0  0  0  0  0  0  0  0
   -5.0890   -4.5647   -1.7306 H   0  0  0  0  0  0  0  0  0  0  0  0
   -1.8047   -2.1467    1.3380 H   0  0  0  0  0  0  0  0  0  0  0  0
  1  2  1  0  0  0  0
  1 22  1  0  0  0  0
  1 23  1  0  0  0  0
  1 24  1  0  0  0  0
  2  3  1  0  0  0  0
  2 20  1  0  0  0  0
  3  4  2  0  0  0  0
  3  5  1  0  0  0  0
  5  6  1  0  0  0  0
  5 19  2  0  0  0  0
  6  7  2  0  0  0  0
  6 25  1  0  0  0  0
  7  8  1  0  0  0  0
  7 26  1  0  0  0  0
  8  9  1  0  0  0  0
  8 18  2  0  0  0  0
  9 10  2  0  0  0  0
  9 11  1  0  0  0  0
 11 12  1  0  0  0  0
 11 27  1  0  0  0  0
 12 13  1  0  0  0  0
 12 17  1  0  0  0  0
 12 28  1  0  0  0  0
 13 14  1  0  0  0  0
 13 29  1  0  0  0  0
 13 30  1  0  0  0  0
 14 15  1  0  0  0  0
 14 31  1  0  0  0  0
 14 32  1  0  0  0  0
 15 16  1  0  0  0  0
 15 33  1  0  0  0  0
 15 34  1  0  0  0  0
 16 17  1  0  0  0  0
 16 35  1  0  0  0  0
 16 36  1  0  0  0  0
 17 37  1  0  0  0  0
 17 38  1  0  0  0  0
 18 19  1  0  0  0  0
 18 39  1  0  0  0  0
 19 20  1  0  0  0  0
 20 21  2  0  0  0  0
M  END
>  <Energy>
-17.67

$$$$

 OpenBabel04232616063D

 34 37  0  0  0  0  0  0  0  0999 V2000
    2.3240   -0.5712    0.2799 C   0  0  0  0  0  0  0  0  0  0  0  0
    0.8409   -0.3584    0.2190 C   0  0  0  0  0  0  0  0  0  0  0  0
    0.3122    0.9090   -0.0276 C   0  0  0  0  0  0  0  0  0  0  0  0
   -1.0701    1.0894   -0.1301 C   0  0  0  0  0  0  0  0  0  0  0  0
   -1.9689    0.0129   -0.0025 C   0  0  0  0  0  0  0  0  0  0  0  0
   -3.4190    0.1915   -0.2383 C   0  0  0  0  0  0  0  0  0  0  0  0
   -3.8854    1.0773   -1.2061 C   0  0  0  0  0  0  0  0  0  0  0  0
   -5.2519    1.2045   -1.3954 C   0  0  0  0  0  0  0  0  0  0  0  0
   -5.7275    2.0643   -2.3485 O   0  0  0  0  0  0  0  0  0  0  0  0
   -6.1486    0.4518   -0.6342 C   0  0  0  0  0  0  0  0  0  0  0  0
   -7.5463    0.5610   -0.8054 C   0  0  0  0  0  0  0  0  0  0  0  0
   -8.3554   -0.2492   -0.0486 C   0  0  0  0  0  0  0  0  0  0  0  0
   -7.8302   -1.1298    0.8591 C   0  0  0  0  0  0  0  0  0  0  0  0
   -6.4665   -1.2385    1.0629 C   0  0  0  0  0  0  0  0  0  0  0  0
   -5.5974   -0.4500    0.3143 C   0  0  0  0  0  0  0  0  0  0  0  0
   -4.2651   -0.5720    0.5013 N   0  0  0  0  0  0  0  0  0  0  0  0
   -8.7941   -1.8518    1.4914 O   0  0  0  0  0  0  0  0  0  0  0  0
   -9.9794   -1.3685    0.8212 C   0  0  0  0  0  0  0  0  0  0  0  0
   -9.7112   -0.2959   -0.1042 O   0  0  0  0  0  0  0  0  0  0  0  0
   -1.4243   -1.2432    0.3072 C   0  0  0  0  0  0  0  0  0  0  0  0
   -0.0382   -1.4287    0.4127 C   0  0  0  0  0  0  0  0  0  0  0  0
    2.8691    0.3354   -0.0053 H   0  0  0  0  0  0  0  0  0  0  0  0
    2.6199   -1.3626   -0.4165 H   0  0  0  0  0  0  0  0  0  0  0  0
    2.6286   -0.8468    1.2936 H   0  0  0  0  0  0  0  0  0  0  0  0
    0.9693    1.7662   -0.1547 H   0  0  0  0  0  0  0  0  0  0  0  0
   -1.4375    2.0960   -0.3180 H   0  0  0  0  0  0  0  0  0  0  0  0
   -3.1889    1.6414   -1.8148 H   0  0  0  0  0  0  0  0  0  0  0  0
   -4.9832    2.4427   -2.8439 H   0  0  0  0  0  0  0  0  0  0  0  0
   -7.9759    1.2518   -1.5217 H   0  0  0  0  0  0  0  0  0  0  0  0
   -6.0750   -1.9403    1.7910 H   0  0  0  0  0  0  0  0  0  0  0  0
  -10.6941   -1.0156    1.5734 H   0  0  0  0  0  0  0  0  0  0  0  0
  -10.4332   -2.1993    0.2675 H   0  0  0  0  0  0  0  0  0  0  0  0
   -2.0828   -2.1000    0.4418 H   0  0  0  0  0  0  0  0  0  0  0  0
    0.3478   -2.4221    0.6319 H   0  0  0  0  0  0  0  0  0  0  0  0
  1  2  1  0  0  0  0
  1 22  1  0  0  0  0
  1 23  1  0  0  0  0
  1 24  1  0  0  0  0
  2  3  1  0  0  0  0
  2 21  2  0  0  0  0
  3  4  2  0  0  0  0
  3 25  1  0  0  0  0
  4  5  1  0  0  0  0
  4 26  1  0  0  0  0
  5  6  1  0  0  0  0
  5 20  2  0  0  0  0
  6  7  1  0  0  0  0
  6 16  2  0  0  0  0
  7  8  2  0  0  0  0
  7 27  1  0  0  0  0
  8  9  1  0  0  0  0
  8 10  1  0  0  0  0
  9 28  1  0  0  0  0
 10 11  1  0  0  0  0
 10 15  2  0  0  0  0
 11 12  2  0  0  0  0
 11 29  1  0  0  0  0
 12 13  1  0  0  0  0
 12 19  1  0  0  0  0
 13 14  2  0  0  0  0
 13 17  1  0  0  0  0
 14 15  1  0  0  0  0
 14 30  1  0  0  0  0
 15 16  1  0  0  0  0
 17 18  1  0  0  0  0
 18 19  1  0  0  0  0
 18 31  1  0  0  0  0
 18 32  1  0  0  0  0
 20 21  1  0  0  0  0
 20 33  1  0  0  0  0
 21 34  1  0  0  0  0
M  END
>  <Energy>
47.665

$$$$

 OpenBabel04232616063D

 41 43  0  0  0  0  0  0  0  0999 V2000
    1.0684   -0.0120   -0.0687 C   0  0  0  0  0  0  0  0  0  0  0  0
    2.5595    0.0784   -0.0317 C   0  0  0  0  0  0  0  0  0  0  0  0
    3.3905    1.1948    0.0086 C   0  0  0  0  0  0  0  0  0  0  0  0
    2.9705    2.6350    0.0228 C   0  0  0  0  0  0  0  0  0  0  0  0
    3.7018    3.4283   -0.9039 O   0  0  0  0  0  0  0  0  0  0  0  0
    4.7326    0.6985    0.0889 C   0  0  0  0  0  0  0  0  0  0  0  0
    4.6738   -0.6849    0.0701 C   0  0  0  0  0  0  0  0  0  0  0  0
    3.3556   -1.0540   -0.0227 N   0  0  0  0  0  0  0  0  0  0  0  0
    2.8331   -2.4057   -0.0688 C   0  0  0  0  0  0  0  0  0  0  0  0
    5.8447   -1.5203    0.1530 C   0  0  0  0  0  0  0  0  0  0  0  0
    5.8628   -2.7438    0.0934 O   0  0  0  0  0  0  0  0  0  0  0  0
    7.1206   -0.7970    0.3481 C   0  0  0  0  0  0  0  0  0  0  0  0
    7.2277    0.5449    0.3717 C   0  0  0  0  0  0  0  0  0  0  0  0
    8.4803    1.1441    0.5734 N   0  0  0  0  0  0  0  0  0  0  0  0
    8.9803    2.2411   -0.2631 C   0  0  0  0  0  0  0  0  0  0  0  0
   10.4437    1.9462   -0.6103 C   0  0  0  0  0  0  0  0  0  0  0  0
   11.2892    1.7101    0.6438 C   0  0  0  0  0  0  0  0  0  0  0  0
   10.6552    0.6623    1.5584 C   0  0  0  0  0  0  0  0  0  0  0  0
    9.1954    0.9970    1.8471 C   0  0  0  0  0  0  0  0  0  0  0  0
    5.9935    1.4305    0.1937 C   0  0  0  0  0  0  0  0  0  0  0  0
    6.0492    2.6583    0.1786 O   0  0  0  0  0  0  0  0  0  0  0  0
    0.5971    0.9737   -0.0460 H   0  0  0  0  0  0  0  0  0  0  0  0
    0.6988   -0.5703    0.7979 H   0  0  0  0  0  0  0  0  0  0  0  0
    0.7355   -0.5194   -0.9795 H   0  0  0  0  0  0  0  0  0  0  0  0
    3.0992    3.0559    1.0256 H   0  0  0  0  0  0  0  0  0  0  0  0
    1.9149    2.7390   -0.2424 H   0  0  0  0  0  0  0  0  0  0  0  0
    4.6247    3.4388   -0.5740 H   0  0  0  0  0  0  0  0  0  0  0  0
    3.6292   -3.1455   -0.0838 H   0  0  0  0  0  0  0  0  0  0  0  0
    2.2361   -2.5117   -0.9785 H   0  0  0  0  0  0  0  0  0  0  0  0
    2.2145   -2.5626    0.8189 H   0  0  0  0  0  0  0  0  0  0  0  0
    7.9951   -1.4285    0.4505 H   0  0  0  0  0  0  0  0  0  0  0  0
    8.8942    3.1964    0.2678 H   0  0  0  0  0  0  0  0  0  0  0  0
    8.4086    2.3211   -1.1951 H   0  0  0  0  0  0  0  0  0  0  0  0
   10.8658    2.7715   -1.1935 H   0  0  0  0  0  0  0  0  0  0  0  0
   10.4903    1.0487   -1.2414 H   0  0  0  0  0  0  0  0  0  0  0  0
   11.3962    2.6539    1.1922 H   0  0  0  0  0  0  0  0  0  0  0  0
   12.2966    1.3873    0.3580 H   0  0  0  0  0  0  0  0  0  0  0  0
   11.2155    0.5964    2.4974 H   0  0  0  0  0  0  0  0  0  0  0  0
   10.7136   -0.3217    1.0763 H   0  0  0  0  0  0  0  0  0  0  0  0
    9.1201    1.9274    2.4217 H   0  0  0  0  0  0  0  0  0  0  0  0
    8.7549    0.2051    2.4646 H   0  0  0  0  0  0  0  0  0  0  0  0
  1  2  1  0  0  0  0
  1 22  1  0  0  0  0
  1 23  1  0  0  0  0
  1 24  1  0  0  0  0
  2  3  2  0  0  0  0
  2  8  1  0  0  0  0
  3  4  1  0  0  0  0
  3  6  1  0  0  0  0
  4  5  1  0  0  0  0
  4 25  1  0  0  0  0
  4 26  1  0  0  0  0
  5 27  1  0  0  0  0
  6  7  2  0  0  0  0
  6 20  1  0  0  0  0
  7  8  1  0  0  0  0
  7 10  1  0  0  0  0
  8  9  1  0  0  0  0
  9 28  1  0  0  0  0
  9 29  1  0  0  0  0
  9 30  1  0  0  0  0
 10 11  2  0  0  0  0
 10 12  1  0  0  0  0
 12 13  2  0  0  0  0
 12 31  1  0  0  0  0
 13 14  1  0  0  0  0
 13 20  1  0  0  0  0
 14 15  1  0  0  0  0
 14 19  1  0  0  0  0
 15 16  1  0  0  0  0
 15 32  1  0  0  0  0
 15 33  1  0  0  0  0
 16 17  1  0  0  0  0
 16 34  1  0  0  0  0
 16 35  1  0  0  0  0
 17 18  1  0  0  0  0
 17 36  1  0  0  0  0
 17 37  1  0  0  0  0
 18 19  1  0  0  0  0
 18 38  1  0  0  0  0
 18 39  1  0  0  0  0
 19 40  1  0  0  0  0
 19 41  1  0  0  0  0
 20 21  2  0  0  0  0
M  END
>  <Energy>
77.0207

$$$$

 OpenBabel04232616063D

 39 41  0  0  1  0  0  0  0  0999 V2000
    0.8839    0.1277    0.0995 C   0  0  0  0  0  0  0  0  0  0  0  0
    2.3994    0.0676   -0.0822 C   0  0  3  0  0  0  0  0  0  0  0  0
    2.9317    1.1366   -1.0596 C   0  0  0  0  0  0  0  0  0  0  0  0
    2.6072    0.7844   -2.4439 N   0  0  0  0  0  0  0  0  0  0  0  0
    1.8758    1.5642   -3.3366 C   0  0  0  0  0  0  0  0  0  0  0  0
    1.5213    1.1745   -4.4459 O   0  0  0  0  0  0  0  0  0  0  0  0
    1.4912    2.9822   -2.9179 C   0  0  0  0  0  0  0  0  0  0  0  0
    0.7062    3.0867   -1.9743 O   0  0  0  0  0  0  0  0  0  0  0  0
    2.0353    4.1537   -3.6110 C   0  0  0  0  0  0  0  0  0  0  0  0
    1.6697    5.4544   -3.2967 C   0  0  0  0  0  0  0  0  0  0  0  0
    2.3483    6.3148   -4.1106 N   0  0  0  0  0  0  0  0  0  0  0  0
    3.1608    5.6110   -4.9663 C   0  0  0  0  0  0  0  0  0  0  0  0
    4.0254    6.0843   -5.9641 C   0  0  0  0  0  0  0  0  0  0  0  0
    4.7338    5.1442   -6.7134 C   0  0  0  0  0  0  0  0  0  0  0  0
    4.5823    3.7838   -6.4715 C   0  0  0  0  0  0  0  0  0  0  0  0
    3.7201    3.3276   -5.4655 C   0  0  0  0  0  0  0  0  0  0  0  0
    2.9856    4.2511   -4.6874 C   0  0  0  0  0  0  0  0  0  0  0  0
    3.0124   -0.5680   -2.8216 C   0  0  0  0  0  0  0  0  0  0  0  0
    2.4674   -1.6014   -1.8206 C   0  0  3  0  0  0  0  0  0  0  0  0
    3.0382   -2.9845   -2.1074 C   0  0  0  0  0  0  0  0  0  0  0  0
    2.8290   -1.2531   -0.4699 O   0  0  0  0  0  0  0  0  0  0  0  0
    0.5809    1.0881    0.5278 H   0  0  0  0  0  0  0  0  0  0  0  0
    0.5490   -0.6741    0.7665 H   0  0  0  0  0  0  0  0  0  0  0  0
    0.3475   -0.0011   -0.8455 H   0  0  0  0  0  0  0  0  0  0  0  0
    2.8515    0.2519    0.8995 H   0  0  0  0  0  0  0  0  0  0  0  0
    4.0273    1.1537   -1.0044 H   0  0  0  0  0  0  0  0  0  0  0  0
    2.5769    2.1307   -0.7843 H   0  0  0  0  0  0  0  0  0  0  0  0
    0.9706    5.8297   -2.5589 H   0  0  0  0  0  0  0  0  0  0  0  0
    2.2628    7.3224   -4.1001 H   0  0  0  0  0  0  0  0  0  0  0  0
    4.1410    7.1460   -6.1586 H   0  0  0  0  0  0  0  0  0  0  0  0
    5.4062    5.4794   -7.4998 H   0  0  0  0  0  0  0  0  0  0  0  0
    5.1316    3.0629   -7.0725 H   0  0  0  0  0  0  0  0  0  0  0  0
    3.6219    2.2569   -5.3163 H   0  0  0  0  0  0  0  0  0  0  0  0
    4.1092   -0.5720   -2.8100 H   0  0  0  0  0  0  0  0  0  0  0  0
    2.6882   -0.8121   -3.8379 H   0  0  0  0  0  0  0  0  0  0  0  0
    1.3755   -1.6590   -1.8898 H   0  0  0  0  0  0  0  0  0  0  0  0
    4.1306   -2.9842   -2.0230 H   0  0  0  0  0  0  0  0  0  0  0  0
    2.7644   -3.3265   -3.1102 H   0  0  0  0  0  0  0  0  0  0  0  0
    2.6671   -3.7114   -1.3768 H   0  0  0  0  0  0  0  0  0  0  0  0
  1  2  1  0  0  0  0
  1 22  1  0  0  0  0
  1 23  1  0  0  0  0
  1 24  1  0  0  0  0
  2  3  1  0  0  0  0
  2 21  1  0  0  0  0
  2 25  1  0  0  0  0
  3  4  1  0  0  0  0
  3 26  1  0  0  0  0
  3 27  1  0  0  0  0
  4  5  1  0  0  0  0
  4 18  1  0  0  0  0
  5  6  2  0  0  0  0
  5  7  1  0  0  0  0
  7  8  2  0  0  0  0
  7  9  1  0  0  0  0
  9 10  2  0  0  0  0
  9 17  1  0  0  0  0
 10 11  1  0  0  0  0
 10 28  1  0  0  0  0
 11 12  1  0  0  0  0
 11 29  1  0  0  0  0
 12 13  1  0  0  0  0
 12 17  2  0  0  0  0
 13 14  2  0  0  0  0
 13 30  1  0  0  0  0
 14 15  1  0  0  0  0
 14 31  1  0  0  0  0
 15 16  2  0  0  0  0
 15 32  1  0  0  0  0
 16 17  1  0  0  0  0
 16 33  1  0  0  0  0
 18 19  1  0  0  0  0
 18 34  1  0  0  0  0
 18 35  1  0  0  0  0
 19 20  1  0  0  0  0
 19 21  1  0  0  0  0
 19 36  1  0  0  0  0
 20 37  1  0  0  0  0
 20 38  1  0  0  0  0
 20 39  1  0  0  0  0
M  END
>  <Energy>
129.954

$$$$

 OpenBabel04232616063D

 40 42  0  0  0  0  0  0  0  0999 V2000
    1.9286   -1.2762    0.6679 C   0  0  0  0  0  0  0  0  0  0  0  0
    2.3959   -0.2710   -0.3679 C   0  0  0  0  0  0  0  0  0  0  0  0
    3.0776   -1.0036   -1.3967 O   0  0  0  0  0  0  0  0  0  0  0  0
    4.4255   -1.0723   -1.2530 C   0  0  0  0  0  0  0  0  0  0  0  0
    5.1052   -0.3802   -0.5164 O   0  0  0  0  0  0  0  0  0  0  0  0
    4.9459   -2.1745   -2.0851 C   0  0  0  0  0  0  0  0  0  0  0  0
    4.3833   -2.4600   -3.3092 C   0  0  0  0  0  0  0  0  0  0  0  0
    4.8712   -3.3996   -4.1506 N   0  0  0  0  0  0  0  0  0  0  0  0
    5.9503   -4.1025   -3.7698 C   0  0  0  0  0  0  0  0  0  0  0  0
    6.4141   -4.9997   -4.6955 C   0  0  0  0  0  0  0  0  0  0  0  0
    7.5407   -5.7752   -4.4820 C   0  0  0  0  0  0  0  0  0  0  0  0
    8.2031   -5.6586   -3.2546 C   0  0  0  0  0  0  0  0  0  0  0  0
    7.7769   -4.7914   -2.2333 C   0  0  0  0  0  0  0  0  0  0  0  0
    8.6909   -5.0348   -1.1216 C   0  0  0  0  0  0  0  0  0  0  0  0
    8.7138   -4.4975    0.2710 C   0  0  0  0  0  0  0  0  0  0  0  0
    9.6579   -5.9414   -1.5555 C   0  0  0  0  0  0  0  0  0  0  0  0
   10.8489   -6.4798   -0.8333 C   0  0  0  0  0  0  0  0  0  0  0  0
    9.3351   -6.3203   -2.8280 N   0  0  0  0  0  0  0  0  0  0  0  0
   10.0521   -7.2822   -3.6434 C   0  0  0  0  0  0  0  0  0  0  0  0
    6.6204   -3.9402   -2.5185 C   0  0  0  0  0  0  0  0  0  0  0  0
    6.0565   -2.9288   -1.6938 C   0  0  0  0  0  0  0  0  0  0  0  0
    6.5907   -2.6425   -0.4721 O   0  0  0  0  0  0  0  0  0  0  0  0
    1.4062   -0.7859    1.4923 H   0  0  0  0  0  0  0  0  0  0  0  0
    2.7777   -1.8403    1.0695 H   0  0  0  0  0  0  0  0  0  0  0  0
    1.2576   -2.0084    0.2056 H   0  0  0  0  0  0  0  0  0  0  0  0
    3.0253    0.5014    0.0883 H   0  0  0  0  0  0  0  0  0  0  0  0
    1.5388    0.2344   -0.8240 H   0  0  0  0  0  0  0  0  0  0  0  0
    3.5184   -1.9211   -3.6854 H   0  0  0  0  0  0  0  0  0  0  0  0
    5.8882   -5.0909   -5.6481 H   0  0  0  0  0  0  0  0  0  0  0  0
    7.8846   -6.4575   -5.2523 H   0  0  0  0  0  0  0  0  0  0  0  0
    7.7626   -4.1125    0.6208 H   0  0  0  0  0  0  0  0  0  0  0  0
    9.4840   -3.7232    0.3626 H   0  0  0  0  0  0  0  0  0  0  0  0
    8.9597   -5.2976    0.9795 H   0  0  0  0  0  0  0  0  0  0  0  0
   10.9706   -6.0268    0.1549 H   0  0  0  0  0  0  0  0  0  0  0  0
   11.7650   -6.2734   -1.3963 H   0  0  0  0  0  0  0  0  0  0  0  0
   10.7550   -7.5618   -0.6920 H   0  0  0  0  0  0  0  0  0  0  0  0
   10.9043   -7.6942   -3.1018 H   0  0  0  0  0  0  0  0  0  0  0  0
   10.4065   -6.7712   -4.5426 H   0  0  0  0  0  0  0  0  0  0  0  0
    9.3653   -8.0925   -3.9031 H   0  0  0  0  0  0  0  0  0  0  0  0
    7.4783   -2.2705   -0.6418 H   0  0  0  0  0  0  0  0  0  0  0  0
  1  2  1  0  0  0  0
  1 23  1  0  0  0  0
  1 24  1  0  0  0  0
  1 25  1  0  0  0  0
  2  3  1  0  0  0  0
  2 26  1  0  0  0  0
  2 27  1  0  0  0  0
  3  4  1  0  0  0  0
  4  5  2  0  0  0  0
  4  6  1  0  0  0  0
  6  7  1  0  0  0  0
  6 21  2  0  0  0  0
  7  8  2  0  0  0  0
  7 28  1  0  0  0  0
  8  9  1  0  0  0  0
  9 10  1  0  0  0  0
  9 20  2  0  0  0  0
 10 11  2  0  0  0  0
 10 29  1  0  0  0  0
 11 12  1  0  0  0  0
 11 30  1  0  0  0  0
 12 13  2  0  0  0  0
 12 18  1  0  0  0  0
 13 14  1  0  0  0  0
 13 20  1  0  0  0  0
 14 15  1  0  0  0  0
 14 16  2  0  0  0  0
 15 31  1  0  0  0  0
 15 32  1  0  0  0  0
 15 33  1  0  0  0  0
 16 17  1  0  0  0  0
 16 18  1  0  0  0  0
 17 34  1  0  0  0  0
 17 35  1  0  0  0  0
 17 36  1  0  0  0  0
 18 19  1  0  0  0  0
 19 37  1  0  0  0  0
 19 38  1  0  0  0  0
 19 39  1  0  0  0  0
 20 21  1  0  0  0  0
 21 22  1  0  0  0  0
 22 40  1  0  0  0  0
M  END
>  <Energy>
69.0757

$$$$

 OpenBabel04232616063D

 27 29  0  0  0  0  0  0  0  0999 V2000
    1.1628    0.0719   -0.0637 O   0  0  0  0  0  0  0  0  0  0  0  0
    2.5131   -0.0300   -0.0640 C   0  0  0  0  0  0  0  0  0  0  0  0
    3.1518    1.1498   -0.0321 N   0  0  0  0  0  0  0  0  0  0  0  0
    4.5008    1.0850   -0.0236 C   0  0  0  0  0  0  0  0  0  0  0  0
    5.2137    2.2686    0.0112 C   0  0  0  0  0  0  0  0  0  0  0  0
    6.6066    2.2686    0.0201 C   0  0  0  0  0  0  0  0  0  0  0  0
    7.4965    3.9487    0.0612 Br  0  0  0  0  0  0  0  0  0  0  0  0
    7.3294    1.0671   -0.0267 C   0  0  0  0  0  0  0  0  0  0  0  0
    6.6060   -0.1462   -0.0268 C   0  0  0  0  0  0  0  0  0  0  0  0
    5.2016   -0.1552   -0.0472 C   0  0  0  0  0  0  0  0  0  0  0  0
    4.5218   -1.3274   -0.0872 N   0  0  0  0  0  0  0  0  0  0  0  0
    3.1808   -1.2379   -0.0929 C   0  0  0  0  0  0  0  0  0  0  0  0
    2.5516   -2.4368   -0.1244 O   0  0  0  0  0  0  0  0  0  0  0  0
    7.3497   -1.4677   -0.0676 C   0  0  0  0  0  0  0  0  0  0  0  0
    8.8190   -1.3329    0.3161 C   0  0  0  0  0  0  0  0  0  0  0  0
    9.4139   -0.1287   -0.3907 C   0  0  0  0  0  0  0  0  0  0  0  0
    8.7322    1.0692    0.0716 N   0  0  0  0  0  0  0  0  0  0  0  0
    1.0549    1.0393   -0.0329 H   0  0  0  0  0  0  0  0  0  0  0  0
    4.6657    3.2078    0.0342 H   0  0  0  0  0  0  0  0  0  0  0  0
    3.3147   -3.0382   -0.1279 H   0  0  0  0  0  0  0  0  0  0  0  0
    7.2764   -1.8670   -1.0871 H   0  0  0  0  0  0  0  0  0  0  0  0
    6.8826   -2.1907    0.6114 H   0  0  0  0  0  0  0  0  0  0  0  0
    9.3626   -2.2467    0.0537 H   0  0  0  0  0  0  0  0  0  0  0  0
    8.9055   -1.2020    1.4029 H   0  0  0  0  0  0  0  0  0  0  0  0
    9.3268   -0.2219   -1.4804 H   0  0  0  0  0  0  0  0  0  0  0  0
   10.4799   -0.0464   -0.1538 H   0  0  0  0  0  0  0  0  0  0  0  0
    9.1515    1.9464   -0.2318 H   0  0  0  0  0  0  0  0  0  0  0  0
  1  2  1  0  0  0  0
  1 18  1  0  0  0  0
  2  3  1  0  0  0  0
  2 12  2  0  0  0  0
  3  4  2  0  0  0  0
  4  5  1  0  0  0  0
  4 10  1  0  0  0  0
  5  6  2  0  0  0  0
  5 19  1  0  0  0  0
  6  7  1  0  0  0  0
  6  8  1  0  0  0  0
  8  9  2  0  0  0  0
  8 17  1  0  0  0  0
  9 10  1  0  0  0  0
  9 14  1  0  0  0  0
 10 11  2  0  0  0  0
 11 12  1  0  0  0  0
 12 13  1  0  0  0  0
 13 20  1  0  0  0  0
 14 15  1  0  0  0  0
 14 21  1  0  0  0  0
 14 22  1  0  0  0  0
 15 16  1  0  0  0  0
 15 23  1  0  0  0  0
 15 24  1  0  0  0  0
 16 17  1  0  0  0  0
 16 25  1  0  0  0  0
 16 26  1  0  0  0  0
 17 27  1  0  0  0  0
M  END
>  <Energy>
43.0019

$$$$

 OpenBabel04232616063D

 42 45  0  0  0  0  0  0  0  0999 V2000
    1.1269   -0.0112   -0.2937 C   0  0  0  0  0  0  0  0  0  0  0  0
    2.5125    0.0119    0.0328 O   0  0  0  0  0  0  0  0  0  0  0  0
    3.0145   -1.1634    0.5354 C   0  0  0  0  0  0  0  0  0  0  0  0
    2.5686   -2.4267    0.1051 C   0  0  0  0  0  0  0  0  0  0  0  0
    3.1186   -3.6029    0.6137 C   0  0  0  0  0  0  0  0  0  0  0  0
    4.1365   -3.5634    1.5642 C   0  0  0  0  0  0  0  0  0  0  0  0
    4.5916   -2.3058    1.9677 C   0  0  0  0  0  0  0  0  0  0  0  0
    5.5704   -1.9857    2.8735 N   0  0  0  0  0  0  0  0  0  0  0  0
    5.7761   -0.6312    2.9320 C   0  0  0  0  0  0  0  0  0  0  0  0
    6.6908    0.1437    3.6522 C   0  0  0  0  0  0  0  0  0  0  0  0
    7.7343   -0.3487    4.4051 N   0  0  0  0  0  0  0  0  0  0  0  0
    8.1228    0.3651    5.6194 C   0  0  0  0  0  0  0  0  0  0  0  0
    9.6417    0.5398    5.6707 C   0  0  0  0  0  0  0  0  0  0  0  0
   10.3742   -0.7936    5.4677 C   0  0  0  0  0  0  0  0  0  0  0  0
   11.8874   -0.5901    5.4424 C   0  0  0  0  0  0  0  0  0  0  0  0
    9.9049   -1.4522    4.1673 C   0  0  0  0  0  0  0  0  0  0  0  0
    8.3877   -1.6177    4.1311 C   0  0  0  0  0  0  0  0  0  0  0  0
    6.5102    1.4850    3.5603 N   0  0  0  0  0  0  0  0  0  0  0  0
    5.5453    1.9695    2.7572 C   0  0  0  0  0  0  0  0  0  0  0  0
    4.6751    1.2863    2.0073 N   0  0  0  0  0  0  0  0  0  0  0  0
    4.8085   -0.0537    2.1196 C   0  0  0  0  0  0  0  0  0  0  0  0
    4.0712   -1.1045    1.4779 C   0  0  0  0  0  0  0  0  0  0  0  0
    0.8030    1.0209   -0.4580 H   0  0  0  0  0  0  0  0  0  0  0  0
    0.5269   -0.4266    0.5236 H   0  0  0  0  0  0  0  0  0  0  0  0
    0.9522   -0.5599   -1.2248 H   0  0  0  0  0  0  0  0  0  0  0  0
    1.7961   -2.5165   -0.6524 H   0  0  0  0  0  0  0  0  0  0  0  0
    2.7541   -4.5640    0.2578 H   0  0  0  0  0  0  0  0  0  0  0  0
    4.5652   -4.4793    1.9582 H   0  0  0  0  0  0  0  0  0  0  0  0
    6.0776   -2.6613    3.4209 H   0  0  0  0  0  0  0  0  0  0  0  0
    7.7924   -0.2193    6.4881 H   0  0  0  0  0  0  0  0  0  0  0  0
    7.6519    1.3494    5.7141 H   0  0  0  0  0  0  0  0  0  0  0  0
    9.9242    0.9778    6.6353 H   0  0  0  0  0  0  0  0  0  0  0  0
    9.9471    1.2518    4.8929 H   0  0  0  0  0  0  0  0  0  0  0  0
   10.1320   -1.4602    6.3059 H   0  0  0  0  0  0  0  0  0  0  0  0
   12.1855    0.0789    4.6278 H   0  0  0  0  0  0  0  0  0  0  0  0
   12.4045   -1.5451    5.2996 H   0  0  0  0  0  0  0  0  0  0  0  0
   12.2375   -0.1555    6.3842 H   0  0  0  0  0  0  0  0  0  0  0  0
   10.3788   -2.4337    4.0466 H   0  0  0  0  0  0  0  0  0  0  0  0
   10.2175   -0.8399    3.3109 H   0  0  0  0  0  0  0  0  0  0  0  0
    8.0685   -2.3621    4.8706 H   0  0  0  0  0  0  0  0  0  0  0  0
    8.1431   -2.0070    3.1376 H   0  0  0  0  0  0  0  0  0  0  0  0
    5.4691    3.0517    2.7106 H   0  0  0  0  0  0  0  0  0  0  0  0
  1  2  1  0  0  0  0
  1 23  1  0  0  0  0
  1 24  1  0  0  0  0
  1 25  1  0  0  0  0
  2  3  1  0  0  0  0
  3  4  1  0  0  0  0
  3 22  2  0  0  0  0
  4  5  2  0  0  0  0
  4 26  1  0  0  0  0
  5  6  1  0  0  0  0
  5 27  1  0  0  0  0
  6  7  2  0  0  0  0
  6 28  1  0  0  0  0
  7  8  1  0  0  0  0
  7 22  1  0  0  0  0
  8  9  1  0  0  0  0
  8 29  1  0  0  0  0
  9 10  1  0  0  0  0
  9 21  2  0  0  0  0
 10 11  1  0  0  0  0
 10 18  2  0  0  0  0
 11 12  1  0  0  0  0
 11 17  1  0  0  0  0
 12 13  1  0  0  0  0
 12 30  1  0  0  0  0
 12 31  1  0  0  0  0
 13 14  1  0  0  0  0
 13 32  1  0  0  0  0
 13 33  1  0  0  0  0
 14 15  1  0  0  0  0
 14 16  1  0  0  0  0
 14 34  1  0  0  0  0
 15 35  1  0  0  0  0
 15 36  1  0  0  0  0
 15 37  1  0  0  0  0
 16 17  1  0  0  0  0
 16 38  1  0  0  0  0
 16 39  1  0  0  0  0
 17 40  1  0  0  0  0
 17 41  1  0  0  0  0
 18 19  1  0  0  0  0
 19 20  2  0  0  0  0
 19 42  1  0  0  0  0
 20 21  1  0  0  0  0
 21 22  1  0  0  0  0
M  END
>  <Energy>
-4.29223

$$$$

 OpenBabel04232616063D

 35 38  0  0  0  0  0  0  0  0999 V2000
    0.9669   -0.0112   -0.1093 C   0  0  0  0  0  0  0  0  0  0  0  0
    2.4996   -0.0199   -0.1518 C   0  0  0  0  0  0  0  0  0  0  0  0
    3.0102   -0.0105   -1.5972 C   0  0  0  0  0  0  0  0  0  0  0  0
    3.0548   -1.2087    0.6177 C   0  0  0  0  0  0  0  0  0  0  0  0
    2.8884   -2.5662    0.3817 C   0  0  0  0  0  0  0  0  0  0  0  0
    3.5051   -3.4705    1.2506 C   0  0  0  0  0  0  0  0  0  0  0  0
    4.2727   -3.0160    2.3339 C   0  0  0  0  0  0  0  0  0  0  0  0
    4.4377   -1.6491    2.5665 C   0  0  0  0  0  0  0  0  0  0  0  0
    3.8247   -0.7586    1.7023 C   0  0  0  0  0  0  0  0  0  0  0  0
    3.8330    0.6506    1.7149 N   0  0  0  0  0  0  0  0  0  0  0  0
    3.0814    1.1454    0.6559 C   0  0  0  0  0  0  0  0  0  0  0  0
    2.9508    2.4630    0.4662 C   0  0  0  0  0  0  0  0  0  0  0  0
    3.6023    3.3627    1.3836 C   0  0  0  0  0  0  0  0  0  0  0  0
    3.3955    4.7259    1.0916 O   0  0  0  0  0  0  0  0  0  0  0  0
    3.9518    5.6913    1.8810 C   0  0  0  0  0  0  0  0  0  0  0  0
    3.7981    6.8879    1.6657 O   0  0  0  0  0  0  0  0  0  0  0  0
    4.7609    5.2475    3.0263 C   0  0  0  0  0  0  0  0  0  0  0  0
    4.9394    3.9470    3.2771 C   0  0  0  0  0  0  0  0  0  0  0  0
    5.6896    3.5047    4.3392 O   0  0  0  0  0  0  0  0  0  0  0  0
    4.3394    2.9392    2.4272 C   0  0  0  0  0  0  0  0  0  0  0  0
    4.4934    1.4493    2.6469 C   0  0  0  0  0  0  0  0  0  0  0  0
    5.1559    1.0083    3.5842 O   0  0  0  0  0  0  0  0  0  0  0  0
    0.5485   -0.8850   -0.6221 H   0  0  0  0  0  0  0  0  0  0  0  0
    0.5600    0.8828   -0.5957 H   0  0  0  0  0  0  0  0  0  0  0  0
    0.5911   -0.0278    0.9212 H   0  0  0  0  0  0  0  0  0  0  0  0
    2.6564   -0.8879   -2.1510 H   0  0  0  0  0  0  0  0  0  0  0  0
    4.1062   -0.0190   -1.6395 H   0  0  0  0  0  0  0  0  0  0  0  0
    2.6647    0.8796   -2.1357 H   0  0  0  0  0  0  0  0  0  0  0  0
    2.2956   -2.9263   -0.4527 H   0  0  0  0  0  0  0  0  0  0  0  0
    3.3910   -4.5401    1.0900 H   0  0  0  0  0  0  0  0  0  0  0  0
    4.7451   -3.7322    3.0024 H   0  0  0  0  0  0  0  0  0  0  0  0
    5.0340   -1.3159    3.4090 H   0  0  0  0  0  0  0  0  0  0  0  0
    2.3686    2.8714   -0.3529 H   0  0  0  0  0  0  0  0  0  0  0  0
    5.1901    6.0315    3.6351 H   0  0  0  0  0  0  0  0  0  0  0  0
    6.0455    4.2530    4.8440 H   0  0  0  0  0  0  0  0  0  0  0  0
  1  2  1  0  0  0  0
  1 23  1  0  0  0  0
  1 24  1  0  0  0  0
  1 25  1  0  0  0  0
  2  3  1  0  0  0  0
  2  4  1  0  0  0  0
  2 11  1  0  0  0  0
  3 26  1  0  0  0  0
  3 27  1  0  0  0  0
  3 28  1  0  0  0  0
  4  5  1  0  0  0  0
  4  9  2  0  0  0  0
  5  6  2  0  0  0  0
  5 29  1  0  0  0  0
  6  7  1  0  0  0  0
  6 30  1  0  0  0  0
  7  8  2  0  0  0  0
  7 31  1  0  0  0  0
  8  9  1  0  0  0  0
  8 32  1  0  0  0  0
  9 10  1  0  0  0  0
 10 11  1  0  0  0  0
 10 21  1  0  0  0  0
 11 12  2  0  0  0  0
 12 13  1  0  0  0  0
 12 33  1  0  0  0  0
 13 14  1  0  0  0  0
 13 20  2  0  0  0  0
 14 15  1  0  0  0  0
 15 16  2  0  0  0  0
 15 17  1  0  0  0  0
 17 18  2  0  0  0  0
 17 34  1  0  0  0  0
 18 19  1  0  0  0  0
 18 20  1  0  0  0  0
 19 35  1  0  0  0  0
 20 21  1  0  0  0  0
 21 22  2  0  0  0  0
M  END
>  <Energy>
71.3712

$$$$

 OpenBabel04232616063D

 38 41  0  0  0  0  0  0  0  0999 V2000
    0.9920   -0.3413    0.4210 O   0  0  0  0  0  0  0  0  0  0  0  0
    2.1074   -0.0578   -0.0130 C   0  0  0  0  0  0  0  0  0  0  0  0
    2.6754   -0.6493   -1.1238 N   0  0  0  0  0  0  0  0  0  0  0  0
    2.0766   -1.5224   -2.0519 C   0  0  0  0  0  0  0  0  0  0  0  0
    0.7058   -1.8425   -2.0488 C   0  0  0  0  0  0  0  0  0  0  0  0
    0.1736   -2.7509   -2.9723 C   0  0  0  0  0  0  0  0  0  0  0  0
    1.0315   -3.3109   -3.8895 C   0  0  0  0  0  0  0  0  0  0  0  0
    2.3653   -2.9816   -3.9202 C   0  0  0  0  0  0  0  0  0  0  0  0
    2.9153   -2.0879   -3.0251 C   0  0  0  0  0  0  0  0  0  0  0  0
    3.0393   -3.6392   -4.9023 O   0  0  0  0  0  0  0  0  0  0  0  0
    1.9910   -4.4788   -5.4310 C   0  0  0  0  0  0  0  0  0  0  0  0
    0.7012   -4.2264   -4.8383 O   0  0  0  0  0  0  0  0  0  0  0  0
    2.9554    0.8324    0.6684 N   0  0  0  0  0  0  0  0  0  0  0  0
    2.6314    1.1164    2.0677 C   0  0  0  0  0  0  0  0  0  0  0  0
    3.8695    0.9965    2.9359 C   0  0  0  0  0  0  0  0  0  0  0  0
    4.9241    1.9950    2.4830 C   0  0  0  0  0  0  0  0  0  0  0  0
    5.0288    2.1081    0.9807 C   0  0  0  0  0  0  0  0  0  0  0  0
    6.1207    2.8126    0.4497 C   0  0  0  0  0  0  0  0  0  0  0  0
    6.2428    3.0061   -0.9257 C   0  0  0  0  0  0  0  0  0  0  0  0
    5.2533    2.5321   -1.7753 C   0  0  0  0  0  0  0  0  0  0  0  0
    4.1590    1.8377   -1.2565 C   0  0  0  0  0  0  0  0  0  0  0  0
    4.0488    1.5769    0.1202 C   0  0  0  0  0  0  0  0  0  0  0  0
    3.6818   -0.5612   -1.1760 H   0  0  0  0  0  0  0  0  0  0  0  0
    0.0242   -1.4042   -1.3252 H   0  0  0  0  0  0  0  0  0  0  0  0
   -0.8792   -3.0101   -2.9569 H   0  0  0  0  0  0  0  0  0  0  0  0
    3.9711   -1.8504   -3.0827 H   0  0  0  0  0  0  0  0  0  0  0  0
    2.2602   -5.5264   -5.2528 H   0  0  0  0  0  0  0  0  0  0  0  0
    1.9188   -4.3134   -6.5119 H   0  0  0  0  0  0  0  0  0  0  0  0
    1.8742    0.4197    2.4430 H   0  0  0  0  0  0  0  0  0  0  0  0
    2.1988    2.1235    2.1194 H   0  0  0  0  0  0  0  0  0  0  0  0
    4.2721   -0.0218    2.8615 H   0  0  0  0  0  0  0  0  0  0  0  0
    3.6219    1.1703    3.9887 H   0  0  0  0  0  0  0  0  0  0  0  0
    5.8937    1.7050    2.9063 H   0  0  0  0  0  0  0  0  0  0  0  0
    4.6739    2.9877    2.8788 H   0  0  0  0  0  0  0  0  0  0  0  0
    6.8838    3.2216    1.1089 H   0  0  0  0  0  0  0  0  0  0  0  0
    7.0934    3.5513   -1.3270 H   0  0  0  0  0  0  0  0  0  0  0  0
    5.3213    2.7158   -2.8464 H   0  0  0  0  0  0  0  0  0  0  0  0
    3.3738    1.5513   -1.9513 H   0  0  0  0  0  0  0  0  0  0  0  0
  1  2  2  0  0  0  0
  2  3  1  0  0  0  0
  2 13  1  0  0  0  0
  3  4  1  0  0  0  0
  3 23  1  0  0  0  0
  4  5  1  0  0  0  0
  4  9  2  0  0  0  0
  5  6  2  0  0  0  0
  5 24  1  0  0  0  0
  6  7  1  0  0  0  0
  6 25  1  0  0  0  0
  7  8  2  0  0  0  0
  7 12  1  0  0  0  0
  8  9  1  0  0  0  0
  8 10  1  0  0  0  0
  9 26  1  0  0  0  0
 10 11  1  0  0  0  0
 11 12  1  0  0  0  0
 11 27  1  0  0  0  0
 11 28  1  0  0  0  0
 13 14  1  0  0  0  0
 13 22  1  0  0  0  0
 14 15  1  0  0  0  0
 14 29  1  0  0  0  0
 14 30  1  0  0  0  0
 15 16  1  0  0  0  0
 15 31  1  0  0  0  0
 15 32  1  0  0  0  0
 16 17  1  0  0  0  0
 16 33  1  0  0  0  0
 16 34  1  0  0  0  0
 17 18  1  0  0  0  0
 17 22  2  0  0  0  0
 18 19  2  0  0  0  0
 18 35  1  0  0  0  0
 19 20  1  0  0  0  0
 19 36  1  0  0  0  0
 20 21  2  0  0  0  0
 20 37  1  0  0  0  0
 21 22  1  0  0  0  0
 21 38  1  0  0  0  0
M  END
>  <Energy>
-11.9671

$$$$

 OpenBabel04232616063D

 37 39  0  0  0  0  0  0  0  0999 V2000
    1.0903   -0.5713    2.3083 C   0  0  0  0  0  0  0  0  0  0  0  0
    2.4787   -0.8842    1.8421 C   0  0  0  0  0  0  0  0  0  0  0  0
    3.0295   -1.9589    2.0337 O   0  0  0  0  0  0  0  0  0  0  0  0
    3.0356    0.2486    1.2590 O   0  0  0  0  0  0  0  0  0  0  0  0
    4.4483    0.2912    1.1868 C   0  0  0  0  0  0  0  0  0  0  0  0
    5.0289    0.7540    0.0018 C   0  0  0  0  0  0  0  0  0  0  0  0
    6.4245    0.9004   -0.1330 C   0  0  0  0  0  0  0  0  0  0  0  0
    6.9470    1.3951   -1.4506 C   0  0  0  0  0  0  0  0  0  0  0  0
    7.2487    0.5873    0.9703 C   0  0  0  0  0  0  0  0  0  0  0  0
    8.6826    0.6405    0.9615 O   0  0  0  0  0  0  0  0  0  0  0  0
    9.7756    0.9394    0.1400 C   0  0  0  0  0  0  0  0  0  0  0  0
   11.0414    0.6745    0.9060 C   0  0  0  0  0  0  0  0  0  0  0  0
    9.7428    1.3616   -1.0048 O   0  0  0  0  0  0  0  0  0  0  0  0
    6.6688    0.1696    2.1987 C   0  0  0  0  0  0  0  0  0  0  0  0
    5.2849    0.0314    2.2745 C   0  0  0  0  0  0  0  0  0  0  0  0
    4.9930   -0.3865    3.5484 N   0  0  0  0  0  0  0  0  0  0  0  0
    6.1222   -0.5149    4.3082 C   0  0  0  0  0  0  0  0  0  0  0  0
    6.2631   -0.9147    5.6416 C   0  0  0  0  0  0  0  0  0  0  0  0
    7.5529   -0.9679    6.1653 C   0  0  0  0  0  0  0  0  0  0  0  0
    8.6559   -0.6368    5.3836 C   0  0  0  0  0  0  0  0  0  0  0  0
    8.4900   -0.2395    4.0525 C   0  0  0  0  0  0  0  0  0  0  0  0
    7.1975   -0.1803    3.4902 C   0  0  0  0  0  0  0  0  0  0  0  0
    0.7212   -1.4069    2.9110 H   0  0  0  0  0  0  0  0  0  0  0  0
    0.4266   -0.4195    1.4565 H   0  0  0  0  0  0  0  0  0  0  0  0
    1.1139    0.3155    2.9507 H   0  0  0  0  0  0  0  0  0  0  0  0
    4.3745    1.0009   -0.8333 H   0  0  0  0  0  0  0  0  0  0  0  0
    6.1332    1.5994   -2.1550 H   0  0  0  0  0  0  0  0  0  0  0  0
    7.5827    0.6385   -1.9180 H   0  0  0  0  0  0  0  0  0  0  0  0
    7.4856    2.3367   -1.3160 H   0  0  0  0  0  0  0  0  0  0  0  0
   10.8330    0.1488    1.8440 H   0  0  0  0  0  0  0  0  0  0  0  0
   11.5347    1.6215    1.1408 H   0  0  0  0  0  0  0  0  0  0  0  0
   11.6987    0.0318    0.3143 H   0  0  0  0  0  0  0  0  0  0  0  0
    4.0660   -0.6243    3.8745 H   0  0  0  0  0  0  0  0  0  0  0  0
    5.4028   -1.1744    6.2496 H   0  0  0  0  0  0  0  0  0  0  0  0
    7.6999   -1.2767    7.1984 H   0  0  0  0  0  0  0  0  0  0  0  0
    9.6543   -0.6857    5.8084 H   0  0  0  0  0  0  0  0  0  0  0  0
    9.3583    0.0198    3.4621 H   0  0  0  0  0  0  0  0  0  0  0  0
  1  2  1  0  0  0  0
  1 23  1  0  0  0  0
  1 24  1  0  0  0  0
  1 25  1  0  0  0  0
  2  3  2  0  0  0  0
  2  4  1  0  0  0  0
  4  5  1  0  0  0  0
  5  6  1  0  0  0  0
  5 15  2  0  0  0  0
  6  7  2  0  0  0  0
  6 26  1  0  0  0  0
  7  8  1  0  0  0  0
  7  9  1  0  0  0  0
  8 27  1  0  0  0  0
  8 28  1  0  0  0  0
  8 29  1  0  0  0  0
  9 10  1  0  0  0  0
  9 14  2  0  0  0  0
 10 11  1  0  0  0  0
 11 12  1  0  0  0  0
 11 13  2  0  0  0  0
 12 30  1  0  0  0  0
 12 31  1  0  0  0  0
 12 32  1  0  0  0  0
 14 15  1  0  0  0  0
 14 22  1  0  0  0  0
 15 16  1  0  0  0  0
 16 17  1  0  0  0  0
 16 33  1  0  0  0  0
 17 18  1  0  0  0  0
 17 22  2  0  0  0  0
 18 19  2  0  0  0  0
 18 34  1  0  0  0  0
 19 20  1  0  0  0  0
 19 35  1  0  0  0  0
 20 21  2  0  0  0  0
 20 36  1  0  0  0  0
 21 22  1  0  0  0  0
 21 37  1  0  0  0  0
M  END
>  <Energy>
65.3414

$$$$

 OpenBabel04232616063D

 30 33  0  0  0  0  0  0  0  0999 V2000
    2.8914   -0.4737   -1.8905 O   0  0  0  0  0  0  0  0  0  0  0  0
    3.5415   -0.1972   -0.9144 C   0  0  0  0  0  0  0  0  0  0  0  0
    3.9147    1.1760   -0.3547 C   0  0  0  0  0  0  0  0  0  0  0  0
    4.0439    2.4361   -1.0451 C   0  0  0  0  0  0  0  0  0  0  0  0
    4.2836    2.5614   -2.4020 C   0  0  0  0  0  0  0  0  0  0  0  0
    4.3406    1.6329   -3.3471 O   0  0  0  0  0  0  0  0  0  0  0  0
    4.5916    3.8717   -2.6553 N   0  0  0  0  0  0  0  0  0  0  0  0
    4.7362    4.5610   -1.4743 C   0  0  0  0  0  0  0  0  0  0  0  0
    5.2793    5.8274   -1.2269 C   0  0  0  0  0  0  0  0  0  0  0  0
    5.3052    6.2673    0.0991 C   0  0  0  0  0  0  0  0  0  0  0  0
    4.7497    5.4951    1.1101 C   0  0  0  0  0  0  0  0  0  0  0  0
    4.7700    5.9573    2.3699 F   0  0  0  0  0  0  0  0  0  0  0  0
    4.2162    4.2337    0.8574 C   0  0  0  0  0  0  0  0  0  0  0  0
    4.2592    3.7295   -0.4604 C   0  0  0  0  0  0  0  0  0  0  0  0
    4.3811    1.0779    0.8674 N   0  0  0  0  0  0  0  0  0  0  0  0
    4.5286   -0.2943    1.1157 C   0  0  0  0  0  0  0  0  0  0  0  0
    5.2108   -0.8431    2.1775 C   0  0  0  0  0  0  0  0  0  0  0  0
    5.4459   -2.2252    2.1737 C   0  0  0  0  0  0  0  0  0  0  0  0
    4.9832   -3.0330    1.1170 C   0  0  0  0  0  0  0  0  0  0  0  0
    4.2758   -2.4803    0.0472 C   0  0  0  0  0  0  0  0  0  0  0  0
    4.0848   -1.1147    0.0771 C   0  0  0  0  0  0  0  0  0  0  0  0
    4.7521    1.9860   -4.1531 H   0  0  0  0  0  0  0  0  0  0  0  0
    4.8127    4.2548   -3.5628 H   0  0  0  0  0  0  0  0  0  0  0  0
    5.7121    6.4268   -2.0213 H   0  0  0  0  0  0  0  0  0  0  0  0
    5.7671    7.2166    0.3517 H   0  0  0  0  0  0  0  0  0  0  0  0
    3.8344    3.6346    1.6779 H   0  0  0  0  0  0  0  0  0  0  0  0
    5.6014   -0.2084    2.9659 H   0  0  0  0  0  0  0  0  0  0  0  0
    6.0227   -2.6683    2.9817 H   0  0  0  0  0  0  0  0  0  0  0  0
    5.2048   -4.0986    1.1250 H   0  0  0  0  0  0  0  0  0  0  0  0
    3.9406   -3.0787   -0.7907 H   0  0  0  0  0  0  0  0  0  0  0  0
  1  2  2  0  0  0  0
  2  3  1  0  0  0  0
  2 21  1  0  0  0  0
  3  4  1  0  0  0  0
  3 15  2  0  0  0  0
  4  5  2  0  0  0  0
  4 14  1  0  0  0  0
  5  6  1  0  0  0  0
  5  7  1  0  0  0  0
  6 22  1  0  0  0  0
  7  8  1  0  0  0  0
  7 23  1  0  0  0  0
  8  9  1  0  0  0  0
  8 14  2  0  0  0  0
  9 10  2  0  0  0  0
  9 24  1  0  0  0  0
 10 11  1  0  0  0  0
 10 25  1  0  0  0  0
 11 12  1  0  0  0  0
 11 13  2  0  0  0  0
 13 14  1  0  0  0  0
 13 26  1  0  0  0  0
 15 16  1  0  0  0  0
 16 17  1  0  0  0  0
 16 21  2  0  0  0  0
 17 18  2  0  0  0  0
 17 27  1  0  0  0  0
 18 19  1  0  0  0  0
 18 28  1  0  0  0  0
 19 20  2  0  0  0  0
 19 29  1  0  0  0  0
 20 21  1  0  0  0  0
 20 30  1  0  0  0  0
M  END
>  <Energy>
93.7908

$$$$

 OpenBabel04232616063D

 39 41  0  0  1  0  0  0  0  0999 V2000
    0.9895   -0.0775    0.2030 C   0  0  0  0  0  0  0  0  0  0  0  0
    2.4683   -0.0522    0.4054 C   0  0  0  0  0  0  0  0  0  0  0  0
    3.2088    1.0591    0.4029 C   0  0  0  0  0  0  0  0  0  0  0  0
    4.6311    0.9469    0.5035 C   0  0  0  0  0  0  0  0  0  0  0  0
    5.2400   -0.2344    0.6759 C   0  0  0  0  0  0  0  0  0  0  0  0
    4.4161   -1.4665    0.7828 C   0  0  0  0  0  0  0  0  0  0  0  0
    4.9230   -2.5649    0.9949 O   0  0  0  0  0  0  0  0  0  0  0  0
    3.0623   -1.3270    0.5965 O   0  0  0  0  0  0  0  0  0  0  0  0
    6.6868   -0.2701    0.7450 C   0  0  0  0  0  0  0  0  0  0  0  0
    7.4015    0.7819    0.2928 C   0  0  0  0  0  0  0  0  0  0  0  0
    8.9362    0.8422    0.3173 C   0  0  0  0  0  0  0  0  0  0  0  0
    9.5513   -0.4822   -0.1899 C   0  0  0  0  0  0  0  0  0  0  0  0
    9.4372    1.0874    1.7561 C   0  0  0  0  0  0  0  0  0  0  0  0
    9.4683    1.9710   -0.5991 C   0  0  0  0  0  0  0  0  0  0  0  0
    8.8288    3.3396   -0.3673 C   0  0  0  0  0  0  0  0  0  0  0  0
    7.3686    3.2885    0.0718 C   0  0  0  0  0  0  0  0  0  0  0  0
    6.6376    1.9847   -0.2758 C   0  0  3  0  0  0  0  0  0  0  0  0
    6.4174    1.8507   -1.7967 C   0  0  0  0  0  0  0  0  0  0  0  0
    5.3111    2.1302    0.3101 O   0  0  0  0  0  0  0  0  0  0  0  0
    0.5706    0.9320    0.1383 H   0  0  0  0  0  0  0  0  0  0  0  0
    0.4963   -0.5963    1.0307 H   0  0  0  0  0  0  0  0  0  0  0  0
    0.7492   -0.6005   -0.7282 H   0  0  0  0  0  0  0  0  0  0  0  0
    2.7730    2.0433    0.2623 H   0  0  0  0  0  0  0  0  0  0  0  0
    7.1479   -1.1590    1.1657 H   0  0  0  0  0  0  0  0  0  0  0  0
    9.3481   -1.3186    0.4879 H   0  0  0  0  0  0  0  0  0  0  0  0
   10.6413   -0.4010   -0.2788 H   0  0  0  0  0  0  0  0  0  0  0  0
    9.1582   -0.7480   -1.1781 H   0  0  0  0  0  0  0  0  0  0  0  0
    9.1511    0.2693    2.4262 H   0  0  0  0  0  0  0  0  0  0  0  0
    9.0364    2.0145    2.1805 H   0  0  0  0  0  0  0  0  0  0  0  0
   10.5303    1.1606    1.7823 H   0  0  0  0  0  0  0  0  0  0  0  0
    9.3222    1.6889   -1.6491 H   0  0  0  0  0  0  0  0  0  0  0  0
   10.5567    2.0721   -0.4899 H   0  0  0  0  0  0  0  0  0  0  0  0
    8.9144    3.9263   -1.2904 H   0  0  0  0  0  0  0  0  0  0  0  0
    9.4020    3.8903    0.3887 H   0  0  0  0  0  0  0  0  0  0  0  0
    6.8297    4.1505   -0.3447 H   0  0  0  0  0  0  0  0  0  0  0  0
    7.3202    3.4436    1.1593 H   0  0  0  0  0  0  0  0  0  0  0  0
    7.3411    1.7359   -2.3650 H   0  0  0  0  0  0  0  0  0  0  0  0
    5.8871    2.7290   -2.1847 H   0  0  0  0  0  0  0  0  0  0  0  0
    5.7856    0.9862   -2.0316 H   0  0  0  0  0  0  0  0  0  0  0  0
  1  2  1  0  0  0  0
  1 20  1  0  0  0  0
  1 21  1  0  0  0  0
  1 22  1  0  0  0  0
  2  3  2  0  0  0  0
  2  8  1  0  0  0  0
  3  4  1  0  0  0  0
  3 23  1  0  0  0  0
  4  5  2  0  0  0  0
  4 19  1  0  0  0  0
  5  6  1  0  0  0  0
  5  9  1  0  0  0  0
  6  7  2  0  0  0  0
  6  8  1  0  0  0  0
  9 10  2  0  0  0  0
  9 24  1  0  0  0  0
 10 11  1  0  0  0  0
 10 17  1  0  0  0  0
 11 12  1  0  0  0  0
 11 13  1  0  0  0  0
 11 14  1  0  0  0  0
 12 25  1  0  0  0  0
 12 26  1  0  0  0  0
 12 27  1  0  0  0  0
 13 28  1  0  0  0  0
 13 29  1  0  0  0  0
 13 30  1  0  0  0  0
 14 15  1  0  0  0  0
 14 31  1  0  0  0  0
 14 32  1  0  0  0  0
 15 16  1  0  0  0  0
 15 33  1  0  0  0  0
 15 34  1  0  0  0  0
 16 17  1  0  0  0  0
 16 35  1  0  0  0  0
 16 36  1  0  0  0  0
 17 18  1  0  0  0  0
 17 19  1  0  0  0  0
 18 37  1  0  0  0  0
 18 38  1  0  0  0  0
 18 39  1  0  0  0  0
M  END
>  <Energy>
75.5316

$$$$

 OpenBabel04232616063D

 38 41  0  0  0  0  0  0  0  0999 V2000
    1.0579    0.5273    1.4118 C   0  0  0  0  0  0  0  0  0  0  0  0
    1.9024   -0.6574    1.7561 C   0  0  0  0  0  0  0  0  0  0  0  0
    2.8390   -0.5636    2.7205 C   0  0  0  0  0  0  0  0  0  0  0  0
    3.7021   -1.6982    3.2212 C   0  0  0  0  0  0  0  0  0  0  0  0
    3.1568   -2.2596    4.5422 C   0  0  0  0  0  0  0  0  0  0  0  0
    5.1345   -1.1849    3.4463 C   0  0  0  0  0  0  0  0  0  0  0  0
    3.7682   -2.7943    2.2392 N   0  0  0  0  0  0  0  0  0  0  0  0
    2.5528   -3.0584    1.5539 C   0  0  0  0  0  0  0  0  0  0  0  0
    2.3384   -4.3626    1.1105 C   0  0  0  0  0  0  0  0  0  0  0  0
    1.2229   -4.6790    0.3375 C   0  0  0  0  0  0  0  0  0  0  0  0
    0.3689   -3.6474   -0.1011 C   0  0  0  0  0  0  0  0  0  0  0  0
    0.6370   -2.3278    0.2866 C   0  0  0  0  0  0  0  0  0  0  0  0
   -0.2833   -1.5540   -0.3892 N   0  0  0  0  0  0  0  0  0  0  0  0
   -1.1602   -2.3160   -1.1225 C   0  0  0  0  0  0  0  0  0  0  0  0
   -2.2240   -1.9304   -1.9462 C   0  0  0  0  0  0  0  0  0  0  0  0
   -2.9794   -2.9452   -2.5410 C   0  0  0  0  0  0  0  0  0  0  0  0
   -2.6788   -4.2871   -2.3194 C   0  0  0  0  0  0  0  0  0  0  0  0
   -1.5897   -4.6503   -1.5189 C   0  0  0  0  0  0  0  0  0  0  0  0
   -0.8077   -3.6436   -0.9158 C   0  0  0  0  0  0  0  0  0  0  0  0
    1.6852   -2.0031    1.1781 C   0  0  0  0  0  0  0  0  0  0  0  0
    1.3173    1.4026    2.0188 H   0  0  0  0  0  0  0  0  0  0  0  0
   -0.0001    0.3247    1.5989 H   0  0  0  0  0  0  0  0  0  0  0  0
    1.2039    0.8168    0.3656 H   0  0  0  0  0  0  0  0  0  0  0  0
    2.9845    0.3893    3.2248 H   0  0  0  0  0  0  0  0  0  0  0  0
    3.1192   -1.4865    5.3223 H   0  0  0  0  0  0  0  0  0  0  0  0
    3.7867   -3.0778    4.9102 H   0  0  0  0  0  0  0  0  0  0  0  0
    2.1431   -2.6618    4.4272 H   0  0  0  0  0  0  0  0  0  0  0  0
    5.1657   -0.4366    4.2458 H   0  0  0  0  0  0  0  0  0  0  0  0
    5.5400   -0.7212    2.5390 H   0  0  0  0  0  0  0  0  0  0  0  0
    5.8100   -2.0006    3.7255 H   0  0  0  0  0  0  0  0  0  0  0  0
    4.4493   -2.5642    1.5122 H   0  0  0  0  0  0  0  0  0  0  0  0
    3.0305   -5.1493    1.3998 H   0  0  0  0  0  0  0  0  0  0  0  0
    1.0413   -5.7073    0.0408 H   0  0  0  0  0  0  0  0  0  0  0  0
   -0.3071   -0.5480   -0.3830 H   0  0  0  0  0  0  0  0  0  0  0  0
   -2.4618   -0.8860   -2.1188 H   0  0  0  0  0  0  0  0  0  0  0  0
   -3.8173   -2.6820   -3.1827 H   0  0  0  0  0  0  0  0  0  0  0  0
   -3.2896   -5.0613   -2.7771 H   0  0  0  0  0  0  0  0  0  0  0  0
   -1.3556   -5.6982   -1.3584 H   0  0  0  0  0  0  0  0  0  0  0  0
  1  2  1  0  0  0  0
  1 21  1  0  0  0  0
  1 22  1  0  0  0  0
  1 23  1  0  0  0  0
  2  3  2  0  0  0  0
  2 20  1  0  0  0  0
  3  4  1  0  0  0  0
  3 24  1  0  0  0  0
  4  5  1  0  0  0  0
  4  6  1  0  0  0  0
  4  7  1  0  0  0  0
  5 25  1  0  0  0  0
  5 26  1  0  0  0  0
  5 27  1  0  0  0  0
  6 28  1  0  0  0  0
  6 29  1  0  0  0  0
  6 30  1  0  0  0  0
  7  8  1  0  0  0  0
  7 31  1  0  0  0  0
  8  9  1  0  0  0  0
  8 20  2  0  0  0  0
  9 10  2  0  0  0  0
  9 32  1  0  0  0  0
 10 11  1  0  0  0  0
 10 33  1  0  0  0  0
 11 12  2  0  0  0  0
 11 19  1  0  0  0  0
 12 13  1  0  0  0  0
 12 20  1  0  0  0  0
 13 14  1  0  0  0  0
 13 34  1  0  0  0  0
 14 15  1  0  0  0  0
 14 19  2  0  0  0  0
 15 16  2  0  0  0  0
 15 35  1  0  0  0  0
 16 17  1  0  0  0  0
 16 36  1  0  0  0  0
 17 18  2  0  0  0  0
 17 37  1  0  0  0  0
 18 19  1  0  0  0  0
 18 38  1  0  0  0  0
M  END
>  <Energy>
49.6234

$$$$

 OpenBabel04232616063D

 35 37  0  0  0  0  0  0  0  0999 V2000
    1.0641   -0.0870    0.0691 C   0  0  0  0  0  0  0  0  0  0  0  0
    2.5640   -0.0476    0.0632 C   0  0  0  0  0  0  0  0  0  0  0  0
    3.3175   -1.2244    0.0610 C   0  0  0  0  0  0  0  0  0  0  0  0
    4.7165   -1.1950    0.0571 C   0  0  0  0  0  0  0  0  0  0  0  0
    5.3410    0.0575    0.0632 C   0  0  0  0  0  0  0  0  0  0  0  0
    6.6817    0.3790    0.0563 N   0  0  0  0  0  0  0  0  0  0  0  0
    6.8542    1.7406    0.0564 C   0  0  0  0  0  0  0  0  0  0  0  0
    8.0610    2.3038    0.0394 O   0  0  0  0  0  0  0  0  0  0  0  0
    5.5959    2.3021    0.0753 C   0  0  0  0  0  0  0  0  0  0  0  0
    5.3721    3.6855    0.0372 N   0  0  0  0  0  0  0  0  0  0  0  0
    4.3782    4.0700    0.6908 N   0  0  0  0  0  0  0  0  0  0  0  0
    4.2405    5.4784    0.6462 C   0  0  0  0  0  0  0  0  0  0  0  0
    5.3599    6.3303    0.6963 C   0  0  0  0  0  0  0  0  0  0  0  0
    5.2186    7.7177    0.6787 C   0  0  0  0  0  0  0  0  0  0  0  0
    3.9499    8.2819    0.6179 C   0  0  0  0  0  0  0  0  0  0  0  0
    2.8241    7.4595    0.5819 C   0  0  0  0  0  0  0  0  0  0  0  0
    2.9560    6.0592    0.6037 C   0  0  0  0  0  0  0  0  0  0  0  0
    1.7196    5.2035    0.5960 C   0  0  0  0  0  0  0  0  0  0  0  0
    4.6274    1.2575    0.0712 C   0  0  0  0  0  0  0  0  0  0  0  0
    3.2168    1.1958    0.0624 C   0  0  0  0  0  0  0  0  0  0  0  0
    0.6880   -1.1149    0.0728 H   0  0  0  0  0  0  0  0  0  0  0  0
    0.6710    0.4130   -0.8220 H   0  0  0  0  0  0  0  0  0  0  0  0
    0.6793    0.4154    0.9627 H   0  0  0  0  0  0  0  0  0  0  0  0
    2.8166   -2.1908    0.0616 H   0  0  0  0  0  0  0  0  0  0  0  0
    5.2889   -2.1168    0.0502 H   0  0  0  0  0  0  0  0  0  0  0  0
    7.4211   -0.3070    0.0390 H   0  0  0  0  0  0  0  0  0  0  0  0
    8.7498    1.6207    0.0347 H   0  0  0  0  0  0  0  0  0  0  0  0
    6.3588    5.9025    0.7501 H   0  0  0  0  0  0  0  0  0  0  0  0
    6.1006    8.3512    0.7145 H   0  0  0  0  0  0  0  0  0  0  0  0
    3.8357    9.3627    0.6040 H   0  0  0  0  0  0  0  0  0  0  0  0
    1.8387    7.9187    0.5400 H   0  0  0  0  0  0  0  0  0  0  0  0
    0.8115    5.8118    0.5173 H   0  0  0  0  0  0  0  0  0  0  0  0
    1.6514    4.6282    1.5249 H   0  0  0  0  0  0  0  0  0  0  0  0
    1.7302    4.5206   -0.2590 H   0  0  0  0  0  0  0  0  0  0  0  0
    2.6401    2.1157    0.0605 H   0  0  0  0  0  0  0  0  0  0  0  0
  1  2  1  0  0  0  0
  1 21  1  0  0  0  0
  1 22  1  0  0  0  0
  1 23  1  0  0  0  0
  2  3  1  0  0  0  0
  2 20  2  0  0  0  0
  3  4  2  0  0  0  0
  3 24  1  0  0  0  0
  4  5  1  0  0  0  0
  4 25  1  0  0  0  0
  5  6  1  0  0  0  0
  5 19  2  0  0  0  0
  6  7  1  0  0  0  0
  6 26  1  0  0  0  0
  7  8  1  0  0  0  0
  7  9  2  0  0  0  0
  8 27  1  0  0  0  0
  9 10  1  0  0  0  0
  9 19  1  0  0  0  0
 10 11  2  3  0  0  0
 11 12  1  0  0  0  0
 12 13  1  0  0  0  0
 12 17  2  0  0  0  0
 13 14  2  0  0  0  0
 13 28  1  0  0  0  0
 14 15  1  0  0  0  0
 14 29  1  0  0  0  0
 15 16  2  0  0  0  0
 15 30  1  0  0  0  0
 16 17  1  0  0  0  0
 16 31  1  0  0  0  0
 17 18  1  0  0  0  0
 18 32  1  0  0  0  0
 18 33  1  0  0  0  0
 18 34  1  0  0  0  0
 19 20  1  0  0  0  0
 20 35  1  0  0  0  0
M  END
>  <Energy>
61.8861

$$$$

 OpenBabel04232616063D

 27 28  0  0  0  0  0  0  0  0999 V2000
    0.6476    0.1073   -0.1554 O   0  0  0  0  0  0  0  0  0  0  0  0
    1.8167   -0.2344   -0.0547 C   0  0  0  0  0  0  0  0  0  0  0  0
    2.4686   -0.5301    1.1400 N   0  0  0  0  0  0  0  0  0  0  0  0
    2.0519   -0.4880    2.4583 C   0  0  0  0  0  0  0  0  0  0  0  0
    0.7419    0.3413    3.0679 S   0  0  0  0  0  0  0  0  0  0  0  0
    2.8749   -1.1522    3.3436 N   0  0  0  0  0  0  0  0  0  0  0  0
    3.7979   -2.1943    3.0836 C   0  0  0  0  0  0  0  0  0  0  0  0
    3.6369   -3.0570    1.9899 C   0  0  0  0  0  0  0  0  0  0  0  0
    4.5933   -4.0297    1.7001 C   0  0  0  0  0  0  0  0  0  0  0  0
    5.7097   -4.1703    2.5185 C   0  0  0  0  0  0  0  0  0  0  0  0
    5.8485   -3.3656    3.6506 C   0  0  0  0  0  0  0  0  0  0  0  0
    4.8863   -2.3955    3.9451 C   0  0  0  0  0  0  0  0  0  0  0  0
    5.1095   -1.4160    5.3513 Cl  0  0  0  0  0  0  0  0  0  0  0  0
    2.6672   -0.4696   -1.2091 C   0  0  0  0  0  0  0  0  0  0  0  0
    2.3820   -0.4728   -2.5610 C   0  0  0  0  0  0  0  0  0  0  0  0
    3.5825   -0.8060   -3.2316 C   0  0  0  0  0  0  0  0  0  0  0  0
    4.5325   -0.9788   -2.2533 C   0  0  0  0  0  0  0  0  0  0  0  0
    3.9899   -0.7869   -1.0226 O   0  0  0  0  0  0  0  0  0  0  0  0
    3.4379   -0.7854    1.0106 H   0  0  0  0  0  0  0  0  0  0  0  0
    2.8021   -0.8460    4.3121 H   0  0  0  0  0  0  0  0  0  0  0  0
    2.7489   -3.0144    1.3630 H   0  0  0  0  0  0  0  0  0  0  0  0
    4.4593   -4.6794    0.8379 H   0  0  0  0  0  0  0  0  0  0  0  0
    6.4633   -4.9179    2.2835 H   0  0  0  0  0  0  0  0  0  0  0  0
    6.7151   -3.4937    4.2941 H   0  0  0  0  0  0  0  0  0  0  0  0
    1.4111   -0.2718   -2.9947 H   0  0  0  0  0  0  0  0  0  0  0  0
    3.7347   -0.9093   -4.2970 H   0  0  0  0  0  0  0  0  0  0  0  0
    5.5844   -1.2325   -2.2706 H   0  0  0  0  0  0  0  0  0  0  0  0
  1  2  2  0  0  0  0
  2  3  1  0  0  0  0
  2 14  1  0  0  0  0
  3  4  1  0  0  0  0
  3 19  1  0  0  0  0
  4  5  2  0  0  0  0
  4  6  1  0  0  0  0
  6  7  1  0  0  0  0
  6 20  1  0  0  0  0
  7  8  1  0  0  0  0
  7 12  2  0  0  0  0
  8  9  2  0  0  0  0
  8 21  1  0  0  0  0
  9 10  1  0  0  0  0
  9 22  1  0  0  0  0
 10 11  2  0  0  0  0
 10 23  1  0  0  0  0
 11 12  1  0  0  0  0
 11 24  1  0  0  0  0
 12 13  1  0  0  0  0
 14 15  2  0  0  0  0
 14 18  1  0  0  0  0
 15 16  1  0  0  0  0
 15 25  1  0  0  0  0
 16 17  2  0  0  0  0
 16 26  1  0  0  0  0
 17 18  1  0  0  0  0
 17 27  1  0  0  0  0
M  END
>  <Energy>
-10.0265

$$$$

 OpenBabel04232616063D

 35 37  0  0  0  0  0  0  0  0999 V2000
    1.9583   -0.2417    2.6460 C   0  0  0  0  0  0  0  0  0  0  0  0
    0.5844   -0.1599    2.0503 C   0  0  0  0  0  0  0  0  0  0  0  0
    0.0899    1.0423    1.5324 C   0  0  0  0  0  0  0  0  0  0  0  0
   -1.2011    1.1119    0.9947 C   0  0  0  0  0  0  0  0  0  0  0  0
   -2.0197   -0.0232    0.9779 C   0  0  0  0  0  0  0  0  0  0  0  0
   -3.4123   -0.0406    0.4457 C   0  0  0  0  0  0  0  0  0  0  0  0
   -3.9541   -1.1218    0.2138 O   0  0  0  0  0  0  0  0  0  0  0  0
   -4.1281    1.2408    0.2025 C   0  0  0  0  0  0  0  0  0  0  0  0
   -5.3808    1.2410   -0.2892 C   0  0  0  0  0  0  0  0  0  0  0  0
   -6.1482    0.1242   -0.5611 N   0  0  0  0  0  0  0  0  0  0  0  0
   -7.2391    0.1801   -1.4341 C   0  0  0  0  0  0  0  0  0  0  0  0
   -7.9021   -0.9830   -1.8288 C   0  0  0  0  0  0  0  0  0  0  0  0
   -8.9911   -0.9060   -2.6995 C   0  0  0  0  0  0  0  0  0  0  0  0
   -9.4354    0.3357   -3.1589 C   0  0  0  0  0  0  0  0  0  0  0  0
   -8.8097    1.5086   -2.7304 C   0  0  0  0  0  0  0  0  0  0  0  0
   -7.7210    1.4267   -1.8630 C   0  0  0  0  0  0  0  0  0  0  0  0
   -7.0895    2.5978   -1.4146 N   0  0  0  0  0  0  0  0  0  0  0  0
   -5.9602    2.6012   -0.6273 C   0  0  0  0  0  0  0  0  0  0  0  0
   -5.4405    3.6552   -0.2661 O   0  0  0  0  0  0  0  0  0  0  0  0
   -1.5103   -1.2326    1.4741 C   0  0  0  0  0  0  0  0  0  0  0  0
   -0.2219   -1.3005    2.0067 C   0  0  0  0  0  0  0  0  0  0  0  0
    2.4633    0.7294    2.6271 H   0  0  0  0  0  0  0  0  0  0  0  0
    2.5719   -0.9533    2.0844 H   0  0  0  0  0  0  0  0  0  0  0  0
    1.8949   -0.5660    3.6899 H   0  0  0  0  0  0  0  0  0  0  0  0
    0.7076    1.9385    1.5429 H   0  0  0  0  0  0  0  0  0  0  0  0
   -1.5243    2.0645    0.5885 H   0  0  0  0  0  0  0  0  0  0  0  0
   -3.6181    2.1751    0.3908 H   0  0  0  0  0  0  0  0  0  0  0  0
   -5.6636   -0.7673   -0.4453 H   0  0  0  0  0  0  0  0  0  0  0  0
   -7.5692   -1.9524   -1.4697 H   0  0  0  0  0  0  0  0  0  0  0  0
   -9.4903   -1.8158   -3.0212 H   0  0  0  0  0  0  0  0  0  0  0  0
  -10.2742    0.3884   -3.8473 H   0  0  0  0  0  0  0  0  0  0  0  0
   -9.1707    2.4685   -3.0854 H   0  0  0  0  0  0  0  0  0  0  0  0
   -7.4478    3.5018   -1.6780 H   0  0  0  0  0  0  0  0  0  0  0  0
   -2.1194   -2.1350    1.4530 H   0  0  0  0  0  0  0  0  0  0  0  0
    0.1450   -2.2499    2.3907 H   0  0  0  0  0  0  0  0  0  0  0  0
  1  2  1  0  0  0  0
  1 22  1  0  0  0  0
  1 23  1  0  0  0  0
  1 24  1  0  0  0  0
  2  3  1  0  0  0  0
  2 21  2  0  0  0  0
  3  4  2  0  0  0  0
  3 25  1  0  0  0  0
  4  5  1  0  0  0  0
  4 26  1  0  0  0  0
  5  6  1  0  0  0  0
  5 20  2  0  0  0  0
  6  7  2  0  0  0  0
  6  8  1  0  0  0  0
  8  9  2  0  0  0  0
  8 27  1  0  0  0  0
  9 10  1  0  0  0  0
  9 18  1  0  0  0  0
 10 11  1  0  0  0  0
 10 28  1  0  0  0  0
 11 12  1  0  0  0  0
 11 16  2  0  0  0  0
 12 13  2  0  0  0  0
 12 29  1  0  0  0  0
 13 14  1  0  0  0  0
 13 30  1  0  0  0  0
 14 15  2  0  0  0  0
 14 31  1  0  0  0  0
 15 16  1  0  0  0  0
 15 32  1  0  0  0  0
 16 17  1  0  0  0  0
 17 18  1  0  0  0  0
 17 33  1  0  0  0  0
 18 19  2  0  0  0  0
 20 21  1  0  0  0  0
 20 34  1  0  0  0  0
 21 35  1  0  0  0  0
M  END
>  <Energy>
68.3199

$$$$

 OpenBabel04232616063D

 39 41  0  0  1  0  0  0  0  0999 V2000
    0.1343    0.9168   -0.4053 C   0  0  0  0  0  0  0  0  0  0  0  0
    1.1729    0.5946   -1.3156 O   0  0  0  0  0  0  0  0  0  0  0  0
    2.5070    0.8670   -0.8578 C   0  0  1  0  0  0  0  0  0  0  0  0
    2.8998   -0.0350    0.3457 C   0  0  0  0  0  0  0  0  0  0  0  0
    4.0850   -1.0457    0.2325 C   0  0  1  0  0  0  0  0  0  0  0  0
    4.1452   -1.7810    1.5923 C   0  0  0  0  0  0  0  0  0  0  0  0
    3.9358   -2.0476   -0.8882 C   0  0  0  0  0  0  0  0  0  0  0  0
    4.1354   -3.3793   -0.8907 C   0  0  0  0  0  0  0  0  0  0  0  0
    3.4167   -3.9955   -2.0516 C   0  0  0  0  0  0  0  0  0  0  0  0
    2.6676   -2.8123   -2.6226 C   0  0  0  0  0  0  0  0  0  0  0  0
    1.1700   -2.9122   -2.7218 C   0  0  0  0  0  0  0  0  0  0  0  0
    3.2249   -1.7013   -2.1008 C   0  0  0  0  0  0  0  0  0  0  0  0
    3.5457   -0.4432   -2.8470 C   0  0  0  0  0  0  0  0  0  0  0  0
    3.3327    0.8099   -2.0818 C   0  0  0  0  0  0  0  0  0  0  0  0
    3.7228    2.0407   -2.4707 C   0  0  0  0  0  0  0  0  0  0  0  0
    4.4171    2.5097   -3.6875 C   0  0  0  0  0  0  0  0  0  0  0  0
    3.2549    2.9507   -1.4277 C   0  0  0  0  0  0  0  0  0  0  0  0
    3.4382    4.1590   -1.4172 O   0  0  0  0  0  0  0  0  0  0  0  0
    2.6209    2.2439   -0.4598 O   0  0  0  0  0  0  0  0  0  0  0  0
    0.0788    0.1789    0.3982 H   0  0  0  0  0  0  0  0  0  0  0  0
   -0.8107    0.8792   -0.9541 H   0  0  0  0  0  0  0  0  0  0  0  0
    0.2470    1.9219    0.0094 H   0  0  0  0  0  0  0  0  0  0  0  0
    2.0238   -0.6231    0.6425 H   0  0  0  0  0  0  0  0  0  0  0  0
    3.1132    0.6191    1.2030 H   0  0  0  0  0  0  0  0  0  0  0  0
    5.0187   -0.4884    0.0928 H   0  0  0  0  0  0  0  0  0  0  0  0
    3.2371   -2.3801    1.7536 H   0  0  0  0  0  0  0  0  0  0  0  0
    4.2177   -1.0745    2.4249 H   0  0  0  0  0  0  0  0  0  0  0  0
    5.0044   -2.4561    1.6554 H   0  0  0  0  0  0  0  0  0  0  0  0
    4.5886   -3.9687   -0.1086 H   0  0  0  0  0  0  0  0  0  0  0  0
    2.7577   -4.8034   -1.7276 H   0  0  0  0  0  0  0  0  0  0  0  0
    4.1260   -4.3825   -2.7937 H   0  0  0  0  0  0  0  0  0  0  0  0
    0.7799   -2.4509   -3.6295 H   0  0  0  0  0  0  0  0  0  0  0  0
    0.7045   -2.4282   -1.8507 H   0  0  0  0  0  0  0  0  0  0  0  0
    0.8454   -3.9584   -2.6928 H   0  0  0  0  0  0  0  0  0  0  0  0
    2.9930   -0.4077   -3.7936 H   0  0  0  0  0  0  0  0  0  0  0  0
    4.6132   -0.4987   -3.1096 H   0  0  0  0  0  0  0  0  0  0  0  0
    4.7323    1.6785   -4.3267 H   0  0  0  0  0  0  0  0  0  0  0  0
    5.3060    3.0924   -3.4337 H   0  0  0  0  0  0  0  0  0  0  0  0
    3.7487    3.1424   -4.2827 H   0  0  0  0  0  0  0  0  0  0  0  0
  1  2  1  0  0  0  0
  1 20  1  0  0  0  0
  1 21  1  0  0  0  0
  1 22  1  0  0  0  0
  3  2  1  6  0  0  0
  3  4  1  0  0  0  0
  3 14  1  0  0  0  0
  3 19  1  0  0  0  0
  4  5  1  0  0  0  0
  4 23  1  0  0  0  0
  4 24  1  0  0  0  0
  5  7  1  0  0  0  0
  5  6  1  0  0  0  0
  5 25  1  6  0  0  0
  6 26  1  0  0  0  0
  6 27  1  0  0  0  0
  6 28  1  0  0  0  0
  7  8  2  0  0  0  0
  7 12  1  0  0  0  0
  8  9  1  0  0  0  0
  8 29  1  0  0  0  0
  9 10  1  0  0  0  0
  9 30  1  0  0  0  0
  9 31  1  0  0  0  0
 10 11  1  0  0  0  0
 10 12  2  0  0  0  0
 11 32  1  0  0  0  0
 11 33  1  0  0  0  0
 11 34  1  0  0  0  0
 12 13  1  0  0  0  0
 13 14  1  0  0  0  0
 13 35  1  0  0  0  0
 13 36  1  0  0  0  0
 14 15  2  0  0  0  0
 15 16  1  0  0  0  0
 15 17  1  0  0  0  0
 16 37  1  0  0  0  0
 16 38  1  0  0  0  0
 16 39  1  0  0  0  0
 17 18  2  0  0  0  0
 17 19  1  0  0  0  0
M  END
>  <Energy>
36.3489

$$$$

 OpenBabel04232616063D

 31 33  0  0  1  0  0  0  0  0999 V2000
    0.9506   -0.0630    0.1052 C   0  0  0  0  0  0  0  0  0  0  0  0
    2.4735   -0.2364    0.0191 C   0  0  3  0  0  0  0  0  0  0  0  0
    2.9912    0.1935   -1.3627 C   0  0  0  0  0  0  0  0  0  0  0  0
    2.6132   -0.7947   -2.4516 C   0  0  0  0  0  0  0  0  0  0  0  0
    2.4038   -0.4276   -3.6039 O   0  0  0  0  0  0  0  0  0  0  0  0
    2.5925   -2.2162   -2.0599 C   0  0  0  0  0  0  0  0  0  0  0  0
    2.3995   -3.5137   -3.1432 S   0  0  0  0  0  0  0  0  0  0  0  0
    2.5563   -4.6083   -1.7655 C   0  0  0  0  0  0  0  0  0  0  0  0
    2.4785   -5.8754   -1.9902 N   0  0  0  0  0  0  0  0  0  0  0  0
    2.5784   -6.8900   -1.0316 C   0  0  0  0  0  0  0  0  0  0  0  0
    2.1841   -6.7982    0.3058 C   0  0  0  0  0  0  0  0  0  0  0  0
    2.2295   -7.9208    1.1436 C   0  0  0  0  0  0  0  0  0  0  0  0
    2.6522   -9.1540    0.6487 C   0  0  0  0  0  0  0  0  0  0  0  0
    3.0425   -9.2637   -0.6810 C   0  0  0  0  0  0  0  0  0  0  0  0
    3.0057   -8.1377   -1.5070 C   0  0  0  0  0  0  0  0  0  0  0  0
    2.7572   -4.0045   -0.5383 O   0  0  0  0  0  0  0  0  0  0  0  0
    2.7513   -2.6163   -0.7963 C   0  0  0  0  0  0  0  0  0  0  0  0
    2.9041   -1.6810    0.3628 C   0  0  0  0  0  0  0  0  0  0  0  0
    0.6559    0.9462   -0.2000 H   0  0  0  0  0  0  0  0  0  0  0  0
    0.6076   -0.2087    1.1355 H   0  0  0  0  0  0  0  0  0  0  0  0
    0.4154   -0.7760   -0.5298 H   0  0  0  0  0  0  0  0  0  0  0  0
    2.9112    0.4374    0.7669 H   0  0  0  0  0  0  0  0  0  0  0  0
    4.0854    0.2681   -1.3519 H   0  0  0  0  0  0  0  0  0  0  0  0
    2.5909    1.1786   -1.6288 H   0  0  0  0  0  0  0  0  0  0  0  0
    1.8065   -5.8687    0.7179 H   0  0  0  0  0  0  0  0  0  0  0  0
    1.9131   -7.8373    2.1801 H   0  0  0  0  0  0  0  0  0  0  0  0
    2.6629  -10.0292    1.2930 H   0  0  0  0  0  0  0  0  0  0  0  0
    3.3577  -10.2222   -1.0841 H   0  0  0  0  0  0  0  0  0  0  0  0
    3.2895   -8.2366   -2.5534 H   0  0  0  0  0  0  0  0  0  0  0  0
    3.9586   -1.6793    0.6662 H   0  0  0  0  0  0  0  0  0  0  0  0
    2.3248   -2.0459    1.2192 H   0  0  0  0  0  0  0  0  0  0  0  0
  1  2  1  0  0  0  0
  1 19  1  0  0  0  0
  1 20  1  0  0  0  0
  1 21  1  0  0  0  0
  2  3  1  0  0  0  0
  2 18  1  0  0  0  0
  2 22  1  0  0  0  0
  3  4  1  0  0  0  0
  3 23  1  0  0  0  0
  3 24  1  0  0  0  0
  4  5  2  0  0  0  0
  4  6  1  0  0  0  0
  6  7  1  0  0  0  0
  6 17  2  0  0  0  0
  7  8  1  0  0  0  0
  8  9  2  0  0  0  0
  8 16  1  0  0  0  0
  9 10  1  0  0  0  0
 10 11  1  0  0  0  0
 10 15  2  0  0  0  0
 11 12  2  0  0  0  0
 11 25  1  0  0  0  0
 12 13  1  0  0  0  0
 12 26  1  0  0  0  0
 13 14  2  0  0  0  0
 13 27  1  0  0  0  0
 14 15  1  0  0  0  0
 14 28  1  0  0  0  0
 15 29  1  0  0  0  0
 16 17  1  0  0  0  0
 17 18  1  0  0  0  0
 18 30  1  0  0  0  0
 18 31  1  0  0  0  0
M  END
>  <Energy>
32.202

$$$$

 OpenBabel04232616063D

 41 43  0  0  0  0  0  0  0  0999 V2000
    6.1885    2.1047   -2.0337 C   0  0  0  0  0  0  0  0  0  0  0  0
    5.2303    1.0538   -1.5522 C   0  0  0  0  0  0  0  0  0  0  0  0
    5.7130   -0.1439   -1.0136 C   0  0  0  0  0  0  0  0  0  0  0  0
    4.8306   -1.1483   -0.6000 C   0  0  0  0  0  0  0  0  0  0  0  0
    5.3259   -2.3832   -0.1344 N   0  0  0  0  0  0  0  0  0  0  0  0
    4.6869   -3.6326   -0.2123 C   0  0  0  0  0  0  0  0  0  0  0  0
    3.9642   -3.9963   -1.3521 C   0  0  0  0  0  0  0  0  0  0  0  0
    3.2000   -5.1656   -1.3882 C   0  0  0  0  0  0  0  0  0  0  0  0
    3.1448   -6.0282   -0.2867 C   0  0  0  0  0  0  0  0  0  0  0  0
    2.2952   -7.3108   -0.2946 C   0  0  0  0  0  0  0  0  0  0  0  0
    1.4877   -7.5104   -1.5986 C   0  0  0  0  0  0  0  0  0  0  0  0
    3.2157   -8.5368   -0.1305 C   0  0  0  0  0  0  0  0  0  0  0  0
    1.2770   -7.2766    0.8654 C   0  0  0  0  0  0  0  0  0  0  0  0
    3.9115   -5.6782    0.8419 C   0  0  0  0  0  0  0  0  0  0  0  0
    4.6697   -4.4987    0.8799 C   0  0  0  0  0  0  0  0  0  0  0  0
    3.4799   -0.8210   -0.7438 C   0  0  0  0  0  0  0  0  0  0  0  0
    2.3181   -1.4795   -0.4322 N   0  0  0  0  0  0  0  0  0  0  0  0
    1.1923   -0.8162   -0.7641 N   0  0  0  0  0  0  0  0  0  0  0  0
    1.6589    0.3245   -1.2856 C   0  0  0  0  0  0  0  0  0  0  0  0
    3.0665    0.3857   -1.2835 C   0  0  0  0  0  0  0  0  0  0  0  0
    3.9189    1.3473   -1.7031 N   0  0  0  0  0  0  0  0  0  0  0  0
    7.2310    1.8117   -1.8763 H   0  0  0  0  0  0  0  0  0  0  0  0
    6.0115    3.0413   -1.4959 H   0  0  0  0  0  0  0  0  0  0  0  0
    6.0402    2.2772   -3.1046 H   0  0  0  0  0  0  0  0  0  0  0  0
    6.7842   -0.3141   -0.9524 H   0  0  0  0  0  0  0  0  0  0  0  0
    6.0127   -2.2946    0.6073 H   0  0  0  0  0  0  0  0  0  0  0  0
    3.9782   -3.3562   -2.2321 H   0  0  0  0  0  0  0  0  0  0  0  0
    2.6480   -5.3646   -2.3022 H   0  0  0  0  0  0  0  0  0  0  0  0
    2.1450   -7.5900   -2.4725 H   0  0  0  0  0  0  0  0  0  0  0  0
    0.7902   -6.6819   -1.7708 H   0  0  0  0  0  0  0  0  0  0  0  0
    0.8924   -8.4304   -1.5602 H   0  0  0  0  0  0  0  0  0  0  0  0
    3.9677   -8.5740   -0.9277 H   0  0  0  0  0  0  0  0  0  0  0  0
    2.6417   -9.4698   -0.1693 H   0  0  0  0  0  0  0  0  0  0  0  0
    3.7502   -8.5263    0.8257 H   0  0  0  0  0  0  0  0  0  0  0  0
    0.6245   -6.3982    0.7928 H   0  0  0  0  0  0  0  0  0  0  0  0
    1.7646   -7.2448    1.8456 H   0  0  0  0  0  0  0  0  0  0  0  0
    0.6375   -8.1672    0.8543 H   0  0  0  0  0  0  0  0  0  0  0  0
    3.9202   -6.3188    1.7208 H   0  0  0  0  0  0  0  0  0  0  0  0
    5.2218   -4.2576    1.7851 H   0  0  0  0  0  0  0  0  0  0  0  0
    2.2330   -2.3949   -0.0025 H   0  0  0  0  0  0  0  0  0  0  0  0
    0.9619    1.0670   -1.6474 H   0  0  0  0  0  0  0  0  0  0  0  0
  1  2  1  0  0  0  0
  1 22  1  0  0  0  0
  1 23  1  0  0  0  0
  1 24  1  0  0  0  0
  2  3  1  0  0  0  0
  2 21  2  0  0  0  0
  3  4  2  0  0  0  0
  3 25  1  0  0  0  0
  4  5  1  0  0  0  0
  4 16  1  0  0  0  0
  5  6  1  0  0  0  0
  5 26  1  0  0  0  0
  6  7  1  0  0  0  0
  6 15  2  0  0  0  0
  7  8  2  0  0  0  0
  7 27  1  0  0  0  0
  8  9  1  0  0  0  0
  8 28  1  0  0  0  0
  9 10  1  0  0  0  0
  9 14  2  0  0  0  0
 10 11  1  0  0  0  0
 10 12  1  0  0  0  0
 10 13  1  0  0  0  0
 11 29  1  0  0  0  0
 11 30  1  0  0  0  0
 11 31  1  0  0  0  0
 12 32  1  0  0  0  0
 12 33  1  0  0  0  0
 12 34  1  0  0  0  0
 13 35  1  0  0  0  0
 13 36  1  0  0  0  0
 13 37  1  0  0  0  0
 14 15  1  0  0  0  0
 14 38  1  0  0  0  0
 15 39  1  0  0  0  0
 16 17  1  0  0  0  0
 16 20  2  0  0  0  0
 17 18  1  0  0  0  0
 17 40  1  0  0  0  0
 18 19  2  0  0  0  0
 19 20  1  0  0  0  0
 19 41  1  0  0  0  0
 20 21  1  0  0  0  0
M  END
>  <Energy>
54.1378

$$$$

 OpenBabel04232616063D

 30 32  0  0  0  0  0  0  0  0999 V2000
   -3.0546   -0.2678   -0.0697 N   0  0  0  0  0  0  0  0  0  0  0  0
   -1.8933   -0.3117   -0.0644 C   0  0  0  0  0  0  0  0  0  0  0  0
   -0.4649   -0.3410   -0.0012 C   0  0  0  0  0  0  0  0  0  0  0  0
    0.2260    0.8759   -0.0354 C   0  0  0  0  0  0  0  0  0  0  0  0
   -0.4239    2.1037   -0.1339 N   0  0  0  0  0  0  0  0  0  0  0  0
    1.5695    0.9529   -0.0633 N   0  0  0  0  0  0  0  0  0  0  0  0
    2.2905   -0.1990   -0.0494 C   0  0  0  0  0  0  0  0  0  0  0  0
    3.7601   -0.0738   -0.2249 C   0  0  0  0  0  0  0  0  0  0  0  0
    4.3877    1.1597   -0.4099 C   0  0  0  0  0  0  0  0  0  0  0  0
    5.7588    1.2038   -0.6594 C   0  0  0  0  0  0  0  0  0  0  0  0
    6.4786    0.0188   -0.7165 C   0  0  0  0  0  0  0  0  0  0  0  0
    5.7962   -1.1655   -0.5099 C   0  0  0  0  0  0  0  0  0  0  0  0
    4.4687   -1.2369   -0.2648 N   0  0  0  0  0  0  0  0  0  0  0  0
    1.6643   -1.4423    0.0569 C   0  0  0  0  0  0  0  0  0  0  0  0
    0.2636   -1.5414    0.0713 C   0  0  0  0  0  0  0  0  0  0  0  0
   -0.3834   -2.8764    0.1459 C   0  0  0  0  0  0  0  0  0  0  0  0
   -1.5552   -3.2638    0.7786 C   0  0  0  0  0  0  0  0  0  0  0  0
   -1.8697   -4.6423    0.5919 C   0  0  0  0  0  0  0  0  0  0  0  0
   -0.9094   -5.2917   -0.1445 C   0  0  0  0  0  0  0  0  0  0  0  0
    0.3267   -4.2332   -0.6532 S   0  0  0  0  0  0  0  0  0  0  0  0
   -1.1960    2.2298    0.5118 H   0  0  0  0  0  0  0  0  0  0  0  0
    0.2681    2.8456   -0.0644 H   0  0  0  0  0  0  0  0  0  0  0  0
    3.8144    2.0819   -0.3835 H   0  0  0  0  0  0  0  0  0  0  0  0
    6.2545    2.1569   -0.8211 H   0  0  0  0  0  0  0  0  0  0  0  0
    7.5432    0.0172   -0.9216 H   0  0  0  0  0  0  0  0  0  0  0  0
    6.3117   -2.1213   -0.5449 H   0  0  0  0  0  0  0  0  0  0  0  0
    2.2854   -2.3346    0.0972 H   0  0  0  0  0  0  0  0  0  0  0  0
   -2.1881   -2.5978    1.3528 H   0  0  0  0  0  0  0  0  0  0  0  0
   -2.7524   -5.1296    0.9879 H   0  0  0  0  0  0  0  0  0  0  0  0
   -0.8801   -6.3373   -0.4191 H   0  0  0  0  0  0  0  0  0  0  0  0
  1  2  3  0  0  0  0
  2  3  1  0  0  0  0
  3  4  1  0  0  0  0
  3 15  2  0  0  0  0
  4  5  1  0  0  0  0
  4  6  2  0  0  0  0
  5 21  1  0  0  0  0
  5 22  1  0  0  0  0
  6  7  1  0  0  0  0
  7  8  1  0  0  0  0
  7 14  2  0  0  0  0
  8  9  1  0  0  0  0
  8 13  2  0  0  0  0
  9 10  2  0  0  0  0
  9 23  1  0  0  0  0
 10 11  1  0  0  0  0
 10 24  1  0  0  0  0
 11 12  2  0  0  0  0
 11 25  1  0  0  0  0
 12 13  1  0  0  0  0
 12 26  1  0  0  0  0
 14 15  1  0  0  0  0
 14 27  1  0  0  0  0
 15 16  1  0  0  0  0
 16 17  2  0  0  0  0
 16 20  1  0  0  0  0
 17 18  1  0  0  0  0
 17 28  1  0  0  0  0
 18 19  2  0  0  0  0
 18 29  1  0  0  0  0
 19 20  1  0  0  0  0
 19 30  1  0  0  0  0
M  END
>  <Energy>
29.8544

$$$$

 OpenBabel04232616063D

 29 30  0  0  0  0  0  0  0  0999 V2000
    1.0278    0.1952   -0.1593 C   0  0  0  0  0  0  0  0  0  0  0  0
    2.5192    0.0611   -0.0959 C   0  0  0  0  0  0  0  0  0  0  0  0
    3.1188   -1.1781   -0.1088 C   0  0  0  0  0  0  0  0  0  0  0  0
    4.4876   -1.1632   -0.0827 C   0  0  0  0  0  0  0  0  0  0  0  0
    5.2097   -2.3210   -0.0794 O   0  0  0  0  0  0  0  0  0  0  0  0
    5.2247   -0.0533   -0.0609 N   0  0  0  0  0  0  0  0  0  0  0  0
    4.5718    1.1140   -0.0411 C   0  0  0  0  0  0  0  0  0  0  0  0
    5.2701    2.3170    0.0348 N   0  0  0  0  0  0  0  0  0  0  0  0
    6.6260    2.6079   -0.1479 C   0  0  0  0  0  0  0  0  0  0  0  0
    7.1713    3.7445    0.4634 C   0  0  0  0  0  0  0  0  0  0  0  0
    8.5378    4.0269    0.3763 C   0  0  0  0  0  0  0  0  0  0  0  0
    9.3841    3.1768   -0.3333 C   0  0  0  0  0  0  0  0  0  0  0  0
    8.8696    2.0357   -0.9589 C   0  0  0  0  0  0  0  0  0  0  0  0
    9.7496    1.0990   -1.7462 C   0  0  0  0  0  0  0  0  0  0  0  0
   11.0486    1.5095   -1.8194 F   0  0  0  0  0  0  0  0  0  0  0  0
    9.7897   -0.1578   -1.2242 F   0  0  0  0  0  0  0  0  0  0  0  0
    9.3386    0.9559   -3.0377 F   0  0  0  0  0  0  0  0  0  0  0  0
    7.4958    1.7601   -0.8446 C   0  0  0  0  0  0  0  0  0  0  0  0
    3.2308    1.2085   -0.0466 N   0  0  0  0  0  0  0  0  0  0  0  0
    0.5320   -0.7805   -0.1333 H   0  0  0  0  0  0  0  0  0  0  0  0
    0.7418    0.6986   -1.0883 H   0  0  0  0  0  0  0  0  0  0  0  0
    0.6680    0.7833    0.6900 H   0  0  0  0  0  0  0  0  0  0  0  0
    2.5456   -2.0935   -0.1424 H   0  0  0  0  0  0  0  0  0  0  0  0
    4.5983   -3.0684   -0.0192 H   0  0  0  0  0  0  0  0  0  0  0  0
    4.6385    3.0858    0.1897 H   0  0  0  0  0  0  0  0  0  0  0  0
    6.5355    4.4112    1.0412 H   0  0  0  0  0  0  0  0  0  0  0  0
    8.9422    4.9054    0.8732 H   0  0  0  0  0  0  0  0  0  0  0  0
   10.4470    3.4049   -0.3914 H   0  0  0  0  0  0  0  0  0  0  0  0
    7.1071    0.8668   -1.3324 H   0  0  0  0  0  0  0  0  0  0  0  0
  1  2  1  0  0  0  0
  1 20  1  0  0  0  0
  1 21  1  0  0  0  0
  1 22  1  0  0  0  0
  2  3  1  0  0  0  0
  2 19  2  0  0  0  0
  3  4  2  0  0  0  0
  3 23  1  0  0  0  0
  4  5  1  0  0  0  0
  4  6  1  0  0  0  0
  5 24  1  0  0  0  0
  6  7  2  0  0  0  0
  7  8  1  0  0  0  0
  7 19  1  0  0  0  0
  8  9  1  0  0  0  0
  8 25  1  0  0  0  0
  9 10  1  0  0  0  0
  9 18  2  0  0  0  0
 10 11  2  0  0  0  0
 10 26  1  0  0  0  0
 11 12  1  0  0  0  0
 11 27  1  0  0  0  0
 12 13  2  0  0  0  0
 12 28  1  0  0  0  0
 13 14  1  0  0  0  0
 13 18  1  0  0  0  0
 14 15  1  0  0  0  0
 14 16  1  0  0  0  0
 14 17  1  0  0  0  0
 18 29  1  0  0  0  0
M  END
>  <Energy>
-53.7579

$$$$

 OpenBabel04232616063D

 36 38  0  0  0  0  0  0  0  0999 V2000
    1.1498    0.1695    0.0943 C   0  0  0  0  0  0  0  0  0  0  0  0
    2.6441    0.2566    0.0091 C   0  0  0  0  0  0  0  0  0  0  0  0
    3.2858    1.4852   -0.1157 C   0  0  0  0  0  0  0  0  0  0  0  0
    4.6724    1.5039   -0.2538 C   0  0  0  0  0  0  0  0  0  0  0  0
    5.3644    2.7473   -0.4262 C   0  0  0  0  0  0  0  0  0  0  0  0
    5.9343    3.7903   -0.5942 C   0  0  0  0  0  0  0  0  0  0  0  0
    6.5812    5.0406   -0.8052 C   0  0  0  0  0  0  0  0  0  0  0  0
    6.0845    6.2847   -0.5309 C   0  0  0  0  0  0  0  0  0  0  0  0
    7.0412    7.1814   -0.9676 N   0  0  0  0  0  0  0  0  0  0  0  0
    6.8920    8.5967   -0.9374 C   0  0  0  0  0  0  0  0  0  0  0  0
    6.1117    9.1878    0.0686 C   0  0  0  0  0  0  0  0  0  0  0  0
    5.9626   10.5756    0.1188 C   0  0  0  0  0  0  0  0  0  0  0  0
    6.5742   11.3795   -0.8400 C   0  0  0  0  0  0  0  0  0  0  0  0
    7.3281   10.7969   -1.8568 C   0  0  0  0  0  0  0  0  0  0  0  0
    7.4829    9.4089   -1.9122 C   0  0  0  0  0  0  0  0  0  0  0  0
    8.1152    6.4068   -1.4081 C   0  0  0  0  0  0  0  0  0  0  0  0
    9.4706    6.9099   -1.7668 C   0  0  0  0  0  0  0  0  0  0  0  0
    7.8281    5.1151   -1.3454 N   0  0  0  0  0  0  0  0  0  0  0  0
    5.3787    0.3071   -0.2524 C   0  0  0  0  0  0  0  0  0  0  0  0
    4.6615   -0.8677   -0.1154 C   0  0  0  0  0  0  0  0  0  0  0  0
    3.3183   -0.9176    0.0118 N   0  0  0  0  0  0  0  0  0  0  0  0
    0.6901    1.1559    0.2085 H   0  0  0  0  0  0  0  0  0  0  0  0
    0.8569   -0.4434    0.9523 H   0  0  0  0  0  0  0  0  0  0  0  0
    0.7567   -0.2896   -0.8185 H   0  0  0  0  0  0  0  0  0  0  0  0
    2.7158    2.4090   -0.1176 H   0  0  0  0  0  0  0  0  0  0  0  0
    5.1286    6.5973   -0.1392 H   0  0  0  0  0  0  0  0  0  0  0  0
    5.6452    8.5946    0.8512 H   0  0  0  0  0  0  0  0  0  0  0  0
    5.3736   11.0295    0.9123 H   0  0  0  0  0  0  0  0  0  0  0  0
    6.4569   12.4596   -0.7991 H   0  0  0  0  0  0  0  0  0  0  0  0
    7.7886   11.4255   -2.6160 H   0  0  0  0  0  0  0  0  0  0  0  0
    8.0277    8.9904   -2.7542 H   0  0  0  0  0  0  0  0  0  0  0  0
    9.6122    7.9787   -1.6104 H   0  0  0  0  0  0  0  0  0  0  0  0
    9.6920    6.6754   -2.8124 H   0  0  0  0  0  0  0  0  0  0  0  0
   10.2194    6.4084   -1.1435 H   0  0  0  0  0  0  0  0  0  0  0  0
    6.4570    0.2828   -0.3636 H   0  0  0  0  0  0  0  0  0  0  0  0
    5.1617   -1.8318   -0.1128 H   0  0  0  0  0  0  0  0  0  0  0  0
  1  2  1  0  0  0  0
  1 22  1  0  0  0  0
  1 23  1  0  0  0  0
  1 24  1  0  0  0  0
  2  3  1  0  0  0  0
  2 21  2  0  0  0  0
  3  4  2  0  0  0  0
  3 25  1  0  0  0  0
  4  5  1  0  0  0  0
  4 19  1  0  0  0  0
  5  6  3  0  0  0  0
  6  7  1  0  0  0  0
  7  8  2  0  0  0  0
  7 18  1  0  0  0  0
  8  9  1  0  0  0  0
  8 26  1  0  0  0  0
  9 10  1  0  0  0  0
  9 16  1  0  0  0  0
 10 11  1  0  0  0  0
 10 15  2  0  0  0  0
 11 12  2  0  0  0  0
 11 27  1  0  0  0  0
 12 13  1  0  0  0  0
 12 28  1  0  0  0  0
 13 14  2  0  0  0  0
 13 29  1  0  0  0  0
 14 15  1  0  0  0  0
 14 30  1  0  0  0  0
 15 31  1  0  0  0  0
 16 17  1  0  0  0  0
 16 18  2  0  0  0  0
 17 32  1  0  0  0  0
 17 33  1  0  0  0  0
 17 34  1  0  0  0  0
 19 20  2  0  0  0  0
 19 35  1  0  0  0  0
 20 21  1  0  0  0  0
 20 36  1  0  0  0  0
M  END
>  <Energy>
45.961

$$$$

 OpenBabel04232616063D

 29 31  0  0  0  0  0  0  0  0999 V2000
    1.1092    0.0481    0.0511 O   0  5  0  0  0  0  0  0  0  0  0  0
    2.3807   -0.0355   -0.0162 N   0  3  0  0  0  0  0  0  0  0  0  0
    2.9971   -1.0393   -0.6033 C   0  0  0  0  0  0  0  0  0  0  0  0
    2.3251   -2.1169   -1.3507 C   0  0  0  0  0  0  0  0  0  0  0  0
    1.0983   -1.9322   -2.0200 C   0  0  0  0  0  0  0  0  0  0  0  0
    0.5219   -2.9714   -2.7563 C   0  0  0  0  0  0  0  0  0  0  0  0
    1.1988   -4.1683   -2.8122 C   0  0  0  0  0  0  0  0  0  0  0  0
    2.4073   -4.3460   -2.1789 C   0  0  0  0  0  0  0  0  0  0  0  0
    3.0038   -3.3380   -1.4476 C   0  0  0  0  0  0  0  0  0  0  0  0
    2.9100   -5.5950   -2.3685 O   0  0  0  0  0  0  0  0  0  0  0  0
    1.8566   -6.1961   -3.1525 C   0  0  0  0  0  0  0  0  0  0  0  0
    0.7906   -5.2813   -3.4762 O   0  0  0  0  0  0  0  0  0  0  0  0
    3.1833    1.0152    0.6101 C   0  0  0  0  0  0  0  0  0  0  0  0
    2.6861    1.6375    1.7640 C   0  0  0  0  0  0  0  0  0  0  0  0
    3.3769    2.7085    2.3349 C   0  0  0  0  0  0  0  0  0  0  0  0
    4.5613    3.1562    1.7522 C   0  0  0  0  0  0  0  0  0  0  0  0
    5.4020    4.4898    2.4411 Cl  0  0  0  0  0  0  0  0  0  0  0  0
    5.0615    2.5435    0.6029 C   0  0  0  0  0  0  0  0  0  0  0  0
    4.3697    1.4772    0.0218 C   0  0  0  0  0  0  0  0  0  0  0  0
    4.0936   -1.0911   -0.5165 H   0  0  0  0  0  0  0  0  0  0  0  0
    0.5774   -0.9779   -1.9899 H   0  0  0  0  0  0  0  0  0  0  0  0
   -0.4251   -2.8376   -3.2674 H   0  0  0  0  0  0  0  0  0  0  0  0
    3.9593   -3.5078   -0.9650 H   0  0  0  0  0  0  0  0  0  0  0  0
    1.4363   -7.0367   -2.5878 H   0  0  0  0  0  0  0  0  0  0  0  0
    2.2864   -6.5785   -4.0853 H   0  0  0  0  0  0  0  0  0  0  0  0
    1.7468    1.3078    2.2075 H   0  0  0  0  0  0  0  0  0  0  0  0
    2.9777    3.1975    3.2197 H   0  0  0  0  0  0  0  0  0  0  0  0
    5.9782    2.9050    0.1441 H   0  0  0  0  0  0  0  0  0  0  0  0
    4.7544    1.0448   -0.8980 H   0  0  0  0  0  0  0  0  0  0  0  0
  1  2  1  0  0  0  0
  2  3  2  0  0  0  0
  2 13  1  0  0  0  0
  3  4  1  0  0  0  0
  3 20  1  0  0  0  0
  4  5  1  0  0  0  0
  4  9  2  0  0  0  0
  5  6  2  0  0  0  0
  5 21  1  0  0  0  0
  6  7  1  0  0  0  0
  6 22  1  0  0  0  0
  7  8  2  0  0  0  0
  7 12  1  0  0  0  0
  8  9  1  0  0  0  0
  8 10  1  0  0  0  0
  9 23  1  0  0  0  0
 10 11  1  0  0  0  0
 11 12  1  0  0  0  0
 11 24  1  0  0  0  0
 11 25  1  0  0  0  0
 13 14  1  0  0  0  0
 13 19  2  0  0  0  0
 14 15  2  0  0  0  0
 14 26  1  0  0  0  0
 15 16  1  0  0  0  0
 15 27  1  0  0  0  0
 16 17  1  0  0  0  0
 16 18  2  0  0  0  0
 18 19  1  0  0  0  0
 18 28  1  0  0  0  0
 19 29  1  0  0  0  0
M  CHG  2   1  -1   2   1
M  END
>  <Energy>
62.1875

$$$$

 OpenBabel04232616063D

 27 29  0  0  0  0  0  0  0  0999 V2000
    0.6196    2.2938    0.0500 C   0  0  0  0  0  0  0  0  0  0  0  0
   -0.2981    1.0924    0.0403 C   0  0  0  0  0  0  0  0  0  0  0  0
    0.2440   -0.2104   -0.0311 C   0  0  0  0  0  0  0  0  0  0  0  0
    1.9450   -0.5087   -0.1589 Cl  0  0  0  0  0  0  0  0  0  0  0  0
   -0.5784   -1.3411    0.0005 C   0  0  0  0  0  0  0  0  0  0  0  0
   -1.9578   -1.2023    0.0733 C   0  0  0  0  0  0  0  0  0  0  0  0
   -2.5245    0.0689    0.1150 C   0  0  0  0  0  0  0  0  0  0  0  0
   -1.7155    1.2210    0.1117 C   0  0  0  0  0  0  0  0  0  0  0  0
   -2.3567    2.4960    0.1230 N   0  0  0  0  0  0  0  0  0  0  0  0
   -1.8264    3.5453   -0.5531 N   0  0  0  0  0  0  0  0  0  0  0  0
   -2.7270    4.5089   -0.5243 N   0  0  0  0  0  0  0  0  0  0  0  0
   -3.8174    4.1368    0.2028 N   0  0  0  0  0  0  0  0  0  0  0  0
   -3.5810    2.9125    0.6442 C   0  0  0  0  0  0  0  0  0  0  0  0
   -4.4390    2.2538    1.5910 C   0  0  0  0  0  0  0  0  0  0  0  0
   -4.1104    1.3683    2.6053 C   0  0  0  0  0  0  0  0  0  0  0  0
   -5.2477    0.9440    3.3578 C   0  0  0  0  0  0  0  0  0  0  0  0
   -6.4055    1.5463    2.9261 C   0  0  0  0  0  0  0  0  0  0  0  0
   -6.1267    2.5903    1.6050 S   0  0  0  0  0  0  0  0  0  0  0  0
    1.6518    2.0468    0.3091 H   0  0  0  0  0  0  0  0  0  0  0  0
    0.3048    3.0133    0.8135 H   0  0  0  0  0  0  0  0  0  0  0  0
    0.6342    2.7681   -0.9364 H   0  0  0  0  0  0  0  0  0  0  0  0
   -0.1430   -2.3368   -0.0463 H   0  0  0  0  0  0  0  0  0  0  0  0
   -2.5934   -2.0855    0.0733 H   0  0  0  0  0  0  0  0  0  0  0  0
   -3.6112    0.1286    0.0986 H   0  0  0  0  0  0  0  0  0  0  0  0
   -3.1025    1.0301    2.8161 H   0  0  0  0  0  0  0  0  0  0  0  0
   -5.2130    0.2454    4.1858 H   0  0  0  0  0  0  0  0  0  0  0  0
   -7.4039    1.4292    3.3247 H   0  0  0  0  0  0  0  0  0  0  0  0
  1  2  1  0  0  0  0
  1 19  1  0  0  0  0
  1 20  1  0  0  0  0
  1 21  1  0  0  0  0
  2  3  1  0  0  0  0
  2  8  2  0  0  0  0
  3  4  1  0  0  0  0
  3  5  2  0  0  0  0
  5  6  1  0  0  0  0
  5 22  1  0  0  0  0
  6  7  2  0  0  0  0
  6 23  1  0  0  0  0
  7  8  1  0  0  0  0
  7 24  1  0  0  0  0
  8  9  1  0  0  0  0
  9 10  1  0  0  0  0
  9 13  1  0  0  0  0
 10 11  2  0  0  0  0
 11 12  1  0  0  0  0
 12 13  2  0  0  0  0
 13 14  1  0  0  0  0
 14 15  2  0  0  0  0
 14 18  1  0  0  0  0
 15 16  1  0  0  0  0
 15 25  1  0  0  0  0
 16 17  2  0  0  0  0
 16 26  1  0  0  0  0
 17 18  1  0  0  0  0
 17 27  1  0  0  0  0
M  END
>  <Energy>
67.5412

$$$$

 OpenBabel04232616063D

 39 39  0  0  0  0  0  0  0  0999 V2000
    0.9274    1.3447    3.7573 C   0  0  0  0  0  0  0  0  0  0  0  0
    1.7429    2.6200    3.6746 C   0  0  0  0  0  0  0  0  0  0  0  0
    2.8917    2.3620    2.8584 O   0  0  0  0  0  0  0  0  0  0  0  0
    4.0157    1.9737    3.5040 C   0  0  0  0  0  0  0  0  0  0  0  0
    4.1661    1.9170    4.7173 O   0  0  0  0  0  0  0  0  0  0  0  0
    4.9230    1.5577    2.5706 N   0  0  0  0  0  0  0  0  0  0  0  0
    6.2631    1.2833    2.7045 C   0  0  0  0  0  0  0  0  0  0  0  0
    7.0402    0.7402    1.3221 S   0  0  0  0  0  0  0  0  0  0  0  0
    6.7937    1.4808    3.9586 N   0  0  0  0  0  0  0  0  0  0  0  0
    8.1413    1.7055    4.3101 C   0  0  0  0  0  0  0  0  0  0  0  0
    9.0363    2.3331    3.4466 C   0  0  0  0  0  0  0  0  0  0  0  0
   10.3718    2.5211    3.8072 C   0  0  0  0  0  0  0  0  0  0  0  0
   10.8597    2.0932    5.0481 C   0  0  0  0  0  0  0  0  0  0  0  0
   12.3478    2.2018    5.4182 C   0  0  0  0  0  0  0  0  0  0  0  0
   13.2195    2.8271    4.3030 C   0  0  0  0  0  0  0  0  0  0  0  0
   12.5216    3.0729    6.6779 C   0  0  0  0  0  0  0  0  0  0  0  0
   12.9066    0.7885    5.6891 C   0  0  0  0  0  0  0  0  0  0  0  0
    9.9273    1.5290    5.9415 C   0  0  0  0  0  0  0  0  0  0  0  0
    8.5811    1.3528    5.5843 C   0  0  0  0  0  0  0  0  0  0  0  0
    0.0226    1.4944    4.3512 H   0  0  0  0  0  0  0  0  0  0  0  0
    1.5167    0.5358    4.2022 H   0  0  0  0  0  0  0  0  0  0  0  0
    0.6426    1.0105    2.7538 H   0  0  0  0  0  0  0  0  0  0  0  0
    2.0172    2.9892    4.6689 H   0  0  0  0  0  0  0  0  0  0  0  0
    1.1610    3.4058    3.1821 H   0  0  0  0  0  0  0  0  0  0  0  0
    4.5715    1.5301    1.6244 H   0  0  0  0  0  0  0  0  0  0  0  0
    6.1418    1.3573    4.7321 H   0  0  0  0  0  0  0  0  0  0  0  0
    8.7158    2.7197    2.4850 H   0  0  0  0  0  0  0  0  0  0  0  0
   11.0126    3.0057    3.0760 H   0  0  0  0  0  0  0  0  0  0  0  0
   12.9100    3.8546    4.0778 H   0  0  0  0  0  0  0  0  0  0  0  0
   13.1678    2.2443    3.3755 H   0  0  0  0  0  0  0  0  0  0  0  0
   14.2746    2.8660    4.5984 H   0  0  0  0  0  0  0  0  0  0  0  0
   12.1101    4.0772    6.5229 H   0  0  0  0  0  0  0  0  0  0  0  0
   13.5816    3.1838    6.9361 H   0  0  0  0  0  0  0  0  0  0  0  0
   12.0201    2.6422    7.5512 H   0  0  0  0  0  0  0  0  0  0  0  0
   12.7547    0.1323    4.8235 H   0  0  0  0  0  0  0  0  0  0  0  0
   12.4258    0.3125    6.5508 H   0  0  0  0  0  0  0  0  0  0  0  0
   13.9823    0.8209    5.8971 H   0  0  0  0  0  0  0  0  0  0  0  0
   10.2432    1.1968    6.9285 H   0  0  0  0  0  0  0  0  0  0  0  0
    7.9036    0.8935    6.2995 H   0  0  0  0  0  0  0  0  0  0  0  0
  1  2  1  0  0  0  0
  1 20  1  0  0  0  0
  1 21  1  0  0  0  0
  1 22  1  0  0  0  0
  2  3  1  0  0  0  0
  2 23  1  0  0  0  0
  2 24  1  0  0  0  0
  3  4  1  0  0  0  0
  4  5  2  0  0  0  0
  4  6  1  0  0  0  0
  6  7  1  0  0  0  0
  6 25  1  0  0  0  0
  7  8  2  0  0  0  0
  7  9  1  0  0  0  0
  9 10  1  0  0  0  0
  9 26  1  0  0  0  0
 10 11  1  0  0  0  0
 10 19  2  0  0  0  0
 11 12  2  0  0  0  0
 11 27  1  0  0  0  0
 12 13  1  0  0  0  0
 12 28  1  0  0  0  0
 13 14  1  0  0  0  0
 13 18  2  0  0  0  0
 14 15  1  0  0  0  0
 14 16  1  0  0  0  0
 14 17  1  0  0  0  0
 15 29  1  0  0  0  0
 15 30  1  0  0  0  0
 15 31  1  0  0  0  0
 16 32  1  0  0  0  0
 16 33  1  0  0  0  0
 16 34  1  0  0  0  0
 17 35  1  0  0  0  0
 17 36  1  0  0  0  0
 17 37  1  0  0  0  0
 18 19  1  0  0  0  0
 18 38  1  0  0  0  0
 19 39  1  0  0  0  0
M  END
>  <Energy>
-57.2416

$$$$

 OpenBabel04232616063D

 33 36  0  0  1  0  0  0  0  0999 V2000
    1.6688    0.0792   -0.3718 O   0  0  0  0  0  0  0  0  0  0  0  0
    0.4658    0.2525   -0.4139 C   0  0  0  0  0  0  0  0  0  0  0  0
   -0.4390   -0.6793   -0.8261 O   0  0  0  0  0  0  0  0  0  0  0  0
   -1.6917   -0.0262   -0.9331 C   0  0  0  0  0  0  0  0  0  0  0  0
   -1.5702    1.1514   -0.0046 C   0  0  3  0  0  0  0  0  0  0  0  0
   -2.0205    0.9341    1.4470 C   0  0  0  0  0  0  0  0  0  0  0  0
   -3.4377    0.6381    1.5889 N   0  0  0  0  0  0  0  0  0  0  0  0
   -3.9667   -0.6398    1.5871 C   0  0  0  0  0  0  0  0  0  0  0  0
   -3.3462   -1.9013    1.5900 C   0  0  0  0  0  0  0  0  0  0  0  0
   -4.1504   -3.0322    1.4309 C   0  0  0  0  0  0  0  0  0  0  0  0
   -5.5293   -2.9161    1.2987 C   0  0  0  0  0  0  0  0  0  0  0  0
   -6.1442   -1.6632    1.3727 C   0  0  0  0  0  0  0  0  0  0  0  0
   -5.3537   -0.5053    1.5294 C   0  0  0  0  0  0  0  0  0  0  0  0
   -5.6569    0.8807    1.6865 C   0  0  0  0  0  0  0  0  0  0  0  0
   -6.8673    1.5964    1.8117 C   0  0  0  0  0  0  0  0  0  0  0  0
   -6.8385    2.9820    1.9832 C   0  0  0  0  0  0  0  0  0  0  0  0
   -5.6241    3.6600    2.0031 C   0  0  0  0  0  0  0  0  0  0  0  0
   -4.4101    2.9768    1.8635 C   0  0  0  0  0  0  0  0  0  0  0  0
   -4.4454    1.5788    1.7204 C   0  0  0  0  0  0  0  0  0  0  0  0
   -0.1644    1.4049   -0.0295 O   0  0  0  0  0  0  0  0  0  0  0  0
   -2.4986   -0.7191   -0.7022 H   0  0  0  0  0  0  0  0  0  0  0  0
   -1.8244    0.2935   -1.9732 H   0  0  0  0  0  0  0  0  0  0  0  0
   -2.0932    2.0169   -0.4255 H   0  0  0  0  0  0  0  0  0  0  0  0
   -1.8066    1.8361    2.0333 H   0  0  0  0  0  0  0  0  0  0  0  0
   -1.4449    0.1401    1.9352 H   0  0  0  0  0  0  0  0  0  0  0  0
   -2.2705   -2.0117    1.6865 H   0  0  0  0  0  0  0  0  0  0  0  0
   -3.6886   -4.0169    1.3996 H   0  0  0  0  0  0  0  0  0  0  0  0
   -6.1361   -3.8054    1.1496 H   0  0  0  0  0  0  0  0  0  0  0  0
   -7.2248   -1.5829    1.2986 H   0  0  0  0  0  0  0  0  0  0  0  0
   -7.8175    1.0695    1.8050 H   0  0  0  0  0  0  0  0  0  0  0  0
   -7.7709    3.5277    2.1071 H   0  0  0  0  0  0  0  0  0  0  0  0
   -5.6206    4.7405    2.1380 H   0  0  0  0  0  0  0  0  0  0  0  0
   -3.4753    3.5273    1.8888 H   0  0  0  0  0  0  0  0  0  0  0  0
  1  2  2  0  0  0  0
  2  3  1  0  0  0  0
  2 20  1  0  0  0  0
  3  4  1  0  0  0  0
  4  5  1  0  0  0  0
  4 21  1  0  0  0  0
  4 22  1  0  0  0  0
  5  6  1  0  0  0  0
  5 20  1  0  0  0  0
  5 23  1  0  0  0  0
  6  7  1  0  0  0  0
  6 24  1  0  0  0  0
  6 25  1  0  0  0  0
  7  8  1  0  0  0  0
  7 19  1  0  0  0  0
  8  9  1  0  0  0  0
  8 13  2  0  0  0  0
  9 10  2  0  0  0  0
  9 26  1  0  0  0  0
 10 11  1  0  0  0  0
 10 27  1  0  0  0  0
 11 12  2  0  0  0  0
 11 28  1  0  0  0  0
 12 13  1  0  0  0  0
 12 29  1  0  0  0  0
 13 14  1  0  0  0  0
 14 15  1  0  0  0  0
 14 19  2  0  0  0  0
 15 16  2  0  0  0  0
 15 30  1  0  0  0  0
 16 17  1  0  0  0  0
 16 31  1  0  0  0  0
 17 18  2  0  0  0  0
 17 32  1  0  0  0  0
 18 19  1  0  0  0  0
 18 33  1  0  0  0  0
M  END
>  <Energy>
16.0314

$$$$

 OpenBabel04232616063D

 29 30  0  0  0  0  0  0  0  0999 V2000
    1.1962    0.1209   -0.3412 C   0  0  0  0  0  0  0  0  0  0  0  0
    2.5081    0.0526   -0.0977 C   0  0  0  0  0  0  0  0  0  0  0  0
    3.3039   -1.1401    0.1256 C   0  0  0  0  0  0  0  0  0  0  0  0
    2.8199   -2.5438   -0.0452 C   0  0  0  0  0  0  0  0  0  0  0  0
    4.5822   -0.7947    0.3649 C   0  0  0  0  0  0  0  0  0  0  0  0
    5.7510   -1.7561    0.5062 C   0  0  0  0  0  0  0  0  0  0  0  0
    6.7206   -2.5537    0.6233 N   0  0  0  0  0  0  0  0  0  0  0  0
    4.6988    0.6631    0.2008 C   0  0  0  0  0  0  0  0  0  0  0  0
    5.7297    1.3031    0.2869 O   0  0  0  0  0  0  0  0  0  0  0  0
    3.3995    1.1099   -0.0902 N   0  0  0  0  0  0  0  0  0  0  0  0
    3.1504    2.4644   -0.4090 C   0  0  0  0  0  0  0  0  0  0  0  0
    2.3081    3.2041    0.4369 C   0  0  0  0  0  0  0  0  0  0  0  0
    2.1026    4.5673    0.2216 C   0  0  0  0  0  0  0  0  0  0  0  0
    2.7331    5.2050   -0.8410 C   0  0  0  0  0  0  0  0  0  0  0  0
    3.5440    4.4724   -1.7062 C   0  0  0  0  0  0  0  0  0  0  0  0
    3.7516    3.0906   -1.5173 C   0  0  0  0  0  0  0  0  0  0  0  0
    4.5364    2.3592   -2.5816 C   0  0  0  0  0  0  0  0  0  0  0  0
    4.5486    1.0001   -2.4799 F   0  0  0  0  0  0  0  0  0  0  0  0
    4.0263    2.6038   -3.8271 F   0  0  0  0  0  0  0  0  0  0  0  0
    5.8385    2.7472   -2.6441 F   0  0  0  0  0  0  0  0  0  0  0  0
    0.5625   -0.7588   -0.3550 H   0  0  0  0  0  0  0  0  0  0  0  0
    0.6955    1.0623   -0.5365 H   0  0  0  0  0  0  0  0  0  0  0  0
    1.7574   -2.6042   -0.2913 H   0  0  0  0  0  0  0  0  0  0  0  0
    2.9828   -3.1270    0.8660 H   0  0  0  0  0  0  0  0  0  0  0  0
    3.3597   -3.0280   -0.8683 H   0  0  0  0  0  0  0  0  0  0  0  0
    1.8372    2.7308    1.2962 H   0  0  0  0  0  0  0  0  0  0  0  0
    1.4654    5.1358    0.8946 H   0  0  0  0  0  0  0  0  0  0  0  0
    2.5893    6.2708   -1.0031 H   0  0  0  0  0  0  0  0  0  0  0  0
    4.0107    4.9789   -2.5514 H   0  0  0  0  0  0  0  0  0  0  0  0
  1  2  2  0  0  0  0
  1 21  1  0  0  0  0
  1 22  1  0  0  0  0
  2  3  1  0  0  0  0
  2 10  1  0  0  0  0
  3  4  1  0  0  0  0
  3  5  2  0  0  0  0
  4 23  1  0  0  0  0
  4 24  1  0  0  0  0
  4 25  1  0  0  0  0
  5  6  1  0  0  0  0
  5  8  1  0  0  0  0
  6  7  3  0  0  0  0
  8  9  2  0  0  0  0
  8 10  1  0  0  0  0
 10 11  1  0  0  0  0
 11 12  1  0  0  0  0
 11 16  2  0  0  0  0
 12 13  2  0  0  0  0
 12 26  1  0  0  0  0
 13 14  1  0  0  0  0
 13 27  1  0  0  0  0
 14 15  2  0  0  0  0
 14 28  1  0  0  0  0
 15 16  1  0  0  0  0
 15 29  1  0  0  0  0
 16 17  1  0  0  0  0
 17 18  1  0  0  0  0
 17 19  1  0  0  0  0
 17 20  1  0  0  0  0
M  END
>  <Energy>
201.995

$$$$

 OpenBabel04232616063D

 26 27  0  0  0  0  0  0  0  0999 V2000
    1.0868    0.0122   -0.0072 C   0  0  0  0  0  0  0  0  0  0  0  0
    2.5812   -0.0995   -0.0304 C   0  0  0  0  0  0  0  0  0  0  0  0
    3.1963   -1.3312   -0.0483 C   0  0  0  0  0  0  0  0  0  0  0  0
    4.5643   -1.2976   -0.0532 C   0  0  0  0  0  0  0  0  0  0  0  0
    5.3044   -2.4440   -0.0698 O   0  0  0  0  0  0  0  0  0  0  0  0
    5.2848   -0.1779   -0.0312 N   0  0  0  0  0  0  0  0  0  0  0  0
    4.6213    0.9811   -0.0055 C   0  0  0  0  0  0  0  0  0  0  0  0
    5.2955    2.2002    0.0907 N   0  0  0  0  0  0  0  0  0  0  0  0
    6.6267    2.4886    0.4276 C   0  0  0  0  0  0  0  0  0  0  0  0
    6.9378    3.7593    0.9384 C   0  0  0  0  0  0  0  0  0  0  0  0
    8.2360    4.0786    1.3513 C   0  0  0  0  0  0  0  0  0  0  0  0
    9.2527    3.1333    1.2473 C   0  0  0  0  0  0  0  0  0  0  0  0
    8.9669    1.8821    0.7140 C   0  0  0  0  0  0  0  0  0  0  0  0
   10.3412    0.5906    0.5606 Br  0  0  0  0  0  0  0  0  0  0  0  0
    7.6714    1.5646    0.3010 C   0  0  0  0  0  0  0  0  0  0  0  0
    3.2783    1.0574   -0.0147 N   0  0  0  0  0  0  0  0  0  0  0  0
    0.6066   -0.9718   -0.0081 H   0  0  0  0  0  0  0  0  0  0  0  0
    0.7396    0.5622   -0.8870 H   0  0  0  0  0  0  0  0  0  0  0  0
    0.7684    0.5439    0.8949 H   0  0  0  0  0  0  0  0  0  0  0  0
    2.6359   -2.2538   -0.0528 H   0  0  0  0  0  0  0  0  0  0  0  0
    4.7026   -3.2025   -0.0644 H   0  0  0  0  0  0  0  0  0  0  0  0
    4.6173    2.9363    0.2188 H   0  0  0  0  0  0  0  0  0  0  0  0
    6.1601    4.5124    1.0428 H   0  0  0  0  0  0  0  0  0  0  0  0
    8.4484    5.0609    1.7650 H   0  0  0  0  0  0  0  0  0  0  0  0
   10.2566    3.3776    1.5821 H   0  0  0  0  0  0  0  0  0  0  0  0
    7.4898    0.5810   -0.1225 H   0  0  0  0  0  0  0  0  0  0  0  0
  1  2  1  0  0  0  0
  1 17  1  0  0  0  0
  1 18  1  0  0  0  0
  1 19  1  0  0  0  0
  2  3  1  0  0  0  0
  2 16  2  0  0  0  0
  3  4  2  0  0  0  0
  3 20  1  0  0  0  0
  4  5  1  0  0  0  0
  4  6  1  0  0  0  0
  5 21  1  0  0  0  0
  6  7  2  0  0  0  0
  7  8  1  0  0  0  0
  7 16  1  0  0  0  0
  8  9  1  0  0  0  0
  8 22  1  0  0  0  0
  9 10  1  0  0  0  0
  9 15  2  0  0  0  0
 10 11  2  0  0  0  0
 10 23  1  0  0  0  0
 11 12  1  0  0  0  0
 11 24  1  0  0  0  0
 12 13  2  0  0  0  0
 12 25  1  0  0  0  0
 13 14  1  0  0  0  0
 13 15  1  0  0  0  0
 15 26  1  0  0  0  0
M  END
>  <Energy>
-77.7184

$$$$

 OpenBabel04232616063D

 29 31  0  0  0  0  0  0  0  0999 V2000
   -3.0726    0.0040   -0.0480 N   0  0  0  0  0  0  0  0  0  0  0  0
   -1.9147   -0.0032   -0.0263 C   0  0  0  0  0  0  0  0  0  0  0  0
   -0.4783   -0.0096    0.0116 C   0  0  0  0  0  0  0  0  0  0  0  0
    0.2043   -1.0292    0.6830 C   0  0  0  0  0  0  0  0  0  0  0  0
    1.6046   -1.0331    0.7247 C   0  0  0  0  0  0  0  0  0  0  0  0
    2.3362   -0.0245    0.0856 C   0  0  0  0  0  0  0  0  0  0  0  0
    3.8030   -0.0565    0.0896 C   0  0  0  0  0  0  0  0  0  0  0  0
    4.5427   -0.6765   -0.8400 C   0  0  0  0  0  0  0  0  0  0  0  0
    4.0706   -1.4127   -2.0419 C   0  0  0  0  0  0  0  0  0  0  0  0
    2.9414   -1.5704   -2.4533 O   0  0  0  0  0  0  0  0  0  0  0  0
    5.2818   -1.9328   -2.6798 C   0  0  0  0  0  0  0  0  0  0  0  0
    5.3533   -2.7039   -3.8254 C   0  0  0  0  0  0  0  0  0  0  0  0
    6.6194   -3.1021   -4.2565 C   0  0  0  0  0  0  0  0  0  0  0  0
    7.7734   -2.7256   -3.5411 C   0  0  0  0  0  0  0  0  0  0  0  0
    7.6814   -1.9421   -2.3829 C   0  0  0  0  0  0  0  0  0  0  0  0
    6.4180   -1.5538   -1.9693 C   0  0  0  0  0  0  0  0  0  0  0  0
    6.0334   -0.7449   -0.8004 C   0  0  0  0  0  0  0  0  0  0  0  0
    6.7829   -0.2532    0.0163 O   0  0  0  0  0  0  0  0  0  0  0  0
    1.6507    0.9947   -0.5852 C   0  0  0  0  0  0  0  0  0  0  0  0
    0.2498    1.0044   -0.6208 C   0  0  0  0  0  0  0  0  0  0  0  0
   -0.3465   -1.8324    1.1695 H   0  0  0  0  0  0  0  0  0  0  0  0
    2.1141   -1.8384    1.2492 H   0  0  0  0  0  0  0  0  0  0  0  0
    4.2813    0.4536    0.9230 H   0  0  0  0  0  0  0  0  0  0  0  0
    4.4532   -2.9874   -4.3624 H   0  0  0  0  0  0  0  0  0  0  0  0
    6.7135   -3.7112   -5.1543 H   0  0  0  0  0  0  0  0  0  0  0  0
    8.7488   -3.0528   -3.8984 H   0  0  0  0  0  0  0  0  0  0  0  0
    8.5709   -1.6540   -1.8297 H   0  0  0  0  0  0  0  0  0  0  0  0
    2.1994    1.7818   -1.0982 H   0  0  0  0  0  0  0  0  0  0  0  0
   -0.2633    1.8001   -1.1558 H   0  0  0  0  0  0  0  0  0  0  0  0
  1  2  3  0  0  0  0
  2  3  1  0  0  0  0
  3  4  1  0  0  0  0
  3 20  2  0  0  0  0
  4  5  2  0  0  0  0
  4 21  1  0  0  0  0
  5  6  1  0  0  0  0
  5 22  1  0  0  0  0
  6  7  1  0  0  0  0
  6 19  2  0  0  0  0
  7  8  2  0  0  0  0
  7 23  1  0  0  0  0
  8  9  1  0  0  0  0
  8 17  1  0  0  0  0
  9 10  2  0  0  0  0
  9 11  1  0  0  0  0
 11 12  1  0  0  0  0
 11 16  2  0  0  0  0
 12 13  2  0  0  0  0
 12 24  1  0  0  0  0
 13 14  1  0  0  0  0
 13 25  1  0  0  0  0
 14 15  2  0  0  0  0
 14 26  1  0  0  0  0
 15 16  1  0  0  0  0
 15 27  1  0  0  0  0
 16 17  1  0  0  0  0
 17 18  2  0  0  0  0
 19 20  1  0  0  0  0
 19 28  1  0  0  0  0
 20 29  1  0  0  0  0
M  END
>  <Energy>
77.6719

$$$$

 OpenBabel04232616063D

 36 37  0  0  0  0  0  0  0  0999 V2000
    2.6632   -1.0921    0.4995 O   0  0  0  0  0  0  0  0  0  0  0  0
    2.2491   -0.0878   -0.0725 C   0  0  0  0  0  0  0  0  0  0  0  0
    0.8910    0.0879   -0.2205 N   0  0  0  0  0  0  0  0  0  0  0  0
    0.2036    1.1299   -0.8228 C   0  0  0  0  0  0  0  0  0  0  0  0
    0.7491    2.0929   -1.3573 O   0  0  0  0  0  0  0  0  0  0  0  0
   -1.2859    1.0259   -0.8390 C   0  0  0  0  0  0  0  0  0  0  0  0
   -2.0056    0.3521    0.1583 C   0  0  0  0  0  0  0  0  0  0  0  0
   -3.4027    0.2823    0.0887 C   0  0  0  0  0  0  0  0  0  0  0  0
   -4.0813    0.8903   -0.9671 C   0  0  0  0  0  0  0  0  0  0  0  0
   -5.7968    0.7943   -1.0491 Cl  0  0  0  0  0  0  0  0  0  0  0  0
   -3.3776    1.5802   -1.9510 C   0  0  0  0  0  0  0  0  0  0  0  0
   -1.9825    1.6528   -1.8838 C   0  0  0  0  0  0  0  0  0  0  0  0
    3.0378    0.8905   -0.5997 N   0  0  0  0  0  0  0  0  0  0  0  0
    4.4956    0.9224   -0.5802 C   0  0  0  0  0  0  0  0  0  0  0  0
    5.1266   -0.2692   -1.3162 C   0  0  0  0  0  0  0  0  0  0  0  0
    6.6535   -0.2110   -1.2866 C   0  0  0  0  0  0  0  0  0  0  0  0
    7.1780   -0.0922    0.1407 C   0  0  0  0  0  0  0  0  0  0  0  0
    6.5875    1.1271    0.8413 C   0  0  0  0  0  0  0  0  0  0  0  0
    5.0592    1.0920    0.8375 C   0  0  0  0  0  0  0  0  0  0  0  0
    0.3804   -0.7060    0.1337 H   0  0  0  0  0  0  0  0  0  0  0  0
   -1.5094   -0.0996    1.0125 H   0  0  0  0  0  0  0  0  0  0  0  0
   -3.9572   -0.2399    0.8651 H   0  0  0  0  0  0  0  0  0  0  0  0
   -3.9050    2.0643   -2.7694 H   0  0  0  0  0  0  0  0  0  0  0  0
   -1.4404    2.1993   -2.6544 H   0  0  0  0  0  0  0  0  0  0  0  0
    2.5473    1.6712   -1.0300 H   0  0  0  0  0  0  0  0  0  0  0  0
    4.7561    1.8276   -1.1451 H   0  0  0  0  0  0  0  0  0  0  0  0
    4.7836   -0.2859   -2.3578 H   0  0  0  0  0  0  0  0  0  0  0  0
    4.8039   -1.2163   -0.8687 H   0  0  0  0  0  0  0  0  0  0  0  0
    6.9998    0.6474   -1.8755 H   0  0  0  0  0  0  0  0  0  0  0  0
    7.0672   -1.1092   -1.7587 H   0  0  0  0  0  0  0  0  0  0  0  0
    8.2714   -0.0199    0.1288 H   0  0  0  0  0  0  0  0  0  0  0  0
    6.9230   -0.9989    0.7033 H   0  0  0  0  0  0  0  0  0  0  0  0
    6.9345    2.0385    0.3382 H   0  0  0  0  0  0  0  0  0  0  0  0
    6.9541    1.1743    1.8729 H   0  0  0  0  0  0  0  0  0  0  0  0
    4.6759    2.0202    1.2789 H   0  0  0  0  0  0  0  0  0  0  0  0
    4.7194    0.2765    1.4868 H   0  0  0  0  0  0  0  0  0  0  0  0
  1  2  2  0  0  0  0
  2  3  1  0  0  0  0
  2 13  1  0  0  0  0
  3  4  1  0  0  0  0
  3 20  1  0  0  0  0
  4  5  2  0  0  0  0
  4  6  1  0  0  0  0
  6  7  1  0  0  0  0
  6 12  2  0  0  0  0
  7  8  2  0  0  0  0
  7 21  1  0  0  0  0
  8  9  1  0  0  0  0
  8 22  1  0  0  0  0
  9 10  1  0  0  0  0
  9 11  2  0  0  0  0
 11 12  1  0  0  0  0
 11 23  1  0  0  0  0
 12 24  1  0  0  0  0
 13 14  1  0  0  0  0
 13 25  1  0  0  0  0
 14 15  1  0  0  0  0
 14 19  1  0  0  0  0
 14 26  1  0  0  0  0
 15 16  1  0  0  0  0
 15 27  1  0  0  0  0
 15 28  1  0  0  0  0
 16 17  1  0  0  0  0
 16 29  1  0  0  0  0
 16 30  1  0  0  0  0
 17 18  1  0  0  0  0
 17 31  1  0  0  0  0
 17 32  1  0  0  0  0
 18 19  1  0  0  0  0
 18 33  1  0  0  0  0
 18 34  1  0  0  0  0
 19 35  1  0  0  0  0
 19 36  1  0  0  0  0
M  END
>  <Energy>
-66.2814

$$$$

 OpenBabel04232616063D

 37 39  0  0  0  0  0  0  0  0999 V2000
    0.8939   -0.0395    0.3101 C   0  0  0  0  0  0  0  0  0  0  0  0
    2.3471    0.3601    0.3117 C   0  0  0  0  0  0  0  0  0  0  0  0
    2.6921    1.4832   -0.0419 O   0  0  0  0  0  0  0  0  0  0  0  0
    3.1646   -0.6649    0.7440 N   0  0  0  0  0  0  0  0  0  0  0  0
    4.5704   -0.6378    0.8788 C   0  0  0  0  0  0  0  0  0  0  0  0
    5.3421    0.5349    0.7851 C   0  0  0  0  0  0  0  0  0  0  0  0
    6.7429    0.4986    0.8827 C   0  0  0  0  0  0  0  0  0  0  0  0
    7.3618   -0.7227    1.0693 C   0  0  0  0  0  0  0  0  0  0  0  0
    6.5862   -1.8939    1.1881 C   0  0  0  0  0  0  0  0  0  0  0  0
    5.2025   -1.8652    1.1073 C   0  0  0  0  0  0  0  0  0  0  0  0
    7.4764   -3.1021    1.3813 C   0  0  0  0  0  0  0  0  0  0  0  0
    8.8533   -2.4772    1.3655 C   0  0  0  0  0  0  0  0  0  0  0  0
   10.0757   -3.1247    1.4956 C   0  0  0  0  0  0  0  0  0  0  0  0
   11.2462   -2.3832    1.3907 C   0  0  0  0  0  0  0  0  0  0  0  0
   12.5560   -2.8893    1.4485 N   0  0  0  0  0  0  0  0  0  0  0  0
   13.1410   -4.1120    1.5626 C   0  0  0  0  0  0  0  0  0  0  0  0
   12.3939   -5.4106    1.6594 C   0  0  0  0  0  0  0  0  0  0  0  0
   14.3741   -4.1345    1.5993 O   0  0  0  0  0  0  0  0  0  0  0  0
   11.1450   -0.9804    1.1947 C   0  0  0  0  0  0  0  0  0  0  0  0
    9.9086   -0.3259    1.0900 C   0  0  0  0  0  0  0  0  0  0  0  0
    8.7605   -1.0826    1.1673 C   0  0  0  0  0  0  0  0  0  0  0  0
    0.3124    0.6955   -0.2550 H   0  0  0  0  0  0  0  0  0  0  0  0
    0.5234   -0.0756    1.3381 H   0  0  0  0  0  0  0  0  0  0  0  0
    0.7640   -1.0161   -0.1660 H   0  0  0  0  0  0  0  0  0  0  0  0
    2.7233   -1.5602    0.9084 H   0  0  0  0  0  0  0  0  0  0  0  0
    4.8748    1.5036    0.6407 H   0  0  0  0  0  0  0  0  0  0  0  0
    7.3154    1.4174    0.8024 H   0  0  0  0  0  0  0  0  0  0  0  0
    4.6402   -2.7902    1.1901 H   0  0  0  0  0  0  0  0  0  0  0  0
    7.3624   -3.7973    0.5465 H   0  0  0  0  0  0  0  0  0  0  0  0
    7.2789   -3.5837    2.3424 H   0  0  0  0  0  0  0  0  0  0  0  0
   10.0505   -4.1839    1.6906 H   0  0  0  0  0  0  0  0  0  0  0  0
   13.2892   -2.1941    1.3832 H   0  0  0  0  0  0  0  0  0  0  0  0
   11.4171   -5.4046    1.1927 H   0  0  0  0  0  0  0  0  0  0  0  0
   12.3237   -5.7077    2.7097 H   0  0  0  0  0  0  0  0  0  0  0  0
   12.9660   -6.1716    1.1172 H   0  0  0  0  0  0  0  0  0  0  0  0
   12.0436   -0.3748    1.1164 H   0  0  0  0  0  0  0  0  0  0  0  0
    9.8644    0.7484    0.9308 H   0  0  0  0  0  0  0  0  0  0  0  0
  1  2  1  0  0  0  0
  1 22  1  0  0  0  0
  1 23  1  0  0  0  0
  1 24  1  0  0  0  0
  2  3  2  0  0  0  0
  2  4  1  0  0  0  0
  4  5  1  0  0  0  0
  4 25  1  0  0  0  0
  5  6  1  0  0  0  0
  5 10  2  0  0  0  0
  6  7  2  0  0  0  0
  6 26  1  0  0  0  0
  7  8  1  0  0  0  0
  7 27  1  0  0  0  0
  8  9  2  0  0  0  0
  8 21  1  0  0  0  0
  9 10  1  0  0  0  0
  9 11  1  0  0  0  0
 10 28  1  0  0  0  0
 11 12  1  0  0  0  0
 11 29  1  0  0  0  0
 11 30  1  0  0  0  0
 12 13  1  0  0  0  0
 12 21  2  0  0  0  0
 13 14  2  0  0  0  0
 13 31  1  0  0  0  0
 14 15  1  0  0  0  0
 14 19  1  0  0  0  0
 15 16  1  0  0  0  0
 15 32  1  0  0  0  0
 16 17  1  0  0  0  0
 16 18  2  0  0  0  0
 17 33  1  0  0  0  0
 17 34  1  0  0  0  0
 17 35  1  0  0  0  0
 19 20  2  0  0  0  0
 19 36  1  0  0  0  0
 20 21  1  0  0  0  0
 20 37  1  0  0  0  0
M  END
>  <Energy>
23.6759

$$$$

 OpenBabel04232616063D

 36 38  0  0  0  0  0  0  0  0999 V2000
    1.0661    0.4906   -0.0586 C   0  0  0  0  0  0  0  0  0  0  0  0
    2.4204    0.0548    0.0230 O   0  0  0  0  0  0  0  0  0  0  0  0
    2.9936   -0.3086   -1.1662 C   0  0  0  0  0  0  0  0  0  0  0  0
    2.6366    0.2078   -2.4108 C   0  0  0  0  0  0  0  0  0  0  0  0
    3.2888   -0.2330   -3.5628 C   0  0  0  0  0  0  0  0  0  0  0  0
    2.8944    0.2725   -4.7694 O   0  0  0  0  0  0  0  0  0  0  0  0
    4.3117   -1.1886   -3.4807 C   0  0  0  0  0  0  0  0  0  0  0  0
    5.0457   -1.6803   -4.6862 C   0  0  0  0  0  0  0  0  0  0  0  0
    4.8834   -1.1920   -5.8016 O   0  0  0  0  0  0  0  0  0  0  0  0
    6.0295   -2.7944   -4.4945 C   0  0  0  0  0  0  0  0  0  0  0  0
    6.7517   -3.3549   -5.6405 C   0  0  0  0  0  0  0  0  0  0  0  0
    6.2411   -4.4524   -6.3411 C   0  0  0  0  0  0  0  0  0  0  0  0
    6.8976   -4.9259   -7.4805 C   0  0  0  0  0  0  0  0  0  0  0  0
    8.0697   -4.3070   -7.9314 C   0  0  0  0  0  0  0  0  0  0  0  0
    8.7668   -4.7784   -9.1724 C   0  0  0  0  0  0  0  0  0  0  0  0
    8.5905   -3.2243   -7.2131 C   0  0  0  0  0  0  0  0  0  0  0  0
    7.9351   -2.7499   -6.0760 C   0  0  0  0  0  0  0  0  0  0  0  0
    6.2604   -3.2172   -3.2428 C   0  0  0  0  0  0  0  0  0  0  0  0
    5.6427   -2.7229   -2.1274 N   0  0  0  0  0  0  0  0  0  0  0  0
    4.6824   -1.7037   -2.2226 C   0  0  0  0  0  0  0  0  0  0  0  0
    4.0223   -1.2500   -1.0739 C   0  0  0  0  0  0  0  0  0  0  0  0
    0.6909    0.6145    0.9612 H   0  0  0  0  0  0  0  0  0  0  0  0
    0.4427   -0.2589   -0.5590 H   0  0  0  0  0  0  0  0  0  0  0  0
    0.9877    1.4621   -0.5568 H   0  0  0  0  0  0  0  0  0  0  0  0
    1.8599    0.9587   -2.4976 H   0  0  0  0  0  0  0  0  0  0  0  0
    2.2047    0.9432   -4.6558 H   0  0  0  0  0  0  0  0  0  0  0  0
    5.3125   -4.9229   -6.0267 H   0  0  0  0  0  0  0  0  0  0  0  0
    6.4722   -5.7644   -8.0269 H   0  0  0  0  0  0  0  0  0  0  0  0
    8.1887   -5.5509   -9.6896 H   0  0  0  0  0  0  0  0  0  0  0  0
    9.7460   -5.1956   -8.9182 H   0  0  0  0  0  0  0  0  0  0  0  0
    8.9010   -3.9436   -9.8687 H   0  0  0  0  0  0  0  0  0  0  0  0
    9.4956   -2.7253   -7.5505 H   0  0  0  0  0  0  0  0  0  0  0  0
    8.3324   -1.8829   -5.5537 H   0  0  0  0  0  0  0  0  0  0  0  0
    6.9827   -4.0025   -3.0325 H   0  0  0  0  0  0  0  0  0  0  0  0
    5.9954   -2.9884   -1.2149 H   0  0  0  0  0  0  0  0  0  0  0  0
    4.2888   -1.6436   -0.0965 H   0  0  0  0  0  0  0  0  0  0  0  0
  1  2  1  0  0  0  0
  1 22  1  0  0  0  0
  1 23  1  0  0  0  0
  1 24  1  0  0  0  0
  2  3  1  0  0  0  0
  3  4  1  0  0  0  0
  3 21  2  0  0  0  0
  4  5  2  0  0  0  0
  4 25  1  0  0  0  0
  5  6  1  0  0  0  0
  5  7  1  0  0  0  0
  6 26  1  0  0  0  0
  7  8  1  0  0  0  0
  7 20  2  0  0  0  0
  8  9  2  0  0  0  0
  8 10  1  0  0  0  0
 10 11  1  0  0  0  0
 10 18  2  0  0  0  0
 11 12  1  0  0  0  0
 11 17  2  0  0  0  0
 12 13  2  0  0  0  0
 12 27  1  0  0  0  0
 13 14  1  0  0  0  0
 13 28  1  0  0  0  0
 14 15  1  0  0  0  0
 14 16  2  0  0  0  0
 15 29  1  0  0  0  0
 15 30  1  0  0  0  0
 15 31  1  0  0  0  0
 16 17  1  0  0  0  0
 16 32  1  0  0  0  0
 17 33  1  0  0  0  0
 18 19  1  0  0  0  0
 18 34  1  0  0  0  0
 19 20  1  0  0  0  0
 19 35  1  0  0  0  0
 20 21  1  0  0  0  0
 21 36  1  0  0  0  0
M  END
>  <Energy>
92.7904

$$$$

 OpenBabel04232616063D

 36 37  0  0  0  0  0  0  0  0999 V2000
    2.7056    2.9545    0.3842 O   0  0  0  0  0  0  0  0  0  0  0  0
    2.2565    1.8575    0.7051 C   0  0  0  0  0  0  0  0  0  0  0  0
    0.9155    1.5603    0.8627 N   0  0  0  0  0  0  0  0  0  0  0  0
   -0.1623    2.4445    0.5961 C   0  0  0  0  0  0  0  0  0  0  0  0
   -0.0067    3.6036   -0.1732 C   0  0  0  0  0  0  0  0  0  0  0  0
   -1.0801    4.4685   -0.3977 C   0  0  0  0  0  0  0  0  0  0  0  0
   -2.3333    4.1781    0.1297 C   0  0  0  0  0  0  0  0  0  0  0  0
   -2.5165    3.0172    0.8794 C   0  0  0  0  0  0  0  0  0  0  0  0
   -1.4388    2.1538    1.1081 C   0  0  0  0  0  0  0  0  0  0  0  0
   -1.7189    0.7342    2.0584 Cl  0  0  0  0  0  0  0  0  0  0  0  0
    3.0672    0.7583    1.0044 N   0  0  0  0  0  0  0  0  0  0  0  0
    4.4924    0.8512    0.9415 N   0  0  0  0  0  0  0  0  0  0  0  0
    4.9693    1.2269   -0.3968 C   0  0  0  0  0  0  0  0  0  0  0  0
    6.3155    0.5712   -0.7156 C   0  0  0  0  0  0  0  0  0  0  0  0
    7.5331    1.2243   -0.0700 C   0  0  0  0  0  0  0  0  0  0  0  0
    7.4723    1.3558    1.4476 C   0  0  0  0  0  0  0  0  0  0  0  0
    6.3819    2.3143    1.9069 C   0  0  0  0  0  0  0  0  0  0  0  0
    5.0010    1.6726    2.0520 C   0  0  0  0  0  0  0  0  0  0  0  0
    0.6919    0.7520    1.4274 H   0  0  0  0  0  0  0  0  0  0  0  0
    0.9462    3.8659   -0.6230 H   0  0  0  0  0  0  0  0  0  0  0  0
   -0.9247    5.3697   -0.9864 H   0  0  0  0  0  0  0  0  0  0  0  0
   -3.1649    4.8571   -0.0445 H   0  0  0  0  0  0  0  0  0  0  0  0
   -3.4990    2.7948    1.2870 H   0  0  0  0  0  0  0  0  0  0  0  0
    2.6698   -0.1665    0.9060 H   0  0  0  0  0  0  0  0  0  0  0  0
    5.0119    2.3127   -0.5436 H   0  0  0  0  0  0  0  0  0  0  0  0
    4.2636    0.8459   -1.1480 H   0  0  0  0  0  0  0  0  0  0  0  0
    6.4610    0.5994   -1.8033 H   0  0  0  0  0  0  0  0  0  0  0  0
    6.2833   -0.4921   -0.4450 H   0  0  0  0  0  0  0  0  0  0  0  0
    7.6871    2.2158   -0.5149 H   0  0  0  0  0  0  0  0  0  0  0  0
    8.4192    0.6331   -0.3321 H   0  0  0  0  0  0  0  0  0  0  0  0
    8.4379    1.7542    1.7835 H   0  0  0  0  0  0  0  0  0  0  0  0
    7.3556    0.3738    1.9195 H   0  0  0  0  0  0  0  0  0  0  0  0
    6.3283    3.1823    1.2382 H   0  0  0  0  0  0  0  0  0  0  0  0
    6.6612    2.7126    2.8912 H   0  0  0  0  0  0  0  0  0  0  0  0
    4.3107    2.4933    2.2865 H   0  0  0  0  0  0  0  0  0  0  0  0
    5.0099    1.0344    2.9448 H   0  0  0  0  0  0  0  0  0  0  0  0
  1  2  2  0  0  0  0
  2  3  1  0  0  0  0
  2 11  1  0  0  0  0
  3  4  1  0  0  0  0
  3 19  1  0  0  0  0
  4  5  1  0  0  0  0
  4  9  2  0  0  0  0
  5  6  2  0  0  0  0
  5 20  1  0  0  0  0
  6  7  1  0  0  0  0
  6 21  1  0  0  0  0
  7  8  2  0  0  0  0
  7 22  1  0  0  0  0
  8  9  1  0  0  0  0
  8 23  1  0  0  0  0
  9 10  1  0  0  0  0
 11 12  1  0  0  0  0
 11 24  1  0  0  0  0
 12 13  1  0  0  0  0
 12 18  1  0  0  0  0
 13 14  1  0  0  0  0
 13 25  1  0  0  0  0
 13 26  1  0  0  0  0
 14 15  1  0  0  0  0
 14 27  1  0  0  0  0
 14 28  1  0  0  0  0
 15 16  1  0  0  0  0
 15 29  1  0  0  0  0
 15 30  1  0  0  0  0
 16 17  1  0  0  0  0
 16 31  1  0  0  0  0
 16 32  1  0  0  0  0
 17 18  1  0  0  0  0
 17 33  1  0  0  0  0
 17 34  1  0  0  0  0
 18 35  1  0  0  0  0
 18 36  1  0  0  0  0
M  END
>  <Energy>
26.0504

$$$$

 OpenBabel04232616063D

 36 38  0  0  0  0  0  0  0  0999 V2000
    2.8842    0.0246    0.1348 C   0  0  0  0  0  0  0  0  0  0  0  0
    1.3877    0.0704    0.0512 C   0  0  0  0  0  0  0  0  0  0  0  0
    0.7013    1.2853    0.0113 C   0  0  0  0  0  0  0  0  0  0  0  0
   -0.6956    1.3051   -0.0081 C   0  0  0  0  0  0  0  0  0  0  0  0
   -1.4428    0.1149    0.0047 C   0  0  0  0  0  0  0  0  0  0  0  0
   -2.9389    0.2081    0.1236 C   0  0  0  0  0  0  0  0  0  0  0  0
   -0.7543   -1.1167   -0.0148 C   0  0  0  0  0  0  0  0  0  0  0  0
   -1.4289   -2.3751   -0.0519 N   0  0  0  0  0  0  0  0  0  0  0  0
   -2.1962   -2.7732   -1.1370 C   0  0  0  0  0  0  0  0  0  0  0  0
   -2.3015   -1.9155   -2.3838 C   0  0  0  0  0  0  0  0  0  0  0  0
   -2.8210   -3.9085   -1.1979 N   0  0  0  0  0  0  0  0  0  0  0  0
   -2.6682   -4.8233   -0.1544 C   0  0  0  0  0  0  0  0  0  0  0  0
   -3.2947   -6.0682   -0.2534 C   0  0  0  0  0  0  0  0  0  0  0  0
   -3.1084   -7.0411    0.7327 C   0  0  0  0  0  0  0  0  0  0  0  0
   -2.2968   -6.7711    1.8332 C   0  0  0  0  0  0  0  0  0  0  0  0
   -1.6762   -5.5280    1.9478 C   0  0  0  0  0  0  0  0  0  0  0  0
   -1.8645   -4.5629    0.9494 C   0  0  0  0  0  0  0  0  0  0  0  0
   -1.2013   -3.2467    1.0223 C   0  0  0  0  0  0  0  0  0  0  0  0
   -0.5076   -3.0053    2.0095 O   0  0  0  0  0  0  0  0  0  0  0  0
    0.6536   -1.1199    0.0332 C   0  0  0  0  0  0  0  0  0  0  0  0
    3.3200    1.0282    0.1158 H   0  0  0  0  0  0  0  0  0  0  0  0
    3.2949   -0.5361   -0.7128 H   0  0  0  0  0  0  0  0  0  0  0  0
    3.1930   -0.4587    1.0673 H   0  0  0  0  0  0  0  0  0  0  0  0
    1.2456    2.2258    0.0209 H   0  0  0  0  0  0  0  0  0  0  0  0
   -1.1992    2.2688   -0.0010 H   0  0  0  0  0  0  0  0  0  0  0  0
   -3.2593    1.2400    0.3057 H   0  0  0  0  0  0  0  0  0  0  0  0
   -3.2932   -0.3915    0.9681 H   0  0  0  0  0  0  0  0  0  0  0  0
   -3.4349   -0.1200   -0.7905 H   0  0  0  0  0  0  0  0  0  0  0  0
   -1.6562   -1.0395   -2.3909 H   0  0  0  0  0  0  0  0  0  0  0  0
   -3.3420   -1.6047   -2.5171 H   0  0  0  0  0  0  0  0  0  0  0  0
   -2.0256   -2.5301   -3.2491 H   0  0  0  0  0  0  0  0  0  0  0  0
   -3.9175   -6.2854   -1.1177 H   0  0  0  0  0  0  0  0  0  0  0  0
   -3.5896   -8.0109    0.6339 H   0  0  0  0  0  0  0  0  0  0  0  0
   -2.1431   -7.5294    2.5975 H   0  0  0  0  0  0  0  0  0  0  0  0
   -1.0400   -5.3156    2.8045 H   0  0  0  0  0  0  0  0  0  0  0  0
    1.1883   -2.0689    0.0621 H   0  0  0  0  0  0  0  0  0  0  0  0
  1  2  1  0  0  0  0
  1 21  1  0  0  0  0
  1 22  1  0  0  0  0
  1 23  1  0  0  0  0
  2  3  1  0  0  0  0
  2 20  2  0  0  0  0
  3  4  2  0  0  0  0
  3 24  1  0  0  0  0
  4  5  1  0  0  0  0
  4 25  1  0  0  0  0
  5  6  1  0  0  0  0
  5  7  2  0  0  0  0
  6 26  1  0  0  0  0
  6 27  1  0  0  0  0
  6 28  1  0  0  0  0
  7  8  1  0  0  0  0
  7 20  1  0  0  0  0
  8  9  1  0  0  0  0
  8 18  1  0  0  0  0
  9 10  1  0  0  0  0
  9 11  2  0  0  0  0
 10 29  1  0  0  0  0
 10 30  1  0  0  0  0
 10 31  1  0  0  0  0
 11 12  1  0  0  0  0
 12 13  1  0  0  0  0
 12 17  2  0  0  0  0
 13 14  2  0  0  0  0
 13 32  1  0  0  0  0
 14 15  1  0  0  0  0
 14 33  1  0  0  0  0
 15 16  2  0  0  0  0
 15 34  1  0  0  0  0
 16 17  1  0  0  0  0
 16 35  1  0  0  0  0
 17 18  1  0  0  0  0
 18 19  2  0  0  0  0
 20 36  1  0  0  0  0
M  END
>  <Energy>
59.8504

$$$$

 OpenBabel04232616063D

 36 38  0  0  0  0  0  0  0  0999 V2000
    2.5430    1.1049   -0.0620 C   0  0  0  0  0  0  0  0  0  0  0  0
    1.2574    0.3310   -0.0601 C   0  0  0  0  0  0  0  0  0  0  0  0
    1.1856   -0.9524   -0.6080 C   0  0  0  0  0  0  0  0  0  0  0  0
   -0.0206   -1.6545   -0.6044 C   0  0  0  0  0  0  0  0  0  0  0  0
   -1.1700   -1.0814   -0.0429 C   0  0  0  0  0  0  0  0  0  0  0  0
   -2.3771   -1.8268   -0.0525 N   0  0  0  0  0  0  0  0  0  0  0  0
   -2.7203   -2.6646    0.9958 C   0  0  0  0  0  0  0  0  0  0  0  0
   -1.7794   -2.8497    2.1687 C   0  0  0  0  0  0  0  0  0  0  0  0
   -3.8342   -3.3263    1.0454 N   0  0  0  0  0  0  0  0  0  0  0  0
   -4.7697   -3.1456    0.0224 C   0  0  0  0  0  0  0  0  0  0  0  0
   -6.0196   -3.7581    0.1408 C   0  0  0  0  0  0  0  0  0  0  0  0
   -7.0106   -3.5466   -0.8211 C   0  0  0  0  0  0  0  0  0  0  0  0
   -6.7510   -2.7331   -1.9235 C   0  0  0  0  0  0  0  0  0  0  0  0
   -5.4994   -2.1339   -2.0633 C   0  0  0  0  0  0  0  0  0  0  0  0
   -4.5200   -2.3389   -1.0838 C   0  0  0  0  0  0  0  0  0  0  0  0
   -3.2114   -1.6656   -1.1621 C   0  0  0  0  0  0  0  0  0  0  0  0
   -2.9423   -1.0073   -2.1663 O   0  0  0  0  0  0  0  0  0  0  0  0
   -1.1186    0.2104    0.5134 C   0  0  0  0  0  0  0  0  0  0  0  0
   -2.3139    0.9006    1.1086 C   0  0  0  0  0  0  0  0  0  0  0  0
    0.1019    0.9060    0.4881 C   0  0  0  0  0  0  0  0  0  0  0  0
    3.3635    0.5203   -0.4909 H   0  0  0  0  0  0  0  0  0  0  0  0
    2.8228    1.3724    0.9622 H   0  0  0  0  0  0  0  0  0  0  0  0
    2.4331    2.0186   -0.6548 H   0  0  0  0  0  0  0  0  0  0  0  0
    2.0666   -1.4130   -1.0503 H   0  0  0  0  0  0  0  0  0  0  0  0
   -0.0625   -2.6464   -1.0486 H   0  0  0  0  0  0  0  0  0  0  0  0
   -0.9326   -2.1660    2.1861 H   0  0  0  0  0  0  0  0  0  0  0  0
   -1.4018   -3.8764    2.1577 H   0  0  0  0  0  0  0  0  0  0  0  0
   -2.3471   -2.7046    3.0942 H   0  0  0  0  0  0  0  0  0  0  0  0
   -6.2264   -4.3879    1.0027 H   0  0  0  0  0  0  0  0  0  0  0  0
   -7.9878   -4.0086   -0.7020 H   0  0  0  0  0  0  0  0  0  0  0  0
   -7.5254   -2.5577   -2.6665 H   0  0  0  0  0  0  0  0  0  0  0  0
   -5.2968   -1.4930   -2.9189 H   0  0  0  0  0  0  0  0  0  0  0  0
   -3.1746    0.2375    1.2261 H   0  0  0  0  0  0  0  0  0  0  0  0
   -2.6166    1.7384    0.4725 H   0  0  0  0  0  0  0  0  0  0  0  0
   -2.0664    1.2812    2.1061 H   0  0  0  0  0  0  0  0  0  0  0  0
    0.1518    1.9143    0.8979 H   0  0  0  0  0  0  0  0  0  0  0  0
  1  2  1  0  0  0  0
  1 21  1  0  0  0  0
  1 22  1  0  0  0  0
  1 23  1  0  0  0  0
  2  3  1  0  0  0  0
  2 20  2  0  0  0  0
  3  4  2  0  0  0  0
  3 24  1  0  0  0  0
  4  5  1  0  0  0  0
  4 25  1  0  0  0  0
  5  6  1  0  0  0  0
  5 18  2  0  0  0  0
  6  7  1  0  0  0  0
  6 16  1  0  0  0  0
  7  8  1  0  0  0  0
  7  9  2  0  0  0  0
  8 26  1  0  0  0  0
  8 27  1  0  0  0  0
  8 28  1  0  0  0  0
  9 10  1  0  0  0  0
 10 11  1  0  0  0  0
 10 15  2  0  0  0  0
 11 12  2  0  0  0  0
 11 29  1  0  0  0  0
 12 13  1  0  0  0  0
 12 30  1  0  0  0  0
 13 14  2  0  0  0  0
 13 31  1  0  0  0  0
 14 15  1  0  0  0  0
 14 32  1  0  0  0  0
 15 16  1  0  0  0  0
 16 17  2  0  0  0  0
 18 19  1  0  0  0  0
 18 20  1  0  0  0  0
 19 33  1  0  0  0  0
 19 34  1  0  0  0  0
 19 35  1  0  0  0  0
 20 36  1  0  0  0  0
M  END
>  <Energy>
60.4631

$$$$

 OpenBabel04232616063D

 33 35  0  0  0  0  0  0  0  0999 V2000
    0.9676   -0.0586   -0.2833 C   0  0  0  0  0  0  0  0  0  0  0  0
    2.4364   -0.2092   -0.0248 C   0  0  0  0  0  0  0  0  0  0  0  0
    2.9048   -0.7537    0.9651 O   0  0  0  0  0  0  0  0  0  0  0  0
    3.1437    0.4021   -1.0607 O   0  0  0  0  0  0  0  0  0  0  0  0
    4.5513    0.3618   -1.0587 C   0  0  0  0  0  0  0  0  0  0  0  0
    5.2125    1.5073   -1.5136 C   0  0  0  0  0  0  0  0  0  0  0  0
    6.6113    1.5268   -1.5784 C   0  0  0  0  0  0  0  0  0  0  0  0
    7.3452    0.4007   -1.1916 C   0  0  0  0  0  0  0  0  0  0  0  0
    8.7982    0.3595   -1.2451 C   0  0  0  0  0  0  0  0  0  0  0  0
    9.4577   -0.7397   -0.8414 C   0  0  0  0  0  0  0  0  0  0  0  0
   10.9248   -0.7707   -0.9425 C   0  0  0  0  0  0  0  0  0  0  0  0
   11.7249   -0.2653    0.0889 C   0  0  0  0  0  0  0  0  0  0  0  0
   13.1167   -0.3396   -0.0021 C   0  0  0  0  0  0  0  0  0  0  0  0
   13.7142   -0.9136   -1.1240 C   0  0  0  0  0  0  0  0  0  0  0  0
   12.9233   -1.4104   -2.1587 C   0  0  0  0  0  0  0  0  0  0  0  0
   11.5329   -1.3391   -2.0707 C   0  0  0  0  0  0  0  0  0  0  0  0
    8.7351   -1.9336   -0.3213 C   0  0  0  0  0  0  0  0  0  0  0  0
    9.3226   -2.9272    0.0968 O   0  0  0  0  0  0  0  0  0  0  0  0
    7.3473   -1.8829   -0.3463 O   0  0  0  0  0  0  0  0  0  0  0  0
    6.6576   -0.7294   -0.7585 C   0  0  0  0  0  0  0  0  0  0  0  0
    5.2684   -0.7753   -0.7029 C   0  0  0  0  0  0  0  0  0  0  0  0
    0.4134   -0.6977    0.4106 H   0  0  0  0  0  0  0  0  0  0  0  0
    0.7300   -0.3786   -1.3011 H   0  0  0  0  0  0  0  0  0  0  0  0
    0.6718    0.9810   -0.1261 H   0  0  0  0  0  0  0  0  0  0  0  0
    4.6433    2.3824   -1.8154 H   0  0  0  0  0  0  0  0  0  0  0  0
    7.1141    2.4244   -1.9310 H   0  0  0  0  0  0  0  0  0  0  0  0
    9.3235    1.2281   -1.6309 H   0  0  0  0  0  0  0  0  0  0  0  0
   11.2726    0.1672    0.9784 H   0  0  0  0  0  0  0  0  0  0  0  0
   13.7347    0.0369    0.8089 H   0  0  0  0  0  0  0  0  0  0  0  0
   14.7974   -0.9836   -1.1868 H   0  0  0  0  0  0  0  0  0  0  0  0
   13.3893   -1.8681   -3.0283 H   0  0  0  0  0  0  0  0  0  0  0  0
   10.9279   -1.7474   -2.8767 H   0  0  0  0  0  0  0  0  0  0  0  0
    4.7745   -1.6844   -0.3762 H   0  0  0  0  0  0  0  0  0  0  0  0
  1  2  1  0  0  0  0
  1 22  1  0  0  0  0
  1 23  1  0  0  0  0
  1 24  1  0  0  0  0
  2  3  2  0  0  0  0
  2  4  1  0  0  0  0
  4  5  1  0  0  0  0
  5  6  1  0  0  0  0
  5 21  2  0  0  0  0
  6  7  2  0  0  0  0
  6 25  1  0  0  0  0
  7  8  1  0  0  0  0
  7 26  1  0  0  0  0
  8  9  1  0  0  0  0
  8 20  2  0  0  0  0
  9 10  2  0  0  0  0
  9 27  1  0  0  0  0
 10 11  1  0  0  0  0
 10 17  1  0  0  0  0
 11 12  1  0  0  0  0
 11 16  2  0  0  0  0
 12 13  2  0  0  0  0
 12 28  1  0  0  0  0
 13 14  1  0  0  0  0
 13 29  1  0  0  0  0
 14 15  2  0  0  0  0
 14 30  1  0  0  0  0
 15 16  1  0  0  0  0
 15 31  1  0  0  0  0
 16 32  1  0  0  0  0
 17 18  2  0  0  0  0
 17 19  1  0  0  0  0
 19 20  1  0  0  0  0
 20 21  1  0  0  0  0
 21 33  1  0  0  0  0
M  END
>  <Energy>
77.692

$$$$

 OpenBabel04232616063D

 32 35  0  0  0  0  0  0  0  0999 V2000
    1.1769    0.5744    0.1179 C   0  0  0  0  0  0  0  0  0  0  0  0
    2.6040    0.1855    0.0721 C   0  0  0  0  0  0  0  0  0  0  0  0
    3.5879    1.0940    0.2064 N   0  0  0  0  0  0  0  0  0  0  0  0
    4.7671    0.3930    0.0525 N   0  0  0  0  0  0  0  0  0  0  0  0
    6.0088    1.0764    0.0494 C   0  0  0  0  0  0  0  0  0  0  0  0
    6.1178    2.3001    0.7277 C   0  0  0  0  0  0  0  0  0  0  0  0
    7.3345    2.9857    0.7449 C   0  0  0  0  0  0  0  0  0  0  0  0
    8.4310    2.4775    0.0510 C   0  0  0  0  0  0  0  0  0  0  0  0
    8.3177    1.2760   -0.6477 C   0  0  0  0  0  0  0  0  0  0  0  0
    7.1141    0.5650   -0.6374 C   0  0  0  0  0  0  0  0  0  0  0  0
    4.5027   -0.9374   -0.0811 C   0  0  0  0  0  0  0  0  0  0  0  0
    3.1390   -1.0858   -0.0586 C   0  0  0  0  0  0  0  0  0  0  0  0
    2.8463   -2.4806   -0.1098 C   0  0  0  0  0  0  0  0  0  0  0  0
    1.6341   -3.1334   -0.0776 C   0  0  0  0  0  0  0  0  0  0  0  0
    1.6610   -4.5322   -0.0560 C   0  0  0  0  0  0  0  0  0  0  0  0
    2.8839   -5.2403   -0.0635 C   0  0  0  0  0  0  0  0  0  0  0  0
    4.1108   -4.5692   -0.1025 C   0  0  0  0  0  0  0  0  0  0  0  0
    4.0681   -3.1903   -0.1296 C   0  0  0  0  0  0  0  0  0  0  0  0
    5.1880   -2.1957   -0.1254 C   0  0  0  0  0  0  0  0  0  0  0  0
    6.3762   -2.4619   -0.1310 O   0  0  0  0  0  0  0  0  0  0  0  0
    1.0488    1.6604    0.1304 H   0  0  0  0  0  0  0  0  0  0  0  0
    0.6977    0.1581    1.0094 H   0  0  0  0  0  0  0  0  0  0  0  0
    0.6542    0.1840   -0.7626 H   0  0  0  0  0  0  0  0  0  0  0  0
    5.2723    2.7107    1.2763 H   0  0  0  0  0  0  0  0  0  0  0  0
    7.4250    3.9161    1.2997 H   0  0  0  0  0  0  0  0  0  0  0  0
    9.3733    3.0196    0.0506 H   0  0  0  0  0  0  0  0  0  0  0  0
    9.1672    0.8919   -1.2074 H   0  0  0  0  0  0  0  0  0  0  0  0
    7.0570   -0.3536   -1.2143 H   0  0  0  0  0  0  0  0  0  0  0  0
    0.6923   -2.5941   -0.0525 H   0  0  0  0  0  0  0  0  0  0  0  0
    0.7248   -5.0853   -0.0189 H   0  0  0  0  0  0  0  0  0  0  0  0
    2.8668   -6.3286   -0.0284 H   0  0  0  0  0  0  0  0  0  0  0  0
    5.0542   -5.1041   -0.0930 H   0  0  0  0  0  0  0  0  0  0  0  0
  1  2  1  0  0  0  0
  1 21  1  0  0  0  0
  1 22  1  0  0  0  0
  1 23  1  0  0  0  0
  2  3  2  0  0  0  0
  2 12  1  0  0  0  0
  3  4  1  0  0  0  0
  4  5  1  0  0  0  0
  4 11  1  0  0  0  0
  5  6  1  0  0  0  0
  5 10  2  0  0  0  0
  6  7  2  0  0  0  0
  6 24  1  0  0  0  0
  7  8  1  0  0  0  0
  7 25  1  0  0  0  0
  8  9  2  0  0  0  0
  8 26  1  0  0  0  0
  9 10  1  0  0  0  0
  9 27  1  0  0  0  0
 10 28  1  0  0  0  0
 11 12  2  0  0  0  0
 11 19  1  0  0  0  0
 12 13  1  0  0  0  0
 13 14  1  0  0  0  0
 13 18  2  0  0  0  0
 14 15  2  0  0  0  0
 14 29  1  0  0  0  0
 15 16  1  0  0  0  0
 15 30  1  0  0  0  0
 16 17  2  0  0  0  0
 16 31  1  0  0  0  0
 17 18  1  0  0  0  0
 17 32  1  0  0  0  0
 18 19  1  0  0  0  0
 19 20  2  0  0  0  0
M  END
>  <Energy>
85.4648

$$$$

 OpenBabel04232616063D

 34 36  0  0  0  0  0  0  0  0999 V2000
    3.2922    0.4538    1.2766 C   0  0  0  0  0  0  0  0  0  0  0  0
    2.5255   -0.0876    0.0822 C   0  0  0  0  0  0  0  0  0  0  0  0
    2.9753   -1.4783   -0.2769 C   0  0  0  0  0  0  0  0  0  0  0  0
    2.3178   -2.4935    0.3048 N   0  0  0  0  0  0  0  0  0  0  0  0
    2.6732   -3.7549   -0.0065 C   0  0  0  0  0  0  0  0  0  0  0  0
    1.7873   -5.0442    0.8044 S   0  0  0  0  0  0  0  0  0  0  0  0
    3.6999   -4.0085   -0.9251 C   0  0  0  0  0  0  0  0  0  0  0  0
    4.2885   -5.1838   -1.5176 C   0  0  0  0  0  0  0  0  0  0  0  0
    5.3417   -4.8784   -2.3595 C   0  0  0  0  0  0  0  0  0  0  0  0
    5.5955   -3.2036   -2.4945 S   0  0  0  0  0  0  0  0  0  0  0  0
    4.3163   -2.8655   -1.4177 C   0  0  0  0  0  0  0  0  0  0  0  0
    3.9989   -1.5915   -1.1309 N   0  0  0  0  0  0  0  0  0  0  0  0
    6.1448   -5.8683   -3.1412 C   0  0  0  0  0  0  0  0  0  0  0  0
    5.8452   -7.2062   -2.6949 O   0  0  0  0  0  0  0  0  0  0  0  0
    4.4487   -7.4986   -2.4768 C   0  0  0  0  0  0  0  0  0  0  0  0
    3.6309   -7.3356   -3.7690 C   0  0  0  0  0  0  0  0  0  0  0  0
    4.3726   -8.9687   -2.0403 C   0  0  0  0  0  0  0  0  0  0  0  0
    3.9030   -6.6179   -1.3236 C   0  0  0  0  0  0  0  0  0  0  0  0
    2.9310    1.4541    1.5354 H   0  0  0  0  0  0  0  0  0  0  0  0
    4.3636    0.5239    1.0602 H   0  0  0  0  0  0  0  0  0  0  0  0
    3.1680   -0.1902    2.1539 H   0  0  0  0  0  0  0  0  0  0  0  0
    2.6603    0.5744   -0.7806 H   0  0  0  0  0  0  0  0  0  0  0  0
    1.4531   -0.1031    0.3090 H   0  0  0  0  0  0  0  0  0  0  0  0
    0.9629   -4.2106    1.4520 H   0  0  0  0  0  0  0  0  0  0  0  0
    7.2175   -5.7107   -2.9920 H   0  0  0  0  0  0  0  0  0  0  0  0
    5.9352   -5.7967   -4.2137 H   0  0  0  0  0  0  0  0  0  0  0  0
    4.0581   -7.9440   -4.5742 H   0  0  0  0  0  0  0  0  0  0  0  0
    3.6232   -6.3035   -4.1327 H   0  0  0  0  0  0  0  0  0  0  0  0
    2.5886   -7.6378   -3.6202 H   0  0  0  0  0  0  0  0  0  0  0  0
    4.7845   -9.6279   -2.8126 H   0  0  0  0  0  0  0  0  0  0  0  0
    3.3403   -9.2738   -1.8373 H   0  0  0  0  0  0  0  0  0  0  0  0
    4.9670   -9.1414   -1.1359 H   0  0  0  0  0  0  0  0  0  0  0  0
    4.3361   -6.9413   -0.3680 H   0  0  0  0  0  0  0  0  0  0  0  0
    2.8168   -6.7352   -1.2654 H   0  0  0  0  0  0  0  0  0  0  0  0
  1  2  1  0  0  0  0
  1 19  1  0  0  0  0
  1 20  1  0  0  0  0
  1 21  1  0  0  0  0
  2  3  1  0  0  0  0
  2 22  1  0  0  0  0
  2 23  1  0  0  0  0
  3  4  1  0  0  0  0
  3 12  2  0  0  0  0
  4  5  2  0  0  0  0
  5  6  1  0  0  0  0
  5  7  1  0  0  0  0
  6 24  1  0  0  0  0
  7  8  1  0  0  0  0
  7 11  2  0  0  0  0
  8  9  2  0  0  0  0
  8 18  1  0  0  0  0
  9 10  1  0  0  0  0
  9 13  1  0  0  0  0
 10 11  1  0  0  0  0
 11 12  1  0  0  0  0
 13 14  1  0  0  0  0
 13 25  1  0  0  0  0
 13 26  1  0  0  0  0
 14 15  1  0  0  0  0
 15 16  1  0  0  0  0
 15 17  1  0  0  0  0
 15 18  1  0  0  0  0
 16 27  1  0  0  0  0
 16 28  1  0  0  0  0
 16 29  1  0  0  0  0
 17 30  1  0  0  0  0
 17 31  1  0  0  0  0
 17 32  1  0  0  0  0
 18 33  1  0  0  0  0
 18 34  1  0  0  0  0
M  END
>  <Energy>
19.4928

$$$$

 OpenBabel04232616063D

 37 39  0  0  0  0  0  0  0  0999 V2000
    3.6833   -0.0110    2.7681 C   0  0  0  0  0  0  0  0  0  0  0  0
    3.7027    0.0636    1.2714 C   0  0  0  0  0  0  0  0  0  0  0  0
    3.6798   -1.1147    0.4911 C   0  0  0  0  0  0  0  0  0  0  0  0
    3.6971   -1.0727   -0.9073 C   0  0  0  0  0  0  0  0  0  0  0  0
    3.7417    0.1477   -1.5775 C   0  0  0  0  0  0  0  0  0  0  0  0
    3.7622    0.2344   -2.9384 O   0  0  0  0  0  0  0  0  0  0  0  0
    3.7682    1.3000   -0.8026 C   0  0  0  0  0  0  0  0  0  0  0  0
    3.8155    2.6283   -1.1378 N   0  0  0  0  0  0  0  0  0  0  0  0
    3.8330    3.3760    0.0164 C   0  0  0  0  0  0  0  0  0  0  0  0
    3.8867    4.8414    0.0295 C   0  0  0  0  0  0  0  0  0  0  0  0
    3.3512    5.5514    1.1052 C   0  0  0  0  0  0  0  0  0  0  0  0
    3.3786    6.9573    1.1305 C   0  0  0  0  0  0  0  0  0  0  0  0
    3.9426    7.7162    0.0932 C   0  0  0  0  0  0  0  0  0  0  0  0
    3.9237    9.1052    0.0700 N   0  0  0  0  0  0  0  0  0  0  0  0
    5.0287    9.8579   -0.5249 C   0  0  0  0  0  0  0  0  0  0  0  0
    3.1040    9.8821    0.9968 C   0  0  0  0  0  0  0  0  0  0  0  0
    4.4811    6.9767   -0.9737 C   0  0  0  0  0  0  0  0  0  0  0  0
    4.4632    5.5725   -1.0089 C   0  0  0  0  0  0  0  0  0  0  0  0
    3.7655    2.5817    1.0704 N   0  0  0  0  0  0  0  0  0  0  0  0
    3.7448    1.2934    0.5827 C   0  0  0  0  0  0  0  0  0  0  0  0
    3.6604   -1.0466    3.1226 H   0  0  0  0  0  0  0  0  0  0  0  0
    2.7962    0.5001    3.1573 H   0  0  0  0  0  0  0  0  0  0  0  0
    4.5784    0.4669    3.1791 H   0  0  0  0  0  0  0  0  0  0  0  0
    3.6476   -2.0847    0.9852 H   0  0  0  0  0  0  0  0  0  0  0  0
    3.6761   -2.0091   -1.4597 H   0  0  0  0  0  0  0  0  0  0  0  0
    3.7360   -0.6673   -3.3001 H   0  0  0  0  0  0  0  0  0  0  0  0
    3.8180    2.9805   -2.0800 H   0  0  0  0  0  0  0  0  0  0  0  0
    2.8958    5.0133    1.9352 H   0  0  0  0  0  0  0  0  0  0  0  0
    2.9494    7.4358    2.0054 H   0  0  0  0  0  0  0  0  0  0  0  0
    5.6783    9.2803   -1.1866 H   0  0  0  0  0  0  0  0  0  0  0  0
    5.6664   10.2771    0.2621 H   0  0  0  0  0  0  0  0  0  0  0  0
    4.6276   10.6912   -1.1130 H   0  0  0  0  0  0  0  0  0  0  0  0
    2.2517    9.3323    1.4054 H   0  0  0  0  0  0  0  0  0  0  0  0
    2.6790   10.7419    0.4658 H   0  0  0  0  0  0  0  0  0  0  0  0
    3.7104   10.2635    1.8257 H   0  0  0  0  0  0  0  0  0  0  0  0
    4.9012    7.4826   -1.8380 H   0  0  0  0  0  0  0  0  0  0  0  0
    4.9147    5.0765   -1.8627 H   0  0  0  0  0  0  0  0  0  0  0  0
  1  2  1  0  0  0  0
  1 21  1  0  0  0  0
  1 22  1  0  0  0  0
  1 23  1  0  0  0  0
  2  3  1  0  0  0  0
  2 20  2  0  0  0  0
  3  4  2  0  0  0  0
  3 24  1  0  0  0  0
  4  5  1  0  0  0  0
  4 25  1  0  0  0  0
  5  6  1  0  0  0  0
  5  7  2  0  0  0  0
  6 26  1  0  0  0  0
  7  8  1  0  0  0  0
  7 20  1  0  0  0  0
  8  9  1  0  0  0  0
  8 27  1  0  0  0  0
  9 10  1  0  0  0  0
  9 19  2  0  0  0  0
 10 11  1  0  0  0  0
 10 18  2  0  0  0  0
 11 12  2  0  0  0  0
 11 28  1  0  0  0  0
 12 13  1  0  0  0  0
 12 29  1  0  0  0  0
 13 14  1  0  0  0  0
 13 17  2  0  0  0  0
 14 15  1  0  0  0  0
 14 16  1  0  0  0  0
 15 30  1  0  0  0  0
 15 31  1  0  0  0  0
 15 32  1  0  0  0  0
 16 33  1  0  0  0  0
 16 34  1  0  0  0  0
 16 35  1  0  0  0  0
 17 18  1  0  0  0  0
 17 36  1  0  0  0  0
 18 37  1  0  0  0  0
 19 20  1  0  0  0  0
M  END
>  <Energy>
23.026

$$$$

 OpenBabel04232616063D

 29 31  0  0  0  0  0  0  0  0999 V2000
    1.6571   -1.3518    0.0433 O   0  0  0  0  0  0  0  0  0  0  0  0
    0.4806   -0.6577    0.0136 C   0  0  0  0  0  0  0  0  0  0  0  0
   -0.0829   -0.2819   -1.2016 C   0  0  0  0  0  0  0  0  0  0  0  0
   -1.2858    0.4318   -1.2144 C   0  0  0  0  0  0  0  0  0  0  0  0
   -1.9314    0.7778   -0.0152 C   0  0  0  0  0  0  0  0  0  0  0  0
   -3.1839    1.5279   -0.0122 C   0  0  0  0  0  0  0  0  0  0  0  0
   -3.5482    2.4218   -0.9990 C   0  0  0  0  0  0  0  0  0  0  0  0
   -5.0893    3.0790   -0.6596 S   0  0  0  0  0  0  0  0  0  0  0  0
   -5.1753    2.1364    0.7830 C   0  0  0  0  0  0  0  0  0  0  0  0
   -6.3459    2.2098    1.6669 C   0  0  0  0  0  0  0  0  0  0  0  0
   -6.2164    1.9486    3.0362 C   0  0  0  0  0  0  0  0  0  0  0  0
   -7.3277    2.0232    3.8759 C   0  0  0  0  0  0  0  0  0  0  0  0
   -8.5520    2.3491    3.3185 C   0  0  0  0  0  0  0  0  0  0  0  0
   -8.7304    2.5952    2.0047 N   0  0  0  0  0  0  0  0  0  0  0  0
   -7.6291    2.5158    1.2149 C   0  0  0  0  0  0  0  0  0  0  0  0
   -4.1008    1.4066    1.0235 N   0  0  0  0  0  0  0  0  0  0  0  0
   -1.3584    0.3780    1.2015 C   0  0  0  0  0  0  0  0  0  0  0  0
   -0.1561   -0.3314    1.2109 C   0  0  0  0  0  0  0  0  0  0  0  0
    0.4116   -0.7133    2.3948 O   0  0  0  0  0  0  0  0  0  0  0  0
    1.9602   -1.5071   -0.8635 H   0  0  0  0  0  0  0  0  0  0  0  0
    0.3923   -0.5367   -2.1437 H   0  0  0  0  0  0  0  0  0  0  0  0
   -1.7161    0.6972   -2.1770 H   0  0  0  0  0  0  0  0  0  0  0  0
   -3.0047    2.7236   -1.8822 H   0  0  0  0  0  0  0  0  0  0  0  0
   -5.2451    1.6916    3.4543 H   0  0  0  0  0  0  0  0  0  0  0  0
   -7.2385    1.8310    4.9394 H   0  0  0  0  0  0  0  0  0  0  0  0
   -9.4473    2.4205    3.9298 H   0  0  0  0  0  0  0  0  0  0  0  0
   -7.8377    2.7044    0.1649 H   0  0  0  0  0  0  0  0  0  0  0  0
   -1.8552    0.6315    2.1341 H   0  0  0  0  0  0  0  0  0  0  0  0
   -0.1657   -0.4399    3.1239 H   0  0  0  0  0  0  0  0  0  0  0  0
  1  2  1  0  0  0  0
  1 20  1  0  0  0  0
  2  3  1  0  0  0  0
  2 18  2  0  0  0  0
  3  4  2  0  0  0  0
  3 21  1  0  0  0  0
  4  5  1  0  0  0  0
  4 22  1  0  0  0  0
  5  6  1  0  0  0  0
  5 17  2  0  0  0  0
  6  7  2  0  0  0  0
  6 16  1  0  0  0  0
  7  8  1  0  0  0  0
  7 23  1  0  0  0  0
  8  9  1  0  0  0  0
  9 10  1  0  0  0  0
  9 16  2  0  0  0  0
 10 11  1  0  0  0  0
 10 15  2  0  0  0  0
 11 12  2  0  0  0  0
 11 24  1  0  0  0  0
 12 13  1  0  0  0  0
 12 25  1  0  0  0  0
 13 14  2  0  0  0  0
 13 26  1  0  0  0  0
 14 15  1  0  0  0  0
 15 27  1  0  0  0  0
 17 18  1  0  0  0  0
 17 28  1  0  0  0  0
 18 19  1  0  0  0  0
 19 29  1  0  0  0  0
M  END
>  <Energy>
50.2946

$$$$

 OpenBabel04232616063D

 35 38  0  0  0  0  0  0  0  0999 V2000
    1.5303    0.4955   -0.2985 C   0  0  0  0  0  0  0  0  0  0  0  0
    2.9614    0.6136    0.1395 C   0  0  0  0  0  0  0  0  0  0  0  0
    3.6643    1.7991   -0.1004 C   0  0  0  0  0  0  0  0  0  0  0  0
    5.0111    1.9002    0.2405 C   0  0  0  0  0  0  0  0  0  0  0  0
    5.6722    0.7989    0.7938 C   0  0  0  0  0  0  0  0  0  0  0  0
    7.1549    0.8422    0.9547 C   0  0  0  0  0  0  0  0  0  0  0  0
    7.7494    1.8898    0.7045 O   0  0  0  0  0  0  0  0  0  0  0  0
    7.7933   -0.3522    1.3331 N   0  0  0  0  0  0  0  0  0  0  0  0
    9.2424   -0.3736    1.2672 C   0  0  0  0  0  0  0  0  0  0  0  0
    7.0627   -1.4537    1.7314 C   0  0  0  0  0  0  0  0  0  0  0  0
    5.7167   -1.4869    1.6706 C   0  0  0  0  0  0  0  0  0  0  0  0
    4.9717   -0.3748    1.0999 C   0  0  0  0  0  0  0  0  0  0  0  0
    3.6058   -0.4513    0.7881 C   0  0  0  0  0  0  0  0  0  0  0  0
    5.1271   -2.7683    2.1811 C   0  0  0  0  0  0  0  0  0  0  0  0
    6.3714   -3.5208    2.5507 C   0  0  0  0  0  0  0  0  0  0  0  0
    6.4530   -4.7993    3.0893 C   0  0  0  0  0  0  0  0  0  0  0  0
    7.7185   -5.3258    3.3402 C   0  0  0  0  0  0  0  0  0  0  0  0
    8.8652   -4.5748    3.0553 C   0  0  0  0  0  0  0  0  0  0  0  0
    8.7669   -3.2821    2.5242 C   0  0  0  0  0  0  0  0  0  0  0  0
    7.5104   -2.7454    2.2696 C   0  0  0  0  0  0  0  0  0  0  0  0
    1.4144    0.8739   -1.3202 H   0  0  0  0  0  0  0  0  0  0  0  0
    0.8805    1.0664    0.3707 H   0  0  0  0  0  0  0  0  0  0  0  0
    1.1990   -0.5484   -0.3034 H   0  0  0  0  0  0  0  0  0  0  0  0
    3.1761    2.6406   -0.5900 H   0  0  0  0  0  0  0  0  0  0  0  0
    5.5547    2.8191    0.0316 H   0  0  0  0  0  0  0  0  0  0  0  0
    9.6469    0.5397    0.8211 H   0  0  0  0  0  0  0  0  0  0  0  0
    9.5584   -1.2059    0.6305 H   0  0  0  0  0  0  0  0  0  0  0  0
    9.6542   -0.4684    2.2755 H   0  0  0  0  0  0  0  0  0  0  0  0
    3.0458   -1.3583    0.9998 H   0  0  0  0  0  0  0  0  0  0  0  0
    4.5732   -3.3010    1.4020 H   0  0  0  0  0  0  0  0  0  0  0  0
    4.4974   -2.5998    3.0610 H   0  0  0  0  0  0  0  0  0  0  0  0
    5.5607   -5.3766    3.3074 H   0  0  0  0  0  0  0  0  0  0  0  0
    7.8172   -6.3250    3.7572 H   0  0  0  0  0  0  0  0  0  0  0  0
    9.8478   -5.0009    3.2505 H   0  0  0  0  0  0  0  0  0  0  0  0
    9.6791   -2.7390    2.3229 H   0  0  0  0  0  0  0  0  0  0  0  0
  1  2  1  0  0  0  0
  1 21  1  0  0  0  0
  1 22  1  0  0  0  0
  1 23  1  0  0  0  0
  2  3  1  0  0  0  0
  2 13  2  0  0  0  0
  3  4  2  0  0  0  0
  3 24  1  0  0  0  0
  4  5  1  0  0  0  0
  4 25  1  0  0  0  0
  5  6  1  0  0  0  0
  5 12  2  0  0  0  0
  6  7  2  0  0  0  0
  6  8  1  0  0  0  0
  8  9  1  0  0  0  0
  8 10  1  0  0  0  0
  9 26  1  0  0  0  0
  9 27  1  0  0  0  0
  9 28  1  0  0  0  0
 10 11  2  0  0  0  0
 10 20  1  0  0  0  0
 11 12  1  0  0  0  0
 11 14  1  0  0  0  0
 12 13  1  0  0  0  0
 13 29  1  0  0  0  0
 14 15  1  0  0  0  0
 14 30  1  0  0  0  0
 14 31  1  0  0  0  0
 15 16  1  0  0  0  0
 15 20  2  0  0  0  0
 16 17  2  0  0  0  0
 16 32  1  0  0  0  0
 17 18  1  0  0  0  0
 17 33  1  0  0  0  0
 18 19  2  0  0  0  0
 18 34  1  0  0  0  0
 19 20  1  0  0  0  0
 19 35  1  0  0  0  0
M  END
>  <Energy>
64.8338

$$$$

 OpenBabel04232616063D

 29 30  0  0  0  0  0  0  0  0999 V2000
    1.0827   -0.0024   -0.2572 C   0  0  0  0  0  0  0  0  0  0  0  0
    2.4094   -0.0509   -0.1025 C   0  0  0  0  0  0  0  0  0  0  0  0
    3.2336   -1.2263    0.0842 C   0  0  0  0  0  0  0  0  0  0  0  0
    2.7706   -2.6344   -0.0948 C   0  0  0  0  0  0  0  0  0  0  0  0
    4.4892   -0.8543    0.3830 C   0  0  0  0  0  0  0  0  0  0  0  0
    5.6108   -1.6781    0.5849 C   0  0  0  0  0  0  0  0  0  0  0  0
    6.5048   -2.4058    0.7347 N   0  0  0  0  0  0  0  0  0  0  0  0
    4.5402    0.6229    0.3633 C   0  0  0  0  0  0  0  0  0  0  0  0
    5.5495    1.2800    0.5525 O   0  0  0  0  0  0  0  0  0  0  0  0
    3.2489    1.0419    0.0088 N   0  0  0  0  0  0  0  0  0  0  0  0
    3.0138    2.3804   -0.3908 C   0  0  0  0  0  0  0  0  0  0  0  0
    3.4414    3.4471    0.4048 C   0  0  0  0  0  0  0  0  0  0  0  0
    3.2942    4.7622   -0.0381 C   0  0  0  0  0  0  0  0  0  0  0  0
    2.7720    5.0196   -1.3057 C   0  0  0  0  0  0  0  0  0  0  0  0
    2.3687    3.9635   -2.1345 C   0  0  0  0  0  0  0  0  0  0  0  0
    1.9070    4.2109   -3.5494 C   0  0  0  0  0  0  0  0  0  0  0  0
    1.9067    5.5260   -3.9037 F   0  0  0  0  0  0  0  0  0  0  0  0
    2.6922    3.5791   -4.4660 F   0  0  0  0  0  0  0  0  0  0  0  0
    0.6415    3.7617   -3.7709 F   0  0  0  0  0  0  0  0  0  0  0  0
    2.4577    2.6467   -1.6502 C   0  0  0  0  0  0  0  0  0  0  0  0
    0.4649   -0.8939   -0.2714 H   0  0  0  0  0  0  0  0  0  0  0  0
    0.5478    0.9401   -0.3089 H   0  0  0  0  0  0  0  0  0  0  0  0
    1.7163   -2.7064   -0.3739 H   0  0  0  0  0  0  0  0  0  0  0  0
    2.9054   -3.2074    0.8289 H   0  0  0  0  0  0  0  0  0  0  0  0
    3.3421   -3.1213   -0.8930 H   0  0  0  0  0  0  0  0  0  0  0  0
    3.8863    3.2639    1.3809 H   0  0  0  0  0  0  0  0  0  0  0  0
    3.6170    5.5853    0.5954 H   0  0  0  0  0  0  0  0  0  0  0  0
    2.7082    6.0495   -1.6549 H   0  0  0  0  0  0  0  0  0  0  0  0
    2.1751    1.8246   -2.3066 H   0  0  0  0  0  0  0  0  0  0  0  0
  1  2  2  0  0  0  0
  1 21  1  0  0  0  0
  1 22  1  0  0  0  0
  2  3  1  0  0  0  0
  2 10  1  0  0  0  0
  3  4  1  0  0  0  0
  3  5  2  0  0  0  0
  4 23  1  0  0  0  0
  4 24  1  0  0  0  0
  4 25  1  0  0  0  0
  5  6  1  0  0  0  0
  5  8  1  0  0  0  0
  6  7  3  0  0  0  0
  8  9  2  0  0  0  0
  8 10  1  0  0  0  0
 10 11  1  0  0  0  0
 11 12  1  0  0  0  0
 11 20  2  0  0  0  0
 12 13  2  0  0  0  0
 12 26  1  0  0  0  0
 13 14  1  0  0  0  0
 13 27  1  0  0  0  0
 14 15  2  0  0  0  0
 14 28  1  0  0  0  0
 15 16  1  0  0  0  0
 15 20  1  0  0  0  0
 16 17  1  0  0  0  0
 16 18  1  0  0  0  0
 16 19  1  0  0  0  0
 20 29  1  0  0  0  0
M  END
>  <Energy>
53.4399

$$$$
